MODEL 1
REMARK VINA RESULT:     -13.5      0.000      0.000
REMARK SMILES O=C(COc1ccccc1/C=N/N1[C@@H](S)N=N[C@H]1[C@@H]1C=C(c2ccccc2)N=N1)NCCCCNC(=O)c1ccc(-c2c3nc(c(-c4ccc(S(=O)(=O)[O-])cc4)c4ccc([nH]4)c(-c4ccc(S(=O)(=O)[O-])cc4)c4nc(c(-c5ccc(S(=O)(=O)[O-])cc5)c5ccc2[nH]5)C=C4)C=C3)cc1
REMARK SMILES IDX 31 1 30 2 1 3 2 4 3 6 4 7 5 8 6 9 10 10 7 11 9 12 8 13 11 14
REMARK SMILES IDX 12 15 13 16 14 17 18 18 16 19 17 20 15 21 19 23 20 24 29 25
REMARK SMILES IDX 21 26 28 27 22 28 23 29 27 30 24 31 26 32 25 33 32 34 33 35
REMARK SMILES IDX 34 36 35 37 36 38 37 40 38 41 39 42 97 43 40 44 96 45 41 46
REMARK SMILES IDX 42 47 43 48 90 49 44 50 95 51 89 52 91 53 45 54 94 55 88 56
REMARK SMILES IDX 87 57 46 59 76 60 57 61 75 62 58 63 61 64 74 65 92 66 59 67
REMARK SMILES IDX 60 68 73 70 93 71 62 72 47 73 48 74 56 75 49 76 55 77 50 78
REMARK SMILES IDX 51 79 52 80 53 81 54 82 77 83 78 84 86 85 79 86 85 87 80 88
REMARK SMILES IDX 81 89 82 90 83 91 84 92 63 93 64 94 72 95 65 96 71 97 66 98
REMARK SMILES IDX 67 99 68 100 69 101 70 102
REMARK H PARENT 30 5 15 22 35 39 91 58 61 69
REMARK Flexibility Score: inf
ROOT
ATOM      1  C   UNL A   1      34.101  31.629  27.731  1.00  0.00     0.116 C 
ENDROOT
BRANCH   1   2
ATOM      2  N   UNL A   1      32.921  31.142  26.766  1.00  0.00    -0.353 N 
ATOM      3  O   UNL A   1      33.114  29.119  25.484  1.00  0.00    -0.271 OA
ATOM      4  C   UNL A   1      32.518  30.127  25.846  1.00  0.00     0.257 C 
ATOM      5  H   UNL A   1      32.189  31.797  26.833  1.00  0.00     0.163 HD
BRANCH   4   6
ATOM      6  C   UNL A   1      31.144  30.134  25.163  1.00  0.00     0.329 C 
BRANCH   6   7
ATOM      7  O   UNL A   1      31.256  29.636  23.818  1.00  0.00    -0.483 OA
BRANCH   7   8
ATOM      8  C   UNL A   1      29.966  29.445  23.391  1.00  0.00     0.128 A 
ATOM      9  C   UNL A   1      29.157  30.587  23.457  1.00  0.00     0.047 A 
ATOM     10  C   UNL A   1      29.479  28.138  23.158  1.00  0.00     0.037 A 
ATOM     11  C   UNL A   1      27.791  30.437  23.360  1.00  0.00     0.004 A 
ATOM     12  C   UNL A   1      28.096  28.005  23.075  1.00  0.00     0.013 A 
ATOM     13  C   UNL A   1      27.264  29.154  23.172  1.00  0.00     0.001 A 
BRANCH  10  14
ATOM     14  C   UNL A   1      30.509  27.017  23.220  1.00  0.00     0.145 C 
ATOM     15  N   UNL A   1      31.347  26.786  24.212  1.00  0.00    -0.180 NA
BRANCH  15  16
ATOM     16  N   UNL A   1      32.543  26.144  23.756  1.00  0.00    -0.233 NA
ATOM     17  C   UNL A   1      32.969  26.426  22.377  1.00  0.00     0.298 C 
ATOM     18  C   UNL A   1      32.753  24.576  23.717  1.00  0.00     0.274 C 
ATOM     19  N   UNL A   1      33.969  25.393  21.994  1.00  0.00    -0.153 NA
ATOM     20  N   UNL A   1      33.896  24.391  22.758  1.00  0.00    -0.161 NA
BRANCH  17  21
ATOM     21  S   UNL A   1      33.523  28.153  22.173  1.00  0.00    -0.128 SA
ATOM     22  H   UNL A   1      34.509  28.206  21.238  1.00  0.00     0.106 HD
ENDBRANCH  17  21
BRANCH  18  23
ATOM     23  C   UNL A   1      32.851  23.135  24.856  1.00  0.00     0.202 C 
ATOM     24  C   UNL A   1      33.605  21.805  24.667  1.00  0.00     0.037 C 
ATOM     25  N   UNL A   1      31.525  22.523  25.304  1.00  0.00    -0.177 NA
ATOM     26  C   UNL A   1      32.791  20.758  24.824  1.00  0.00     0.091 C 
ATOM     27  N   UNL A   1      31.564  21.223  25.259  1.00  0.00    -0.155 NA
BRANCH  26  28
ATOM     28  C   UNL A   1      33.106  19.364  24.262  1.00  0.00     0.002 A 
ATOM     29  C   UNL A   1      34.171  18.572  24.758  1.00  0.00     0.010 A 
ATOM     30  C   UNL A   1      32.420  18.741  23.222  1.00  0.00     0.010 A 
ATOM     31  C   UNL A   1      34.698  17.414  24.164  1.00  0.00     0.001 A 
ATOM     32  C   UNL A   1      32.861  17.500  22.673  1.00  0.00     0.001 A 
ATOM     33  C   UNL A   1      34.033  16.871  23.098  1.00  0.00     0.000 A 
ENDBRANCH  26  28
ENDBRANCH  18  23
ENDBRANCH  15  16
ENDBRANCH  10  14
ENDBRANCH   7   8
ENDBRANCH   6   7
ENDBRANCH   4   6
ENDBRANCH   1   2
BRANCH   1  34
ATOM     34  C   UNL A   1      34.446  33.000  28.551  1.00  0.00     0.023 C 
BRANCH  34  35
ATOM     35  C   UNL A   1      33.495  34.139  29.044  1.00  0.00     0.023 C 
BRANCH  35  36
ATOM     36  C   UNL A   1      34.111  35.360  29.683  1.00  0.00     0.116 C 
BRANCH  36  37
ATOM     37  N   UNL A   1      34.010  35.329  31.136  1.00  0.00    -0.352 N 
ATOM     38  C   UNL A   1      34.472  34.342  31.984  1.00  0.00     0.251 C 
ATOM     39  H   UNL A   1      33.564  36.097  31.560  1.00  0.00     0.163 HD
ATOM     40  O   UNL A   1      33.998  34.177  33.086  1.00  0.00    -0.269 OA
BRANCH  38  41
ATOM     41  C   UNL A   1      35.565  33.490  31.482  1.00  0.00     0.039 A 
ATOM     42  C   UNL A   1      36.792  34.057  31.146  1.00  0.00     0.014 A 
ATOM     43  C   UNL A   1      35.366  32.107  31.463  1.00  0.00     0.014 A 
ATOM     44  C   UNL A   1      37.856  33.208  30.871  1.00  0.00     0.010 A 
ATOM     45  C   UNL A   1      36.446  31.272  31.304  1.00  0.00     0.010 A 
ATOM     46  C   UNL A   1      37.687  31.817  30.987  1.00  0.00    -0.014 A 
BRANCH  46  47
ATOM     47  C   UNL A   1      38.867  30.954  30.967  1.00  0.00     0.031 A 
ATOM     48  C   UNL A   1      39.461  30.739  32.314  1.00  0.00     0.074 A 
ATOM     49  C   UNL A   1      39.272  30.244  29.893  1.00  0.00     0.049 A 
ATOM     50  N   UNL A   1      40.540  31.266  32.791  1.00  0.00    -0.248 NA
ATOM     51  C   UNL A   1      38.663  30.009  33.316  1.00  0.00     0.031 C 
ATOM     52  C   UNL A   1      38.561  30.091  28.619  1.00  0.00     0.029 A 
ATOM     53  N   UNL A   1      40.344  29.414  29.743  1.00  0.00    -0.354 N 
ATOM     54  C   UNL A   1      40.706  30.682  34.044  1.00  0.00     0.074 A 
ATOM     55  C   UNL A   1      39.420  30.147  34.406  1.00  0.00     0.031 C 
ATOM     56  C   UNL A   1      39.081  29.052  27.932  1.00  0.00     0.029 A 
ATOM     57  C   UNL A   1      40.272  28.592  28.623  1.00  0.00     0.049 A 
ATOM     58  H   UNL A   1      41.102  29.399  30.372  1.00  0.00     0.167 HD
ATOM     59  C   UNL A   1      41.953  30.357  34.488  1.00  0.00     0.031 A 
ATOM     60  C   UNL A   1      41.120  27.594  28.274  1.00  0.00     0.031 A 
ATOM     61  C   UNL A   1      42.965  30.980  33.672  1.00  0.00     0.049 A 
ATOM     62  C   UNL A   1      42.413  27.850  28.946  1.00  0.00     0.074 A 
ATOM     63  C   UNL A   1      43.483  32.242  33.489  1.00  0.00     0.029 A 
ATOM     64  N   UNL A   1      43.315  30.230  32.580  1.00  0.00    -0.354 N 
ATOM     65  N   UNL A   1      43.156  28.889  28.682  1.00  0.00    -0.248 NA
ATOM     66  C   UNL A   1      42.741  27.141  30.177  1.00  0.00     0.031 C 
ATOM     67  C   UNL A   1      44.029  32.260  32.170  1.00  0.00     0.029 A 
ATOM     68  C   UNL A   1      43.879  30.998  31.599  1.00  0.00     0.049 A 
ATOM     69  H   UNL A   1      43.177  29.258  32.510  1.00  0.00     0.167 HD
ATOM     70  C   UNL A   1      43.736  29.211  29.893  1.00  0.00     0.074 A 
ATOM     71  C   UNL A   1      43.589  28.019  30.719  1.00  0.00     0.031 C 
ATOM     72  C   UNL A   1      43.974  30.508  30.237  1.00  0.00     0.031 A 
BRANCH  59  73
ATOM     73  C   UNL A   1      42.274  29.074  35.244  1.00  0.00    -0.014 A 
ATOM     74  C   UNL A   1      43.201  29.139  36.308  1.00  0.00     0.010 A 
ATOM     75  C   UNL A   1      41.943  27.784  34.781  1.00  0.00     0.010 A 
ATOM     76  C   UNL A   1      43.821  27.989  36.818  1.00  0.00     0.020 A 
ATOM     77  C   UNL A   1      42.531  26.628  35.302  1.00  0.00     0.020 A 
ATOM     78  C   UNL A   1      43.489  26.739  36.299  1.00  0.00     0.054 A 
BRANCH  78  79
ATOM     79  S   UNL A   1      44.352  25.264  36.893  1.00  0.00     0.124 S 
ATOM     80  O   UNL A   1      44.319  25.461  38.339  1.00  0.00    -0.237 OA
ATOM     81  O   UNL A   1      43.511  24.189  36.376  1.00  0.00    -0.237 OA
ATOM     82  O   UNL A   1      45.672  25.371  36.274  1.00  0.00    -0.744 OA
ENDBRANCH  78  79
ENDBRANCH  59  73
BRANCH  60  83
ATOM     83  C   UNL A   1      40.815  26.326  27.571  1.00  0.00    -0.014 A 
ATOM     84  C   UNL A   1      41.759  25.722  26.719  1.00  0.00     0.010 A 
ATOM     85  C   UNL A   1      39.701  25.558  27.966  1.00  0.00     0.010 A 
ATOM     86  C   UNL A   1      41.633  24.375  26.340  1.00  0.00     0.020 A 
ATOM     87  C   UNL A   1      39.564  24.219  27.586  1.00  0.00     0.020 A 
ATOM     88  C   UNL A   1      40.547  23.625  26.798  1.00  0.00     0.054 A 
BRANCH  88  89
ATOM     89  S   UNL A   1      40.489  21.837  26.477  1.00  0.00     0.124 S 
ATOM     90  O   UNL A   1      39.208  21.686  25.794  1.00  0.00    -0.237 OA
ATOM     91  O   UNL A   1      41.675  21.623  25.655  1.00  0.00    -0.237 OA
ATOM     92  O   UNL A   1      40.550  21.251  27.816  1.00  0.00    -0.744 OA
ENDBRANCH  88  89
ENDBRANCH  60  83
BRANCH  72  93
ATOM     93  C   UNL A   1      44.227  31.502  29.140  1.00  0.00    -0.014 A 
ATOM     94  C   UNL A   1      45.196  31.364  28.131  1.00  0.00     0.010 A 
ATOM     95  C   UNL A   1      43.376  32.621  29.109  1.00  0.00     0.010 A 
ATOM     96  C   UNL A   1      45.320  32.339  27.128  1.00  0.00     0.020 A 
ATOM     97  C   UNL A   1      43.479  33.582  28.107  1.00  0.00     0.020 A 
ATOM     98  C   UNL A   1      44.459  33.444  27.125  1.00  0.00     0.054 A 
BRANCH  98  99
ATOM     99  S   UNL A   1      44.606  34.696  25.821  1.00  0.00     0.124 S 
ATOM    100  O   UNL A   1      43.329  34.575  25.121  1.00  0.00    -0.237 OA
ATOM    101  O   UNL A   1      44.796  35.931  26.577  1.00  0.00    -0.237 OA
ATOM    102  O   UNL A   1      45.774  34.263  25.054  1.00  0.00    -0.744 OA
ENDBRANCH  98  99
ENDBRANCH  72  93
ENDBRANCH  46  47
ENDBRANCH  38  41
ENDBRANCH  36  37
ENDBRANCH  35  36
ENDBRANCH  34  35
ENDBRANCH   1  34
TORSDOF 21
ENDMDL
MODEL 2
REMARK VINA RESULT:     -13.1      2.602     10.060
REMARK SMILES O=C(COc1ccccc1/C=N/N1[C@@H](S)N=N[C@H]1[C@@H]1C=C(c2ccccc2)N=N1)NCCCCNC(=O)c1ccc(-c2c3nc(c(-c4ccc(S(=O)(=O)[O-])cc4)c4ccc([nH]4)c(-c4ccc(S(=O)(=O)[O-])cc4)c4nc(c(-c5ccc(S(=O)(=O)[O-])cc5)c5ccc2[nH]5)C=C4)C=C3)cc1
REMARK SMILES IDX 31 1 30 2 1 3 2 4 3 6 4 7 5 8 6 9 10 10 7 11 9 12 8 13 11 14
REMARK SMILES IDX 12 15 13 16 14 17 18 18 16 19 17 20 15 21 19 23 20 24 29 25
REMARK SMILES IDX 21 26 28 27 22 28 23 29 27 30 24 31 26 32 25 33 32 34 33 35
REMARK SMILES IDX 34 36 35 37 36 38 37 40 38 41 39 42 97 43 40 44 96 45 41 46
REMARK SMILES IDX 42 47 43 48 90 49 44 50 95 51 89 52 91 53 45 54 94 55 88 56
REMARK SMILES IDX 87 57 46 59 76 60 57 61 75 62 58 63 61 64 74 65 92 66 59 67
REMARK SMILES IDX 60 68 73 70 93 71 62 72 47 73 48 74 56 75 49 76 55 77 50 78
REMARK SMILES IDX 51 79 52 80 53 81 54 82 77 83 78 84 86 85 79 86 85 87 80 88
REMARK SMILES IDX 81 89 82 90 83 91 84 92 63 93 64 94 72 95 65 96 71 97 66 98
REMARK SMILES IDX 67 99 68 100 69 101 70 102
REMARK H PARENT 30 5 15 22 35 39 91 58 61 69
REMARK Flexibility Score: inf
ROOT
ATOM      1  C   UNL A   1      40.189  22.710  26.884  1.00  0.00     0.116 C 
ENDROOT
BRANCH   1   2
ATOM      2  N   UNL A   1      38.725  22.199  26.495  1.00  0.00    -0.353 N 
ATOM      3  O   UNL A   1      37.347  23.420  24.950  1.00  0.00    -0.271 OA
ATOM      4  C   UNL A   1      37.564  22.487  25.715  1.00  0.00     0.257 C 
ATOM      5  H   UNL A   1      38.560  21.359  26.983  1.00  0.00     0.163 HD
BRANCH   4   6
ATOM      6  C   UNL A   1      36.339  21.562  25.689  1.00  0.00     0.329 C 
BRANCH   6   7
ATOM      7  O   UNL A   1      35.466  21.925  24.606  1.00  0.00    -0.483 OA
BRANCH   7   8
ATOM      8  C   UNL A   1      34.447  21.006  24.634  1.00  0.00     0.128 A 
ATOM      9  C   UNL A   1      34.861  19.688  24.866  1.00  0.00     0.047 A 
ATOM     10  C   UNL A   1      33.149  21.369  24.206  1.00  0.00     0.037 A 
ATOM     11  C   UNL A   1      33.981  18.661  24.601  1.00  0.00     0.004 A 
ATOM     12  C   UNL A   1      32.279  20.318  23.931  1.00  0.00     0.013 A 
ATOM     13  C   UNL A   1      32.699  18.975  24.134  1.00  0.00     0.001 A 
BRANCH  10  14
ATOM     14  C   UNL A   1      32.927  22.848  23.915  1.00  0.00     0.145 C 
ATOM     15  N   UNL A   1      31.802  23.398  23.504  1.00  0.00    -0.180 NA
BRANCH  15  16
ATOM     16  N   UNL A   1      32.042  24.584  22.737  1.00  0.00    -0.233 NA
ATOM     17  C   UNL A   1      33.262  24.613  21.918  1.00  0.00     0.298 C 
ATOM     18  C   UNL A   1      32.176  26.033  23.356  1.00  0.00     0.274 C 
ATOM     19  N   UNL A   1      33.510  26.029  21.529  1.00  0.00    -0.153 NA
ATOM     20  N   UNL A   1      32.875  26.819  22.281  1.00  0.00    -0.161 NA
BRANCH  17  21
ATOM     21  S   UNL A   1      33.182  23.432  20.528  1.00  0.00    -0.128 SA
ATOM     22  H   UNL A   1      33.935  23.895  19.495  1.00  0.00     0.106 HD
ENDBRANCH  17  21
BRANCH  18  23
ATOM     23  C   UNL A   1      31.180  27.274  24.279  1.00  0.00     0.202 C 
ATOM     24  C   UNL A   1      29.949  28.069  23.804  1.00  0.00     0.037 C 
ATOM     25  N   UNL A   1      31.939  28.461  24.870  1.00  0.00    -0.177 NA
ATOM     26  C   UNL A   1      30.125  29.383  23.971  1.00  0.00     0.091 C 
ATOM     27  N   UNL A   1      31.306  29.579  24.662  1.00  0.00    -0.155 NA
BRANCH  26  28
ATOM     28  C   UNL A   1      29.319  30.438  23.199  1.00  0.00     0.002 A 
ATOM     29  C   UNL A   1      28.934  30.255  21.847  1.00  0.00     0.010 A 
ATOM     30  C   UNL A   1      28.900  31.664  23.709  1.00  0.00     0.010 A 
ATOM     31  C   UNL A   1      28.426  31.237  20.983  1.00  0.00     0.001 A 
ATOM     32  C   UNL A   1      28.268  32.641  22.882  1.00  0.00     0.001 A 
ATOM     33  C   UNL A   1      28.090  32.455  21.511  1.00  0.00     0.000 A 
ENDBRANCH  26  28
ENDBRANCH  18  23
ENDBRANCH  15  16
ENDBRANCH  10  14
ENDBRANCH   7   8
ENDBRANCH   6   7
ENDBRANCH   4   6
ENDBRANCH   1   2
BRANCH   1  34
ATOM     34  C   UNL A   1      41.620  21.998  27.229  1.00  0.00     0.023 C 
BRANCH  34  35
ATOM     35  C   UNL A   1      42.866  21.759  26.315  1.00  0.00     0.023 C 
BRANCH  35  36
ATOM     36  C   UNL A   1      43.052  22.649  25.110  1.00  0.00     0.116 C 
BRANCH  36  37
ATOM     37  N   UNL A   1      44.433  23.085  24.958  1.00  0.00    -0.352 N 
ATOM     38  C   UNL A   1      44.927  24.365  25.115  1.00  0.00     0.251 C 
ATOM     39  H   UNL A   1      45.088  22.390  24.716  1.00  0.00     0.163 HD
ATOM     40  O   UNL A   1      45.952  24.721  24.579  1.00  0.00    -0.269 OA
BRANCH  38  41
ATOM     41  C   UNL A   1      44.142  25.282  25.961  1.00  0.00     0.039 A 
ATOM     42  C   UNL A   1      44.274  25.237  27.346  1.00  0.00     0.014 A 
ATOM     43  C   UNL A   1      43.363  26.255  25.329  1.00  0.00     0.014 A 
ATOM     44  C   UNL A   1      43.678  26.241  28.098  1.00  0.00     0.010 A 
ATOM     45  C   UNL A   1      42.873  27.309  26.064  1.00  0.00     0.010 A 
ATOM     46  C   UNL A   1      43.009  27.295  27.449  1.00  0.00    -0.014 A 
BRANCH  46  47
ATOM     47  C   UNL A   1      42.630  28.477  28.220  1.00  0.00     0.031 A 
ATOM     48  C   UNL A   1      43.640  29.567  28.159  1.00  0.00     0.074 A 
ATOM     49  C   UNL A   1      41.409  28.671  28.764  1.00  0.00     0.049 A 
ATOM     50  N   UNL A   1      44.474  29.919  29.081  1.00  0.00    -0.248 NA
ATOM     51  C   UNL A   1      43.884  30.215  26.857  1.00  0.00     0.031 C 
ATOM     52  C   UNL A   1      40.220  27.832  28.582  1.00  0.00     0.029 A 
ATOM     53  N   UNL A   1      40.933  29.716  29.501  1.00  0.00    -0.354 N 
ATOM     54  C   UNL A   1      45.132  31.035  28.569  1.00  0.00     0.074 A 
ATOM     55  C   UNL A   1      44.926  30.998  27.146  1.00  0.00     0.031 C 
ATOM     56  C   UNL A   1      39.123  28.510  28.978  1.00  0.00     0.029 A 
ATOM     57  C   UNL A   1      39.546  29.745  29.611  1.00  0.00     0.049 A 
ATOM     58  H   UNL A   1      41.519  30.388  29.918  1.00  0.00     0.167 HD
ATOM     59  C   UNL A   1      45.451  32.077  29.388  1.00  0.00     0.031 A 
ATOM     60  C   UNL A   1      38.783  30.711  30.177  1.00  0.00     0.031 A 
ATOM     61  C   UNL A   1      45.316  31.699  30.773  1.00  0.00     0.049 A 
ATOM     62  C   UNL A   1      39.636  31.457  31.128  1.00  0.00     0.074 A 
ATOM     63  C   UNL A   1      45.999  30.925  31.682  1.00  0.00     0.029 A 
ATOM     64  N   UNL A   1      44.050  31.888  31.263  1.00  0.00    -0.354 N 
ATOM     65  N   UNL A   1      40.152  30.913  32.196  1.00  0.00    -0.248 NA
ATOM     66  C   UNL A   1      40.223  32.730  30.727  1.00  0.00     0.031 C 
ATOM     67  C   UNL A   1      45.043  30.529  32.666  1.00  0.00     0.029 A 
ATOM     68  C   UNL A   1      43.814  31.112  32.365  1.00  0.00     0.049 A 
ATOM     69  H   UNL A   1      43.391  32.505  30.870  1.00  0.00     0.167 HD
ATOM     70  C   UNL A   1      41.376  31.536  32.339  1.00  0.00     0.074 A 
ATOM     71  C   UNL A   1      41.290  32.745  31.530  1.00  0.00     0.031 C 
ATOM     72  C   UNL A   1      42.459  30.859  32.815  1.00  0.00     0.031 A 
BRANCH  59  73
ATOM     73  C   UNL A   1      45.316  33.540  28.985  1.00  0.00    -0.014 A 
ATOM     74  C   UNL A   1      46.395  34.410  29.259  1.00  0.00     0.010 A 
ATOM     75  C   UNL A   1      44.096  34.149  28.631  1.00  0.00     0.010 A 
ATOM     76  C   UNL A   1      46.237  35.804  29.259  1.00  0.00     0.020 A 
ATOM     77  C   UNL A   1      43.934  35.538  28.598  1.00  0.00     0.020 A 
ATOM     78  C   UNL A   1      44.999  36.357  28.941  1.00  0.00     0.054 A 
BRANCH  78  79
ATOM     79  S   UNL A   1      44.770  38.150  29.027  1.00  0.00     0.124 S 
ATOM     80  O   UNL A   1      43.917  38.399  27.870  1.00  0.00    -0.237 OA
ATOM     81  O   UNL A   1      44.138  38.315  30.332  1.00  0.00    -0.237 OA
ATOM     82  O   UNL A   1      46.132  38.670  28.928  1.00  0.00    -0.744 OA
ENDBRANCH  78  79
ENDBRANCH  59  73
BRANCH  60  83
ATOM     83  C   UNL A   1      37.426  31.161  29.789  1.00  0.00    -0.014 A 
ATOM     84  C   UNL A   1      36.521  31.653  30.748  1.00  0.00     0.010 A 
ATOM     85  C   UNL A   1      37.124  31.379  28.429  1.00  0.00     0.010 A 
ATOM     86  C   UNL A   1      35.396  32.402  30.364  1.00  0.00     0.020 A 
ATOM     87  C   UNL A   1      36.001  32.117  28.038  1.00  0.00     0.020 A 
ATOM     88  C   UNL A   1      35.159  32.650  29.010  1.00  0.00     0.054 A 
BRANCH  88  89
ATOM     89  S   UNL A   1      33.823  33.784  28.524  1.00  0.00     0.124 S 
ATOM     90  O   UNL A   1      33.364  34.293  29.813  1.00  0.00    -0.237 OA
ATOM     91  O   UNL A   1      34.517  34.745  27.673  1.00  0.00    -0.237 OA
ATOM     92  O   UNL A   1      32.876  32.912  27.829  1.00  0.00    -0.744 OA
ENDBRANCH  88  89
ENDBRANCH  60  83
BRANCH  72  93
ATOM     93  C   UNL A   1      42.226  29.714  33.759  1.00  0.00    -0.014 A 
ATOM     94  C   UNL A   1      41.781  28.434  33.385  1.00  0.00     0.010 A 
ATOM     95  C   UNL A   1      42.540  29.951  35.110  1.00  0.00     0.010 A 
ATOM     96  C   UNL A   1      41.635  27.424  34.349  1.00  0.00     0.020 A 
ATOM     97  C   UNL A   1      42.418  28.949  36.068  1.00  0.00     0.020 A 
ATOM     98  C   UNL A   1      41.954  27.691  35.687  1.00  0.00     0.054 A 
BRANCH  98  99
ATOM     99  S   UNL A   1      41.783  26.382  36.931  1.00  0.00     0.124 S 
ATOM    100  O   UNL A   1      42.914  26.640  37.819  1.00  0.00    -0.237 OA
ATOM    101  O   UNL A   1      40.463  26.645  37.498  1.00  0.00    -0.237 OA
ATOM    102  O   UNL A   1      41.878  25.147  36.152  1.00  0.00    -0.744 OA
ENDBRANCH  98  99
ENDBRANCH  72  93
ENDBRANCH  46  47
ENDBRANCH  38  41
ENDBRANCH  36  37
ENDBRANCH  35  36
ENDBRANCH  34  35
ENDBRANCH   1  34
TORSDOF 21
ENDMDL
MODEL 3
REMARK VINA RESULT:     -12.8      2.171      4.160
REMARK SMILES O=C(COc1ccccc1/C=N/N1[C@@H](S)N=N[C@H]1[C@@H]1C=C(c2ccccc2)N=N1)NCCCCNC(=O)c1ccc(-c2c3nc(c(-c4ccc(S(=O)(=O)[O-])cc4)c4ccc([nH]4)c(-c4ccc(S(=O)(=O)[O-])cc4)c4nc(c(-c5ccc(S(=O)(=O)[O-])cc5)c5ccc2[nH]5)C=C4)C=C3)cc1
REMARK SMILES IDX 31 1 30 2 1 3 2 4 3 6 4 7 5 8 6 9 10 10 7 11 9 12 8 13 11 14
REMARK SMILES IDX 12 15 13 16 14 17 18 18 16 19 17 20 15 21 19 23 20 24 29 25
REMARK SMILES IDX 21 26 28 27 22 28 23 29 27 30 24 31 26 32 25 33 32 34 33 35
REMARK SMILES IDX 34 36 35 37 36 38 37 40 38 41 39 42 97 43 40 44 96 45 41 46
REMARK SMILES IDX 42 47 43 48 90 49 44 50 95 51 89 52 91 53 45 54 94 55 88 56
REMARK SMILES IDX 87 57 46 59 76 60 57 61 75 62 58 63 61 64 74 65 92 66 59 67
REMARK SMILES IDX 60 68 73 70 93 71 62 72 47 73 48 74 56 75 49 76 55 77 50 78
REMARK SMILES IDX 51 79 52 80 53 81 54 82 77 83 78 84 86 85 79 86 85 87 80 88
REMARK SMILES IDX 81 89 82 90 83 91 84 92 63 93 64 94 72 95 65 96 71 97 66 98
REMARK SMILES IDX 67 99 68 100 69 101 70 102
REMARK H PARENT 30 5 15 22 35 39 91 58 61 69
REMARK Flexibility Score: inf
ROOT
ATOM      1  C   UNL A   1      36.821  30.193  27.707  1.00  0.00     0.116 C 
ENDROOT
BRANCH   1   2
ATOM      2  N   UNL A   1      35.454  29.802  26.976  1.00  0.00    -0.353 N 
ATOM      3  O   UNL A   1      33.350  30.713  27.697  1.00  0.00    -0.271 OA
ATOM      4  C   UNL A   1      34.041  30.005  26.972  1.00  0.00     0.257 C 
ATOM      5  H   UNL A   1      35.671  29.180  26.244  1.00  0.00     0.163 HD
BRANCH   4   6
ATOM      6  C   UNL A   1      33.117  29.346  25.939  1.00  0.00     0.329 C 
BRANCH   6   7
ATOM      7  O   UNL A   1      33.492  27.972  25.743  1.00  0.00    -0.483 OA
BRANCH   7   8
ATOM      8  C   UNL A   1      33.807  27.865  24.412  1.00  0.00     0.128 A 
ATOM      9  C   UNL A   1      33.726  29.067  23.698  1.00  0.00     0.047 A 
ATOM     10  C   UNL A   1      33.946  26.592  23.813  1.00  0.00     0.037 A 
ATOM     11  C   UNL A   1      33.708  29.020  22.321  1.00  0.00     0.004 A 
ATOM     12  C   UNL A   1      33.912  26.563  22.421  1.00  0.00     0.013 A 
ATOM     13  C   UNL A   1      33.799  27.775  21.687  1.00  0.00     0.001 A 
BRANCH  10  14
ATOM     14  C   UNL A   1      33.917  25.398  24.759  1.00  0.00     0.145 C 
ATOM     15  N   UNL A   1      34.595  24.276  24.615  1.00  0.00    -0.180 NA
BRANCH  15  16
ATOM     16  N   UNL A   1      33.926  23.171  25.233  1.00  0.00    -0.233 NA
ATOM     17  C   UNL A   1      34.485  21.833  24.995  1.00  0.00     0.298 C 
ATOM     18  C   UNL A   1      32.406  22.803  24.992  1.00  0.00     0.274 C 
ATOM     19  N   UNL A   1      33.451  20.836  25.386  1.00  0.00    -0.153 NA
ATOM     20  N   UNL A   1      32.309  21.371  25.440  1.00  0.00    -0.161 NA
BRANCH  17  21
ATOM     21  S   UNL A   1      36.110  21.618  25.800  1.00  0.00    -0.128 SA
ATOM     22  H   UNL A   1      36.409  20.293  25.872  1.00  0.00     0.106 HD
ENDBRANCH  17  21
BRANCH  18  23
ATOM     23  C   UNL A   1      30.724  23.498  25.259  1.00  0.00     0.202 C 
ATOM     24  C   UNL A   1      29.880  24.372  24.313  1.00  0.00     0.037 C 
ATOM     25  N   UNL A   1      30.524  24.350  26.512  1.00  0.00    -0.177 NA
ATOM     26  C   UNL A   1      29.484  25.497  24.915  1.00  0.00     0.091 C 
ATOM     27  N   UNL A   1      29.842  25.427  26.248  1.00  0.00    -0.155 NA
BRANCH  26  28
ATOM     28  C   UNL A   1      29.045  26.749  24.140  1.00  0.00     0.002 A 
ATOM     29  C   UNL A   1      29.972  27.717  23.680  1.00  0.00     0.010 A 
ATOM     30  C   UNL A   1      27.730  27.080  23.823  1.00  0.00     0.010 A 
ATOM     31  C   UNL A   1      29.670  28.998  23.193  1.00  0.00     0.001 A 
ATOM     32  C   UNL A   1      27.400  28.328  23.214  1.00  0.00     0.001 A 
ATOM     33  C   UNL A   1      28.358  29.311  22.959  1.00  0.00     0.000 A 
ENDBRANCH  26  28
ENDBRANCH  18  23
ENDBRANCH  15  16
ENDBRANCH  10  14
ENDBRANCH   7   8
ENDBRANCH   6   7
ENDBRANCH   4   6
ENDBRANCH   1   2
BRANCH   1  34
ATOM     34  C   UNL A   1      37.364  31.482  28.555  1.00  0.00     0.023 C 
BRANCH  34  35
ATOM     35  C   UNL A   1      36.577  32.501  29.441  1.00  0.00     0.023 C 
BRANCH  35  36
ATOM     36  C   UNL A   1      35.400  31.996  30.240  1.00  0.00     0.116 C 
BRANCH  36  37
ATOM     37  N   UNL A   1      35.231  32.724  31.490  1.00  0.00    -0.352 N 
ATOM     38  C   UNL A   1      35.754  32.394  32.725  1.00  0.00     0.251 C 
ATOM     39  H   UNL A   1      34.684  33.542  31.450  1.00  0.00     0.163 HD
ATOM     40  O   UNL A   1      35.245  32.781  33.754  1.00  0.00    -0.269 OA
BRANCH  38  41
ATOM     41  C   UNL A   1      36.955  31.541  32.734  1.00  0.00     0.039 A 
ATOM     42  C   UNL A   1      36.835  30.167  32.545  1.00  0.00     0.014 A 
ATOM     43  C   UNL A   1      38.203  32.163  32.823  1.00  0.00     0.014 A 
ATOM     44  C   UNL A   1      37.993  29.423  32.358  1.00  0.00     0.010 A 
ATOM     45  C   UNL A   1      39.337  31.446  32.523  1.00  0.00     0.010 A 
ATOM     46  C   UNL A   1      39.239  30.073  32.312  1.00  0.00    -0.014 A 
BRANCH  46  47
ATOM     47  C   UNL A   1      40.409  29.332  31.845  1.00  0.00     0.031 A 
ATOM     48  C   UNL A   1      41.409  29.077  32.916  1.00  0.00     0.074 A 
ATOM     49  C   UNL A   1      40.504  28.745  30.633  1.00  0.00     0.049 A 
ATOM     50  N   UNL A   1      42.545  29.669  33.090  1.00  0.00    -0.248 NA
ATOM     51  C   UNL A   1      41.018  28.201  34.036  1.00  0.00     0.031 C 
ATOM     52  C   UNL A   1      39.441  28.619  29.630  1.00  0.00     0.029 A 
ATOM     53  N   UNL A   1      41.529  28.036  30.080  1.00  0.00    -0.354 N 
ATOM     54  C   UNL A   1      43.136  29.013  34.167  1.00  0.00     0.074 A 
ATOM     55  C   UNL A   1      42.069  28.332  34.850  1.00  0.00     0.031 C 
ATOM     56  C   UNL A   1      39.789  27.689  28.716  1.00  0.00     0.029 A 
ATOM     57  C   UNL A   1      41.166  27.295  28.959  1.00  0.00     0.049 A 
ATOM     58  H   UNL A   1      42.445  28.048  30.440  1.00  0.00     0.167 HD
ATOM     59  C   UNL A   1      44.479  28.778  34.172  1.00  0.00     0.031 A 
ATOM     60  C   UNL A   1      41.928  26.413  28.269  1.00  0.00     0.031 A 
ATOM     61  C   UNL A   1      45.137  29.555  33.151  1.00  0.00     0.049 A 
ATOM     62  C   UNL A   1      43.346  26.742  28.534  1.00  0.00     0.074 A 
ATOM     63  C   UNL A   1      45.484  30.871  32.945  1.00  0.00     0.029 A 
ATOM     64  N   UNL A   1      45.177  28.924  31.935  1.00  0.00    -0.354 N 
ATOM     65  N   UNL A   1      43.895  27.865  28.160  1.00  0.00    -0.248 NA
ATOM     66  C   UNL A   1      44.091  25.980  29.528  1.00  0.00     0.031 C 
ATOM     67  C   UNL A   1      45.585  31.039  31.531  1.00  0.00     0.029 A 
ATOM     68  C   UNL A   1      45.351  29.814  30.910  1.00  0.00     0.049 A 
ATOM     69  H   UNL A   1      45.091  27.951  31.814  1.00  0.00     0.167 HD
ATOM     70  C   UNL A   1      44.802  28.151  29.161  1.00  0.00     0.074 A 
ATOM     71  C   UNL A   1      45.004  26.893  29.869  1.00  0.00     0.031 C 
ATOM     72  C   UNL A   1      45.046  29.436  29.543  1.00  0.00     0.031 A 
BRANCH  59  73
ATOM     73  C   UNL A   1      45.108  27.480  34.661  1.00  0.00    -0.014 A 
ATOM     74  C   UNL A   1      44.584  26.260  34.177  1.00  0.00     0.010 A 
ATOM     75  C   UNL A   1      45.970  27.393  35.772  1.00  0.00     0.010 A 
ATOM     76  C   UNL A   1      44.841  25.040  34.819  1.00  0.00     0.020 A 
ATOM     77  C   UNL A   1      46.259  26.179  36.403  1.00  0.00     0.020 A 
ATOM     78  C   UNL A   1      45.669  25.012  35.940  1.00  0.00     0.054 A 
BRANCH  78  79
ATOM     79  S   UNL A   1      45.930  23.455  36.822  1.00  0.00     0.124 S 
ATOM     80  O   UNL A   1      45.336  23.744  38.122  1.00  0.00    -0.237 OA
ATOM     81  O   UNL A   1      45.204  22.504  35.985  1.00  0.00    -0.237 OA
ATOM     82  O   UNL A   1      47.384  23.301  36.815  1.00  0.00    -0.744 OA
ENDBRANCH  78  79
ENDBRANCH  59  73
BRANCH  60  83
ATOM     83  C   UNL A   1      41.505  25.176  27.570  1.00  0.00    -0.014 A 
ATOM     84  C   UNL A   1      42.360  24.528  26.659  1.00  0.00     0.010 A 
ATOM     85  C   UNL A   1      40.370  24.472  28.021  1.00  0.00     0.010 A 
ATOM     86  C   UNL A   1      42.129  23.197  26.272  1.00  0.00     0.020 A 
ATOM     87  C   UNL A   1      40.128  23.150  27.634  1.00  0.00     0.020 A 
ATOM     88  C   UNL A   1      41.027  22.509  26.784  1.00  0.00     0.054 A 
BRANCH  88  89
ATOM     89  S   UNL A   1      40.840  20.732  26.446  1.00  0.00     0.124 S 
ATOM     90  O   UNL A   1      39.553  20.681  25.760  1.00  0.00    -0.237 OA
ATOM     91  O   UNL A   1      42.009  20.441  25.624  1.00  0.00    -0.237 OA
ATOM     92  O   UNL A   1      40.855  20.131  27.780  1.00  0.00    -0.744 OA
ENDBRANCH  88  89
ENDBRANCH  60  83
BRANCH  72  93
ATOM     93  C   UNL A   1      44.873  30.528  28.526  1.00  0.00    -0.014 A 
ATOM     94  C   UNL A   1      43.851  31.493  28.541  1.00  0.00     0.010 A 
ATOM     95  C   UNL A   1      45.858  30.603  27.524  1.00  0.00     0.010 A 
ATOM     96  C   UNL A   1      43.808  32.495  27.559  1.00  0.00     0.020 A 
ATOM     97  C   UNL A   1      45.833  31.607  26.559  1.00  0.00     0.020 A 
ATOM     98  C   UNL A   1      44.801  32.543  26.572  1.00  0.00     0.054 A 
BRANCH  98  99
ATOM     99  S   UNL A   1      44.757  33.848  25.313  1.00  0.00     0.124 S 
ATOM    100  O   UNL A   1      43.790  34.791  25.869  1.00  0.00    -0.237 OA
ATOM    101  O   UNL A   1      46.142  34.312  25.279  1.00  0.00    -0.237 OA
ATOM    102  O   UNL A   1      44.316  33.151  24.105  1.00  0.00    -0.744 OA
ENDBRANCH  98  99
ENDBRANCH  72  93
ENDBRANCH  46  47
ENDBRANCH  38  41
ENDBRANCH  36  37
ENDBRANCH  35  36
ENDBRANCH  34  35
ENDBRANCH   1  34
TORSDOF 21
ENDMDL
