MODEL 1
REMARK VINA RESULT:     -13.5      0.000      0.000
REMARK SMILES Cc1ccc(Cn2c(C)c(C[NH2+]C[C@@H]3CCCO3)c(C(=O)NCCCCNC(=O)c3ccc(-c4c5nc(c(-c6ccc(S(=O)(=O)[O-])cc6)c6ccc([nH]6)c(-c6ccc(S(=O)(=O)[O-])cc6)c6nc(c(-c7ccc(S(=O)(=O)[O-])cc7)c7ccc4[nH]7)C=C6)C=C5)cc3)c2C)cc1
REMARK SMILES IDX 24 1 23 2 22 3 20 4 21 5 19 7 7 8 8 9 90 10 9 11 10 12 91 13
REMARK SMILES IDX 6 14 5 15 1 16 2 17 3 18 93 19 4 20 92 21 11 22 12 23 13 26
REMARK SMILES IDX 14 27 15 28 18 29 16 30 17 31 25 32 26 33 27 34 28 35 29 37
REMARK SMILES IDX 30 38 31 39 89 40 32 41 88 42 33 43 34 44 35 45 82 46 36 47
REMARK SMILES IDX 87 48 81 49 83 50 37 51 86 52 80 53 79 54 38 56 68 57 49 58
REMARK SMILES IDX 67 59 50 60 53 61 66 62 84 63 51 64 52 65 65 67 85 68 54 69
REMARK SMILES IDX 39 70 40 71 48 72 41 73 47 74 42 75 43 76 44 77 45 78 46 79
REMARK SMILES IDX 69 80 70 81 78 82 71 83 77 84 72 85 73 86 74 87 75 88 76 89
REMARK SMILES IDX 55 90 56 91 64 92 57 93 63 94 58 95 59 96 60 97 61 98 62 99
REMARK H PARENT 22 6 12 24 12 25 27 36 83 55 53 66
REMARK Flexibility Score: inf
ROOT
ATOM      1  C   UNL A   1      32.003  29.381  27.177  1.00  0.00     0.023 C 
ENDROOT
BRANCH   1   2
ATOM      2  C   UNL A   1      31.877  27.763  27.387  1.00  0.00     0.116 C 
BRANCH   2   3
ATOM      3  N   UNL A   1      30.687  27.118  26.816  1.00  0.00    -0.352 N 
ATOM      4  C   UNL A   1      30.494  25.991  26.063  1.00  0.00     0.253 C 
ATOM      5  O   UNL A   1      29.509  25.313  26.375  1.00  0.00    -0.269 OA
ATOM      6  H   UNL A   1      29.852  27.598  27.017  1.00  0.00     0.163 HD
BRANCH   4   7
ATOM      7  C   UNL A   1      31.345  25.610  24.927  1.00  0.00     0.069 A 
ATOM      8  N   UNL A   1      32.849  24.602  23.603  1.00  0.00    -0.343 N 
ATOM      9  C   UNL A   1      32.183  25.502  22.792  1.00  0.00     0.025 A 
ATOM     10  C   UNL A   1      32.594  24.998  24.906  1.00  0.00     0.028 A 
ATOM     11  C   UNL A   1      32.573  25.861  21.401  1.00  0.00     0.065 C 
ATOM     12  C   UNL A   1      31.177  26.087  23.562  1.00  0.00     0.040 A 
ATOM     13  C   UNL A   1      33.594  24.859  25.983  1.00  0.00     0.065 C 
BRANCH   8  14
ATOM     14  C   UNL A   1      33.903  23.660  23.192  1.00  0.00     0.157 C 
BRANCH  14  15
ATOM     15  C   UNL A   1      33.699  22.219  23.616  1.00  0.00    -0.028 A 
ATOM     16  C   UNL A   1      33.050  18.099  24.848  1.00  0.00     0.044 C 
ATOM     17  C   UNL A   1      33.280  19.539  24.496  1.00  0.00    -0.051 A 
ATOM     18  C   UNL A   1      32.365  20.201  23.691  1.00  0.00     0.004 A 
ATOM     19  C   UNL A   1      34.416  20.242  24.883  1.00  0.00     0.004 A 
ATOM     20  C   UNL A   1      32.552  21.513  23.277  1.00  0.00     0.006 A 
ATOM     21  C   UNL A   1      34.621  21.565  24.450  1.00  0.00     0.006 A 
ENDBRANCH  14  15
ENDBRANCH   8  14
BRANCH  12  22
ATOM     22  C   UNL A   1      30.234  27.184  23.099  1.00  0.00     0.300 C 
BRANCH  22  23
ATOM     23  N   UNL A   1      30.984  28.448  23.186  1.00  0.00    -0.340 N 
ATOM     24  H   UNL A   1      31.145  28.793  22.240  1.00  0.00     0.346 HD
ATOM     25  H   UNL A   1      31.852  28.247  23.680  1.00  0.00     0.346 HD
BRANCH  23  26
ATOM     26  C   UNL A   1      30.287  29.495  23.949  1.00  0.00     0.293 C 
BRANCH  26  27
ATOM     27  C   UNL A   1      29.142  30.158  23.159  1.00  0.00     0.173 C 
ATOM     28  C   UNL A   1      29.379  30.270  21.662  1.00  0.00     0.040 C 
ATOM     29  O   UNL A   1      28.995  31.535  23.554  1.00  0.00    -0.372 OA
ATOM     30  C   UNL A   1      28.357  31.322  21.279  1.00  0.00     0.031 C 
ATOM     31  C   UNL A   1      28.293  32.215  22.508  1.00  0.00     0.161 C 
ENDBRANCH  26  27
ENDBRANCH  23  26
ENDBRANCH  22  23
ENDBRANCH  12  22
ENDBRANCH   4   7
ENDBRANCH   2   3
ENDBRANCH   1   2
BRANCH   1  32
ATOM     32  C   UNL A   1      33.341  30.444  27.193  1.00  0.00     0.023 C 
BRANCH  32  33
ATOM     33  C   UNL A   1      34.868  29.924  26.978  1.00  0.00     0.116 C 
BRANCH  33  34
ATOM     34  N   UNL A   1      36.091  29.594  28.075  1.00  0.00    -0.352 N 
ATOM     35  C   UNL A   1      37.549  29.368  28.365  1.00  0.00     0.251 C 
ATOM     36  H   UNL A   1      35.638  29.507  28.945  1.00  0.00     0.163 HD
ATOM     37  O   UNL A   1      37.870  29.951  29.427  1.00  0.00    -0.269 OA
BRANCH  35  38
ATOM     38  C   UNL A   1      38.873  28.615  27.697  1.00  0.00     0.039 A 
ATOM     39  C   UNL A   1      39.250  27.273  28.023  1.00  0.00     0.014 A 
ATOM     40  C   UNL A   1      39.842  29.186  26.875  1.00  0.00     0.014 A 
ATOM     41  C   UNL A   1      40.671  26.889  28.129  1.00  0.00     0.010 A 
ATOM     42  C   UNL A   1      41.238  28.890  27.080  1.00  0.00     0.010 A 
ATOM     43  C   UNL A   1      41.674  27.860  27.920  1.00  0.00    -0.014 A 
BRANCH  43  44
ATOM     44  C   UNL A   1      42.974  28.014  28.749  1.00  0.00     0.031 A 
ATOM     45  C   UNL A   1      44.160  27.250  28.370  1.00  0.00     0.074 A 
ATOM     46  C   UNL A   1      43.311  28.904  29.745  1.00  0.00     0.049 A 
ATOM     47  N   UNL A   1      44.774  26.387  29.112  1.00  0.00    -0.248 NA
ATOM     48  C   UNL A   1      44.807  27.535  27.097  1.00  0.00     0.031 C 
ATOM     49  C   UNL A   1      44.522  29.109  30.576  1.00  0.00     0.029 A 
ATOM     50  N   UNL A   1      42.544  29.909  30.289  1.00  0.00    -0.354 N 
ATOM     51  C   UNL A   1      46.024  26.255  28.541  1.00  0.00     0.074 A 
ATOM     52  C   UNL A   1      45.907  26.787  27.196  1.00  0.00     0.031 C 
ATOM     53  C   UNL A   1      44.193  29.792  31.705  1.00  0.00     0.029 A 
ATOM     54  C   UNL A   1      42.769  30.063  31.652  1.00  0.00     0.049 A 
ATOM     55  H   UNL A   1      41.909  30.456  29.772  1.00  0.00     0.167 HD
ATOM     56  C   UNL A   1      47.155  26.074  29.285  1.00  0.00     0.031 A 
ATOM     57  C   UNL A   1      41.771  29.683  32.518  1.00  0.00     0.031 A 
ATOM     58  C   UNL A   1      46.922  26.322  30.715  1.00  0.00     0.049 A 
ATOM     59  C   UNL A   1      42.181  28.377  33.192  1.00  0.00     0.074 A 
ATOM     60  C   UNL A   1      47.355  27.328  31.569  1.00  0.00     0.029 A 
ATOM     61  N   UNL A   1      45.883  25.679  31.384  1.00  0.00    -0.354 N 
ATOM     62  N   UNL A   1      43.186  27.656  32.773  1.00  0.00    -0.248 NA
ATOM     63  C   UNL A   1      41.568  27.786  34.380  1.00  0.00     0.031 C 
ATOM     64  C   UNL A   1      46.510  27.341  32.711  1.00  0.00     0.029 A 
ATOM     65  C   UNL A   1      45.579  26.326  32.570  1.00  0.00     0.049 A 
ATOM     66  H   UNL A   1      45.424  24.872  31.058  1.00  0.00     0.167 HD
ATOM     67  C   UNL A   1      43.438  26.623  33.622  1.00  0.00     0.074 A 
ATOM     68  C   UNL A   1      42.370  26.722  34.601  1.00  0.00     0.031 C 
ATOM     69  C   UNL A   1      44.532  25.818  33.455  1.00  0.00     0.031 A 
BRANCH  56  70
ATOM     70  C   UNL A   1      48.529  26.037  28.633  1.00  0.00    -0.014 A 
ATOM     71  C   UNL A   1      48.872  25.053  27.686  1.00  0.00     0.010 A 
ATOM     72  C   UNL A   1      49.522  27.007  28.903  1.00  0.00     0.010 A 
ATOM     73  C   UNL A   1      50.152  24.988  27.110  1.00  0.00     0.020 A 
ATOM     74  C   UNL A   1      50.820  26.926  28.377  1.00  0.00     0.020 A 
ATOM     75  C   UNL A   1      51.126  25.917  27.472  1.00  0.00     0.054 A 
BRANCH  75  76
ATOM     76  S   UNL A   1      52.765  25.829  26.703  1.00  0.00     0.124 S 
ATOM     77  O   UNL A   1      52.758  24.512  26.074  1.00  0.00    -0.237 OA
ATOM     78  O   UNL A   1      52.738  26.965  25.786  1.00  0.00    -0.237 OA
ATOM     79  O   UNL A   1      53.687  25.967  27.830  1.00  0.00    -0.744 OA
ENDBRANCH  75  76
ENDBRANCH  56  70
BRANCH  57  80
ATOM     80  C   UNL A   1      40.332  30.062  32.048  1.00  0.00    -0.014 A 
ATOM     81  C   UNL A   1      39.297  29.217  32.504  1.00  0.00     0.010 A 
ATOM     82  C   UNL A   1      40.034  31.385  32.250  1.00  0.00     0.010 A 
ATOM     83  C   UNL A   1      38.567  29.472  33.702  1.00  0.00     0.020 A 
ATOM     84  C   UNL A   1      39.302  31.639  33.429  1.00  0.00     0.020 A 
ATOM     85  C   UNL A   1      38.696  30.733  34.256  1.00  0.00     0.054 A 
BRANCH  85  86
ATOM     86  S   UNL A   1      38.557  31.263  36.160  1.00  0.00     0.124 S 
ATOM     87  O   UNL A   1      37.471  32.152  36.114  1.00  0.00    -0.237 OA
ATOM     88  O   UNL A   1      38.267  30.038  36.893  1.00  0.00    -0.237 OA
ATOM     89  O   UNL A   1      39.731  32.001  36.578  1.00  0.00    -0.744 OA
ENDBRANCH  85  86
ENDBRANCH  57  80
BRANCH  69  90
ATOM     90  C   UNL A   1      44.825  24.529  34.184  1.00  0.00    -0.014 A 
ATOM     91  C   UNL A   1      44.073  23.355  34.057  1.00  0.00     0.010 A 
ATOM     92  C   UNL A   1      46.012  24.445  34.959  1.00  0.00     0.010 A 
ATOM     93  C   UNL A   1      44.456  22.177  34.713  1.00  0.00     0.020 A 
ATOM     94  C   UNL A   1      46.432  23.266  35.570  1.00  0.00     0.020 A 
ATOM     95  C   UNL A   1      45.632  22.140  35.464  1.00  0.00     0.054 A 
BRANCH  95  96
ATOM     96  S   UNL A   1      46.133  20.594  36.257  1.00  0.00     0.124 S 
ATOM     97  O   UNL A   1      45.312  19.615  35.549  1.00  0.00    -0.237 OA
ATOM     98  O   UNL A   1      47.565  20.536  35.970  1.00  0.00    -0.237 OA
ATOM     99  O   UNL A   1      45.794  20.796  37.664  1.00  0.00    -0.744 OA
ENDBRANCH  95  96
ENDBRANCH  69  90
ENDBRANCH  43  44
ENDBRANCH  35  38
ENDBRANCH  33  34
ENDBRANCH  32  33
ENDBRANCH   1  32
TORSDOF 20
ENDMDL
MODEL 2
REMARK VINA RESULT:     -13.5      5.823      8.597
REMARK SMILES Cc1ccc(Cn2c(C)c(C[NH2+]C[C@@H]3CCCO3)c(C(=O)NCCCCNC(=O)c3ccc(-c4c5nc(c(-c6ccc(S(=O)(=O)[O-])cc6)c6ccc([nH]6)c(-c6ccc(S(=O)(=O)[O-])cc6)c6nc(c(-c7ccc(S(=O)(=O)[O-])cc7)c7ccc4[nH]7)C=C6)C=C5)cc3)c2C)cc1
REMARK SMILES IDX 24 1 23 2 22 3 20 4 21 5 19 7 7 8 8 9 90 10 9 11 10 12 91 13
REMARK SMILES IDX 6 14 5 15 1 16 2 17 3 18 93 19 4 20 92 21 11 22 12 23 13 26
REMARK SMILES IDX 14 27 15 28 18 29 16 30 17 31 25 32 26 33 27 34 28 35 29 37
REMARK SMILES IDX 30 38 31 39 89 40 32 41 88 42 33 43 34 44 35 45 82 46 36 47
REMARK SMILES IDX 87 48 81 49 83 50 37 51 86 52 80 53 79 54 38 56 68 57 49 58
REMARK SMILES IDX 67 59 50 60 53 61 66 62 84 63 51 64 52 65 65 67 85 68 54 69
REMARK SMILES IDX 39 70 40 71 48 72 41 73 47 74 42 75 43 76 44 77 45 78 46 79
REMARK SMILES IDX 69 80 70 81 78 82 71 83 77 84 72 85 73 86 74 87 75 88 76 89
REMARK SMILES IDX 55 90 56 91 64 92 57 93 63 94 58 95 59 96 60 97 61 98 62 99
REMARK H PARENT 22 6 12 24 12 25 27 36 83 55 53 66
REMARK Flexibility Score: inf
ROOT
ATOM      1  C   UNL A   1      33.349  29.999  27.136  1.00  0.00     0.023 C 
ENDROOT
BRANCH   1   2
ATOM      2  C   UNL A   1      33.188  28.444  26.650  1.00  0.00     0.116 C 
BRANCH   2   3
ATOM      3  N   UNL A   1      31.816  27.939  26.510  1.00  0.00    -0.352 N 
ATOM      4  C   UNL A   1      31.287  26.726  26.156  1.00  0.00     0.253 C 
ATOM      5  O   UNL A   1      30.311  26.365  26.820  1.00  0.00    -0.269 OA
ATOM      6  H   UNL A   1      31.131  28.616  26.714  1.00  0.00     0.163 HD
BRANCH   4   7
ATOM      7  C   UNL A   1      31.788  25.911  25.041  1.00  0.00     0.069 A 
ATOM      8  N   UNL A   1      32.516  24.212  23.769  1.00  0.00    -0.343 N 
ATOM      9  C   UNL A   1      32.392  25.291  22.914  1.00  0.00     0.025 A 
ATOM     10  C   UNL A   1      32.538  24.739  25.051  1.00  0.00     0.028 A 
ATOM     11  C   UNL A   1      32.874  25.335  21.506  1.00  0.00     0.065 C 
ATOM     12  C   UNL A   1      31.855  26.346  23.654  1.00  0.00     0.040 A 
ATOM     13  C   UNL A   1      33.350  24.148  26.133  1.00  0.00     0.065 C 
BRANCH   8  14
ATOM     14  C   UNL A   1      32.918  22.844  23.407  1.00  0.00     0.157 C 
BRANCH  14  15
ATOM     15  C   UNL A   1      34.297  22.419  23.870  1.00  0.00    -0.028 A 
ATOM     16  C   UNL A   1      38.278  21.207  25.134  1.00  0.00     0.044 C 
ATOM     17  C   UNL A   1      36.895  21.555  24.670  1.00  0.00    -0.051 A 
ATOM     18  C   UNL A   1      36.706  22.654  23.846  1.00  0.00     0.004 A 
ATOM     19  C   UNL A   1      35.761  20.864  25.083  1.00  0.00     0.004 A 
ATOM     20  C   UNL A   1      35.446  23.067  23.435  1.00  0.00     0.006 A 
ATOM     21  C   UNL A   1      34.479  21.291  24.687  1.00  0.00     0.006 A 
ENDBRANCH  14  15
ENDBRANCH   8  14
BRANCH  12  22
ATOM     22  C   UNL A   1      31.604  27.752  23.136  1.00  0.00     0.300 C 
BRANCH  22  23
ATOM     23  N   UNL A   1      30.298  27.724  22.458  1.00  0.00    -0.340 N 
ATOM     24  H   UNL A   1      29.945  26.767  22.478  1.00  0.00     0.346 HD
ATOM     25  H   UNL A   1      30.447  28.062  21.508  1.00  0.00     0.346 HD
BRANCH  23  26
ATOM     26  C   UNL A   1      29.293  28.603  23.076  1.00  0.00     0.293 C 
BRANCH  26  27
ATOM     27  C   UNL A   1      29.262  30.013  22.455  1.00  0.00     0.173 C 
ATOM     28  C   UNL A   1      28.502  31.052  23.264  1.00  0.00     0.040 C 
ATOM     29  O   UNL A   1      28.534  29.995  21.212  1.00  0.00    -0.372 OA
ATOM     30  C   UNL A   1      28.268  32.125  22.220  1.00  0.00     0.031 C 
ATOM     31  C   UNL A   1      28.124  31.336  20.928  1.00  0.00     0.161 C 
ENDBRANCH  26  27
ENDBRANCH  23  26
ENDBRANCH  22  23
ENDBRANCH  12  22
ENDBRANCH   4   7
ENDBRANCH   2   3
ENDBRANCH   1   2
BRANCH   1  32
ATOM     32  C   UNL A   1      34.699  30.909  27.653  1.00  0.00     0.023 C 
BRANCH  32  33
ATOM     33  C   UNL A   1      35.791  30.326  28.709  1.00  0.00     0.116 C 
BRANCH  33  34
ATOM     34  N   UNL A   1      37.262  29.560  28.471  1.00  0.00    -0.352 N 
ATOM     35  C   UNL A   1      38.336  28.629  28.962  1.00  0.00     0.251 C 
ATOM     36  H   UNL A   1      37.571  29.866  27.587  1.00  0.00     0.163 HD
ATOM     37  O   UNL A   1      38.732  27.898  28.024  1.00  0.00    -0.269 OA
BRANCH  35  38
ATOM     38  C   UNL A   1      39.134  28.243  30.369  1.00  0.00     0.039 A 
ATOM     39  C   UNL A   1      38.463  28.087  31.624  1.00  0.00     0.014 A 
ATOM     40  C   UNL A   1      40.512  28.159  30.562  1.00  0.00     0.014 A 
ATOM     41  C   UNL A   1      39.093  28.535  32.882  1.00  0.00     0.010 A 
ATOM     42  C   UNL A   1      41.117  28.716  31.745  1.00  0.00     0.010 A 
ATOM     43  C   UNL A   1      40.368  29.139  32.848  1.00  0.00    -0.014 A 
BRANCH  43  44
ATOM     44  C   UNL A   1      40.811  30.369  33.680  1.00  0.00     0.031 A 
ATOM     45  C   UNL A   1      41.695  30.176  34.827  1.00  0.00     0.074 A 
ATOM     46  C   UNL A   1      40.659  31.718  33.450  1.00  0.00     0.049 A 
ATOM     47  N   UNL A   1      41.423  30.486  36.053  1.00  0.00    -0.248 NA
ATOM     48  C   UNL A   1      43.053  29.701  34.601  1.00  0.00     0.031 C 
ATOM     49  C   UNL A   1      41.051  32.939  34.194  1.00  0.00     0.029 A 
ATOM     50  N   UNL A   1      40.036  32.340  32.392  1.00  0.00    -0.354 N 
ATOM     51  C   UNL A   1      42.649  30.536  36.685  1.00  0.00     0.074 A 
ATOM     52  C   UNL A   1      43.573  29.822  35.823  1.00  0.00     0.031 C 
ATOM     53  C   UNL A   1      40.280  33.986  33.795  1.00  0.00     0.029 A 
ATOM     54  C   UNL A   1      39.367  33.495  32.781  1.00  0.00     0.049 A 
ATOM     55  H   UNL A   1      40.062  32.006  31.466  1.00  0.00     0.167 HD
ATOM     56  C   UNL A   1      42.934  31.446  37.664  1.00  0.00     0.031 A 
ATOM     57  C   UNL A   1      37.992  33.477  32.772  1.00  0.00     0.031 A 
ATOM     58  C   UNL A   1      41.919  32.506  37.745  1.00  0.00     0.049 A 
ATOM     59  C   UNL A   1      37.496  33.405  34.214  1.00  0.00     0.074 A 
ATOM     60  C   UNL A   1      41.958  33.860  37.436  1.00  0.00     0.029 A 
ATOM     61  N   UNL A   1      40.568  32.184  37.863  1.00  0.00    -0.354 N 
ATOM     62  N   UNL A   1      38.287  33.131  35.215  1.00  0.00    -0.248 NA
ATOM     63  C   UNL A   1      36.133  33.664  34.674  1.00  0.00     0.031 C 
ATOM     64  C   UNL A   1      40.624  34.323  37.282  1.00  0.00     0.029 A 
ATOM     65  C   UNL A   1      39.768  33.262  37.524  1.00  0.00     0.049 A 
ATOM     66  H   UNL A   1      40.227  31.307  38.151  1.00  0.00     0.167 HD
ATOM     67  C   UNL A   1      37.640  33.269  36.405  1.00  0.00     0.074 A 
ATOM     68  C   UNL A   1      36.274  33.569  36.013  1.00  0.00     0.031 C 
ATOM     69  C   UNL A   1      38.310  33.167  37.593  1.00  0.00     0.031 A 
BRANCH  56  70
ATOM     70  C   UNL A   1      44.327  31.543  38.267  1.00  0.00    -0.014 A 
ATOM     71  C   UNL A   1      44.726  30.727  39.342  1.00  0.00     0.010 A 
ATOM     72  C   UNL A   1      45.312  32.422  37.760  1.00  0.00     0.010 A 
ATOM     73  C   UNL A   1      45.996  30.840  39.931  1.00  0.00     0.020 A 
ATOM     74  C   UNL A   1      46.565  32.583  38.369  1.00  0.00     0.020 A 
ATOM     75  C   UNL A   1      46.905  31.780  39.451  1.00  0.00     0.054 A 
BRANCH  75  76
ATOM     76  S   UNL A   1      48.546  31.897  40.211  1.00  0.00     0.124 S 
ATOM     77  O   UNL A   1      48.282  31.561  41.607  1.00  0.00    -0.237 OA
ATOM     78  O   UNL A   1      49.308  30.904  39.457  1.00  0.00    -0.237 OA
ATOM     79  O   UNL A   1      48.941  33.286  39.977  1.00  0.00    -0.744 OA
ENDBRANCH  75  76
ENDBRANCH  56  70
BRANCH  57  80
ATOM     80  C   UNL A   1      37.365  32.742  31.547  1.00  0.00    -0.014 A 
ATOM     81  C   UNL A   1      36.217  31.966  31.820  1.00  0.00     0.010 A 
ATOM     82  C   UNL A   1      37.177  33.566  30.467  1.00  0.00     0.010 A 
ATOM     83  C   UNL A   1      34.894  32.485  31.709  1.00  0.00     0.020 A 
ATOM     84  C   UNL A   1      35.864  34.071  30.349  1.00  0.00     0.020 A 
ATOM     85  C   UNL A   1      34.747  33.685  31.038  1.00  0.00     0.054 A 
BRANCH  85  86
ATOM     86  S   UNL A   1      33.373  35.087  31.303  1.00  0.00     0.124 S 
ATOM     87  O   UNL A   1      32.629  34.963  30.119  1.00  0.00    -0.237 OA
ATOM     88  O   UNL A   1      32.629  34.692  32.492  1.00  0.00    -0.237 OA
ATOM     89  O   UNL A   1      33.974  36.403  31.328  1.00  0.00    -0.744 OA
ENDBRANCH  85  86
ENDBRANCH  57  80
BRANCH  69  90
ATOM     90  C   UNL A   1      37.701  33.094  38.972  1.00  0.00    -0.014 A 
ATOM     91  C   UNL A   1      38.044  33.934  40.038  1.00  0.00     0.010 A 
ATOM     92  C   UNL A   1      36.617  32.201  39.187  1.00  0.00     0.010 A 
ATOM     93  C   UNL A   1      37.377  33.850  41.269  1.00  0.00     0.020 A 
ATOM     94  C   UNL A   1      35.911  32.147  40.386  1.00  0.00     0.020 A 
ATOM     95  C   UNL A   1      36.315  32.958  41.434  1.00  0.00     0.054 A 
BRANCH  95  96
ATOM     96  S   UNL A   1      35.437  32.905  43.013  1.00  0.00     0.124 S 
ATOM     97  O   UNL A   1      35.337  34.323  43.348  1.00  0.00    -0.237 OA
ATOM     98  O   UNL A   1      34.177  32.255  42.656  1.00  0.00    -0.237 OA
ATOM     99  O   UNL A   1      36.313  32.116  43.876  1.00  0.00    -0.744 OA
ENDBRANCH  95  96
ENDBRANCH  69  90
ENDBRANCH  43  44
ENDBRANCH  35  38
ENDBRANCH  33  34
ENDBRANCH  32  33
ENDBRANCH   1  32
TORSDOF 20
ENDMDL
MODEL 3
REMARK VINA RESULT:     -13.4      2.324      3.016
REMARK SMILES Cc1ccc(Cn2c(C)c(C[NH2+]C[C@@H]3CCCO3)c(C(=O)NCCCCNC(=O)c3ccc(-c4c5nc(c(-c6ccc(S(=O)(=O)[O-])cc6)c6ccc([nH]6)c(-c6ccc(S(=O)(=O)[O-])cc6)c6nc(c(-c7ccc(S(=O)(=O)[O-])cc7)c7ccc4[nH]7)C=C6)C=C5)cc3)c2C)cc1
REMARK SMILES IDX 24 1 23 2 22 3 20 4 21 5 19 7 7 8 8 9 90 10 9 11 10 12 91 13
REMARK SMILES IDX 6 14 5 15 1 16 2 17 3 18 93 19 4 20 92 21 11 22 12 23 13 26
REMARK SMILES IDX 14 27 15 28 18 29 16 30 17 31 25 32 26 33 27 34 28 35 29 37
REMARK SMILES IDX 30 38 31 39 89 40 32 41 88 42 33 43 34 44 35 45 82 46 36 47
REMARK SMILES IDX 87 48 81 49 83 50 37 51 86 52 80 53 79 54 38 56 68 57 49 58
REMARK SMILES IDX 67 59 50 60 53 61 66 62 84 63 51 64 52 65 65 67 85 68 54 69
REMARK SMILES IDX 39 70 40 71 48 72 41 73 47 74 42 75 43 76 44 77 45 78 46 79
REMARK SMILES IDX 69 80 70 81 78 82 71 83 77 84 72 85 73 86 74 87 75 88 76 89
REMARK SMILES IDX 55 90 56 91 64 92 57 93 63 94 58 95 59 96 60 97 61 98 62 99
REMARK H PARENT 22 6 12 24 12 25 27 36 83 55 53 66
REMARK Flexibility Score: inf
ROOT
ATOM      1  C   UNL A   1      32.303  29.331  26.153  1.00  0.00     0.023 C 
ENDROOT
BRANCH   1   2
ATOM      2  C   UNL A   1      32.182  28.108  27.234  1.00  0.00     0.116 C 
BRANCH   2   3
ATOM      3  N   UNL A   1      31.138  27.107  26.979  1.00  0.00    -0.352 N 
ATOM      4  C   UNL A   1      31.113  25.922  26.293  1.00  0.00     0.253 C 
ATOM      5  O   UNL A   1      30.484  25.011  26.839  1.00  0.00    -0.269 OA
ATOM      6  H   UNL A   1      30.273  27.336  27.389  1.00  0.00     0.163 HD
BRANCH   4   7
ATOM      7  C   UNL A   1      31.736  25.728  24.976  1.00  0.00     0.069 A 
ATOM      8  N   UNL A   1      33.125  25.148  23.312  1.00  0.00    -0.343 N 
ATOM      9  C   UNL A   1      32.002  25.668  22.695  1.00  0.00     0.025 A 
ATOM     10  C   UNL A   1      33.075  25.580  24.628  1.00  0.00     0.028 A 
ATOM     11  C   UNL A   1      31.881  25.976  21.244  1.00  0.00     0.065 C 
ATOM     12  C   UNL A   1      31.076  25.959  23.699  1.00  0.00     0.040 A 
ATOM     13  C   UNL A   1      34.291  25.915  25.395  1.00  0.00     0.065 C 
BRANCH   8  14
ATOM     14  C   UNL A   1      34.310  24.582  22.649  1.00  0.00     0.157 C 
BRANCH  14  15
ATOM     15  C   UNL A   1      34.939  23.385  23.334  1.00  0.00    -0.028 A 
ATOM     16  C   UNL A   1      36.786  19.945  25.248  1.00  0.00     0.044 C 
ATOM     17  C   UNL A   1      36.111  21.083  24.543  1.00  0.00    -0.051 A 
ATOM     18  C   UNL A   1      36.879  22.090  23.978  1.00  0.00     0.004 A 
ATOM     19  C   UNL A   1      34.729  21.224  24.482  1.00  0.00     0.004 A 
ATOM     20  C   UNL A   1      36.315  23.202  23.369  1.00  0.00     0.006 A 
ATOM     21  C   UNL A   1      34.151  22.360  23.884  1.00  0.00     0.006 A 
ENDBRANCH  14  15
ENDBRANCH   8  14
BRANCH  12  22
ATOM     22  C   UNL A   1      29.719  26.607  23.489  1.00  0.00     0.300 C 
BRANCH  22  23
ATOM     23  N   UNL A   1      29.879  28.034  23.815  1.00  0.00    -0.340 N 
ATOM     24  H   UNL A   1      30.438  28.110  24.664  1.00  0.00     0.346 HD
ATOM     25  H   UNL A   1      28.944  28.421  23.930  1.00  0.00     0.346 HD
BRANCH  23  26
ATOM     26  C   UNL A   1      30.540  28.811  22.754  1.00  0.00     0.293 C 
BRANCH  26  27
ATOM     27  C   UNL A   1      29.795  30.114  22.407  1.00  0.00     0.173 C 
ATOM     28  C   UNL A   1      28.829  30.603  23.474  1.00  0.00     0.040 C 
ATOM     29  O   UNL A   1      28.929  29.908  21.275  1.00  0.00    -0.372 OA
ATOM     30  C   UNL A   1      27.971  31.564  22.677  1.00  0.00     0.031 C 
ATOM     31  C   UNL A   1      27.941  30.943  21.290  1.00  0.00     0.161 C 
ENDBRANCH  26  27
ENDBRANCH  23  26
ENDBRANCH  22  23
ENDBRANCH  12  22
ENDBRANCH   4   7
ENDBRANCH   2   3
ENDBRANCH   1   2
BRANCH   1  32
ATOM     32  C   UNL A   1      31.657  30.912  26.125  1.00  0.00     0.023 C 
BRANCH  32  33
ATOM     33  C   UNL A   1      32.195  32.090  27.111  1.00  0.00     0.116 C 
BRANCH  33  34
ATOM     34  N   UNL A   1      33.691  32.343  27.821  1.00  0.00    -0.352 N 
ATOM     35  C   UNL A   1      35.099  31.883  28.085  1.00  0.00     0.251 C 
ATOM     36  H   UNL A   1      33.611  33.205  28.290  1.00  0.00     0.163 HD
ATOM     37  O   UNL A   1      35.890  32.850  27.994  1.00  0.00    -0.269 OA
BRANCH  35  38
ATOM     38  C   UNL A   1      35.933  30.484  28.422  1.00  0.00     0.039 A 
ATOM     39  C   UNL A   1      36.183  30.032  29.758  1.00  0.00     0.014 A 
ATOM     40  C   UNL A   1      36.600  29.661  27.517  1.00  0.00     0.014 A 
ATOM     41  C   UNL A   1      37.457  29.376  30.110  1.00  0.00     0.010 A 
ATOM     42  C   UNL A   1      37.902  29.132  27.837  1.00  0.00     0.010 A 
ATOM     43  C   UNL A   1      38.450  29.203  29.122  1.00  0.00    -0.014 A 
BRANCH  43  44
ATOM     44  C   UNL A   1      39.973  29.408  29.321  1.00  0.00     0.031 A 
ATOM     45  C   UNL A   1      40.911  28.651  28.496  1.00  0.00     0.074 A 
ATOM     46  C   UNL A   1      40.671  30.338  30.059  1.00  0.00     0.049 A 
ATOM     47  N   UNL A   1      41.807  27.825  28.931  1.00  0.00    -0.248 NA
ATOM     48  C   UNL A   1      40.953  28.901  27.062  1.00  0.00     0.031 C 
ATOM     49  C   UNL A   1      42.113  30.592  30.296  1.00  0.00     0.029 A 
ATOM     50  N   UNL A   1      40.175  31.349  30.850  1.00  0.00    -0.354 N 
ATOM     51  C   UNL A   1      42.703  27.694  27.889  1.00  0.00     0.074 A 
ATOM     52  C   UNL A   1      42.015  28.176  26.706  1.00  0.00     0.031 C 
ATOM     53  C   UNL A   1      42.270  31.310  31.440  1.00  0.00     0.029 A 
ATOM     54  C   UNL A   1      40.949  31.555  31.987  1.00  0.00     0.049 A 
ATOM     55  H   UNL A   1      39.365  31.866  30.636  1.00  0.00     0.167 HD
ATOM     56  C   UNL A   1      44.048  27.557  28.091  1.00  0.00     0.031 A 
ATOM     57  C   UNL A   1      40.419  31.190  33.202  1.00  0.00     0.031 A 
ATOM     58  C   UNL A   1      44.431  27.852  29.479  1.00  0.00     0.049 A 
ATOM     59  C   UNL A   1      41.115  29.914  33.672  1.00  0.00     0.074 A 
ATOM     60  C   UNL A   1      45.152  28.895  30.045  1.00  0.00     0.029 A 
ATOM     61  N   UNL A   1      43.790  27.216  30.540  1.00  0.00    -0.354 N 
ATOM     62  N   UNL A   1      41.870  29.196  32.887  1.00  0.00    -0.248 NA
ATOM     63  C   UNL A   1      41.077  29.357  35.023  1.00  0.00     0.031 C 
ATOM     64  C   UNL A   1      44.867  28.934  31.436  1.00  0.00     0.029 A 
ATOM     65  C   UNL A   1      43.995  27.900  31.727  1.00  0.00     0.049 A 
ATOM     66  H   UNL A   1      43.261  26.390  30.458  1.00  0.00     0.167 HD
ATOM     67  C   UNL A   1      42.488  28.198  33.576  1.00  0.00     0.074 A 
ATOM     68  C   UNL A   1      41.928  28.314  34.911  1.00  0.00     0.031 C 
ATOM     69  C   UNL A   1      43.433  27.406  32.984  1.00  0.00     0.031 A 
BRANCH  56  70
ATOM     70  C   UNL A   1      45.019  27.520  26.921  1.00  0.00    -0.014 A 
ATOM     71  C   UNL A   1      45.227  26.349  26.169  1.00  0.00     0.010 A 
ATOM     72  C   UNL A   1      45.733  28.663  26.494  1.00  0.00     0.010 A 
ATOM     73  C   UNL A   1      46.153  26.296  25.114  1.00  0.00     0.020 A 
ATOM     74  C   UNL A   1      46.698  28.614  25.477  1.00  0.00     0.020 A 
ATOM     75  C   UNL A   1      46.897  27.427  24.784  1.00  0.00     0.054 A 
BRANCH  75  76
ATOM     76  S   UNL A   1      48.072  27.345  23.406  1.00  0.00     0.124 S 
ATOM     77  O   UNL A   1      48.150  25.913  23.131  1.00  0.00    -0.237 OA
ATOM     78  O   UNL A   1      47.406  28.147  22.383  1.00  0.00    -0.237 OA
ATOM     79  O   UNL A   1      49.294  27.933  23.954  1.00  0.00    -0.744 OA
ENDBRANCH  75  76
ENDBRANCH  56  70
BRANCH  57  80
ATOM     80  C   UNL A   1      38.906  31.527  33.374  1.00  0.00    -0.014 A 
ATOM     81  C   UNL A   1      38.205  30.738  34.312  1.00  0.00     0.010 A 
ATOM     82  C   UNL A   1      38.675  32.866  33.561  1.00  0.00     0.010 A 
ATOM     83  C   UNL A   1      38.059  31.117  35.679  1.00  0.00     0.020 A 
ATOM     84  C   UNL A   1      38.518  33.241  34.912  1.00  0.00     0.020 A 
ATOM     85  C   UNL A   1      38.367  32.427  36.001  1.00  0.00     0.054 A 
BRANCH  85  86
ATOM     86  S   UNL A   1      39.049  33.148  37.716  1.00  0.00     0.124 S 
ATOM     87  O   UNL A   1      39.731  34.293  37.274  1.00  0.00    -0.237 OA
ATOM     88  O   UNL A   1      37.870  33.454  38.515  1.00  0.00    -0.237 OA
ATOM     89  O   UNL A   1      40.013  32.245  38.310  1.00  0.00    -0.744 OA
ENDBRANCH  85  86
ENDBRANCH  57  80
BRANCH  69  90
ATOM     90  C   UNL A   1      44.045  26.149  33.553  1.00  0.00    -0.014 A 
ATOM     91  C   UNL A   1      43.781  24.855  33.086  1.00  0.00     0.010 A 
ATOM     92  C   UNL A   1      45.052  26.276  34.546  1.00  0.00     0.010 A 
ATOM     93  C   UNL A   1      44.448  23.744  33.621  1.00  0.00     0.020 A 
ATOM     94  C   UNL A   1      45.760  25.185  35.046  1.00  0.00     0.020 A 
ATOM     95  C   UNL A   1      45.432  23.916  34.597  1.00  0.00     0.054 A 
BRANCH  95  96
ATOM     96  S   UNL A   1      46.315  22.473  35.233  1.00  0.00     0.124 S 
ATOM     97  O   UNL A   1      46.091  21.493  34.174  1.00  0.00    -0.237 OA
ATOM     98  O   UNL A   1      47.687  22.964  35.352  1.00  0.00    -0.237 OA
ATOM     99  O   UNL A   1      45.651  22.187  36.502  1.00  0.00    -0.744 OA
ENDBRANCH  95  96
ENDBRANCH  69  90
ENDBRANCH  43  44
ENDBRANCH  35  38
ENDBRANCH  33  34
ENDBRANCH  32  33
ENDBRANCH   1  32
TORSDOF 20
ENDMDL
