MODEL 1
REMARK VINA RESULT:     -10.0      0.000      0.000
REMARK SMILES CC(C)OCCS(=O)(=O)Nc1ccc(O)c(C(=O)NCCCCNC(=O)c2ccc(-c3c4nc(c(-c5ccc(S(=O)(=O)[O-])cc5)c5ccc([nH]5)c(-c5ccc(S(=O)(=O)[O-])cc5)c5nc(c(-c6ccc(S(=O)(=O)[O-])cc6)c6ccc3[nH]6)C=C5)C=C4)cc2)c1
REMARK SMILES IDX 20 1 19 2 17 3 18 4 16 6 11 7 12 8 87 9 13 10 14 11 10 12
REMARK SMILES IDX 7 14 8 15 9 16 6 17 5 18 4 19 2 20 1 21 3 22 15 23 21 25
REMARK SMILES IDX 22 26 23 27 24 28 25 29 26 31 27 32 28 33 86 34 29 35 85 36
REMARK SMILES IDX 30 37 31 38 32 39 79 40 33 41 84 42 78 43 80 44 34 45 83 46
REMARK SMILES IDX 77 47 76 48 35 50 65 51 46 52 64 53 47 54 50 55 63 56 81 57
REMARK SMILES IDX 48 58 49 59 62 61 82 62 51 63 36 64 37 65 45 66 38 67 44 68
REMARK SMILES IDX 39 69 40 70 41 71 42 72 43 73 66 74 67 75 75 76 68 77 74 78
REMARK SMILES IDX 69 79 70 80 71 81 72 82 73 83 52 84 53 85 61 86 54 87 60 88
REMARK SMILES IDX 55 89 56 90 57 91 58 92 59 93
REMARK H PARENT 19 5 10 13 15 24 24 30 80 49 50 60
REMARK Flexibility Score: inf
ROOT
ATOM      1  C   UNL A   1      31.778  28.259  24.638  1.00  0.00     0.116 C 
ENDROOT
BRANCH   1   2
ATOM      2  N   UNL A   1      30.692  27.459  24.125  1.00  0.00    -0.352 N 
ATOM      3  C   UNL A   1      30.460  26.113  24.201  1.00  0.00     0.255 C 
ATOM      4  O   UNL A   1      29.476  25.676  23.598  1.00  0.00    -0.269 OA
ATOM      5  H   UNL A   1      30.002  27.967  23.639  1.00  0.00     0.163 HD
BRANCH   3   6
ATOM      6  C   UNL A   1      31.278  25.150  24.995  1.00  0.00     0.083 A 
ATOM      7  C   UNL A   1      33.531  24.262  25.276  1.00  0.00     0.050 A 
ATOM      8  C   UNL A   1      33.112  23.739  26.477  1.00  0.00     0.030 A 
ATOM      9  C   UNL A   1      32.625  25.027  24.560  1.00  0.00     0.044 A 
ATOM     10  C   UNL A   1      31.809  23.762  26.905  1.00  0.00     0.049 A 
ATOM     11  C   UNL A   1      30.889  24.469  26.163  1.00  0.00     0.128 A 
BRANCH   7  12
ATOM     12  N   UNL A   1      34.922  24.266  24.989  1.00  0.00    -0.283 N 
ATOM     13  H   UNL A   1      35.436  25.082  25.188  1.00  0.00     0.180 HD
BRANCH  12  14
ATOM     14  S   UNL A   1      35.736  22.958  24.327  1.00  0.00     0.235 S 
ATOM     15  O   UNL A   1      36.779  22.638  25.275  1.00  0.00    -0.207 OA
ATOM     16  O   UNL A   1      36.103  23.359  22.980  1.00  0.00    -0.207 OA
BRANCH  14  17
ATOM     17  C   UNL A   1      34.657  21.518  24.156  1.00  0.00     0.188 C 
BRANCH  17  18
ATOM     18  C   UNL A   1      34.985  20.297  25.026  1.00  0.00     0.178 C 
BRANCH  18  19
ATOM     19  O   UNL A   1      34.440  19.074  24.524  1.00  0.00    -0.378 OA
BRANCH  19  20
ATOM     20  C   UNL A   1      33.033  18.814  24.641  1.00  0.00     0.112 C 
ATOM     21  C   UNL A   1      32.440  18.474  23.287  1.00  0.00     0.038 C 
ATOM     22  C   UNL A   1      32.616  17.812  25.713  1.00  0.00     0.038 C 
ENDBRANCH  19  20
ENDBRANCH  18  19
ENDBRANCH  17  18
ENDBRANCH  14  17
ENDBRANCH  12  14
ENDBRANCH   7  12
BRANCH  11  23
ATOM     23  O   UNL A   1      29.656  24.502  26.721  1.00  0.00    -0.507 OA
ATOM     24  H   UNL A   1      29.519  24.963  27.526  1.00  0.00     0.293 HD
ENDBRANCH  11  23
ENDBRANCH   3   6
ENDBRANCH   1   2
BRANCH   1  25
ATOM     25  C   UNL A   1      31.555  28.557  26.128  1.00  0.00     0.023 C 
BRANCH  25  26
ATOM     26  C   UNL A   1      32.496  27.852  27.088  1.00  0.00     0.023 C 
BRANCH  26  27
ATOM     27  C   UNL A   1      33.821  28.561  27.260  1.00  0.00     0.116 C 
BRANCH  27  28
ATOM     28  N   UNL A   1      33.686  29.954  27.667  1.00  0.00    -0.352 N 
ATOM     29  C   UNL A   1      34.646  30.733  28.264  1.00  0.00     0.251 C 
ATOM     30  H   UNL A   1      32.816  30.381  27.497  1.00  0.00     0.163 HD
ATOM     31  O   UNL A   1      34.390  31.859  28.671  1.00  0.00    -0.269 OA
BRANCH  29  32
ATOM     32  C   UNL A   1      35.980  30.136  28.446  1.00  0.00     0.039 A 
ATOM     33  C   UNL A   1      36.896  30.202  27.398  1.00  0.00     0.014 A 
ATOM     34  C   UNL A   1      36.351  29.643  29.701  1.00  0.00     0.014 A 
ATOM     35  C   UNL A   1      38.212  29.809  27.628  1.00  0.00     0.010 A 
ATOM     36  C   UNL A   1      37.682  29.355  29.952  1.00  0.00     0.010 A 
ATOM     37  C   UNL A   1      38.622  29.413  28.913  1.00  0.00    -0.014 A 
BRANCH  37  38
ATOM     38  C   UNL A   1      40.023  29.015  29.177  1.00  0.00     0.031 A 
ATOM     39  C   UNL A   1      40.955  29.987  29.846  1.00  0.00     0.074 A 
ATOM     40  C   UNL A   1      40.458  27.800  28.791  1.00  0.00     0.049 A 
ATOM     41  N   UNL A   1      42.213  29.831  30.170  1.00  0.00    -0.248 NA
ATOM     42  C   UNL A   1      40.415  31.319  30.172  1.00  0.00     0.031 C 
ATOM     43  C   UNL A   1      39.655  26.793  28.090  1.00  0.00     0.029 A 
ATOM     44  N   UNL A   1      41.681  27.200  28.941  1.00  0.00    -0.354 N 
ATOM     45  C   UNL A   1      42.610  31.040  30.729  1.00  0.00     0.074 A 
ATOM     46  C   UNL A   1      41.487  31.944  30.634  1.00  0.00     0.031 C 
ATOM     47  C   UNL A   1      40.394  25.685  27.916  1.00  0.00     0.029 A 
ATOM     48  C   UNL A   1      41.730  25.915  28.454  1.00  0.00     0.049 A 
ATOM     49  H   UNL A   1      42.452  27.647  29.360  1.00  0.00     0.167 HD
ATOM     50  C   UNL A   1      43.793  31.360  31.302  1.00  0.00     0.031 A 
ATOM     51  C   UNL A   1      42.740  25.023  28.448  1.00  0.00     0.031 A 
ATOM     52  C   UNL A   1      44.902  30.452  31.401  1.00  0.00     0.049 A 
ATOM     53  C   UNL A   1      44.054  25.411  29.072  1.00  0.00     0.074 A 
ATOM     54  C   UNL A   1      46.131  30.659  32.000  1.00  0.00     0.029 A 
ATOM     55  N   UNL A   1      44.916  29.164  30.887  1.00  0.00    -0.354 N 
ATOM     56  N   UNL A   1      44.387  26.535  29.661  1.00  0.00    -0.248 NA
ATOM     57  C   UNL A   1      45.123  24.404  29.043  1.00  0.00     0.031 C 
ATOM     58  C   UNL A   1      46.908  29.514  31.800  1.00  0.00     0.029 A 
ATOM     59  C   UNL A   1      46.141  28.571  31.134  1.00  0.00     0.049 A 
ATOM     60  H   UNL A   1      44.165  28.735  30.417  1.00  0.00     0.167 HD
ATOM     61  C   UNL A   1      45.696  26.360  30.099  1.00  0.00     0.074 A 
ATOM     62  C   UNL A   1      46.084  25.014  29.723  1.00  0.00     0.031 C 
ATOM     63  C   UNL A   1      46.504  27.230  30.752  1.00  0.00     0.031 A 
BRANCH  50  64
ATOM     64  C   UNL A   1      43.938  32.748  31.867  1.00  0.00    -0.014 A 
ATOM     65  C   UNL A   1      43.609  33.023  33.208  1.00  0.00     0.010 A 
ATOM     66  C   UNL A   1      44.439  33.786  31.060  1.00  0.00     0.010 A 
ATOM     67  C   UNL A   1      43.739  34.317  33.718  1.00  0.00     0.020 A 
ATOM     68  C   UNL A   1      44.600  35.074  31.577  1.00  0.00     0.020 A 
ATOM     69  C   UNL A   1      44.234  35.334  32.899  1.00  0.00     0.054 A 
BRANCH  69  70
ATOM     70  S   UNL A   1      44.419  36.997  33.600  1.00  0.00     0.124 S 
ATOM     71  O   UNL A   1      44.959  36.706  34.926  1.00  0.00    -0.237 OA
ATOM     72  O   UNL A   1      45.349  37.633  32.670  1.00  0.00    -0.237 OA
ATOM     73  O   UNL A   1      43.061  37.535  33.584  1.00  0.00    -0.744 OA
ENDBRANCH  69  70
ENDBRANCH  50  64
BRANCH  51  74
ATOM     74  C   UNL A   1      42.542  23.671  27.855  1.00  0.00    -0.014 A 
ATOM     75  C   UNL A   1      42.108  22.596  28.651  1.00  0.00     0.010 A 
ATOM     76  C   UNL A   1      42.790  23.449  26.488  1.00  0.00     0.010 A 
ATOM     77  C   UNL A   1      41.955  21.321  28.100  1.00  0.00     0.020 A 
ATOM     78  C   UNL A   1      42.607  22.183  25.926  1.00  0.00     0.020 A 
ATOM     79  C   UNL A   1      42.205  21.122  26.740  1.00  0.00     0.054 A 
BRANCH  79  80
ATOM     80  S   UNL A   1      41.966  19.466  26.039  1.00  0.00     0.124 S 
ATOM     81  O   UNL A   1      40.530  19.448  25.784  1.00  0.00    -0.237 OA
ATOM     82  O   UNL A   1      42.820  19.501  24.853  1.00  0.00    -0.237 OA
ATOM     83  O   UNL A   1      42.427  18.575  27.101  1.00  0.00    -0.744 OA
ENDBRANCH  79  80
ENDBRANCH  51  74
BRANCH  63  84
ATOM     84  C   UNL A   1      47.877  26.744  31.136  1.00  0.00    -0.014 A 
ATOM     85  C   UNL A   1      48.971  26.881  30.264  1.00  0.00     0.010 A 
ATOM     86  C   UNL A   1      48.083  26.195  32.415  1.00  0.00     0.010 A 
ATOM     87  C   UNL A   1      50.240  26.444  30.652  1.00  0.00     0.020 A 
ATOM     88  C   UNL A   1      49.355  25.788  32.818  1.00  0.00     0.020 A 
ATOM     89  C   UNL A   1      50.424  25.902  31.927  1.00  0.00     0.054 A 
BRANCH  89  90
ATOM     90  S   UNL A   1      52.091  25.384  32.422  1.00  0.00     0.124 S 
ATOM     91  O   UNL A   1      52.926  26.077  31.443  1.00  0.00    -0.237 OA
ATOM     92  O   UNL A   1      52.185  25.880  33.793  1.00  0.00    -0.237 OA
ATOM     93  O   UNL A   1      52.055  23.930  32.292  1.00  0.00    -0.744 OA
ENDBRANCH  89  90
ENDBRANCH  63  84
ENDBRANCH  37  38
ENDBRANCH  29  32
ENDBRANCH  27  28
ENDBRANCH  26  27
ENDBRANCH  25  26
ENDBRANCH   1  25
TORSDOF 21
ENDMDL
MODEL 2
REMARK VINA RESULT:      -9.8      3.279      4.170
REMARK SMILES CC(C)OCCS(=O)(=O)Nc1ccc(O)c(C(=O)NCCCCNC(=O)c2ccc(-c3c4nc(c(-c5ccc(S(=O)(=O)[O-])cc5)c5ccc([nH]5)c(-c5ccc(S(=O)(=O)[O-])cc5)c5nc(c(-c6ccc(S(=O)(=O)[O-])cc6)c6ccc3[nH]6)C=C5)C=C4)cc2)c1
REMARK SMILES IDX 20 1 19 2 17 3 18 4 16 6 11 7 12 8 87 9 13 10 14 11 10 12
REMARK SMILES IDX 7 14 8 15 9 16 6 17 5 18 4 19 2 20 1 21 3 22 15 23 21 25
REMARK SMILES IDX 22 26 23 27 24 28 25 29 26 31 27 32 28 33 86 34 29 35 85 36
REMARK SMILES IDX 30 37 31 38 32 39 79 40 33 41 84 42 78 43 80 44 34 45 83 46
REMARK SMILES IDX 77 47 76 48 35 50 65 51 46 52 64 53 47 54 50 55 63 56 81 57
REMARK SMILES IDX 48 58 49 59 62 61 82 62 51 63 36 64 37 65 45 66 38 67 44 68
REMARK SMILES IDX 39 69 40 70 41 71 42 72 43 73 66 74 67 75 75 76 68 77 74 78
REMARK SMILES IDX 69 79 70 80 71 81 72 82 73 83 52 84 53 85 61 86 54 87 60 88
REMARK SMILES IDX 55 89 56 90 57 91 58 92 59 93
REMARK H PARENT 19 5 10 13 15 24 24 30 80 49 50 60
REMARK Flexibility Score: inf
ROOT
ATOM      1  C   UNL A   1      33.964  28.994  24.025  1.00  0.00     0.116 C 
ENDROOT
BRANCH   1   2
ATOM      2  N   UNL A   1      32.636  29.142  23.480  1.00  0.00    -0.352 N 
ATOM      3  C   UNL A   1      31.774  28.214  22.961  1.00  0.00     0.255 C 
ATOM      4  O   UNL A   1      30.714  28.633  22.487  1.00  0.00    -0.269 OA
ATOM      5  H   UNL A   1      32.292  30.065  23.480  1.00  0.00     0.163 HD
BRANCH   3   6
ATOM      6  C   UNL A   1      32.001  26.739  22.973  1.00  0.00     0.083 A 
ATOM      7  C   UNL A   1      31.359  24.669  24.089  1.00  0.00     0.050 A 
ATOM      8  C   UNL A   1      31.932  23.993  23.037  1.00  0.00     0.030 A 
ATOM      9  C   UNL A   1      31.338  26.053  24.025  1.00  0.00     0.044 A 
ATOM     10  C   UNL A   1      32.650  24.603  22.040  1.00  0.00     0.049 A 
ATOM     11  C   UNL A   1      32.684  25.979  22.006  1.00  0.00     0.128 A 
BRANCH   7  12
ATOM     12  N   UNL A   1      30.557  23.939  25.006  1.00  0.00    -0.283 N 
ATOM     13  H   UNL A   1      29.728  23.528  24.673  1.00  0.00     0.180 HD
BRANCH  12  14
ATOM     14  S   UNL A   1      30.945  23.741  26.625  1.00  0.00     0.235 S 
ATOM     15  O   UNL A   1      29.753  23.206  27.242  1.00  0.00    -0.207 OA
ATOM     16  O   UNL A   1      31.457  25.026  27.070  1.00  0.00    -0.207 OA
BRANCH  14  17
ATOM     17  C   UNL A   1      32.289  22.552  26.848  1.00  0.00     0.188 C 
BRANCH  17  18
ATOM     18  C   UNL A   1      33.697  23.011  26.447  1.00  0.00     0.178 C 
BRANCH  18  19
ATOM     19  O   UNL A   1      34.211  22.336  25.296  1.00  0.00    -0.378 OA
BRANCH  19  20
ATOM     20  C   UNL A   1      35.160  22.995  24.443  1.00  0.00     0.112 C 
ATOM     21  C   UNL A   1      35.225  24.477  24.763  1.00  0.00     0.038 C 
ATOM     22  C   UNL A   1      36.549  22.370  24.364  1.00  0.00     0.038 C 
ENDBRANCH  19  20
ENDBRANCH  18  19
ENDBRANCH  17  18
ENDBRANCH  14  17
ENDBRANCH  12  14
ENDBRANCH   7  12
BRANCH  11  23
ATOM     23  O   UNL A   1      33.342  26.476  20.932  1.00  0.00    -0.507 OA
ATOM     24  H   UNL A   1      33.180  27.355  20.650  1.00  0.00     0.293 HD
ENDBRANCH  11  23
ENDBRANCH   3   6
ENDBRANCH   1   2
BRANCH   1  25
ATOM     25  C   UNL A   1      33.887  28.439  25.454  1.00  0.00     0.023 C 
BRANCH  25  26
ATOM     26  C   UNL A   1      34.060  29.458  26.565  1.00  0.00     0.023 C 
BRANCH  26  27
ATOM     27  C   UNL A   1      35.258  29.188  27.447  1.00  0.00     0.116 C 
BRANCH  27  28
ATOM     28  N   UNL A   1      35.284  30.001  28.657  1.00  0.00    -0.352 N 
ATOM     29  C   UNL A   1      36.362  30.219  29.478  1.00  0.00     0.251 C 
ATOM     30  H   UNL A   1      34.440  30.439  28.912  1.00  0.00     0.163 HD
ATOM     31  O   UNL A   1      36.245  30.828  30.535  1.00  0.00    -0.269 OA
BRANCH  29  32
ATOM     32  C   UNL A   1      37.653  29.644  29.063  1.00  0.00     0.039 A 
ATOM     33  C   UNL A   1      38.041  29.751  27.729  1.00  0.00     0.014 A 
ATOM     34  C   UNL A   1      38.522  29.129  30.030  1.00  0.00     0.014 A 
ATOM     35  C   UNL A   1      39.334  29.378  27.371  1.00  0.00     0.010 A 
ATOM     36  C   UNL A   1      39.838  28.861  29.688  1.00  0.00     0.010 A 
ATOM     37  C   UNL A   1      40.250  28.960  28.352  1.00  0.00    -0.014 A 
BRANCH  37  38
ATOM     38  C   UNL A   1      41.635  28.583  27.989  1.00  0.00     0.031 A 
ATOM     39  C   UNL A   1      42.705  29.639  27.955  1.00  0.00     0.074 A 
ATOM     40  C   UNL A   1      41.918  27.306  27.665  1.00  0.00     0.049 A 
ATOM     41  N   UNL A   1      43.975  29.514  27.669  1.00  0.00    -0.248 NA
ATOM     42  C   UNL A   1      42.294  31.021  28.257  1.00  0.00     0.031 C 
ATOM     43  C   UNL A   1      40.948  26.206  27.616  1.00  0.00     0.029 A 
ATOM     44  N   UNL A   1      43.106  26.714  27.324  1.00  0.00    -0.354 N 
ATOM     45  C   UNL A   1      44.507  30.795  27.751  1.00  0.00     0.074 A 
ATOM     46  C   UNL A   1      43.413  31.694  28.040  1.00  0.00     0.031 C 
ATOM     47  C   UNL A   1      41.591  25.067  27.313  1.00  0.00     0.029 A 
ATOM     48  C   UNL A   1      43.005  25.359  27.107  1.00  0.00     0.049 A 
ATOM     49  H   UNL A   1      43.952  27.211  27.243  1.00  0.00     0.167 HD
ATOM     50  C   UNL A   1      45.796  31.187  27.631  1.00  0.00     0.031 A 
ATOM     51  C   UNL A   1      43.952  24.457  26.783  1.00  0.00     0.031 A 
ATOM     52  C   UNL A   1      46.881  30.285  27.354  1.00  0.00     0.049 A 
ATOM     53  C   UNL A   1      45.376  24.920  26.633  1.00  0.00     0.074 A 
ATOM     54  C   UNL A   1      48.230  30.568  27.255  1.00  0.00     0.029 A 
ATOM     55  N   UNL A   1      46.737  28.923  27.131  1.00  0.00    -0.354 N 
ATOM     56  N   UNL A   1      45.871  26.126  26.786  1.00  0.00    -0.248 NA
ATOM     57  C   UNL A   1      46.371  23.899  26.281  1.00  0.00     0.031 C 
ATOM     58  C   UNL A   1      48.897  29.386  26.918  1.00  0.00     0.029 A 
ATOM     59  C   UNL A   1      47.972  28.356  26.871  1.00  0.00     0.049 A 
ATOM     60  H   UNL A   1      45.883  28.433  27.155  1.00  0.00     0.167 HD
ATOM     61  C   UNL A   1      47.241  26.002  26.577  1.00  0.00     0.074 A 
ATOM     62  C   UNL A   1      47.496  24.601  26.307  1.00  0.00     0.031 C 
ATOM     63  C   UNL A   1      48.202  26.958  26.607  1.00  0.00     0.031 A 
BRANCH  50  64
ATOM     64  C   UNL A   1      46.097  32.651  27.806  1.00  0.00    -0.014 A 
ATOM     65  C   UNL A   1      46.109  33.526  26.703  1.00  0.00     0.010 A 
ATOM     66  C   UNL A   1      46.339  33.170  29.091  1.00  0.00     0.010 A 
ATOM     67  C   UNL A   1      46.398  34.881  26.876  1.00  0.00     0.020 A 
ATOM     68  C   UNL A   1      46.597  34.531  29.272  1.00  0.00     0.020 A 
ATOM     69  C   UNL A   1      46.641  35.375  28.160  1.00  0.00     0.054 A 
BRANCH  69  70
ATOM     70  S   UNL A   1      46.984  37.146  28.357  1.00  0.00     0.124 S 
ATOM     71  O   UNL A   1      48.386  37.137  28.765  1.00  0.00    -0.237 OA
ATOM     72  O   UNL A   1      46.723  37.671  27.019  1.00  0.00    -0.237 OA
ATOM     73  O   UNL A   1      46.037  37.571  29.385  1.00  0.00    -0.744 OA
ENDBRANCH  69  70
ENDBRANCH  50  64
BRANCH  51  74
ATOM     74  C   UNL A   1      43.590  23.023  26.602  1.00  0.00    -0.014 A 
ATOM     75  C   UNL A   1      42.971  22.305  27.641  1.00  0.00     0.010 A 
ATOM     76  C   UNL A   1      43.864  22.366  25.389  1.00  0.00     0.010 A 
ATOM     77  C   UNL A   1      42.661  20.951  27.482  1.00  0.00     0.020 A 
ATOM     78  C   UNL A   1      43.527  21.021  25.215  1.00  0.00     0.020 A 
ATOM     79  C   UNL A   1      42.940  20.317  26.268  1.00  0.00     0.054 A 
BRANCH  79  80
ATOM     80  S   UNL A   1      42.499  18.569  26.072  1.00  0.00     0.124 S 
ATOM     81  O   UNL A   1      41.079  18.649  25.742  1.00  0.00    -0.237 OA
ATOM     82  O   UNL A   1      43.379  18.142  24.986  1.00  0.00    -0.237 OA
ATOM     83  O   UNL A   1      42.807  17.989  27.377  1.00  0.00    -0.744 OA
ENDBRANCH  79  80
ENDBRANCH  51  74
BRANCH  63  84
ATOM     84  C   UNL A   1      49.623  26.517  26.377  1.00  0.00    -0.014 A 
ATOM     85  C   UNL A   1      50.221  26.611  25.108  1.00  0.00     0.010 A 
ATOM     86  C   UNL A   1      50.389  26.057  27.464  1.00  0.00     0.010 A 
ATOM     87  C   UNL A   1      51.549  26.219  24.923  1.00  0.00     0.020 A 
ATOM     88  C   UNL A   1      51.725  25.695  27.290  1.00  0.00     0.020 A 
ATOM     89  C   UNL A   1      52.293  25.764  26.016  1.00  0.00     0.054 A 
BRANCH  89  90
ATOM     90  S   UNL A   1      54.028  25.304  25.759  1.00  0.00     0.124 S 
ATOM     91  O   UNL A   1      54.710  26.120  26.760  1.00  0.00    -0.237 OA
ATOM     92  O   UNL A   1      54.019  23.866  26.020  1.00  0.00    -0.237 OA
ATOM     93  O   UNL A   1      54.284  25.677  24.370  1.00  0.00    -0.744 OA
ENDBRANCH  89  90
ENDBRANCH  63  84
ENDBRANCH  37  38
ENDBRANCH  29  32
ENDBRANCH  27  28
ENDBRANCH  26  27
ENDBRANCH  25  26
ENDBRANCH   1  25
TORSDOF 21
ENDMDL
MODEL 3
REMARK VINA RESULT:      -9.8      3.436      9.296
REMARK SMILES CC(C)OCCS(=O)(=O)Nc1ccc(O)c(C(=O)NCCCCNC(=O)c2ccc(-c3c4nc(c(-c5ccc(S(=O)(=O)[O-])cc5)c5ccc([nH]5)c(-c5ccc(S(=O)(=O)[O-])cc5)c5nc(c(-c6ccc(S(=O)(=O)[O-])cc6)c6ccc3[nH]6)C=C5)C=C4)cc2)c1
REMARK SMILES IDX 20 1 19 2 17 3 18 4 16 6 11 7 12 8 87 9 13 10 14 11 10 12
REMARK SMILES IDX 7 14 8 15 9 16 6 17 5 18 4 19 2 20 1 21 3 22 15 23 21 25
REMARK SMILES IDX 22 26 23 27 24 28 25 29 26 31 27 32 28 33 86 34 29 35 85 36
REMARK SMILES IDX 30 37 31 38 32 39 79 40 33 41 84 42 78 43 80 44 34 45 83 46
REMARK SMILES IDX 77 47 76 48 35 50 65 51 46 52 64 53 47 54 50 55 63 56 81 57
REMARK SMILES IDX 48 58 49 59 62 61 82 62 51 63 36 64 37 65 45 66 38 67 44 68
REMARK SMILES IDX 39 69 40 70 41 71 42 72 43 73 66 74 67 75 75 76 68 77 74 78
REMARK SMILES IDX 69 79 70 80 71 81 72 82 73 83 52 84 53 85 61 86 54 87 60 88
REMARK SMILES IDX 55 89 56 90 57 91 58 92 59 93
REMARK H PARENT 19 5 10 13 15 24 24 30 80 49 50 60
REMARK Flexibility Score: inf
ROOT
ATOM      1  C   UNL A   1      36.612  23.253  25.096  1.00  0.00     0.116 C 
ENDROOT
BRANCH   1   2
ATOM      2  N   UNL A   1      35.888  22.961  26.309  1.00  0.00    -0.352 N 
ATOM      3  C   UNL A   1      34.629  22.460  26.500  1.00  0.00     0.255 C 
ATOM      4  O   UNL A   1      34.225  22.380  27.663  1.00  0.00    -0.269 OA
ATOM      5  H   UNL A   1      36.382  23.155  27.139  1.00  0.00     0.163 HD
BRANCH   3   6
ATOM      6  C   UNL A   1      33.736  21.961  25.414  1.00  0.00     0.083 A 
ATOM      7  C   UNL A   1      32.938  22.441  23.161  1.00  0.00     0.050 A 
ATOM      8  C   UNL A   1      32.465  21.150  23.117  1.00  0.00     0.030 A 
ATOM      9  C   UNL A   1      33.634  22.829  24.294  1.00  0.00     0.044 A 
ATOM     10  C   UNL A   1      32.469  20.299  24.193  1.00  0.00     0.049 A 
ATOM     11  C   UNL A   1      33.106  20.705  25.345  1.00  0.00     0.128 A 
BRANCH   7  12
ATOM     12  N   UNL A   1      32.971  23.191  21.955  1.00  0.00    -0.283 N 
ATOM     13  H   UNL A   1      33.003  22.699  21.103  1.00  0.00     0.180 HD
BRANCH  12  14
ATOM     14  S   UNL A   1      32.960  24.866  21.905  1.00  0.00     0.235 S 
ATOM     15  O   UNL A   1      33.117  25.208  20.509  1.00  0.00    -0.207 OA
ATOM     16  O   UNL A   1      33.968  25.299  22.857  1.00  0.00    -0.207 OA
BRANCH  14  17
ATOM     17  C   UNL A   1      31.386  25.541  22.486  1.00  0.00     0.188 C 
BRANCH  17  18
ATOM     18  C   UNL A   1      31.415  26.335  23.799  1.00  0.00     0.178 C 
BRANCH  18  19
ATOM     19  O   UNL A   1      31.616  25.519  24.956  1.00  0.00    -0.378 OA
BRANCH  19  20
ATOM     20  C   UNL A   1      32.129  26.102  26.163  1.00  0.00     0.112 C 
ATOM     21  C   UNL A   1      33.644  26.163  26.124  1.00  0.00     0.038 C 
ATOM     22  C   UNL A   1      31.517  27.434  26.586  1.00  0.00     0.038 C 
ENDBRANCH  19  20
ENDBRANCH  18  19
ENDBRANCH  17  18
ENDBRANCH  14  17
ENDBRANCH  12  14
ENDBRANCH   7  12
BRANCH  11  23
ATOM     23  O   UNL A   1      33.129  19.757  26.311  1.00  0.00    -0.507 OA
ATOM     24  H   UNL A   1      33.919  19.595  26.789  1.00  0.00     0.293 HD
ENDBRANCH  11  23
ENDBRANCH   3   6
ENDBRANCH   1   2
BRANCH   1  25
ATOM     25  C   UNL A   1      37.256  21.973  24.545  1.00  0.00     0.023 C 
BRANCH  25  26
ATOM     26  C   UNL A   1      37.792  21.007  25.586  1.00  0.00     0.023 C 
BRANCH  26  27
ATOM     27  C   UNL A   1      39.243  21.244  25.936  1.00  0.00     0.116 C 
BRANCH  27  28
ATOM     28  N   UNL A   1      40.043  20.025  25.955  1.00  0.00    -0.352 N 
ATOM     29  C   UNL A   1      41.401  19.935  26.139  1.00  0.00     0.251 C 
ATOM     30  H   UNL A   1      39.559  19.178  25.821  1.00  0.00     0.163 HD
ATOM     31  O   UNL A   1      41.990  18.868  26.021  1.00  0.00    -0.269 OA
BRANCH  29  32
ATOM     32  C   UNL A   1      42.126  21.184  26.428  1.00  0.00     0.039 A 
ATOM     33  C   UNL A   1      42.429  22.046  25.376  1.00  0.00     0.014 A 
ATOM     34  C   UNL A   1      42.373  21.547  27.756  1.00  0.00     0.014 A 
ATOM     35  C   UNL A   1      42.944  23.307  25.666  1.00  0.00     0.010 A 
ATOM     36  C   UNL A   1      42.785  22.838  28.042  1.00  0.00     0.010 A 
ATOM     37  C   UNL A   1      43.096  23.723  27.000  1.00  0.00    -0.014 A 
BRANCH  37  38
ATOM     38  C   UNL A   1      43.621  25.070  27.322  1.00  0.00     0.031 A 
ATOM     39  C   UNL A   1      45.082  25.363  27.119  1.00  0.00     0.074 A 
ATOM     40  C   UNL A   1      42.793  26.010  27.819  1.00  0.00     0.049 A 
ATOM     41  N   UNL A   1      45.735  26.475  27.334  1.00  0.00    -0.248 NA
ATOM     42  C   UNL A   1      45.928  24.257  26.637  1.00  0.00     0.031 C 
ATOM     43  C   UNL A   1      41.366  25.822  28.102  1.00  0.00     0.029 A 
ATOM     44  N   UNL A   1      43.030  27.314  28.165  1.00  0.00    -0.354 N 
ATOM     45  C   UNL A   1      47.060  26.200  27.019  1.00  0.00     0.074 A 
ATOM     46  C   UNL A   1      47.135  24.800  26.671  1.00  0.00     0.031 C 
ATOM     47  C   UNL A   1      40.848  26.983  28.533  1.00  0.00     0.029 A 
ATOM     48  C   UNL A   1      41.907  27.984  28.595  1.00  0.00     0.049 A 
ATOM     49  H   UNL A   1      43.919  27.733  28.110  1.00  0.00     0.167 HD
ATOM     50  C   UNL A   1      48.117  27.044  26.989  1.00  0.00     0.031 A 
ATOM     51  C   UNL A   1      41.754  29.263  28.988  1.00  0.00     0.031 A 
ATOM     52  C   UNL A   1      48.033  28.439  27.328  1.00  0.00     0.049 A 
ATOM     53  C   UNL A   1      42.949  30.178  28.967  1.00  0.00     0.074 A 
ATOM     54  C   UNL A   1      49.032  29.394  27.289  1.00  0.00     0.029 A 
ATOM     55  N   UNL A   1      46.882  29.076  27.767  1.00  0.00    -0.354 N 
ATOM     56  N   UNL A   1      44.181  29.916  28.597  1.00  0.00    -0.248 NA
ATOM     57  C   UNL A   1      42.730  31.563  29.404  1.00  0.00     0.031 C 
ATOM     58  C   UNL A   1      48.498  30.598  27.758  1.00  0.00     0.029 A 
ATOM     59  C   UNL A   1      47.151  30.408  28.027  1.00  0.00     0.049 A 
ATOM     60  H   UNL A   1      46.004  28.645  27.877  1.00  0.00     0.167 HD
ATOM     61  C   UNL A   1      44.877  31.113  28.728  1.00  0.00     0.074 A 
ATOM     62  C   UNL A   1      43.924  32.101  29.193  1.00  0.00     0.031 C 
ATOM     63  C   UNL A   1      46.186  31.374  28.487  1.00  0.00     0.031 A 
BRANCH  50  64
ATOM     64  C   UNL A   1      49.448  26.477  26.571  1.00  0.00    -0.014 A 
ATOM     65  C   UNL A   1      49.851  26.492  25.222  1.00  0.00     0.010 A 
ATOM     66  C   UNL A   1      50.322  25.952  27.539  1.00  0.00     0.010 A 
ATOM     67  C   UNL A   1      51.083  25.955  24.845  1.00  0.00     0.020 A 
ATOM     68  C   UNL A   1      51.570  25.443  27.169  1.00  0.00     0.020 A 
ATOM     69  C   UNL A   1      51.935  25.433  25.822  1.00  0.00     0.054 A 
BRANCH  69  70
ATOM     70  S   UNL A   1      53.543  24.770  25.304  1.00  0.00     0.124 S 
ATOM     71  O   UNL A   1      53.847  25.597  24.138  1.00  0.00    -0.237 OA
ATOM     72  O   UNL A   1      54.379  25.009  26.478  1.00  0.00    -0.237 OA
ATOM     73  O   UNL A   1      53.263  23.366  25.016  1.00  0.00    -0.744 OA
ENDBRANCH  69  70
ENDBRANCH  50  64
BRANCH  51  74
ATOM     74  C   UNL A   1      40.415  29.761  29.412  1.00  0.00    -0.014 A 
ATOM     75  C   UNL A   1      39.431  30.069  28.456  1.00  0.00     0.010 A 
ATOM     76  C   UNL A   1      40.117  29.933  30.776  1.00  0.00     0.010 A 
ATOM     77  C   UNL A   1      38.186  30.567  28.854  1.00  0.00     0.020 A 
ATOM     78  C   UNL A   1      38.863  30.400  31.179  1.00  0.00     0.020 A 
ATOM     79  C   UNL A   1      37.910  30.729  30.214  1.00  0.00     0.054 A 
BRANCH  79  80
ATOM     80  S   UNL A   1      36.277  31.345  30.708  1.00  0.00     0.124 S 
ATOM     81  O   UNL A   1      35.901  30.402  31.757  1.00  0.00    -0.237 OA
ATOM     82  O   UNL A   1      36.575  32.704  31.154  1.00  0.00    -0.237 OA
ATOM     83  O   UNL A   1      35.493  31.260  29.478  1.00  0.00    -0.744 OA
ENDBRANCH  79  80
ENDBRANCH  51  74
BRANCH  63  84
ATOM     84  C   UNL A   1      46.657  32.790  28.684  1.00  0.00    -0.014 A 
ATOM     85  C   UNL A   1      47.222  33.209  29.902  1.00  0.00     0.010 A 
ATOM     86  C   UNL A   1      46.586  33.699  27.612  1.00  0.00     0.010 A 
ATOM     87  C   UNL A   1      47.674  34.522  30.054  1.00  0.00     0.020 A 
ATOM     88  C   UNL A   1      47.066  35.001  27.750  1.00  0.00     0.020 A 
ATOM     89  C   UNL A   1      47.595  35.409  28.977  1.00  0.00     0.054 A 
BRANCH  89  90
ATOM     90  S   UNL A   1      48.230  37.095  29.187  1.00  0.00     0.124 S 
ATOM     91  O   UNL A   1      47.033  37.820  29.607  1.00  0.00    -0.237 OA
ATOM     92  O   UNL A   1      49.254  36.924  30.215  1.00  0.00    -0.237 OA
ATOM     93  O   UNL A   1      48.737  37.442  27.862  1.00  0.00    -0.744 OA
ENDBRANCH  89  90
ENDBRANCH  63  84
ENDBRANCH  37  38
ENDBRANCH  29  32
ENDBRANCH  27  28
ENDBRANCH  26  27
ENDBRANCH  25  26
ENDBRANCH   1  25
TORSDOF 21
ENDMDL
