MODEL 1
REMARK VINA RESULT:     -11.2      0.000      0.000
REMARK SMILES Cc1cc(C)n([C@@H](C(=O)NCCCCNC(=O)c2ccc(-c3c4nc(c(-c5ccc(S(=O)(=O)[O-])cc5)c5ccc([nH]5)c(-c5ccc(S(=O)(=O)[O-])cc5)c5nc(c(-c6ccc(S(=O)(=O)[O-])cc6)c6ccc3[nH]6)C=C5)C=C4)cc2)C(C)C)n1
REMARK SMILES IDX 13 1 12 2 11 3 10 4 8 5 9 6 7 8 6 9 1 10 2 11 3 12 81 13
REMARK SMILES IDX 4 14 5 15 78 16 79 17 80 18 14 19 15 20 16 21 17 23 18 24
REMARK SMILES IDX 19 25 77 26 20 27 76 28 21 29 22 30 23 31 70 32 24 33 75 34
REMARK SMILES IDX 69 35 71 36 25 37 74 38 68 39 67 40 26 42 56 43 37 44 55 45
REMARK SMILES IDX 38 46 41 47 54 48 72 49 39 50 40 51 53 53 73 54 42 55 27 56
REMARK SMILES IDX 28 57 36 58 29 59 35 60 30 61 31 62 32 63 33 64 34 65 57 66
REMARK SMILES IDX 58 67 66 68 59 69 65 70 60 71 61 72 62 73 63 74 64 75 43 76
REMARK SMILES IDX 44 77 52 78 45 79 51 80 46 81 47 82 48 83 49 84 50 85
REMARK H PARENT 10 7 15 22 71 41 41 52
REMARK Flexibility Score: inf
ROOT
ATOM      1  C   UNL A   1      31.314  31.846  26.507  1.00  0.00     0.023 C 
ENDROOT
BRANCH   1   2
ATOM      2  C   UNL A   1      31.499  30.393  26.044  1.00  0.00     0.023 C 
BRANCH   2   3
ATOM      3  C   UNL A   1      32.946  29.927  25.832  1.00  0.00     0.116 C 
BRANCH   3   4
ATOM      4  N   UNL A   1      33.287  29.810  24.424  1.00  0.00    -0.354 N 
ATOM      5  C   UNL A   1      33.074  28.772  23.555  1.00  0.00     0.245 C 
ATOM      6  O   UNL A   1      33.605  28.856  22.444  1.00  0.00    -0.273 OA
ATOM      7  H   UNL A   1      33.738  30.595  24.035  1.00  0.00     0.163 HD
BRANCH   5   8
ATOM      8  C   UNL A   1      32.213  27.570  23.965  1.00  0.00     0.199 C 
BRANCH   8   9
ATOM      9  N   UNL A   1      33.011  26.341  23.879  1.00  0.00    -0.257 N 
ATOM     10  C   UNL A   1      35.235  24.156  25.576  1.00  0.00     0.069 C 
ATOM     11  C   UNL A   1      34.351  24.858  24.616  1.00  0.00     0.060 A 
ATOM     12  C   UNL A   1      34.148  24.569  23.254  1.00  0.00     0.048 A 
ATOM     13  N   UNL A   1      33.631  25.912  25.005  1.00  0.00    -0.177 NA
ATOM     14  C   UNL A   1      33.273  25.531  22.794  1.00  0.00     0.037 A 
ATOM     15  C   UNL A   1      32.725  25.726  21.428  1.00  0.00     0.066 C 
ENDBRANCH   8   9
BRANCH   8  16
ATOM     16  C   UNL A   1      30.868  27.453  23.187  1.00  0.00     0.017 C 
ATOM     17  C   UNL A   1      29.897  26.481  23.878  1.00  0.00     0.010 C 
ATOM     18  C   UNL A   1      30.154  28.805  23.040  1.00  0.00     0.010 C 
ENDBRANCH   8  16
ENDBRANCH   5   8
ENDBRANCH   3   4
ENDBRANCH   2   3
ENDBRANCH   1   2
BRANCH   1  19
ATOM     19  C   UNL A   1      32.509  32.442  27.234  1.00  0.00     0.116 C 
BRANCH  19  20
ATOM     20  N   UNL A   1      32.326  33.852  27.584  1.00  0.00    -0.352 N 
ATOM     21  C   UNL A   1      32.987  34.578  28.563  1.00  0.00     0.251 C 
ATOM     22  H   UNL A   1      31.652  34.344  27.060  1.00  0.00     0.163 HD
ATOM     23  O   UNL A   1      32.496  35.590  29.034  1.00  0.00    -0.269 OA
BRANCH  21  24
ATOM     24  C   UNL A   1      34.311  34.102  29.008  1.00  0.00     0.039 A 
ATOM     25  C   UNL A   1      34.488  33.405  30.207  1.00  0.00     0.014 A 
ATOM     26  C   UNL A   1      35.386  34.343  28.160  1.00  0.00     0.014 A 
ATOM     27  C   UNL A   1      35.747  32.878  30.496  1.00  0.00     0.010 A 
ATOM     28  C   UNL A   1      36.567  33.683  28.359  1.00  0.00     0.010 A 
ATOM     29  C   UNL A   1      36.779  33.005  29.554  1.00  0.00    -0.014 A 
BRANCH  29  30
ATOM     30  C   UNL A   1      38.063  32.331  29.720  1.00  0.00     0.031 A 
ATOM     31  C   UNL A   1      38.055  30.899  29.311  1.00  0.00     0.074 A 
ATOM     32  C   UNL A   1      39.210  33.014  29.940  1.00  0.00     0.049 A 
ATOM     33  N   UNL A   1      38.150  29.859  30.071  1.00  0.00    -0.248 NA
ATOM     34  C   UNL A   1      37.731  30.579  27.908  1.00  0.00     0.031 C 
ATOM     35  C   UNL A   1      39.388  34.472  30.025  1.00  0.00     0.029 A 
ATOM     36  N   UNL A   1      40.493  32.565  29.992  1.00  0.00    -0.354 N 
ATOM     37  C   UNL A   1      38.174  28.766  29.209  1.00  0.00     0.074 A 
ATOM     38  C   UNL A   1      37.674  29.246  27.947  1.00  0.00     0.031 C 
ATOM     39  C   UNL A   1      40.691  34.784  29.852  1.00  0.00     0.029 A 
ATOM     40  C   UNL A   1      41.461  33.555  29.830  1.00  0.00     0.049 A 
ATOM     41  H   UNL A   1      40.719  31.617  30.133  1.00  0.00     0.167 HD
ATOM     42  C   UNL A   1      38.895  27.647  29.508  1.00  0.00     0.031 A 
ATOM     43  C   UNL A   1      42.798  33.380  29.662  1.00  0.00     0.031 A 
ATOM     44  C   UNL A   1      39.315  27.650  30.889  1.00  0.00     0.049 A 
ATOM     45  C   UNL A   1      43.114  32.016  30.148  1.00  0.00     0.074 A 
ATOM     46  C   UNL A   1      38.675  27.713  32.110  1.00  0.00     0.029 A 
ATOM     47  N   UNL A   1      40.626  27.997  31.126  1.00  0.00    -0.354 N 
ATOM     48  N   UNL A   1      42.988  31.655  31.395  1.00  0.00    -0.248 NA
ATOM     49  C   UNL A   1      43.113  30.931  29.182  1.00  0.00     0.031 C 
ATOM     50  C   UNL A   1      39.512  28.538  32.920  1.00  0.00     0.029 A 
ATOM     51  C   UNL A   1      40.652  28.864  32.183  1.00  0.00     0.049 A 
ATOM     52  H   UNL A   1      41.408  27.676  30.621  1.00  0.00     0.167 HD
ATOM     53  C   UNL A   1      42.446  30.380  31.340  1.00  0.00     0.074 A 
ATOM     54  C   UNL A   1      42.645  29.947  29.956  1.00  0.00     0.031 C 
ATOM     55  C   UNL A   1      41.637  29.915  32.338  1.00  0.00     0.031 A 
BRANCH  42  56
ATOM     56  C   UNL A   1      39.628  26.814  28.472  1.00  0.00    -0.014 A 
ATOM     57  C   UNL A   1      39.628  25.410  28.625  1.00  0.00     0.010 A 
ATOM     58  C   UNL A   1      40.556  27.350  27.556  1.00  0.00     0.010 A 
ATOM     59  C   UNL A   1      40.585  24.607  27.992  1.00  0.00     0.020 A 
ATOM     60  C   UNL A   1      41.484  26.553  26.883  1.00  0.00     0.020 A 
ATOM     61  C   UNL A   1      41.521  25.191  27.140  1.00  0.00     0.054 A 
BRANCH  61  62
ATOM     62  S   UNL A   1      42.833  24.169  26.430  1.00  0.00     0.124 S 
ATOM     63  O   UNL A   1      43.632  23.850  27.610  1.00  0.00    -0.237 OA
ATOM     64  O   UNL A   1      42.079  23.060  25.852  1.00  0.00    -0.237 OA
ATOM     65  O   UNL A   1      43.469  25.058  25.460  1.00  0.00    -0.744 OA
ENDBRANCH  61  62
ENDBRANCH  42  56
BRANCH  43  66
ATOM     66  C   UNL A   1      43.753  34.187  28.858  1.00  0.00    -0.014 A 
ATOM     67  C   UNL A   1      44.936  34.700  29.424  1.00  0.00     0.010 A 
ATOM     68  C   UNL A   1      43.640  34.214  27.452  1.00  0.00     0.010 A 
ATOM     69  C   UNL A   1      45.988  35.170  28.614  1.00  0.00     0.020 A 
ATOM     70  C   UNL A   1      44.682  34.684  26.639  1.00  0.00     0.020 A 
ATOM     71  C   UNL A   1      45.861  35.141  27.223  1.00  0.00     0.054 A 
BRANCH  71  72
ATOM     72  S   UNL A   1      47.281  35.594  26.178  1.00  0.00     0.124 S 
ATOM     73  O   UNL A   1      48.405  35.445  27.099  1.00  0.00    -0.237 OA
ATOM     74  O   UNL A   1      47.212  34.611  25.101  1.00  0.00    -0.237 OA
ATOM     75  O   UNL A   1      46.989  36.969  25.776  1.00  0.00    -0.744 OA
ENDBRANCH  71  72
ENDBRANCH  43  66
BRANCH  55  76
ATOM     76  C   UNL A   1      41.603  30.668  33.648  1.00  0.00    -0.014 A 
ATOM     77  C   UNL A   1      40.662  31.666  33.969  1.00  0.00     0.010 A 
ATOM     78  C   UNL A   1      42.479  30.226  34.655  1.00  0.00     0.010 A 
ATOM     79  C   UNL A   1      40.620  32.222  35.259  1.00  0.00     0.020 A 
ATOM     80  C   UNL A   1      42.430  30.760  35.943  1.00  0.00     0.020 A 
ATOM     81  C   UNL A   1      41.507  31.764  36.237  1.00  0.00     0.054 A 
BRANCH  81  82
ATOM     82  S   UNL A   1      41.431  32.453  37.915  1.00  0.00     0.124 S 
ATOM     83  O   UNL A   1      42.251  31.518  38.680  1.00  0.00    -0.237 OA
ATOM     84  O   UNL A   1      41.994  33.790  37.744  1.00  0.00    -0.237 OA
ATOM     85  O   UNL A   1      40.005  32.429  38.237  1.00  0.00    -0.744 OA
ENDBRANCH  81  82
ENDBRANCH  55  76
ENDBRANCH  29  30
ENDBRANCH  21  24
ENDBRANCH  19  20
ENDBRANCH   1  19
TORSDOF 16
ENDMDL
MODEL 2
REMARK VINA RESULT:     -10.8      3.250      8.096
REMARK SMILES Cc1cc(C)n([C@@H](C(=O)NCCCCNC(=O)c2ccc(-c3c4nc(c(-c5ccc(S(=O)(=O)[O-])cc5)c5ccc([nH]5)c(-c5ccc(S(=O)(=O)[O-])cc5)c5nc(c(-c6ccc(S(=O)(=O)[O-])cc6)c6ccc3[nH]6)C=C5)C=C4)cc2)C(C)C)n1
REMARK SMILES IDX 13 1 12 2 11 3 10 4 8 5 9 6 7 8 6 9 1 10 2 11 3 12 81 13
REMARK SMILES IDX 4 14 5 15 78 16 79 17 80 18 14 19 15 20 16 21 17 23 18 24
REMARK SMILES IDX 19 25 77 26 20 27 76 28 21 29 22 30 23 31 70 32 24 33 75 34
REMARK SMILES IDX 69 35 71 36 25 37 74 38 68 39 67 40 26 42 56 43 37 44 55 45
REMARK SMILES IDX 38 46 41 47 54 48 72 49 39 50 40 51 53 53 73 54 42 55 27 56
REMARK SMILES IDX 28 57 36 58 29 59 35 60 30 61 31 62 32 63 33 64 34 65 57 66
REMARK SMILES IDX 58 67 66 68 59 69 65 70 60 71 61 72 62 73 63 74 64 75 43 76
REMARK SMILES IDX 44 77 52 78 45 79 51 80 46 81 47 82 48 83 49 84 50 85
REMARK H PARENT 10 7 15 22 71 41 41 52
REMARK Flexibility Score: inf
ROOT
ATOM      1  C   UNL A   1      36.370  22.441  25.020  1.00  0.00     0.023 C 
ENDROOT
BRANCH   1   2
ATOM      2  C   UNL A   1      35.535  23.089  26.135  1.00  0.00     0.023 C 
BRANCH   2   3
ATOM      3  C   UNL A   1      35.024  24.510  25.861  1.00  0.00     0.116 C 
BRANCH   3   4
ATOM      4  N   UNL A   1      34.992  24.820  24.440  1.00  0.00    -0.354 N 
ATOM      5  C   UNL A   1      33.934  24.832  23.570  1.00  0.00     0.245 C 
ATOM      6  O   UNL A   1      34.198  24.973  22.372  1.00  0.00    -0.273 OA
ATOM      7  H   UNL A   1      35.863  25.058  24.045  1.00  0.00     0.163 HD
BRANCH   5   8
ATOM      8  C   UNL A   1      32.496  24.674  24.081  1.00  0.00     0.199 C 
BRANCH   8   9
ATOM      9  N   UNL A   1      32.290  23.302  24.557  1.00  0.00    -0.257 N 
ATOM     10  C   UNL A   1      32.594  19.849  23.791  1.00  0.00     0.069 C 
ATOM     11  C   UNL A   1      32.339  21.178  24.394  1.00  0.00     0.060 A 
ATOM     12  C   UNL A   1      31.671  21.470  25.598  1.00  0.00     0.048 A 
ATOM     13  N   UNL A   1      32.748  22.289  23.780  1.00  0.00    -0.177 NA
ATOM     14  C   UNL A   1      31.655  22.846  25.693  1.00  0.00     0.037 A 
ATOM     15  C   UNL A   1      31.065  23.707  26.748  1.00  0.00     0.066 C 
ENDBRANCH   8   9
BRANCH   8  16
ATOM     16  C   UNL A   1      31.404  25.112  23.059  1.00  0.00     0.017 C 
ATOM     17  C   UNL A   1      30.147  24.233  23.162  1.00  0.00     0.010 C 
ATOM     18  C   UNL A   1      30.972  26.574  23.249  1.00  0.00     0.010 C 
ENDBRANCH   8  16
ENDBRANCH   5   8
ENDBRANCH   3   4
ENDBRANCH   2   3
ENDBRANCH   1   2
BRANCH   1  19
ATOM     19  C   UNL A   1      37.869  22.680  25.123  1.00  0.00     0.116 C 
BRANCH  19  20
ATOM     20  N   UNL A   1      38.540  21.748  26.030  1.00  0.00    -0.352 N 
ATOM     21  C   UNL A   1      39.639  21.992  26.839  1.00  0.00     0.251 C 
ATOM     22  H   UNL A   1      38.166  20.838  26.071  1.00  0.00     0.163 HD
ATOM     23  O   UNL A   1      40.347  21.081  27.231  1.00  0.00    -0.269 OA
BRANCH  21  24
ATOM     24  C   UNL A   1      39.921  23.388  27.228  1.00  0.00     0.039 A 
ATOM     25  C   UNL A   1      38.942  24.385  27.189  1.00  0.00     0.014 A 
ATOM     26  C   UNL A   1      41.205  23.671  27.678  1.00  0.00     0.014 A 
ATOM     27  C   UNL A   1      39.251  25.649  27.692  1.00  0.00     0.010 A 
ATOM     28  C   UNL A   1      41.453  24.850  28.326  1.00  0.00     0.010 A 
ATOM     29  C   UNL A   1      40.506  25.867  28.279  1.00  0.00    -0.014 A 
BRANCH  29  30
ATOM     30  C   UNL A   1      40.828  27.110  28.975  1.00  0.00     0.031 A 
ATOM     31  C   UNL A   1      41.887  27.920  28.313  1.00  0.00     0.074 A 
ATOM     32  C   UNL A   1      40.038  27.611  29.953  1.00  0.00     0.049 A 
ATOM     33  N   UNL A   1      43.090  28.140  28.728  1.00  0.00    -0.248 NA
ATOM     34  C   UNL A   1      41.636  28.404  26.942  1.00  0.00     0.031 C 
ATOM     35  C   UNL A   1      38.771  27.059  30.458  1.00  0.00     0.029 A 
ATOM     36  N   UNL A   1      40.116  28.800  30.608  1.00  0.00    -0.354 N 
ATOM     37  C   UNL A   1      43.652  29.015  27.802  1.00  0.00     0.074 A 
ATOM     38  C   UNL A   1      42.818  28.942  26.631  1.00  0.00     0.031 C 
ATOM     39  C   UNL A   1      38.090  28.018  31.124  1.00  0.00     0.029 A 
ATOM     40  C   UNL A   1      38.941  29.185  31.253  1.00  0.00     0.049 A 
ATOM     41  H   UNL A   1      40.937  29.344  30.627  1.00  0.00     0.167 HD
ATOM     42  C   UNL A   1      44.561  29.958  28.185  1.00  0.00     0.031 A 
ATOM     43  C   UNL A   1      38.673  30.386  31.829  1.00  0.00     0.031 A 
ATOM     44  C   UNL A   1      45.050  29.702  29.518  1.00  0.00     0.049 A 
ATOM     45  C   UNL A   1      39.979  31.042  32.076  1.00  0.00     0.074 A 
ATOM     46  C   UNL A   1      45.693  28.653  30.144  1.00  0.00     0.029 A 
ATOM     47  N   UNL A   1      44.515  30.476  30.522  1.00  0.00    -0.354 N 
ATOM     48  N   UNL A   1      40.866  30.576  32.912  1.00  0.00    -0.248 NA
ATOM     49  C   UNL A   1      40.496  31.938  31.056  1.00  0.00     0.031 C 
ATOM     50  C   UNL A   1      45.117  28.597  31.448  1.00  0.00     0.029 A 
ATOM     51  C   UNL A   1      44.220  29.660  31.579  1.00  0.00     0.049 A 
ATOM     52  H   UNL A   1      44.371  31.450  30.486  1.00  0.00     0.167 HD
ATOM     53  C   UNL A   1      42.083  30.746  32.267  1.00  0.00     0.074 A 
ATOM     54  C   UNL A   1      41.802  31.684  31.179  1.00  0.00     0.031 C 
ATOM     55  C   UNL A   1      43.126  29.896  32.499  1.00  0.00     0.031 A 
BRANCH  42  56
ATOM     56  C   UNL A   1      44.639  31.349  27.579  1.00  0.00    -0.014 A 
ATOM     57  C   UNL A   1      45.788  31.685  26.830  1.00  0.00     0.010 A 
ATOM     58  C   UNL A   1      43.802  32.415  27.965  1.00  0.00     0.010 A 
ATOM     59  C   UNL A   1      46.140  33.020  26.593  1.00  0.00     0.020 A 
ATOM     60  C   UNL A   1      44.118  33.747  27.694  1.00  0.00     0.020 A 
ATOM     61  C   UNL A   1      45.310  34.043  27.047  1.00  0.00     0.054 A 
BRANCH  61  62
ATOM     62  S   UNL A   1      45.833  35.763  26.853  1.00  0.00     0.124 S 
ATOM     63  O   UNL A   1      46.720  35.674  25.696  1.00  0.00    -0.237 OA
ATOM     64  O   UNL A   1      44.562  36.447  26.631  1.00  0.00    -0.237 OA
ATOM     65  O   UNL A   1      46.486  36.065  28.125  1.00  0.00    -0.744 OA
ENDBRANCH  61  62
ENDBRANCH  42  56
BRANCH  43  66
ATOM     66  C   UNL A   1      37.381  31.115  31.914  1.00  0.00    -0.014 A 
ATOM     67  C   UNL A   1      36.928  31.665  33.129  1.00  0.00     0.010 A 
ATOM     68  C   UNL A   1      36.723  31.518  30.733  1.00  0.00     0.010 A 
ATOM     69  C   UNL A   1      35.896  32.622  33.157  1.00  0.00     0.020 A 
ATOM     70  C   UNL A   1      35.692  32.468  30.753  1.00  0.00     0.020 A 
ATOM     71  C   UNL A   1      35.296  33.032  31.963  1.00  0.00     0.054 A 
BRANCH  71  72
ATOM     72  S   UNL A   1      34.079  34.386  31.985  1.00  0.00     0.124 S 
ATOM     73  O   UNL A   1      34.885  35.523  32.425  1.00  0.00    -0.237 OA
ATOM     74  O   UNL A   1      33.627  34.432  30.597  1.00  0.00    -0.237 OA
ATOM     75  O   UNL A   1      33.074  33.932  32.945  1.00  0.00    -0.744 OA
ENDBRANCH  71  72
ENDBRANCH  43  66
BRANCH  55  76
ATOM     76  C   UNL A   1      43.056  28.975  33.695  1.00  0.00    -0.014 A 
ATOM     77  C   UNL A   1      43.543  29.297  34.977  1.00  0.00     0.010 A 
ATOM     78  C   UNL A   1      42.320  27.787  33.537  1.00  0.00     0.010 A 
ATOM     79  C   UNL A   1      43.318  28.435  36.065  1.00  0.00     0.020 A 
ATOM     80  C   UNL A   1      42.077  26.937  34.616  1.00  0.00     0.020 A 
ATOM     81  C   UNL A   1      42.586  27.259  35.874  1.00  0.00     0.054 A 
BRANCH  81  82
ATOM     82  S   UNL A   1      42.262  26.163  37.284  1.00  0.00     0.124 S 
ATOM     83  O   UNL A   1      43.236  26.619  38.271  1.00  0.00    -0.237 OA
ATOM     84  O   UNL A   1      40.864  26.444  37.602  1.00  0.00    -0.237 OA
ATOM     85  O   UNL A   1      42.507  24.824  36.748  1.00  0.00    -0.744 OA
ENDBRANCH  81  82
ENDBRANCH  55  76
ENDBRANCH  29  30
ENDBRANCH  21  24
ENDBRANCH  19  20
ENDBRANCH   1  19
TORSDOF 16
ENDMDL
MODEL 3
REMARK VINA RESULT:     -10.8      2.668      7.600
REMARK SMILES Cc1cc(C)n([C@@H](C(=O)NCCCCNC(=O)c2ccc(-c3c4nc(c(-c5ccc(S(=O)(=O)[O-])cc5)c5ccc([nH]5)c(-c5ccc(S(=O)(=O)[O-])cc5)c5nc(c(-c6ccc(S(=O)(=O)[O-])cc6)c6ccc3[nH]6)C=C5)C=C4)cc2)C(C)C)n1
REMARK SMILES IDX 13 1 12 2 11 3 10 4 8 5 9 6 7 8 6 9 1 10 2 11 3 12 81 13
REMARK SMILES IDX 4 14 5 15 78 16 79 17 80 18 14 19 15 20 16 21 17 23 18 24
REMARK SMILES IDX 19 25 77 26 20 27 76 28 21 29 22 30 23 31 70 32 24 33 75 34
REMARK SMILES IDX 69 35 71 36 25 37 74 38 68 39 67 40 26 42 56 43 37 44 55 45
REMARK SMILES IDX 38 46 41 47 54 48 72 49 39 50 40 51 53 53 73 54 42 55 27 56
REMARK SMILES IDX 28 57 36 58 29 59 35 60 30 61 31 62 32 63 33 64 34 65 57 66
REMARK SMILES IDX 58 67 66 68 59 69 65 70 60 71 61 72 62 73 63 74 64 75 43 76
REMARK SMILES IDX 44 77 52 78 45 79 51 80 46 81 47 82 48 83 49 84 50 85
REMARK H PARENT 10 7 15 22 71 41 41 52
REMARK Flexibility Score: inf
ROOT
ATOM      1  C   UNL A   1      33.660  32.369  27.927  1.00  0.00     0.023 C 
ENDROOT
BRANCH   1   2
ATOM      2  C   UNL A   1      34.596  31.173  27.692  1.00  0.00     0.023 C 
BRANCH   2   3
ATOM      3  C   UNL A   1      33.992  29.975  26.948  1.00  0.00     0.116 C 
BRANCH   3   4
ATOM      4  N   UNL A   1      32.894  29.367  27.681  1.00  0.00    -0.354 N 
ATOM      5  C   UNL A   1      32.127  28.277  27.364  1.00  0.00     0.245 C 
ATOM      6  O   UNL A   1      31.145  28.058  28.079  1.00  0.00    -0.273 OA
ATOM      7  H   UNL A   1      32.667  29.805  28.534  1.00  0.00     0.163 HD
BRANCH   5   8
ATOM      8  C   UNL A   1      32.489  27.383  26.170  1.00  0.00     0.199 C 
BRANCH   8   9
ATOM      9  N   UNL A   1      32.044  28.021  24.925  1.00  0.00    -0.257 N 
ATOM     10  C   UNL A   1      29.571  30.046  23.380  1.00  0.00     0.069 C 
ATOM     11  C   UNL A   1      30.733  29.193  23.721  1.00  0.00     0.060 A 
ATOM     12  C   UNL A   1      31.688  28.640  22.848  1.00  0.00     0.048 A 
ATOM     13  N   UNL A   1      30.971  28.847  24.988  1.00  0.00    -0.177 NA
ATOM     14  C   UNL A   1      32.533  27.893  23.643  1.00  0.00     0.037 A 
ATOM     15  C   UNL A   1      33.710  27.076  23.252  1.00  0.00     0.066 C 
ENDBRANCH   8   9
BRANCH   8  16
ATOM     16  C   UNL A   1      31.979  25.916  26.293  1.00  0.00     0.017 C 
ATOM     17  C   UNL A   1      30.744  25.669  25.411  1.00  0.00     0.010 C 
ATOM     18  C   UNL A   1      33.050  24.887  25.902  1.00  0.00     0.010 C 
ENDBRANCH   8  16
ENDBRANCH   5   8
ENDBRANCH   3   4
ENDBRANCH   2   3
ENDBRANCH   1   2
BRANCH   1  19
ATOM     19  C   UNL A   1      34.361  33.710  28.077  1.00  0.00     0.116 C 
BRANCH  19  20
ATOM     20  N   UNL A   1      33.938  34.452  29.265  1.00  0.00    -0.352 N 
ATOM     21  C   UNL A   1      34.220  34.167  30.592  1.00  0.00     0.251 C 
ATOM     22  H   UNL A   1      33.385  35.251  29.102  1.00  0.00     0.163 HD
ATOM     23  O   UNL A   1      33.512  34.588  31.491  1.00  0.00    -0.269 OA
BRANCH  21  24
ATOM     24  C   UNL A   1      35.414  33.351  30.890  1.00  0.00     0.039 A 
ATOM     25  C   UNL A   1      35.325  32.006  31.258  1.00  0.00     0.014 A 
ATOM     26  C   UNL A   1      36.651  33.971  30.752  1.00  0.00     0.014 A 
ATOM     27  C   UNL A   1      36.502  31.270  31.399  1.00  0.00     0.010 A 
ATOM     28  C   UNL A   1      37.789  33.212  30.720  1.00  0.00     0.010 A 
ATOM     29  C   UNL A   1      37.732  31.878  31.107  1.00  0.00    -0.014 A 
BRANCH  29  30
ATOM     30  C   UNL A   1      38.978  31.118  31.069  1.00  0.00     0.031 A 
ATOM     31  C   UNL A   1      39.595  30.896  32.405  1.00  0.00     0.074 A 
ATOM     32  C   UNL A   1      39.371  30.437  29.967  1.00  0.00     0.049 A 
ATOM     33  N   UNL A   1      40.685  31.412  32.869  1.00  0.00    -0.248 NA
ATOM     34  C   UNL A   1      38.821  30.144  33.411  1.00  0.00     0.031 C 
ATOM     35  C   UNL A   1      38.659  30.310  28.686  1.00  0.00     0.029 A 
ATOM     36  N   UNL A   1      40.420  29.588  29.800  1.00  0.00    -0.354 N 
ATOM     37  C   UNL A   1      40.872  30.831  34.121  1.00  0.00     0.074 A 
ATOM     38  C   UNL A   1      39.598  30.269  34.490  1.00  0.00     0.031 C 
ATOM     39  C   UNL A   1      39.147  29.255  27.996  1.00  0.00     0.029 A 
ATOM     40  C   UNL A   1      40.315  28.749  28.691  1.00  0.00     0.049 A 
ATOM     41  H   UNL A   1      41.192  29.569  30.411  1.00  0.00     0.167 HD
ATOM     42  C   UNL A   1      42.123  30.582  34.604  1.00  0.00     0.031 A 
ATOM     43  C   UNL A   1      41.113  27.695  28.377  1.00  0.00     0.031 A 
ATOM     44  C   UNL A   1      43.128  31.263  33.825  1.00  0.00     0.049 A 
ATOM     45  C   UNL A   1      42.374  27.874  29.135  1.00  0.00     0.074 A 
ATOM     46  C   UNL A   1      43.387  32.576  33.488  1.00  0.00     0.029 A 
ATOM     47  N   UNL A   1      43.825  30.492  32.923  1.00  0.00    -0.354 N 
ATOM     48  N   UNL A   1      43.200  28.862  28.924  1.00  0.00    -0.248 NA
ATOM     49  C   UNL A   1      42.484  27.237  30.436  1.00  0.00     0.031 C 
ATOM     50  C   UNL A   1      43.837  32.524  32.135  1.00  0.00     0.029 A 
ATOM     51  C   UNL A   1      43.910  31.185  31.747  1.00  0.00     0.049 A 
ATOM     52  H   UNL A   1      44.198  29.597  33.095  1.00  0.00     0.167 HD
ATOM     53  C   UNL A   1      43.606  29.259  30.190  1.00  0.00     0.074 A 
ATOM     54  C   UNL A   1      43.216  28.157  31.072  1.00  0.00     0.031 C 
ATOM     55  C   UNL A   1      43.954  30.556  30.443  1.00  0.00     0.031 A 
BRANCH  42  56
ATOM     56  C   UNL A   1      42.477  29.367  35.443  1.00  0.00    -0.014 A 
ATOM     57  C   UNL A   1      43.482  29.505  36.425  1.00  0.00     0.010 A 
ATOM     58  C   UNL A   1      42.099  28.051  35.107  1.00  0.00     0.010 A 
ATOM     59  C   UNL A   1      44.154  28.392  36.945  1.00  0.00     0.020 A 
ATOM     60  C   UNL A   1      42.730  26.932  35.653  1.00  0.00     0.020 A 
ATOM     61  C   UNL A   1      43.785  27.111  36.536  1.00  0.00     0.054 A 
BRANCH  61  62
ATOM     62  S   UNL A   1      44.740  25.687  37.109  1.00  0.00     0.124 S 
ATOM     63  O   UNL A   1      44.682  25.854  38.558  1.00  0.00    -0.237 OA
ATOM     64  O   UNL A   1      43.976  24.567  36.566  1.00  0.00    -0.237 OA
ATOM     65  O   UNL A   1      46.054  25.893  36.504  1.00  0.00    -0.744 OA
ENDBRANCH  61  62
ENDBRANCH  42  56
BRANCH  43  66
ATOM     66  C   UNL A   1      40.756  26.418  27.705  1.00  0.00    -0.014 A 
ATOM     67  C   UNL A   1      41.588  25.851  26.721  1.00  0.00     0.010 A 
ATOM     68  C   UNL A   1      39.731  25.608  28.237  1.00  0.00     0.010 A 
ATOM     69  C   UNL A   1      41.436  24.508  26.324  1.00  0.00     0.020 A 
ATOM     70  C   UNL A   1      39.572  24.271  27.844  1.00  0.00     0.020 A 
ATOM     71  C   UNL A   1      40.439  23.720  26.904  1.00  0.00     0.054 A 
BRANCH  71  72
ATOM     72  S   UNL A   1      40.351  21.944  26.512  1.00  0.00     0.124 S 
ATOM     73  O   UNL A   1      41.470  21.773  25.589  1.00  0.00    -0.237 OA
ATOM     74  O   UNL A   1      40.511  21.319  27.822  1.00  0.00    -0.237 OA
ATOM     75  O   UNL A   1      39.026  21.788  25.913  1.00  0.00    -0.744 OA
ENDBRANCH  71  72
ENDBRANCH  43  66
BRANCH  55  76
ATOM     76  C   UNL A   1      44.209  31.476  29.271  1.00  0.00    -0.014 A 
ATOM     77  C   UNL A   1      45.213  31.273  28.304  1.00  0.00     0.010 A 
ATOM     78  C   UNL A   1      43.282  32.513  29.066  1.00  0.00     0.010 A 
ATOM     79  C   UNL A   1      45.296  32.105  27.174  1.00  0.00     0.020 A 
ATOM     80  C   UNL A   1      43.347  33.330  27.938  1.00  0.00     0.020 A 
ATOM     81  C   UNL A   1      44.361  33.130  27.001  1.00  0.00     0.054 A 
BRANCH  81  82
ATOM     82  S   UNL A   1      44.443  34.182  25.524  1.00  0.00     0.124 S 
ATOM     83  O   UNL A   1      45.622  35.003  25.785  1.00  0.00    -0.237 OA
ATOM     84  O   UNL A   1      44.578  33.213  24.440  1.00  0.00    -0.237 OA
ATOM     85  O   UNL A   1      43.172  34.905  25.540  1.00  0.00    -0.744 OA
ENDBRANCH  81  82
ENDBRANCH  55  76
ENDBRANCH  29  30
ENDBRANCH  21  24
ENDBRANCH  19  20
ENDBRANCH   1  19
TORSDOF 16
ENDMDL
