MODEL 1
REMARK VINA RESULT:     -12.7      0.000      0.000
REMARK SMILES Cc1ccc(-c2nn(CCC(=O)NCCCCNC(=O)c3ccc(-c4c5nc(c(-c6ccc(S(=O)(=O)[O-])cc6)c6ccc([nH]6)c(-c6ccc(S(=O)(=O)[O-])cc6)c6nc(c(-c7ccc(S(=O)(=O)[O-])cc7)c7ccc4[nH]7)C=C6)C=C5)cc3)c(=O)c3noc(C)c23)cc1C
REMARK SMILES IDX 15 1 14 2 13 3 11 4 12 5 10 7 9 8 8 9 6 10 7 11 88 12 83 13
REMARK SMILES IDX 86 14 81 15 84 16 85 17 87 18 82 19 5 20 1 21 2 22 3 23
REMARK SMILES IDX 90 24 4 25 89 26 91 27 16 28 17 29 18 30 19 31 20 33 21 34
REMARK SMILES IDX 22 35 80 36 23 37 79 38 24 39 25 40 26 41 73 42 27 43 78 44
REMARK SMILES IDX 72 45 74 46 28 47 77 48 71 49 70 50 29 52 59 53 40 54 58 55
REMARK SMILES IDX 41 56 44 57 57 58 75 59 42 60 43 61 56 63 76 64 45 65 30 66
REMARK SMILES IDX 31 67 39 68 32 69 38 70 33 71 34 72 35 73 36 74 37 75 60 76
REMARK SMILES IDX 61 77 69 78 62 79 68 80 63 81 64 82 65 83 66 84 67 85 46 86
REMARK SMILES IDX 47 87 55 88 48 89 54 90 49 91 50 92 51 93 52 94 53 95
REMARK H PARENT 13 6 18 32 74 51 44 62
REMARK Flexibility Score: inf
ROOT
ATOM      1  C   UNL A   1      35.810  24.148  25.411  1.00  0.00     0.023 C 
ENDROOT
BRANCH   1   2
ATOM      2  C   UNL A   1      34.340  24.008  25.024  1.00  0.00     0.116 C 
BRANCH   2   3
ATOM      3  N   UNL A   1      34.101  24.599  23.719  1.00  0.00    -0.356 N 
ATOM      4  C   UNL A   1      33.132  24.338  22.799  1.00  0.00     0.221 C 
ATOM      5  O   UNL A   1      33.218  24.864  21.688  1.00  0.00    -0.275 OA
ATOM      6  H   UNL A   1      34.742  25.300  23.458  1.00  0.00     0.163 HD
BRANCH   4   7
ATOM      7  C   UNL A   1      31.946  23.459  23.139  1.00  0.00     0.124 C 
BRANCH   7   8
ATOM      8  C   UNL A   1      30.635  24.235  23.213  1.00  0.00     0.158 C 
BRANCH   8   9
ATOM      9  N   UNL A   1      30.734  25.474  23.986  1.00  0.00    -0.227 N 
ATOM     10  C   UNL A   1      30.635  27.826  23.872  1.00  0.00     0.104 A 
ATOM     11  N   UNL A   1      30.510  26.675  23.269  1.00  0.00    -0.169 NA
ATOM     12  C   UNL A   1      31.103  27.868  25.226  1.00  0.00     0.078 A 
ATOM     13  C   UNL A   1      31.140  26.697  25.991  1.00  0.00     0.183 A 
ATOM     14  C   UNL A   1      31.610  28.844  26.047  1.00  0.00     0.143 A 
ATOM     15  C   UNL A   1      30.877  25.399  25.396  1.00  0.00     0.296 A 
ATOM     16  N   UNL A   1      31.553  26.932  27.241  1.00  0.00    -0.074 NA
ATOM     17  O   UNL A   1      31.861  28.288  27.270  1.00  0.00    -0.360 OA
ATOM     18  C   UNL A   1      31.977  30.266  25.897  1.00  0.00     0.091 C 
ATOM     19  O   UNL A   1      30.849  24.353  26.033  1.00  0.00    -0.265 OA
BRANCH  10  20
ATOM     20  C   UNL A   1      30.087  29.063  23.295  1.00  0.00     0.003 A 
ATOM     21  C   UNL A   1      28.172  32.172  21.017  1.00  0.00     0.044 C 
ATOM     22  C   UNL A   1      28.845  31.121  21.859  1.00  0.00    -0.048 A 
ATOM     23  C   UNL A   1      29.898  30.389  21.290  1.00  0.00     0.004 A 
ATOM     24  C   UNL A   1      28.436  30.837  23.183  1.00  0.00    -0.048 A 
ATOM     25  C   UNL A   1      30.515  29.366  22.000  1.00  0.00     0.011 A 
ATOM     26  C   UNL A   1      29.073  29.803  23.900  1.00  0.00     0.014 A 
ATOM     27  C   UNL A   1      27.284  31.548  23.844  1.00  0.00     0.044 C 
ENDBRANCH  10  20
ENDBRANCH   8   9
ENDBRANCH   7   8
ENDBRANCH   4   7
ENDBRANCH   2   3
ENDBRANCH   1   2
BRANCH   1  28
ATOM     28  C   UNL A   1      36.512  22.888  25.924  1.00  0.00     0.023 C 
BRANCH  28  29
ATOM     29  C   UNL A   1      37.947  22.680  25.423  1.00  0.00     0.116 C 
BRANCH  29  30
ATOM     30  N   UNL A   1      38.772  21.953  26.377  1.00  0.00    -0.352 N 
ATOM     31  C   UNL A   1      39.813  22.350  27.172  1.00  0.00     0.251 C 
ATOM     32  H   UNL A   1      38.538  21.001  26.466  1.00  0.00     0.163 HD
ATOM     33  O   UNL A   1      40.417  21.494  27.815  1.00  0.00    -0.269 OA
BRANCH  31  34
ATOM     34  C   UNL A   1      40.234  23.760  27.274  1.00  0.00     0.039 A 
ATOM     35  C   UNL A   1      39.402  24.636  27.983  1.00  0.00     0.014 A 
ATOM     36  C   UNL A   1      41.361  24.250  26.609  1.00  0.00     0.014 A 
ATOM     37  C   UNL A   1      39.730  25.985  28.080  1.00  0.00     0.010 A 
ATOM     38  C   UNL A   1      41.695  25.601  26.716  1.00  0.00     0.010 A 
ATOM     39  C   UNL A   1      40.895  26.468  27.471  1.00  0.00    -0.014 A 
BRANCH  39  40
ATOM     40  C   UNL A   1      41.295  27.855  27.779  1.00  0.00     0.031 A 
ATOM     41  C   UNL A   1      40.149  28.800  27.983  1.00  0.00     0.074 A 
ATOM     42  C   UNL A   1      42.465  28.124  28.399  1.00  0.00     0.049 A 
ATOM     43  N   UNL A   1      39.466  28.861  29.091  1.00  0.00    -0.248 NA
ATOM     44  C   UNL A   1      39.526  29.520  26.871  1.00  0.00     0.031 C 
ATOM     45  C   UNL A   1      43.024  27.295  29.474  1.00  0.00     0.029 A 
ATOM     46  N   UNL A   1      43.238  29.262  28.410  1.00  0.00    -0.354 N 
ATOM     47  C   UNL A   1      38.322  29.602  28.835  1.00  0.00     0.074 A 
ATOM     48  C   UNL A   1      38.402  29.984  27.442  1.00  0.00     0.031 C 
ATOM     49  C   UNL A   1      43.927  28.027  30.158  1.00  0.00     0.029 A 
ATOM     50  C   UNL A   1      44.118  29.312  29.489  1.00  0.00     0.049 A 
ATOM     51  H   UNL A   1      43.175  29.967  27.727  1.00  0.00     0.167 HD
ATOM     52  C   UNL A   1      37.386  29.867  29.785  1.00  0.00     0.031 A 
ATOM     53  C   UNL A   1      44.529  30.465  30.087  1.00  0.00     0.031 A 
ATOM     54  C   UNL A   1      37.696  29.374  31.096  1.00  0.00     0.049 A 
ATOM     55  C   UNL A   1      43.300  30.795  30.901  1.00  0.00     0.074 A 
ATOM     56  C   UNL A   1      37.383  28.293  31.889  1.00  0.00     0.029 A 
ATOM     57  N   UNL A   1      38.586  30.103  31.849  1.00  0.00    -0.354 N 
ATOM     58  N   UNL A   1      42.942  30.231  32.023  1.00  0.00    -0.248 NA
ATOM     59  C   UNL A   1      42.227  31.523  30.218  1.00  0.00     0.031 C 
ATOM     60  C   UNL A   1      38.446  28.202  32.845  1.00  0.00     0.029 A 
ATOM     61  C   UNL A   1      39.359  29.213  32.545  1.00  0.00     0.049 A 
ATOM     62  H   UNL A   1      38.655  31.085  31.880  1.00  0.00     0.167 HD
ATOM     63  C   UNL A   1      41.546  30.251  32.019  1.00  0.00     0.074 A 
ATOM     64  C   UNL A   1      41.173  31.086  30.893  1.00  0.00     0.031 C 
ATOM     65  C   UNL A   1      40.768  29.439  32.797  1.00  0.00     0.031 A 
BRANCH  52  66
ATOM     66  C   UNL A   1      36.222  30.772  29.616  1.00  0.00    -0.014 A 
ATOM     67  C   UNL A   1      35.578  30.765  28.366  1.00  0.00     0.010 A 
ATOM     68  C   UNL A   1      35.900  31.772  30.545  1.00  0.00     0.010 A 
ATOM     69  C   UNL A   1      34.680  31.772  28.017  1.00  0.00     0.020 A 
ATOM     70  C   UNL A   1      34.983  32.780  30.204  1.00  0.00     0.020 A 
ATOM     71  C   UNL A   1      34.401  32.786  28.932  1.00  0.00     0.054 A 
BRANCH  71  72
ATOM     72  S   UNL A   1      33.313  34.134  28.393  1.00  0.00     0.124 S 
ATOM     73  O   UNL A   1      34.251  35.054  27.757  1.00  0.00    -0.237 OA
ATOM     74  O   UNL A   1      32.395  33.447  27.488  1.00  0.00    -0.237 OA
ATOM     75  O   UNL A   1      32.716  34.614  29.637  1.00  0.00    -0.744 OA
ENDBRANCH  71  72
ENDBRANCH  52  66
BRANCH  53  76
ATOM     76  C   UNL A   1      45.200  31.448  29.171  1.00  0.00    -0.014 A 
ATOM     77  C   UNL A   1      45.476  31.022  27.852  1.00  0.00     0.010 A 
ATOM     78  C   UNL A   1      45.529  32.773  29.504  1.00  0.00     0.010 A 
ATOM     79  C   UNL A   1      45.880  31.922  26.863  1.00  0.00     0.020 A 
ATOM     80  C   UNL A   1      45.913  33.691  28.513  1.00  0.00     0.020 A 
ATOM     81  C   UNL A   1      46.040  33.265  27.191  1.00  0.00     0.054 A 
BRANCH  81  82
ATOM     82  S   UNL A   1      46.312  34.449  25.845  1.00  0.00     0.124 S 
ATOM     83  O   UNL A   1      46.070  35.731  26.499  1.00  0.00    -0.237 OA
ATOM     84  O   UNL A   1      47.702  34.178  25.481  1.00  0.00    -0.237 OA
ATOM     85  O   UNL A   1      45.324  34.062  24.840  1.00  0.00    -0.744 OA
ENDBRANCH  81  82
ENDBRANCH  53  76
BRANCH  65  86
ATOM     86  C   UNL A   1      41.478  28.588  33.804  1.00  0.00    -0.014 A 
ATOM     87  C   UNL A   1      42.160  27.431  33.400  1.00  0.00     0.010 A 
ATOM     88  C   UNL A   1      41.541  28.978  35.158  1.00  0.00     0.010 A 
ATOM     89  C   UNL A   1      42.930  26.706  34.311  1.00  0.00     0.020 A 
ATOM     90  C   UNL A   1      42.327  28.268  36.071  1.00  0.00     0.020 A 
ATOM     91  C   UNL A   1      43.028  27.143  35.636  1.00  0.00     0.054 A 
BRANCH  91  92
ATOM     92  S   UNL A   1      44.131  26.249  36.763  1.00  0.00     0.124 S 
ATOM     93  O   UNL A   1      44.018  27.024  37.995  1.00  0.00    -0.237 OA
ATOM     94  O   UNL A   1      43.532  24.917  36.800  1.00  0.00    -0.237 OA
ATOM     95  O   UNL A   1      45.434  26.317  36.105  1.00  0.00    -0.744 OA
ENDBRANCH  91  92
ENDBRANCH  65  86
ENDBRANCH  39  40
ENDBRANCH  31  34
ENDBRANCH  29  30
ENDBRANCH  28  29
ENDBRANCH   1  28
TORSDOF 17
ENDMDL
MODEL 2
REMARK VINA RESULT:     -11.7      2.290      3.430
REMARK SMILES Cc1ccc(-c2nn(CCC(=O)NCCCCNC(=O)c3ccc(-c4c5nc(c(-c6ccc(S(=O)(=O)[O-])cc6)c6ccc([nH]6)c(-c6ccc(S(=O)(=O)[O-])cc6)c6nc(c(-c7ccc(S(=O)(=O)[O-])cc7)c7ccc4[nH]7)C=C6)C=C5)cc3)c(=O)c3noc(C)c23)cc1C
REMARK SMILES IDX 15 1 14 2 13 3 11 4 12 5 10 7 9 8 8 9 6 10 7 11 88 12 83 13
REMARK SMILES IDX 86 14 81 15 84 16 85 17 87 18 82 19 5 20 1 21 2 22 3 23
REMARK SMILES IDX 90 24 4 25 89 26 91 27 16 28 17 29 18 30 19 31 20 33 21 34
REMARK SMILES IDX 22 35 80 36 23 37 79 38 24 39 25 40 26 41 73 42 27 43 78 44
REMARK SMILES IDX 72 45 74 46 28 47 77 48 71 49 70 50 29 52 59 53 40 54 58 55
REMARK SMILES IDX 41 56 44 57 57 58 75 59 42 60 43 61 56 63 76 64 45 65 30 66
REMARK SMILES IDX 31 67 39 68 32 69 38 70 33 71 34 72 35 73 36 74 37 75 60 76
REMARK SMILES IDX 61 77 69 78 62 79 68 80 63 81 64 82 65 83 66 84 67 85 46 86
REMARK SMILES IDX 47 87 55 88 48 89 54 90 49 91 50 92 51 93 52 94 53 95
REMARK H PARENT 13 6 18 32 74 51 44 62
REMARK Flexibility Score: inf
ROOT
ATOM      1  C   UNL A   1      36.927  23.583  26.111  1.00  0.00     0.023 C 
ENDROOT
BRANCH   1   2
ATOM      2  C   UNL A   1      35.414  23.693  26.284  1.00  0.00     0.116 C 
BRANCH   2   3
ATOM      3  N   UNL A   1      34.817  22.373  26.374  1.00  0.00    -0.356 N 
ATOM      4  C   UNL A   1      33.607  21.986  26.866  1.00  0.00     0.221 C 
ATOM      5  O   UNL A   1      33.376  20.781  26.978  1.00  0.00    -0.275 OA
ATOM      6  H   UNL A   1      35.376  21.640  26.025  1.00  0.00     0.163 HD
BRANCH   4   7
ATOM      7  C   UNL A   1      32.547  23.005  27.226  1.00  0.00     0.124 C 
BRANCH   7   8
ATOM      8  C   UNL A   1      31.664  23.386  26.041  1.00  0.00     0.158 C 
BRANCH   8   9
ATOM      9  N   UNL A   1      32.251  24.418  25.185  1.00  0.00    -0.227 N 
ATOM     10  C   UNL A   1      32.748  26.715  25.006  1.00  0.00     0.104 A 
ATOM     11  N   UNL A   1      32.292  25.726  25.727  1.00  0.00    -0.169 NA
ATOM     12  C   UNL A   1      33.103  26.487  23.636  1.00  0.00     0.078 A 
ATOM     13  C   UNL A   1      33.247  25.180  23.158  1.00  0.00     0.183 A 
ATOM     14  C   UNL A   1      33.328  27.290  22.546  1.00  0.00     0.143 A 
ATOM     15  C   UNL A   1      32.878  24.035  23.971  1.00  0.00     0.296 A 
ATOM     16  N   UNL A   1      33.630  25.158  21.877  1.00  0.00    -0.074 NA
ATOM     17  O   UNL A   1      33.668  26.493  21.489  1.00  0.00    -0.360 OA
ATOM     18  C   UNL A   1      33.236  28.736  22.262  1.00  0.00     0.091 C 
ATOM     19  O   UNL A   1      33.031  22.873  23.616  1.00  0.00    -0.265 OA
BRANCH  10  20
ATOM     20  C   UNL A   1      33.137  27.997  25.613  1.00  0.00     0.003 A 
ATOM     21  C   UNL A   1      33.736  31.530  27.995  1.00  0.00     0.044 C 
ATOM     22  C   UNL A   1      33.577  30.306  27.134  1.00  0.00    -0.048 A 
ATOM     23  C   UNL A   1      32.321  30.060  26.558  1.00  0.00     0.004 A 
ATOM     24  C   UNL A   1      34.635  29.396  26.911  1.00  0.00    -0.048 A 
ATOM     25  C   UNL A   1      32.100  28.913  25.804  1.00  0.00     0.011 A 
ATOM     26  C   UNL A   1      34.406  28.239  26.137  1.00  0.00     0.014 A 
ATOM     27  C   UNL A   1      35.997  29.569  27.532  1.00  0.00     0.044 C 
ENDBRANCH  10  20
ENDBRANCH   8   9
ENDBRANCH   7   8
ENDBRANCH   4   7
ENDBRANCH   2   3
ENDBRANCH   1   2
BRANCH   1  28
ATOM     28  C   UNL A   1      37.509  22.173  25.998  1.00  0.00     0.023 C 
BRANCH  28  29
ATOM     29  C   UNL A   1      38.983  22.096  25.580  1.00  0.00     0.116 C 
BRANCH  29  30
ATOM     30  N   UNL A   1      39.798  21.363  26.537  1.00  0.00    -0.352 N 
ATOM     31  C   UNL A   1      40.866  21.740  27.305  1.00  0.00     0.251 C 
ATOM     32  H   UNL A   1      39.531  20.422  26.654  1.00  0.00     0.163 HD
ATOM     33  O   UNL A   1      41.451  20.878  27.958  1.00  0.00    -0.269 OA
BRANCH  31  34
ATOM     34  C   UNL A   1      41.341  23.135  27.365  1.00  0.00     0.039 A 
ATOM     35  C   UNL A   1      40.720  23.992  28.283  1.00  0.00     0.014 A 
ATOM     36  C   UNL A   1      42.298  23.636  26.479  1.00  0.00     0.014 A 
ATOM     37  C   UNL A   1      41.100  25.329  28.357  1.00  0.00     0.010 A 
ATOM     38  C   UNL A   1      42.686  24.973  26.562  1.00  0.00     0.010 A 
ATOM     39  C   UNL A   1      42.107  25.819  27.517  1.00  0.00    -0.014 A 
BRANCH  39  40
ATOM     40  C   UNL A   1      42.607  27.182  27.781  1.00  0.00     0.031 A 
ATOM     41  C   UNL A   1      41.542  28.171  28.151  1.00  0.00     0.074 A 
ATOM     42  C   UNL A   1      43.862  27.391  28.236  1.00  0.00     0.049 A 
ATOM     43  N   UNL A   1      41.021  28.243  29.344  1.00  0.00    -0.248 NA
ATOM     44  C   UNL A   1      40.805  28.936  27.144  1.00  0.00     0.031 C 
ATOM     45  C   UNL A   1      44.525  26.521  29.215  1.00  0.00     0.029 A 
ATOM     46  N   UNL A   1      44.678  28.494  28.153  1.00  0.00    -0.354 N 
ATOM     47  C   UNL A   1      39.888  29.036  29.256  1.00  0.00     0.074 A 
ATOM     48  C   UNL A   1      39.792  29.438  27.870  1.00  0.00     0.031 C 
ATOM     49  C   UNL A   1      45.546  27.202  29.775  1.00  0.00     0.029 A 
ATOM     50  C   UNL A   1      45.700  28.489  29.100  1.00  0.00     0.049 A 
ATOM     51  H   UNL A   1      44.553  29.213  27.492  1.00  0.00     0.167 HD
ATOM     52  C   UNL A   1      39.104  29.324  30.330  1.00  0.00     0.031 A 
ATOM     53  C   UNL A   1      46.240  29.614  29.648  1.00  0.00     0.031 A 
ATOM     54  C   UNL A   1      39.569  28.797  31.579  1.00  0.00     0.049 A 
ATOM     55  C   UNL A   1      45.150  29.982  30.627  1.00  0.00     0.074 A 
ATOM     56  C   UNL A   1      39.320  27.717  32.396  1.00  0.00     0.029 A 
ATOM     57  N   UNL A   1      40.585  29.475  32.210  1.00  0.00    -0.354 N 
ATOM     58  N   UNL A   1      44.926  29.414  31.781  1.00  0.00    -0.248 NA
ATOM     59  C   UNL A   1      44.027  30.766  30.107  1.00  0.00     0.031 C 
ATOM     60  C   UNL A   1      40.500  27.566  33.196  1.00  0.00     0.029 A 
ATOM     61  C   UNL A   1      41.406  28.541  32.783  1.00  0.00     0.049 A 
ATOM     62  H   UNL A   1      40.701  30.452  32.242  1.00  0.00     0.167 HD
ATOM     63  C   UNL A   1      43.544  29.494  31.972  1.00  0.00     0.074 A 
ATOM     64  C   UNL A   1      43.058  30.363  30.917  1.00  0.00     0.031 C 
ATOM     65  C   UNL A   1      42.845  28.703  32.840  1.00  0.00     0.031 A 
BRANCH  52  66
ATOM     66  C   UNL A   1      37.969  30.281  30.332  1.00  0.00    -0.014 A 
ATOM     67  C   UNL A   1      38.221  31.581  29.859  1.00  0.00     0.010 A 
ATOM     68  C   UNL A   1      36.758  30.016  30.989  1.00  0.00     0.010 A 
ATOM     69  C   UNL A   1      37.319  32.616  30.092  1.00  0.00     0.020 A 
ATOM     70  C   UNL A   1      35.837  31.054  31.211  1.00  0.00     0.020 A 
ATOM     71  C   UNL A   1      36.139  32.351  30.784  1.00  0.00     0.054 A 
BRANCH  71  72
ATOM     72  S   UNL A   1      35.047  33.751  31.160  1.00  0.00     0.124 S 
ATOM     73  O   UNL A   1      33.895  33.090  31.769  1.00  0.00    -0.237 OA
ATOM     74  O   UNL A   1      35.868  34.547  32.069  1.00  0.00    -0.237 OA
ATOM     75  O   UNL A   1      34.799  34.356  29.855  1.00  0.00    -0.744 OA
ENDBRANCH  71  72
ENDBRANCH  52  66
BRANCH  53  76
ATOM     76  C   UNL A   1      46.822  30.582  28.658  1.00  0.00    -0.014 A 
ATOM     77  C   UNL A   1      46.987  31.921  29.081  1.00  0.00     0.010 A 
ATOM     78  C   UNL A   1      47.259  30.254  27.364  1.00  0.00     0.010 A 
ATOM     79  C   UNL A   1      47.724  32.838  28.328  1.00  0.00     0.020 A 
ATOM     80  C   UNL A   1      48.022  31.161  26.610  1.00  0.00     0.020 A 
ATOM     81  C   UNL A   1      48.287  32.431  27.122  1.00  0.00     0.054 A 
BRANCH  81  82
ATOM     82  S   UNL A   1      49.445  33.554  26.294  1.00  0.00     0.124 S 
ATOM     83  O   UNL A   1      48.589  34.232  25.326  1.00  0.00    -0.237 OA
ATOM     84  O   UNL A   1      49.915  34.377  27.407  1.00  0.00    -0.237 OA
ATOM     85  O   UNL A   1      50.447  32.656  25.724  1.00  0.00    -0.744 OA
ENDBRANCH  81  82
ENDBRANCH  53  76
BRANCH  65  86
ATOM     86  C   UNL A   1      43.649  27.806  33.731  1.00  0.00    -0.014 A 
ATOM     87  C   UNL A   1      44.073  28.254  34.990  1.00  0.00     0.010 A 
ATOM     88  C   UNL A   1      43.922  26.475  33.355  1.00  0.00     0.010 A 
ATOM     89  C   UNL A   1      44.709  27.383  35.877  1.00  0.00     0.020 A 
ATOM     90  C   UNL A   1      44.539  25.592  34.245  1.00  0.00     0.020 A 
ATOM     91  C   UNL A   1      44.917  26.050  35.507  1.00  0.00     0.054 A 
BRANCH  91  92
ATOM     92  S   UNL A   1      45.635  24.917  36.725  1.00  0.00     0.124 S 
ATOM     93  O   UNL A   1      46.952  25.499  36.961  1.00  0.00    -0.237 OA
ATOM     94  O   UNL A   1      44.695  25.014  37.840  1.00  0.00    -0.237 OA
ATOM     95  O   UNL A   1      45.642  23.625  36.041  1.00  0.00    -0.744 OA
ENDBRANCH  91  92
ENDBRANCH  65  86
ENDBRANCH  39  40
ENDBRANCH  31  34
ENDBRANCH  29  30
ENDBRANCH  28  29
ENDBRANCH   1  28
TORSDOF 17
ENDMDL
MODEL 3
REMARK VINA RESULT:     -11.6      2.152      3.302
REMARK SMILES Cc1ccc(-c2nn(CCC(=O)NCCCCNC(=O)c3ccc(-c4c5nc(c(-c6ccc(S(=O)(=O)[O-])cc6)c6ccc([nH]6)c(-c6ccc(S(=O)(=O)[O-])cc6)c6nc(c(-c7ccc(S(=O)(=O)[O-])cc7)c7ccc4[nH]7)C=C6)C=C5)cc3)c(=O)c3noc(C)c23)cc1C
REMARK SMILES IDX 15 1 14 2 13 3 11 4 12 5 10 7 9 8 8 9 6 10 7 11 88 12 83 13
REMARK SMILES IDX 86 14 81 15 84 16 85 17 87 18 82 19 5 20 1 21 2 22 3 23
REMARK SMILES IDX 90 24 4 25 89 26 91 27 16 28 17 29 18 30 19 31 20 33 21 34
REMARK SMILES IDX 22 35 80 36 23 37 79 38 24 39 25 40 26 41 73 42 27 43 78 44
REMARK SMILES IDX 72 45 74 46 28 47 77 48 71 49 70 50 29 52 59 53 40 54 58 55
REMARK SMILES IDX 41 56 44 57 57 58 75 59 42 60 43 61 56 63 76 64 45 65 30 66
REMARK SMILES IDX 31 67 39 68 32 69 38 70 33 71 34 72 35 73 36 74 37 75 60 76
REMARK SMILES IDX 61 77 69 78 62 79 68 80 63 81 64 82 65 83 66 84 67 85 46 86
REMARK SMILES IDX 47 87 55 88 48 89 54 90 49 91 50 92 51 93 52 94 53 95
REMARK H PARENT 13 6 18 32 74 51 44 62
REMARK Flexibility Score: inf
ROOT
ATOM      1  C   UNL A   1      39.212  23.747  26.782  1.00  0.00     0.023 C 
ENDROOT
BRANCH   1   2
ATOM      2  C   UNL A   1      37.747  23.942  26.402  1.00  0.00     0.116 C 
BRANCH   2   3
ATOM      3  N   UNL A   1      37.552  23.685  24.986  1.00  0.00    -0.356 N 
ATOM      4  C   UNL A   1      36.861  22.693  24.359  1.00  0.00     0.221 C 
ATOM      5  O   UNL A   1      36.961  22.590  23.135  1.00  0.00    -0.275 OA
ATOM      6  H   UNL A   1      37.989  24.331  24.383  1.00  0.00     0.163 HD
BRANCH   4   7
ATOM      7  C   UNL A   1      35.951  21.762  25.133  1.00  0.00     0.124 C 
BRANCH   7   8
ATOM      8  C   UNL A   1      34.717  21.344  24.339  1.00  0.00     0.158 C 
BRANCH   8   9
ATOM      9  N   UNL A   1      33.523  22.127  24.663  1.00  0.00    -0.227 N 
ATOM     10  C   UNL A   1      32.550  24.271  24.588  1.00  0.00     0.104 A 
ATOM     11  N   UNL A   1      33.552  23.491  24.284  1.00  0.00    -0.169 NA
ATOM     12  C   UNL A   1      31.478  23.766  25.394  1.00  0.00     0.078 A 
ATOM     13  C   UNL A   1      31.350  22.388  25.605  1.00  0.00     0.183 A 
ATOM     14  C   UNL A   1      30.459  24.333  26.119  1.00  0.00     0.143 A 
ATOM     15  C   UNL A   1      32.377  21.460  25.168  1.00  0.00     0.296 A 
ATOM     16  N   UNL A   1      30.269  22.096  26.336  1.00  0.00    -0.074 NA
ATOM     17  O   UNL A   1      29.715  23.327  26.670  1.00  0.00    -0.360 OA
ATOM     18  C   UNL A   1      30.045  25.707  26.463  1.00  0.00     0.091 C 
ATOM     19  O   UNL A   1      32.288  20.244  25.286  1.00  0.00    -0.265 OA
BRANCH  10  20
ATOM     20  C   UNL A   1      32.362  25.576  23.934  1.00  0.00     0.003 A 
ATOM     21  C   UNL A   1      31.013  29.304  22.260  1.00  0.00     0.044 C 
ATOM     22  C   UNL A   1      31.540  28.020  22.843  1.00  0.00    -0.048 A 
ATOM     23  C   UNL A   1      31.044  26.809  22.334  1.00  0.00     0.004 A 
ATOM     24  C   UNL A   1      32.490  27.998  23.890  1.00  0.00    -0.048 A 
ATOM     25  C   UNL A   1      31.450  25.595  22.876  1.00  0.00     0.011 A 
ATOM     26  C   UNL A   1      32.903  26.761  24.428  1.00  0.00     0.014 A 
ATOM     27  C   UNL A   1      33.032  29.256  24.517  1.00  0.00     0.044 C 
ENDBRANCH  10  20
ENDBRANCH   8   9
ENDBRANCH   7   8
ENDBRANCH   4   7
ENDBRANCH   2   3
ENDBRANCH   1   2
BRANCH   1  28
ATOM     28  C   UNL A   1      39.656  22.320  27.111  1.00  0.00     0.023 C 
BRANCH  28  29
ATOM     29  C   UNL A   1      40.109  21.474  25.915  1.00  0.00     0.116 C 
BRANCH  29  30
ATOM     30  N   UNL A   1      41.442  20.919  26.095  1.00  0.00    -0.352 N 
ATOM     31  C   UNL A   1      42.661  21.512  26.281  1.00  0.00     0.251 C 
ATOM     32  H   UNL A   1      41.472  19.935  26.080  1.00  0.00     0.163 HD
ATOM     33  O   UNL A   1      43.663  20.800  26.296  1.00  0.00    -0.269 OA
BRANCH  31  34
ATOM     34  C   UNL A   1      42.810  22.969  26.455  1.00  0.00     0.039 A 
ATOM     35  C   UNL A   1      42.817  23.469  27.764  1.00  0.00     0.014 A 
ATOM     36  C   UNL A   1      42.840  23.849  25.370  1.00  0.00     0.014 A 
ATOM     37  C   UNL A   1      42.917  24.839  27.987  1.00  0.00     0.010 A 
ATOM     38  C   UNL A   1      42.950  25.222  25.596  1.00  0.00     0.010 A 
ATOM     39  C   UNL A   1      43.014  25.720  26.903  1.00  0.00    -0.014 A 
BRANCH  39  40
ATOM     40  C   UNL A   1      43.323  27.132  27.203  1.00  0.00     0.031 A 
ATOM     41  C   UNL A   1      42.127  28.037  27.221  1.00  0.00     0.074 A 
ATOM     42  C   UNL A   1      44.393  27.470  27.955  1.00  0.00     0.049 A 
ATOM     43  N   UNL A   1      41.305  28.110  28.230  1.00  0.00    -0.248 NA
ATOM     44  C   UNL A   1      41.628  28.692  26.011  1.00  0.00     0.031 C 
ATOM     45  C   UNL A   1      44.837  26.702  29.126  1.00  0.00     0.029 A 
ATOM     46  N   UNL A   1      45.117  28.636  28.020  1.00  0.00    -0.354 N 
ATOM     47  C   UNL A   1      40.179  28.796  27.800  1.00  0.00     0.074 A 
ATOM     48  C   UNL A   1      40.424  29.131  26.415  1.00  0.00     0.031 C 
ATOM     49  C   UNL A   1      45.618  27.493  29.889  1.00  0.00     0.029 A 
ATOM     50  C   UNL A   1      45.849  28.760  29.199  1.00  0.00     0.049 A 
ATOM     51  H   UNL A   1      45.118  29.314  27.306  1.00  0.00     0.167 HD
ATOM     52  C   UNL A   1      39.119  29.056  28.612  1.00  0.00     0.031 A 
ATOM     53  C   UNL A   1      46.139  29.949  29.798  1.00  0.00     0.031 A 
ATOM     54  C   UNL A   1      39.275  28.623  29.970  1.00  0.00     0.049 A 
ATOM     55  C   UNL A   1      44.804  30.258  30.434  1.00  0.00     0.074 A 
ATOM     56  C   UNL A   1      38.900  27.559  30.760  1.00  0.00     0.029 A 
ATOM     57  N   UNL A   1      40.034  29.412  30.801  1.00  0.00    -0.354 N 
ATOM     58  N   UNL A   1      44.325  29.720  31.523  1.00  0.00    -0.248 NA
ATOM     59  C   UNL A   1      43.803  30.919  29.591  1.00  0.00     0.031 C 
ATOM     60  C   UNL A   1      39.834  27.545  31.847  1.00  0.00     0.029 A 
ATOM     61  C   UNL A   1      40.742  28.579  31.625  1.00  0.00     0.049 A 
ATOM     62  H   UNL A   1      40.064  30.397  30.801  1.00  0.00     0.167 HD
ATOM     63  C   UNL A   1      42.941  29.685  31.341  1.00  0.00     0.074 A 
ATOM     64  C   UNL A   1      42.687  30.464  30.144  1.00  0.00     0.031 C 
ATOM     65  C   UNL A   1      42.098  28.870  32.045  1.00  0.00     0.031 A 
BRANCH  52  66
ATOM     66  C   UNL A   1      37.956  29.907  28.259  1.00  0.00    -0.014 A 
ATOM     67  C   UNL A   1      38.033  31.272  28.589  1.00  0.00     0.010 A 
ATOM     68  C   UNL A   1      36.728  29.374  27.841  1.00  0.00     0.010 A 
ATOM     69  C   UNL A   1      36.899  32.080  28.569  1.00  0.00     0.020 A 
ATOM     70  C   UNL A   1      35.584  30.189  27.802  1.00  0.00     0.020 A 
ATOM     71  C   UNL A   1      35.674  31.529  28.193  1.00  0.00     0.054 A 
BRANCH  71  72
ATOM     72  S   UNL A   1      34.205  32.590  28.288  1.00  0.00     0.124 S 
ATOM     73  O   UNL A   1      33.204  31.795  27.582  1.00  0.00    -0.237 OA
ATOM     74  O   UNL A   1      34.007  32.714  29.730  1.00  0.00    -0.237 OA
ATOM     75  O   UNL A   1      34.620  33.815  27.610  1.00  0.00    -0.744 OA
ENDBRANCH  71  72
ENDBRANCH  52  66
BRANCH  53  76
ATOM     76  C   UNL A   1      46.887  30.925  28.935  1.00  0.00    -0.014 A 
ATOM     77  C   UNL A   1      47.738  31.847  29.587  1.00  0.00     0.010 A 
ATOM     78  C   UNL A   1      46.847  30.963  27.532  1.00  0.00     0.010 A 
ATOM     79  C   UNL A   1      48.645  32.634  28.873  1.00  0.00     0.020 A 
ATOM     80  C   UNL A   1      47.771  31.731  26.805  1.00  0.00     0.020 A 
ATOM     81  C   UNL A   1      48.694  32.525  27.486  1.00  0.00     0.054 A 
BRANCH  81  82
ATOM     82  S   UNL A   1      50.044  33.358  26.609  1.00  0.00     0.124 S 
ATOM     83  O   UNL A   1      50.520  32.318  25.702  1.00  0.00    -0.237 OA
ATOM     84  O   UNL A   1      49.349  34.477  25.976  1.00  0.00    -0.237 OA
ATOM     85  O   UNL A   1      50.970  33.731  27.676  1.00  0.00    -0.744 OA
ENDBRANCH  81  82
ENDBRANCH  53  76
BRANCH  65  86
ATOM     86  C   UNL A   1      42.702  28.085  33.168  1.00  0.00    -0.014 A 
ATOM     87  C   UNL A   1      42.485  28.471  34.499  1.00  0.00     0.010 A 
ATOM     88  C   UNL A   1      43.427  26.904  32.912  1.00  0.00     0.010 A 
ATOM     89  C   UNL A   1      42.935  27.673  35.552  1.00  0.00     0.020 A 
ATOM     90  C   UNL A   1      43.861  26.089  33.961  1.00  0.00     0.020 A 
ATOM     91  C   UNL A   1      43.600  26.474  35.277  1.00  0.00     0.054 A 
BRANCH  91  92
ATOM     92  S   UNL A   1      44.064  25.403  36.663  1.00  0.00     0.124 S 
ATOM     93  O   UNL A   1      45.486  25.691  36.823  1.00  0.00    -0.237 OA
ATOM     94  O   UNL A   1      43.199  25.885  37.738  1.00  0.00    -0.237 OA
ATOM     95  O   UNL A   1      43.754  24.056  36.184  1.00  0.00    -0.744 OA
ENDBRANCH  91  92
ENDBRANCH  65  86
ENDBRANCH  39  40
ENDBRANCH  31  34
ENDBRANCH  29  30
ENDBRANCH  28  29
ENDBRANCH   1  28
TORSDOF 17
ENDMDL
