MODEL 1
REMARK VINA RESULT:     -12.4      0.000      0.000
REMARK SMILES O=C(NCCCCNC(=O)c1cc(S(=O)(=O)Nc2ccccc2-n2cc(Br)cn2)c[nH]1)c1ccc(-c2c3nc(c(-c4ccc(S(=O)(=O)[O-])cc4)c4ccc([nH]4)c(-c4ccc(S(=O)(=O)[O-])cc4)c4nc(c(-c5ccc(S(=O)(=O)[O-])cc5)c5ccc2[nH]5)C=C4)C=C3)cc1
REMARK SMILES IDX 6 1 5 2 4 3 3 4 1 5 2 6 32 8 33 9 91 10 34 11 90 12 35 13
REMARK SMILES IDX 36 14 37 15 84 16 38 17 89 18 83 19 85 20 39 21 88 22 82 23
REMARK SMILES IDX 81 24 40 26 70 27 51 28 69 29 52 30 55 31 68 32 86 33 53 34
REMARK SMILES IDX 54 35 67 37 87 38 56 39 41 40 42 41 50 42 43 43 49 44 44 45
REMARK SMILES IDX 45 46 46 47 47 48 48 49 71 50 72 51 80 52 73 53 79 54 74 55
REMARK SMILES IDX 75 56 76 57 77 58 78 59 57 60 58 61 66 62 59 63 65 64 60 65
REMARK SMILES IDX 61 66 62 67 63 68 64 69 7 70 8 71 9 72 10 74 11 75 12 76
REMARK SMILES IDX 31 77 13 78 30 79 14 81 15 82 16 83 17 84 18 86 19 87 23 88
REMARK SMILES IDX 20 89 22 90 21 91 24 92 25 93 29 94 26 95 28 96 27 97
REMARK H PARENT 3 7 85 25 55 36 8 73 31 80 17 85
REMARK Flexibility Score: inf
ROOT
ATOM      1  C   UNL A   1      31.657  29.097  25.033  1.00  0.00     0.023 C 
ENDROOT
BRANCH   1   2
ATOM      2  C   UNL A   1      31.949  28.487  26.397  1.00  0.00     0.023 C 
BRANCH   2   3
ATOM      3  C   UNL A   1      33.258  28.944  27.041  1.00  0.00     0.116 C 
BRANCH   3   4
ATOM      4  N   UNL A   1      33.248  30.267  27.640  1.00  0.00    -0.352 N 
ATOM      5  O   UNL A   1      33.882  32.215  28.500  1.00  0.00    -0.269 OA
ATOM      6  C   UNL A   1      34.218  31.073  28.184  1.00  0.00     0.251 C 
ATOM      7  H   UNL A   1      32.351  30.674  27.660  1.00  0.00     0.163 HD
BRANCH   6   8
ATOM      8  C   UNL A   1      35.603  30.614  28.472  1.00  0.00     0.039 A 
ATOM      9  C   UNL A   1      36.651  30.705  27.559  1.00  0.00     0.014 A 
ATOM     10  C   UNL A   1      35.858  30.065  29.742  1.00  0.00     0.014 A 
ATOM     11  C   UNL A   1      37.886  30.141  27.846  1.00  0.00     0.010 A 
ATOM     12  C   UNL A   1      37.116  29.547  30.062  1.00  0.00     0.010 A 
ATOM     13  C   UNL A   1      38.128  29.568  29.099  1.00  0.00    -0.014 A 
BRANCH  13  14
ATOM     14  C   UNL A   1      39.537  29.226  29.396  1.00  0.00     0.031 A 
ATOM     15  C   UNL A   1      40.344  30.481  29.765  1.00  0.00     0.074 A 
ATOM     16  C   UNL A   1      39.951  27.946  29.154  1.00  0.00     0.049 A 
ATOM     17  N   UNL A   1      41.574  30.781  29.481  1.00  0.00    -0.248 NA
ATOM     18  C   UNL A   1      39.654  31.619  30.435  1.00  0.00     0.031 C 
ATOM     19  C   UNL A   1      39.056  26.819  28.805  1.00  0.00     0.029 A 
ATOM     20  N   UNL A   1      41.187  27.328  29.133  1.00  0.00    -0.354 N 
ATOM     21  C   UNL A   1      41.853  32.042  30.055  1.00  0.00     0.074 A 
ATOM     22  C   UNL A   1      40.606  32.551  30.538  1.00  0.00     0.031 C 
ATOM     23  C   UNL A   1      39.768  25.698  28.547  1.00  0.00     0.029 A 
ATOM     24  C   UNL A   1      41.184  25.974  28.704  1.00  0.00     0.049 A 
ATOM     25  H   UNL A   1      42.012  27.795  29.396  1.00  0.00     0.167 HD
ATOM     26  C   UNL A   1      43.117  32.538  30.195  1.00  0.00     0.031 A 
ATOM     27  C   UNL A   1      42.242  25.143  28.455  1.00  0.00     0.031 A 
ATOM     28  C   UNL A   1      44.064  31.628  29.652  1.00  0.00     0.049 A 
ATOM     29  C   UNL A   1      43.452  25.892  28.825  1.00  0.00     0.074 A 
ATOM     30  C   UNL A   1      44.401  31.273  28.372  1.00  0.00     0.029 A 
ATOM     31  N   UNL A   1      44.583  30.705  30.528  1.00  0.00    -0.354 N 
ATOM     32  N   UNL A   1      43.837  26.134  30.038  1.00  0.00    -0.248 NA
ATOM     33  C   UNL A   1      44.317  26.412  27.756  1.00  0.00     0.031 C 
ATOM     34  C   UNL A   1      44.705  29.900  28.483  1.00  0.00     0.029 A 
ATOM     35  C   UNL A   1      44.696  29.529  29.833  1.00  0.00     0.049 A 
ATOM     36  H   UNL A   1      44.825  30.858  31.470  1.00  0.00     0.167 HD
ATOM     37  C   UNL A   1      44.736  27.154  29.860  1.00  0.00     0.074 A 
ATOM     38  C   UNL A   1      45.221  27.044  28.501  1.00  0.00     0.031 C 
ATOM     39  C   UNL A   1      44.576  28.296  30.574  1.00  0.00     0.031 A 
BRANCH  26  40
ATOM     40  C   UNL A   1      43.670  33.683  31.005  1.00  0.00    -0.014 A 
ATOM     41  C   UNL A   1      43.593  33.563  32.418  1.00  0.00     0.010 A 
ATOM     42  C   UNL A   1      43.932  34.954  30.478  1.00  0.00     0.010 A 
ATOM     43  C   UNL A   1      43.626  34.677  33.257  1.00  0.00     0.020 A 
ATOM     44  C   UNL A   1      44.007  36.078  31.322  1.00  0.00     0.020 A 
ATOM     45  C   UNL A   1      43.797  35.937  32.697  1.00  0.00     0.054 A 
BRANCH  45  46
ATOM     46  S   UNL A   1      43.656  37.381  33.783  1.00  0.00     0.124 S 
ATOM     47  O   UNL A   1      43.886  38.486  32.857  1.00  0.00    -0.237 OA
ATOM     48  O   UNL A   1      42.289  37.265  34.288  1.00  0.00    -0.237 OA
ATOM     49  O   UNL A   1      44.700  37.166  34.780  1.00  0.00    -0.744 OA
ENDBRANCH  45  46
ENDBRANCH  26  40
BRANCH  27  50
ATOM     50  C   UNL A   1      42.522  23.782  27.849  1.00  0.00    -0.014 A 
ATOM     51  C   UNL A   1      43.091  22.682  28.496  1.00  0.00     0.010 A 
ATOM     52  C   UNL A   1      42.019  23.531  26.535  1.00  0.00     0.010 A 
ATOM     53  C   UNL A   1      43.020  21.386  27.926  1.00  0.00     0.020 A 
ATOM     54  C   UNL A   1      41.888  22.254  25.988  1.00  0.00     0.020 A 
ATOM     55  C   UNL A   1      42.368  21.174  26.704  1.00  0.00     0.054 A 
BRANCH  55  56
ATOM     56  S   UNL A   1      42.002  19.498  26.109  1.00  0.00     0.124 S 
ATOM     57  O   UNL A   1      42.865  19.384  24.937  1.00  0.00    -0.237 OA
ATOM     58  O   UNL A   1      42.369  18.660  27.249  1.00  0.00    -0.237 OA
ATOM     59  O   UNL A   1      40.567  19.544  25.827  1.00  0.00    -0.744 OA
ENDBRANCH  55  56
ENDBRANCH  27  50
BRANCH  39  60
ATOM     60  C   UNL A   1      43.846  28.128  31.903  1.00  0.00    -0.014 A 
ATOM     61  C   UNL A   1      42.575  28.704  32.081  1.00  0.00     0.010 A 
ATOM     62  C   UNL A   1      44.429  27.501  33.022  1.00  0.00     0.010 A 
ATOM     63  C   UNL A   1      41.917  28.663  33.320  1.00  0.00     0.020 A 
ATOM     64  C   UNL A   1      43.779  27.449  34.268  1.00  0.00     0.020 A 
ATOM     65  C   UNL A   1      42.521  28.033  34.409  1.00  0.00     0.054 A 
BRANCH  65  66
ATOM     66  S   UNL A   1      41.642  27.999  36.000  1.00  0.00     0.124 S 
ATOM     67  O   UNL A   1      42.685  28.370  36.955  1.00  0.00    -0.237 OA
ATOM     68  O   UNL A   1      40.595  28.998  35.803  1.00  0.00    -0.237 OA
ATOM     69  O   UNL A   1      41.169  26.620  36.113  1.00  0.00    -0.744 OA
ENDBRANCH  65  66
ENDBRANCH  39  60
ENDBRANCH  13  14
ENDBRANCH   6   8
ENDBRANCH   3   4
ENDBRANCH   2   3
ENDBRANCH   1   2
BRANCH   1  70
ATOM     70  C   UNL A   1      30.881  28.194  24.088  1.00  0.00     0.116 C 
BRANCH  70  71
ATOM     71  N   UNL A   1      31.642  27.855  22.898  1.00  0.00    -0.351 N 
ATOM     72  C   UNL A   1      32.227  26.668  22.534  1.00  0.00     0.267 C 
ATOM     73  H   UNL A   1      31.755  28.590  22.251  1.00  0.00     0.163 HD
ATOM     74  O   UNL A   1      33.037  26.679  21.608  1.00  0.00    -0.268 OA
BRANCH  72  75
ATOM     75  C   UNL A   1      31.876  25.447  23.222  1.00  0.00     0.105 A 
ATOM     76  C   UNL A   1      32.015  25.071  24.543  1.00  0.00     0.055 A 
ATOM     77  N   UNL A   1      31.207  24.410  22.603  1.00  0.00    -0.356 N 
ATOM     78  C   UNL A   1      31.385  23.826  24.742  1.00  0.00     0.106 A 
ATOM     79  C   UNL A   1      30.916  23.418  23.509  1.00  0.00     0.105 A 
ATOM     80  H   UNL A   1      30.971  24.385  21.647  1.00  0.00     0.166 HD
BRANCH  78  81
ATOM     81  S   UNL A   1      31.286  23.036  26.272  1.00  0.00     0.263 S 
ATOM     82  O   UNL A   1      31.183  24.095  27.242  1.00  0.00    -0.201 OA
ATOM     83  O   UNL A   1      30.224  22.058  26.101  1.00  0.00    -0.201 OA
BRANCH  81  84
ATOM     84  N   UNL A   1      32.699  22.155  26.663  1.00  0.00    -0.277 N 
ATOM     85  H   UNL A   1      32.675  21.459  27.360  1.00  0.00     0.180 HD
BRANCH  84  86
ATOM     86  C   UNL A   1      33.925  22.437  25.963  1.00  0.00     0.075 A 
ATOM     87  C   UNL A   1      34.622  23.606  26.303  1.00  0.00     0.029 A 
ATOM     88  C   UNL A   1      34.517  21.523  25.066  1.00  0.00     0.089 A 
ATOM     89  C   UNL A   1      35.876  23.879  25.747  1.00  0.00     0.002 A 
ATOM     90  C   UNL A   1      35.794  21.795  24.537  1.00  0.00     0.030 A 
ATOM     91  C   UNL A   1      36.462  22.974  24.866  1.00  0.00     0.002 A 
BRANCH  88  92
ATOM     92  N   UNL A   1      33.914  20.275  24.738  1.00  0.00    -0.238 N 
ATOM     93  C   UNL A   1      34.468  19.013  24.773  1.00  0.00     0.130 A 
ATOM     94  N   UNL A   1      32.648  20.236  24.230  1.00  0.00    -0.175 NA
ATOM     95  C   UNL A   1      33.644  18.218  24.027  1.00  0.00     0.056 A 
ATOM     96  C   UNL A   1      32.549  19.014  23.696  1.00  0.00     0.151 A 
ATOM     97  Br  UNL A   1      33.908  16.442  23.531  1.00  0.00    -0.047 Br
ENDBRANCH  88  92
ENDBRANCH  84  86
ENDBRANCH  81  84
ENDBRANCH  78  81
ENDBRANCH  72  75
ENDBRANCH  70  71
ENDBRANCH   1  70
TORSDOF 18
ENDMDL
MODEL 2
REMARK VINA RESULT:     -12.3      3.544      8.650
REMARK SMILES O=C(NCCCCNC(=O)c1cc(S(=O)(=O)Nc2ccccc2-n2cc(Br)cn2)c[nH]1)c1ccc(-c2c3nc(c(-c4ccc(S(=O)(=O)[O-])cc4)c4ccc([nH]4)c(-c4ccc(S(=O)(=O)[O-])cc4)c4nc(c(-c5ccc(S(=O)(=O)[O-])cc5)c5ccc2[nH]5)C=C4)C=C3)cc1
REMARK SMILES IDX 6 1 5 2 4 3 3 4 1 5 2 6 32 8 33 9 91 10 34 11 90 12 35 13
REMARK SMILES IDX 36 14 37 15 84 16 38 17 89 18 83 19 85 20 39 21 88 22 82 23
REMARK SMILES IDX 81 24 40 26 70 27 51 28 69 29 52 30 55 31 68 32 86 33 53 34
REMARK SMILES IDX 54 35 67 37 87 38 56 39 41 40 42 41 50 42 43 43 49 44 44 45
REMARK SMILES IDX 45 46 46 47 47 48 48 49 71 50 72 51 80 52 73 53 79 54 74 55
REMARK SMILES IDX 75 56 76 57 77 58 78 59 57 60 58 61 66 62 59 63 65 64 60 65
REMARK SMILES IDX 61 66 62 67 63 68 64 69 7 70 8 71 9 72 10 74 11 75 12 76
REMARK SMILES IDX 31 77 13 78 30 79 14 81 15 82 16 83 17 84 18 86 19 87 23 88
REMARK SMILES IDX 20 89 22 90 21 91 24 92 25 93 29 94 26 95 28 96 27 97
REMARK H PARENT 3 7 85 25 55 36 8 73 31 80 17 85
REMARK Flexibility Score: inf
ROOT
ATOM      1  C   UNL A   1      35.854  21.344  25.923  1.00  0.00     0.023 C 
ENDROOT
BRANCH   1   2
ATOM      2  C   UNL A   1      35.903  22.856  25.751  1.00  0.00     0.023 C 
BRANCH   2   3
ATOM      3  C   UNL A   1      37.179  23.390  25.100  1.00  0.00     0.116 C 
BRANCH   3   4
ATOM      4  N   UNL A   1      38.408  22.691  25.435  1.00  0.00    -0.352 N 
ATOM      5  O   UNL A   1      40.298  22.072  26.426  1.00  0.00    -0.269 OA
ATOM      6  C   UNL A   1      39.451  22.955  26.289  1.00  0.00     0.251 C 
ATOM      7  H   UNL A   1      38.517  21.845  24.943  1.00  0.00     0.163 HD
BRANCH   6   8
ATOM      8  C   UNL A   1      39.638  24.258  26.981  1.00  0.00     0.039 A 
ATOM      9  C   UNL A   1      39.120  24.543  28.243  1.00  0.00     0.014 A 
ATOM     10  C   UNL A   1      40.386  25.248  26.317  1.00  0.00     0.014 A 
ATOM     11  C   UNL A   1      39.222  25.821  28.774  1.00  0.00     0.010 A 
ATOM     12  C   UNL A   1      40.544  26.522  26.872  1.00  0.00     0.010 A 
ATOM     13  C   UNL A   1      39.941  26.812  28.098  1.00  0.00    -0.014 A 
BRANCH  13  14
ATOM     14  C   UNL A   1      40.206  28.055  28.857  1.00  0.00     0.031 A 
ATOM     15  C   UNL A   1      41.404  27.879  29.804  1.00  0.00     0.074 A 
ATOM     16  C   UNL A   1      39.304  29.077  28.750  1.00  0.00     0.049 A 
ATOM     17  N   UNL A   1      41.587  28.355  30.996  1.00  0.00    -0.248 NA
ATOM     18  C   UNL A   1      42.498  26.941  29.426  1.00  0.00     0.031 C 
ATOM     19  C   UNL A   1      38.185  29.119  27.782  1.00  0.00     0.029 A 
ATOM     20  N   UNL A   1      39.125  30.269  29.425  1.00  0.00    -0.354 N 
ATOM     21  C   UNL A   1      42.854  27.917  31.445  1.00  0.00     0.074 A 
ATOM     22  C   UNL A   1      43.319  26.969  30.480  1.00  0.00     0.031 C 
ATOM     23  C   UNL A   1      37.422  30.220  27.973  1.00  0.00     0.029 A 
ATOM     24  C   UNL A   1      37.961  31.001  29.070  1.00  0.00     0.049 A 
ATOM     25  H   UNL A   1      39.760  30.588  30.107  1.00  0.00     0.167 HD
ATOM     26  C   UNL A   1      43.489  28.448  32.530  1.00  0.00     0.031 A 
ATOM     27  C   UNL A   1      37.444  32.134  29.638  1.00  0.00     0.031 A 
ATOM     28  C   UNL A   1      42.678  29.449  33.133  1.00  0.00     0.049 A 
ATOM     29  C   UNL A   1      38.402  32.552  30.673  1.00  0.00     0.074 A 
ATOM     30  C   UNL A   1      41.535  29.404  33.888  1.00  0.00     0.029 A 
ATOM     31  N   UNL A   1      42.873  30.733  32.684  1.00  0.00    -0.354 N 
ATOM     32  N   UNL A   1      39.550  33.106  30.444  1.00  0.00    -0.248 NA
ATOM     33  C   UNL A   1      38.054  32.344  32.086  1.00  0.00     0.031 C 
ATOM     34  C   UNL A   1      40.828  30.555  33.479  1.00  0.00     0.029 A 
ATOM     35  C   UNL A   1      41.635  31.318  32.627  1.00  0.00     0.049 A 
ATOM     36  H   UNL A   1      43.733  31.150  32.449  1.00  0.00     0.167 HD
ATOM     37  C   UNL A   1      40.200  32.933  31.639  1.00  0.00     0.074 A 
ATOM     38  C   UNL A   1      39.174  32.790  32.650  1.00  0.00     0.031 C 
ATOM     39  C   UNL A   1      41.423  32.347  31.638  1.00  0.00     0.031 A 
BRANCH  26  40
ATOM     40  C   UNL A   1      44.913  28.354  33.015  1.00  0.00    -0.014 A 
ATOM     41  C   UNL A   1      45.109  27.851  34.329  1.00  0.00     0.010 A 
ATOM     42  C   UNL A   1      45.986  29.023  32.413  1.00  0.00     0.010 A 
ATOM     43  C   UNL A   1      46.263  28.128  35.062  1.00  0.00     0.020 A 
ATOM     44  C   UNL A   1      47.170  29.271  33.132  1.00  0.00     0.020 A 
ATOM     45  C   UNL A   1      47.276  28.871  34.468  1.00  0.00     0.054 A 
BRANCH  45  46
ATOM     46  S   UNL A   1      48.683  29.373  35.495  1.00  0.00     0.124 S 
ATOM     47  O   UNL A   1      49.820  29.047  34.639  1.00  0.00    -0.237 OA
ATOM     48  O   UNL A   1      48.438  30.801  35.692  1.00  0.00    -0.237 OA
ATOM     49  O   UNL A   1      48.542  28.554  36.695  1.00  0.00    -0.744 OA
ENDBRANCH  45  46
ENDBRANCH  26  40
BRANCH  27  50
ATOM     50  C   UNL A   1      36.189  32.982  29.582  1.00  0.00    -0.014 A 
ATOM     51  C   UNL A   1      35.388  33.356  30.665  1.00  0.00     0.010 A 
ATOM     52  C   UNL A   1      35.866  33.598  28.334  1.00  0.00     0.010 A 
ATOM     53  C   UNL A   1      34.429  34.392  30.535  1.00  0.00     0.020 A 
ATOM     54  C   UNL A   1      34.969  34.659  28.205  1.00  0.00     0.020 A 
ATOM     55  C   UNL A   1      34.268  35.075  29.322  1.00  0.00     0.054 A 
BRANCH  55  56
ATOM     56  S   UNL A   1      33.274  36.591  29.216  1.00  0.00     0.124 S 
ATOM     57  O   UNL A   1      34.045  37.409  28.286  1.00  0.00    -0.237 OA
ATOM     58  O   UNL A   1      31.990  36.103  28.715  1.00  0.00    -0.237 OA
ATOM     59  O   UNL A   1      33.244  37.073  30.597  1.00  0.00    -0.744 OA
ENDBRANCH  55  56
ENDBRANCH  27  50
BRANCH  39  60
ATOM     60  C   UNL A   1      42.212  32.508  30.342  1.00  0.00    -0.014 A 
ATOM     61  C   UNL A   1      42.555  31.372  29.586  1.00  0.00     0.010 A 
ATOM     62  C   UNL A   1      42.716  33.748  29.901  1.00  0.00     0.010 A 
ATOM     63  C   UNL A   1      43.369  31.466  28.446  1.00  0.00     0.020 A 
ATOM     64  C   UNL A   1      43.529  33.856  28.759  1.00  0.00     0.020 A 
ATOM     65  C   UNL A   1      43.851  32.709  28.035  1.00  0.00     0.054 A 
BRANCH  65  66
ATOM     66  S   UNL A   1      44.904  32.795  26.555  1.00  0.00     0.124 S 
ATOM     67  O   UNL A   1      45.326  34.194  26.539  1.00  0.00    -0.237 OA
ATOM     68  O   UNL A   1      45.957  31.830  26.862  1.00  0.00    -0.237 OA
ATOM     69  O   UNL A   1      44.010  32.411  25.464  1.00  0.00    -0.744 OA
ENDBRANCH  65  66
ENDBRANCH  39  60
ENDBRANCH  13  14
ENDBRANCH   6   8
ENDBRANCH   3   4
ENDBRANCH   2   3
ENDBRANCH   1   2
BRANCH   1  70
ATOM     70  C   UNL A   1      35.412  20.580  24.687  1.00  0.00     0.116 C 
BRANCH  70  71
ATOM     71  N   UNL A   1      34.405  19.575  24.988  1.00  0.00    -0.351 N 
ATOM     72  C   UNL A   1      33.078  19.724  25.298  1.00  0.00     0.267 C 
ATOM     73  H   UNL A   1      34.726  18.644  24.964  1.00  0.00     0.163 HD
ATOM     74  O   UNL A   1      32.478  18.757  25.765  1.00  0.00    -0.268 OA
BRANCH  72  75
ATOM     75  C   UNL A   1      32.415  20.985  25.058  1.00  0.00     0.105 A 
ATOM     76  C   UNL A   1      32.017  21.985  25.922  1.00  0.00     0.055 A 
ATOM     77  N   UNL A   1      32.132  21.448  23.789  1.00  0.00    -0.356 N 
ATOM     78  C   UNL A   1      31.538  23.082  25.177  1.00  0.00     0.106 A 
ATOM     79  C   UNL A   1      31.589  22.710  23.848  1.00  0.00     0.105 A 
ATOM     80  H   UNL A   1      32.295  20.946  22.958  1.00  0.00     0.166 HD
BRANCH  78  81
ATOM     81  S   UNL A   1      30.998  24.559  25.885  1.00  0.00     0.263 S 
ATOM     82  O   UNL A   1      30.271  25.237  24.845  1.00  0.00    -0.201 OA
ATOM     83  O   UNL A   1      30.350  24.147  27.120  1.00  0.00    -0.201 OA
BRANCH  81  84
ATOM     84  N   UNL A   1      32.284  25.595  26.334  1.00  0.00    -0.277 N 
ATOM     85  H   UNL A   1      33.120  25.221  26.698  1.00  0.00     0.180 HD
BRANCH  84  86
ATOM     86  C   UNL A   1      32.134  27.018  26.176  1.00  0.00     0.075 A 
ATOM     87  C   UNL A   1      31.770  27.771  27.302  1.00  0.00     0.029 A 
ATOM     88  C   UNL A   1      32.476  27.690  24.983  1.00  0.00     0.089 A 
ATOM     89  C   UNL A   1      31.724  29.168  27.245  1.00  0.00     0.002 A 
ATOM     90  C   UNL A   1      32.454  29.099  24.948  1.00  0.00     0.030 A 
ATOM     91  C   UNL A   1      32.066  29.831  26.070  1.00  0.00     0.002 A 
BRANCH  88  92
ATOM     92  N   UNL A   1      32.938  27.004  23.824  1.00  0.00    -0.238 N 
ATOM     93  C   UNL A   1      32.476  27.090  22.528  1.00  0.00     0.130 A 
ATOM     94  N   UNL A   1      33.908  26.050  23.932  1.00  0.00    -0.175 NA
ATOM     95  C   UNL A   1      32.967  25.993  21.878  1.00  0.00     0.056 A 
ATOM     96  C   UNL A   1      33.826  25.371  22.783  1.00  0.00     0.151 A 
ATOM     97  Br  UNL A   1      32.580  25.418  20.149  1.00  0.00    -0.047 Br
ENDBRANCH  88  92
ENDBRANCH  84  86
ENDBRANCH  81  84
ENDBRANCH  78  81
ENDBRANCH  72  75
ENDBRANCH  70  71
ENDBRANCH   1  70
TORSDOF 18
ENDMDL
MODEL 3
REMARK VINA RESULT:     -12.0      4.011      8.996
REMARK SMILES O=C(NCCCCNC(=O)c1cc(S(=O)(=O)Nc2ccccc2-n2cc(Br)cn2)c[nH]1)c1ccc(-c2c3nc(c(-c4ccc(S(=O)(=O)[O-])cc4)c4ccc([nH]4)c(-c4ccc(S(=O)(=O)[O-])cc4)c4nc(c(-c5ccc(S(=O)(=O)[O-])cc5)c5ccc2[nH]5)C=C4)C=C3)cc1
REMARK SMILES IDX 6 1 5 2 4 3 3 4 1 5 2 6 32 8 33 9 91 10 34 11 90 12 35 13
REMARK SMILES IDX 36 14 37 15 84 16 38 17 89 18 83 19 85 20 39 21 88 22 82 23
REMARK SMILES IDX 81 24 40 26 70 27 51 28 69 29 52 30 55 31 68 32 86 33 53 34
REMARK SMILES IDX 54 35 67 37 87 38 56 39 41 40 42 41 50 42 43 43 49 44 44 45
REMARK SMILES IDX 45 46 46 47 47 48 48 49 71 50 72 51 80 52 73 53 79 54 74 55
REMARK SMILES IDX 75 56 76 57 77 58 78 59 57 60 58 61 66 62 59 63 65 64 60 65
REMARK SMILES IDX 61 66 62 67 63 68 64 69 7 70 8 71 9 72 10 74 11 75 12 76
REMARK SMILES IDX 31 77 13 78 30 79 14 81 15 82 16 83 17 84 18 86 19 87 23 88
REMARK SMILES IDX 20 89 22 90 21 91 24 92 25 93 29 94 26 95 28 96 27 97
REMARK H PARENT 3 7 85 25 55 36 8 73 31 80 17 85
REMARK Flexibility Score: inf
ROOT
ATOM      1  C   UNL A   1      35.632  21.503  25.933  1.00  0.00     0.023 C 
ENDROOT
BRANCH   1   2
ATOM      2  C   UNL A   1      35.829  22.993  25.691  1.00  0.00     0.023 C 
BRANCH   2   3
ATOM      3  C   UNL A   1      37.110  23.361  24.943  1.00  0.00     0.116 C 
BRANCH   3   4
ATOM      4  N   UNL A   1      38.277  22.546  25.233  1.00  0.00    -0.352 N 
ATOM      5  O   UNL A   1      40.126  21.736  26.161  1.00  0.00    -0.269 OA
ATOM      6  C   UNL A   1      39.362  22.697  26.060  1.00  0.00     0.251 C 
ATOM      7  H   UNL A   1      38.293  21.701  24.726  1.00  0.00     0.163 HD
BRANCH   6   8
ATOM      8  C   UNL A   1      39.689  23.965  26.766  1.00  0.00     0.039 A 
ATOM      9  C   UNL A   1      39.227  24.279  28.042  1.00  0.00     0.014 A 
ATOM     10  C   UNL A   1      40.515  24.888  26.099  1.00  0.00     0.014 A 
ATOM     11  C   UNL A   1      39.464  25.533  28.588  1.00  0.00     0.010 A 
ATOM     12  C   UNL A   1      40.808  26.131  26.666  1.00  0.00     0.010 A 
ATOM     13  C   UNL A   1      40.261  26.460  27.909  1.00  0.00    -0.014 A 
BRANCH  13  14
ATOM     14  C   UNL A   1      40.661  27.660  28.679  1.00  0.00     0.031 A 
ATOM     15  C   UNL A   1      41.974  27.415  29.439  1.00  0.00     0.074 A 
ATOM     16  C   UNL A   1      39.780  28.703  28.745  1.00  0.00     0.049 A 
ATOM     17  N   UNL A   1      42.334  27.831  30.614  1.00  0.00    -0.248 NA
ATOM     18  C   UNL A   1      42.981  26.476  28.870  1.00  0.00     0.031 C 
ATOM     19  C   UNL A   1      38.538  28.813  27.946  1.00  0.00     0.029 A 
ATOM     20  N   UNL A   1      39.726  29.864  29.492  1.00  0.00    -0.354 N 
ATOM     21  C   UNL A   1      43.639  27.347  30.861  1.00  0.00     0.074 A 
ATOM     22  C   UNL A   1      43.941  26.437  29.798  1.00  0.00     0.031 C 
ATOM     23  C   UNL A   1      37.837  29.918  28.292  1.00  0.00     0.029 A 
ATOM     24  C   UNL A   1      38.544  30.635  29.336  1.00  0.00     0.049 A 
ATOM     25  H   UNL A   1      40.458  30.138  30.091  1.00  0.00     0.167 HD
ATOM     26  C   UNL A   1      44.432  27.814  31.869  1.00  0.00     0.031 A 
ATOM     27  C   UNL A   1      38.140  31.749  30.022  1.00  0.00     0.031 A 
ATOM     28  C   UNL A   1      43.739  28.799  32.624  1.00  0.00     0.049 A 
ATOM     29  C   UNL A   1      39.243  32.098  30.929  1.00  0.00     0.074 A 
ATOM     30  C   UNL A   1      42.712  28.741  33.529  1.00  0.00     0.029 A 
ATOM     31  N   UNL A   1      43.903  30.100  32.210  1.00  0.00    -0.354 N 
ATOM     32  N   UNL A   1      40.362  32.641  30.567  1.00  0.00    -0.248 NA
ATOM     33  C   UNL A   1      39.090  31.830  32.367  1.00  0.00     0.031 C 
ATOM     34  C   UNL A   1      41.984  29.922  33.275  1.00  0.00     0.029 A 
ATOM     35  C   UNL A   1      42.684  30.710  32.353  1.00  0.00     0.049 A 
ATOM     36  H   UNL A   1      44.732  30.511  31.876  1.00  0.00     0.167 HD
ATOM     37  C   UNL A   1      41.167  32.398  31.650  1.00  0.00     0.074 A 
ATOM     38  C   UNL A   1      40.288  32.227  32.787  1.00  0.00     0.031 C 
ATOM     39  C   UNL A   1      42.363  31.790  31.451  1.00  0.00     0.031 A 
BRANCH  26  40
ATOM     40  C   UNL A   1      45.907  27.669  32.145  1.00  0.00    -0.014 A 
ATOM     41  C   UNL A   1      46.795  28.205  31.175  1.00  0.00     0.010 A 
ATOM     42  C   UNL A   1      46.439  26.777  33.084  1.00  0.00     0.010 A 
ATOM     43  C   UNL A   1      48.112  27.762  31.053  1.00  0.00     0.020 A 
ATOM     44  C   UNL A   1      47.779  26.355  32.992  1.00  0.00     0.020 A 
ATOM     45  C   UNL A   1      48.586  26.808  31.944  1.00  0.00     0.054 A 
BRANCH  45  46
ATOM     46  S   UNL A   1      50.236  26.115  31.656  1.00  0.00     0.124 S 
ATOM     47  O   UNL A   1      49.996  25.201  30.543  1.00  0.00    -0.237 OA
ATOM     48  O   UNL A   1      51.026  27.301  31.332  1.00  0.00    -0.237 OA
ATOM     49  O   UNL A   1      50.571  25.483  32.929  1.00  0.00    -0.744 OA
ENDBRANCH  45  46
ENDBRANCH  26  40
BRANCH  27  50
ATOM     50  C   UNL A   1      36.912  32.623  30.180  1.00  0.00    -0.014 A 
ATOM     51  C   UNL A   1      36.894  33.992  30.464  1.00  0.00     0.010 A 
ATOM     52  C   UNL A   1      35.646  32.043  29.859  1.00  0.00     0.010 A 
ATOM     53  C   UNL A   1      35.714  34.755  30.285  1.00  0.00     0.020 A 
ATOM     54  C   UNL A   1      34.492  32.791  29.621  1.00  0.00     0.020 A 
ATOM     55  C   UNL A   1      34.538  34.160  29.809  1.00  0.00     0.054 A 
BRANCH  55  56
ATOM     56  S   UNL A   1      33.116  35.162  29.288  1.00  0.00     0.124 S 
ATOM     57  O   UNL A   1      32.499  34.325  28.264  1.00  0.00    -0.237 OA
ATOM     58  O   UNL A   1      32.354  35.314  30.526  1.00  0.00    -0.237 OA
ATOM     59  O   UNL A   1      33.733  36.395  28.799  1.00  0.00    -0.744 OA
ENDBRANCH  55  56
ENDBRANCH  27  50
BRANCH  39  60
ATOM     60  C   UNL A   1      42.968  31.998  30.066  1.00  0.00    -0.014 A 
ATOM     61  C   UNL A   1      43.055  30.915  29.171  1.00  0.00     0.010 A 
ATOM     62  C   UNL A   1      43.550  33.214  29.659  1.00  0.00     0.010 A 
ATOM     63  C   UNL A   1      43.698  31.038  27.929  1.00  0.00     0.020 A 
ATOM     64  C   UNL A   1      44.194  33.352  28.417  1.00  0.00     0.020 A 
ATOM     65  C   UNL A   1      44.264  32.258  27.556  1.00  0.00     0.054 A 
BRANCH  65  66
ATOM     66  S   UNL A   1      45.092  32.382  25.942  1.00  0.00     0.124 S 
ATOM     67  O   UNL A   1      45.988  33.522  26.124  1.00  0.00    -0.237 OA
ATOM     68  O   UNL A   1      45.752  31.083  25.826  1.00  0.00    -0.237 OA
ATOM     69  O   UNL A   1      43.997  32.606  25.000  1.00  0.00    -0.744 OA
ENDBRANCH  65  66
ENDBRANCH  39  60
ENDBRANCH  13  14
ENDBRANCH   6   8
ENDBRANCH   3   4
ENDBRANCH   2   3
ENDBRANCH   1   2
BRANCH   1  70
ATOM     70  C   UNL A   1      35.293  20.698  24.689  1.00  0.00     0.116 C 
BRANCH  70  71
ATOM     71  N   UNL A   1      34.096  19.892  24.861  1.00  0.00    -0.351 N 
ATOM     72  C   UNL A   1      32.785  20.276  24.984  1.00  0.00     0.267 C 
ATOM     73  H   UNL A   1      34.250  18.919  24.893  1.00  0.00     0.163 HD
ATOM     74  O   UNL A   1      31.970  19.443  25.377  1.00  0.00    -0.268 OA
BRANCH  72  75
ATOM     75  C   UNL A   1      32.390  21.623  24.641  1.00  0.00     0.105 A 
ATOM     76  C   UNL A   1      32.140  22.729  25.428  1.00  0.00     0.055 A 
ATOM     77  N   UNL A   1      32.274  22.055  23.335  1.00  0.00    -0.356 N 
ATOM     78  C   UNL A   1      31.923  23.850  24.601  1.00  0.00     0.106 A 
ATOM     79  C   UNL A   1      31.979  23.397  23.298  1.00  0.00     0.105 A 
ATOM     80  H   UNL A   1      32.388  21.483  22.542  1.00  0.00     0.166 HD
BRANCH  78  81
ATOM     81  S   UNL A   1      31.634  25.441  25.201  1.00  0.00     0.263 S 
ATOM     82  O   UNL A   1      30.413  25.870  24.571  1.00  0.00    -0.201 OA
ATOM     83  O   UNL A   1      31.736  25.303  26.645  1.00  0.00    -0.201 OA
BRANCH  81  84
ATOM     84  N   UNL A   1      32.841  26.562  24.734  1.00  0.00    -0.277 N 
ATOM     85  H   UNL A   1      33.390  26.396  23.933  1.00  0.00     0.180 HD
BRANCH  84  86
ATOM     86  C   UNL A   1      33.045  27.750  25.520  1.00  0.00     0.075 A 
ATOM     87  C   UNL A   1      34.005  27.705  26.542  1.00  0.00     0.029 A 
ATOM     88  C   UNL A   1      32.429  28.981  25.211  1.00  0.00     0.089 A 
ATOM     89  C   UNL A   1      34.337  28.857  27.263  1.00  0.00     0.002 A 
ATOM     90  C   UNL A   1      32.795  30.140  25.926  1.00  0.00     0.030 A 
ATOM     91  C   UNL A   1      33.733  30.073  26.956  1.00  0.00     0.002 A 
BRANCH  88  92
ATOM     92  N   UNL A   1      31.510  29.128  24.134  1.00  0.00    -0.238 N 
ATOM     93  C   UNL A   1      30.266  29.721  24.135  1.00  0.00     0.130 A 
ATOM     94  N   UNL A   1      31.776  28.558  22.922  1.00  0.00    -0.175 NA
ATOM     95  C   UNL A   1      29.637  29.283  23.004  1.00  0.00     0.056 A 
ATOM     96  C   UNL A   1      30.594  28.556  22.297  1.00  0.00     0.151 A 
ATOM     97  Br  UNL A   1      27.870  29.573  22.491  1.00  0.00    -0.047 Br
ENDBRANCH  88  92
ENDBRANCH  84  86
ENDBRANCH  81  84
ENDBRANCH  78  81
ENDBRANCH  72  75
ENDBRANCH  70  71
ENDBRANCH   1  70
TORSDOF 18
ENDMDL
