MODEL 1
REMARK VINA RESULT:     -12.5      0.000      0.000
REMARK SMILES O=C(NCCCCNC(=O)[C@@H]1CC2(CCN(C(=O)C3(c4ccccc4F)CC3)CC2)C[NH2+]1)c1ccc(-c2c3nc(c(-c4ccc(S(=O)(=O)[O-])cc4)c4ccc([nH]4)c(-c4ccc(S(=O)(=O)[O-])cc4)c4nc(c(-c5ccc(S(=O)(=O)[O-])cc5)c5ccc2[nH]5)C=C4)C=C3)cc1
REMARK SMILES IDX 5 1 4 2 3 3 1 4 2 5 33 7 34 8 92 9 35 10 91 11 36 12 37 13
REMARK SMILES IDX 38 14 85 15 39 16 90 17 84 18 86 19 40 20 89 21 83 22 82 23
REMARK SMILES IDX 41 25 71 26 52 27 70 28 53 29 56 30 69 31 87 32 54 33 55 34
REMARK SMILES IDX 68 36 88 37 57 38 42 39 43 40 51 41 44 42 50 43 45 44 46 45
REMARK SMILES IDX 47 46 48 47 49 48 72 49 73 50 81 51 74 52 80 53 75 54 76 55
REMARK SMILES IDX 77 56 78 57 79 58 58 59 59 60 67 61 60 62 66 63 61 64 62 65
REMARK SMILES IDX 63 66 64 67 65 68 6 69 7 70 8 71 9 72 10 74 11 75 12 76
REMARK SMILES IDX 32 77 13 78 31 79 14 82 30 83 15 84 29 85 16 86 17 87 18 88
REMARK SMILES IDX 19 89 27 90 28 91 20 92 21 93 25 94 22 95 24 96 26 97 23 98
REMARK H PARENT 3 6 86 24 56 35 8 73 32 80 32 81
REMARK Flexibility Score: inf
ROOT
ATOM      1  C   UNL A   1      38.527  22.687  26.253  1.00  0.00     0.023 C 
ENDROOT
BRANCH   1   2
ATOM      2  C   UNL A   1      39.049  24.077  26.596  1.00  0.00     0.116 C 
BRANCH   2   3
ATOM      3  N   UNL A   1      40.176  24.478  25.771  1.00  0.00    -0.352 N 
ATOM      4  O   UNL A   1      41.807  25.840  25.020  1.00  0.00    -0.269 OA
ATOM      5  C   UNL A   1      40.985  25.584  25.896  1.00  0.00     0.251 C 
ATOM      6  H   UNL A   1      40.389  23.877  25.020  1.00  0.00     0.163 HD
BRANCH   5   7
ATOM      7  C   UNL A   1      40.846  26.471  27.073  1.00  0.00     0.039 A 
ATOM      8  C   UNL A   1      40.054  26.096  28.160  1.00  0.00     0.014 A 
ATOM      9  C   UNL A   1      41.533  27.689  27.093  1.00  0.00     0.014 A 
ATOM     10  C   UNL A   1      39.857  26.983  29.213  1.00  0.00     0.010 A 
ATOM     11  C   UNL A   1      41.393  28.548  28.188  1.00  0.00     0.010 A 
ATOM     12  C   UNL A   1      40.542  28.208  29.250  1.00  0.00    -0.014 A 
BRANCH  12  13
ATOM     13  C   UNL A   1      40.441  29.059  30.463  1.00  0.00     0.031 A 
ATOM     14  C   UNL A   1      41.332  28.841  31.654  1.00  0.00     0.074 A 
ATOM     15  C   UNL A   1      39.524  30.047  30.471  1.00  0.00     0.049 A 
ATOM     16  N   UNL A   1      41.370  29.512  32.779  1.00  0.00    -0.248 NA
ATOM     17  C   UNL A   1      42.300  27.735  31.584  1.00  0.00     0.031 C 
ATOM     18  C   UNL A   1      38.590  30.336  29.377  1.00  0.00     0.029 A 
ATOM     19  N   UNL A   1      39.230  30.996  31.415  1.00  0.00    -0.354 N 
ATOM     20  C   UNL A   1      42.346  28.900  33.557  1.00  0.00     0.074 A 
ATOM     21  C   UNL A   1      42.871  27.797  32.782  1.00  0.00     0.031 C 
ATOM     22  C   UNL A   1      37.852  31.409  29.700  1.00  0.00     0.029 A 
ATOM     23  C   UNL A   1      38.215  31.845  31.042  1.00  0.00     0.049 A 
ATOM     24  H   UNL A   1      39.700  31.062  32.278  1.00  0.00     0.167 HD
ATOM     25  C   UNL A   1      42.761  29.233  34.804  1.00  0.00     0.031 A 
ATOM     26  C   UNL A   1      37.621  32.850  31.712  1.00  0.00     0.031 A 
ATOM     27  C   UNL A   1      42.240  30.340  35.563  1.00  0.00     0.049 A 
ATOM     28  C   UNL A   1      38.089  33.177  33.100  1.00  0.00     0.074 A 
ATOM     29  C   UNL A   1      42.645  30.793  36.808  1.00  0.00     0.029 A 
ATOM     30  N   UNL A   1      41.196  31.159  35.163  1.00  0.00    -0.354 N 
ATOM     31  N   UNL A   1      39.060  32.626  33.787  1.00  0.00    -0.248 NA
ATOM     32  C   UNL A   1      37.380  34.253  33.801  1.00  0.00     0.031 C 
ATOM     33  C   UNL A   1      41.809  31.850  37.184  1.00  0.00     0.029 A 
ATOM     34  C   UNL A   1      40.918  32.088  36.151  1.00  0.00     0.049 A 
ATOM     35  H   UNL A   1      40.722  31.091  34.302  1.00  0.00     0.167 HD
ATOM     36  C   UNL A   1      39.081  33.295  35.006  1.00  0.00     0.074 A 
ATOM     37  C   UNL A   1      38.048  34.309  34.946  1.00  0.00     0.031 C 
ATOM     38  C   UNL A   1      39.878  33.081  36.081  1.00  0.00     0.031 A 
BRANCH  25  39
ATOM     39  C   UNL A   1      43.824  28.384  35.453  1.00  0.00    -0.014 A 
ATOM     40  C   UNL A   1      45.187  28.708  35.333  1.00  0.00     0.010 A 
ATOM     41  C   UNL A   1      43.443  27.319  36.289  1.00  0.00     0.010 A 
ATOM     42  C   UNL A   1      46.151  27.973  36.031  1.00  0.00     0.020 A 
ATOM     43  C   UNL A   1      44.402  26.594  37.003  1.00  0.00     0.020 A 
ATOM     44  C   UNL A   1      45.752  26.922  36.865  1.00  0.00     0.054 A 
BRANCH  44  45
ATOM     45  S   UNL A   1      47.017  26.030  37.811  1.00  0.00     0.124 S 
ATOM     46  O   UNL A   1      47.420  24.990  36.867  1.00  0.00    -0.237 OA
ATOM     47  O   UNL A   1      48.015  27.065  38.067  1.00  0.00    -0.237 OA
ATOM     48  O   UNL A   1      46.299  25.555  38.991  1.00  0.00    -0.744 OA
ENDBRANCH  44  45
ENDBRANCH  25  39
BRANCH  26  49
ATOM     49  C   UNL A   1      36.483  33.582  31.094  1.00  0.00    -0.014 A 
ATOM     50  C   UNL A   1      35.301  33.818  31.816  1.00  0.00     0.010 A 
ATOM     51  C   UNL A   1      36.583  34.046  29.770  1.00  0.00     0.010 A 
ATOM     52  C   UNL A   1      34.228  34.483  31.214  1.00  0.00     0.020 A 
ATOM     53  C   UNL A   1      35.525  34.737  29.175  1.00  0.00     0.020 A 
ATOM     54  C   UNL A   1      34.347  34.935  29.896  1.00  0.00     0.054 A 
BRANCH  54  55
ATOM     55  S   UNL A   1      32.956  35.820  29.139  1.00  0.00     0.124 S 
ATOM     56  O   UNL A   1      33.632  36.929  28.475  1.00  0.00    -0.237 OA
ATOM     57  O   UNL A   1      32.378  34.810  28.256  1.00  0.00    -0.237 OA
ATOM     58  O   UNL A   1      32.124  36.186  30.282  1.00  0.00    -0.744 OA
ENDBRANCH  54  55
ENDBRANCH  26  49
BRANCH  38  59
ATOM     59  C   UNL A   1      39.661  33.967  37.276  1.00  0.00    -0.014 A 
ATOM     60  C   UNL A   1      40.183  35.272  37.311  1.00  0.00     0.010 A 
ATOM     61  C   UNL A   1      38.897  33.501  38.362  1.00  0.00     0.010 A 
ATOM     62  C   UNL A   1      39.972  36.086  38.425  1.00  0.00     0.020 A 
ATOM     63  C   UNL A   1      38.663  34.322  39.467  1.00  0.00     0.020 A 
ATOM     64  C   UNL A   1      39.215  35.605  39.498  1.00  0.00     0.054 A 
BRANCH  64  65
ATOM     65  S   UNL A   1      38.923  36.694  40.919  1.00  0.00     0.124 S 
ATOM     66  O   UNL A   1      38.369  37.884  40.279  1.00  0.00    -0.237 OA
ATOM     67  O   UNL A   1      37.985  35.922  41.730  1.00  0.00    -0.237 OA
ATOM     68  O   UNL A   1      40.251  36.862  41.504  1.00  0.00    -0.744 OA
ENDBRANCH  64  65
ENDBRANCH  38  59
ENDBRANCH  12  13
ENDBRANCH   5   7
ENDBRANCH   2   3
ENDBRANCH   1   2
BRANCH   1  69
ATOM     69  C   UNL A   1      37.061  22.621  25.826  1.00  0.00     0.023 C 
BRANCH  69  70
ATOM     70  C   UNL A   1      36.617  21.299  25.204  1.00  0.00     0.116 C 
BRANCH  70  71
ATOM     71  N   UNL A   1      35.403  20.771  25.800  1.00  0.00    -0.351 N 
ATOM     72  C   UNL A   1      34.161  20.646  25.241  1.00  0.00     0.278 C 
ATOM     73  H   UNL A   1      35.484  20.462  26.731  1.00  0.00     0.163 HD
ATOM     74  O   UNL A   1      33.306  19.997  25.845  1.00  0.00    -0.268 OA
BRANCH  72  75
ATOM     75  C   UNL A   1      33.890  21.316  23.879  1.00  0.00     0.273 C 
ATOM     76  C   UNL A   1      34.191  22.805  23.900  1.00  0.00     0.088 C 
ATOM     77  N   UNL A   1      32.467  21.262  23.494  1.00  0.00    -0.336 N 
ATOM     78  C   UNL A   1      32.880  23.486  24.352  1.00  0.00     0.029 C 
ATOM     79  C   UNL A   1      31.806  22.401  24.137  1.00  0.00     0.268 C 
ATOM     80  H   UNL A   1      32.049  20.388  23.815  1.00  0.00     0.346 HD
ATOM     81  H   UNL A   1      32.362  21.305  22.480  1.00  0.00     0.346 HD
ATOM     82  C   UNL A   1      32.610  24.752  23.497  1.00  0.00     0.034 C 
ATOM     83  C   UNL A   1      32.915  23.881  25.853  1.00  0.00     0.034 C 
ATOM     84  C   UNL A   1      33.580  25.892  23.846  1.00  0.00     0.120 C 
ATOM     85  C   UNL A   1      33.820  25.083  26.126  1.00  0.00     0.120 C 
ATOM     86  N   UNL A   1      33.457  26.201  25.260  1.00  0.00    -0.342 N 
ATOM     87  C   UNL A   1      32.572  27.144  25.788  1.00  0.00     0.233 C 
ATOM     88  O   UNL A   1      31.906  26.886  26.790  1.00  0.00    -0.274 OA
BRANCH  87  89
ATOM     89  C   UNL A   1      32.505  28.568  25.253  1.00  0.00     0.077 C 
ATOM     90  C   UNL A   1      32.429  29.011  23.793  1.00  0.00     0.023 C 
ATOM     91  C   UNL A   1      31.165  28.897  24.568  1.00  0.00     0.023 C 
BRANCH  89  92
ATOM     92  C   UNL A   1      33.031  29.615  26.258  1.00  0.00     0.003 A 
ATOM     93  C   UNL A   1      32.278  30.749  26.615  1.00  0.00     0.008 A 
ATOM     94  C   UNL A   1      34.311  29.504  26.833  1.00  0.00     0.127 A 
ATOM     95  C   UNL A   1      32.785  31.719  27.489  1.00  0.00     0.001 A 
ATOM     96  C   UNL A   1      34.832  30.472  27.691  1.00  0.00     0.039 A 
ATOM     97  F   UNL A   1      35.069  28.429  26.569  1.00  0.00    -0.207 F 
ATOM     98  C   UNL A   1      34.068  31.586  28.017  1.00  0.00     0.003 A 
ENDBRANCH  89  92
ENDBRANCH  87  89
ENDBRANCH  72  75
ENDBRANCH  70  71
ENDBRANCH  69  70
ENDBRANCH   1  69
TORSDOF 16
ENDMDL
MODEL 2
REMARK VINA RESULT:     -12.4      1.079      2.078
REMARK SMILES O=C(NCCCCNC(=O)[C@@H]1CC2(CCN(C(=O)C3(c4ccccc4F)CC3)CC2)C[NH2+]1)c1ccc(-c2c3nc(c(-c4ccc(S(=O)(=O)[O-])cc4)c4ccc([nH]4)c(-c4ccc(S(=O)(=O)[O-])cc4)c4nc(c(-c5ccc(S(=O)(=O)[O-])cc5)c5ccc2[nH]5)C=C4)C=C3)cc1
REMARK SMILES IDX 5 1 4 2 3 3 1 4 2 5 33 7 34 8 92 9 35 10 91 11 36 12 37 13
REMARK SMILES IDX 38 14 85 15 39 16 90 17 84 18 86 19 40 20 89 21 83 22 82 23
REMARK SMILES IDX 41 25 71 26 52 27 70 28 53 29 56 30 69 31 87 32 54 33 55 34
REMARK SMILES IDX 68 36 88 37 57 38 42 39 43 40 51 41 44 42 50 43 45 44 46 45
REMARK SMILES IDX 47 46 48 47 49 48 72 49 73 50 81 51 74 52 80 53 75 54 76 55
REMARK SMILES IDX 77 56 78 57 79 58 58 59 59 60 67 61 60 62 66 63 61 64 62 65
REMARK SMILES IDX 63 66 64 67 65 68 6 69 7 70 8 71 9 72 10 74 11 75 12 76
REMARK SMILES IDX 32 77 13 78 31 79 14 82 30 83 15 84 29 85 16 86 17 87 18 88
REMARK SMILES IDX 19 89 27 90 28 91 20 92 21 93 25 94 22 95 24 96 26 97 23 98
REMARK H PARENT 3 6 86 24 56 35 8 73 32 80 32 81
REMARK Flexibility Score: inf
ROOT
ATOM      1  C   UNL A   1      37.343  23.259  25.935  1.00  0.00     0.023 C 
ENDROOT
BRANCH   1   2
ATOM      2  C   UNL A   1      38.356  24.099  26.702  1.00  0.00     0.116 C 
BRANCH   2   3
ATOM      3  N   UNL A   1      39.681  24.073  26.106  1.00  0.00    -0.352 N 
ATOM      4  O   UNL A   1      41.773  24.798  25.686  1.00  0.00    -0.269 OA
ATOM      5  C   UNL A   1      40.768  24.866  26.389  1.00  0.00     0.251 C 
ATOM      6  H   UNL A   1      39.819  23.396  25.405  1.00  0.00     0.163 HD
BRANCH   5   7
ATOM      7  C   UNL A   1      40.716  25.814  27.526  1.00  0.00     0.039 A 
ATOM      8  C   UNL A   1      41.640  26.856  27.630  1.00  0.00     0.014 A 
ATOM      9  C   UNL A   1      39.715  25.664  28.491  1.00  0.00     0.014 A 
ATOM     10  C   UNL A   1      41.635  27.676  28.753  1.00  0.00     0.010 A 
ATOM     11  C   UNL A   1      39.666  26.538  29.583  1.00  0.00     0.010 A 
ATOM     12  C   UNL A   1      40.635  27.542  29.730  1.00  0.00    -0.014 A 
BRANCH  12  13
ATOM     13  C   UNL A   1      40.558  28.536  30.830  1.00  0.00     0.031 A 
ATOM     14  C   UNL A   1      41.450  28.447  32.037  1.00  0.00     0.074 A 
ATOM     15  C   UNL A   1      39.662  29.537  30.718  1.00  0.00     0.049 A 
ATOM     16  N   UNL A   1      41.507  29.249  33.071  1.00  0.00    -0.248 NA
ATOM     17  C   UNL A   1      42.394  27.320  32.101  1.00  0.00     0.031 C 
ATOM     18  C   UNL A   1      38.729  29.711  29.600  1.00  0.00     0.029 A 
ATOM     19  N   UNL A   1      39.393  30.601  31.540  1.00  0.00    -0.354 N 
ATOM     20  C   UNL A   1      42.473  28.717  33.917  1.00  0.00     0.074 A 
ATOM     21  C   UNL A   1      42.971  27.515  33.282  1.00  0.00     0.031 C 
ATOM     22  C   UNL A   1      38.015  30.830  29.790  1.00  0.00     0.029 A 
ATOM     23  C   UNL A   1      38.395  31.420  31.067  1.00  0.00     0.049 A 
ATOM     24  H   UNL A   1      39.868  30.763  32.387  1.00  0.00     0.167 HD
ATOM     25  C   UNL A   1      42.901  29.190  35.112  1.00  0.00     0.031 A 
ATOM     26  C   UNL A   1      37.825  32.512  31.610  1.00  0.00     0.031 A 
ATOM     27  C   UNL A   1      42.407  30.394  35.731  1.00  0.00     0.049 A 
ATOM     28  C   UNL A   1      38.306  32.996  32.947  1.00  0.00     0.074 A 
ATOM     29  C   UNL A   1      42.828  30.986  36.910  1.00  0.00     0.029 A 
ATOM     30  N   UNL A   1      41.379  31.179  35.235  1.00  0.00    -0.354 N 
ATOM     31  N   UNL A   1      39.269  32.513  33.695  1.00  0.00    -0.248 NA
ATOM     32  C   UNL A   1      37.623  34.166  33.513  1.00  0.00     0.031 C 
ATOM     33  C   UNL A   1      42.016  32.099  37.156  1.00  0.00     0.029 A 
ATOM     34  C   UNL A   1      41.125  32.229  36.103  1.00  0.00     0.049 A 
ATOM     35  H   UNL A   1      40.900  31.016  34.390  1.00  0.00     0.167 HD
ATOM     36  C   UNL A   1      39.309  33.325  34.822  1.00  0.00     0.074 A 
ATOM     37  C   UNL A   1      38.297  34.346  34.641  1.00  0.00     0.031 C 
ATOM     38  C   UNL A   1      40.106  33.228  35.913  1.00  0.00     0.031 A 
BRANCH  25  39
ATOM     39  C   UNL A   1      43.948  28.405  35.858  1.00  0.00    -0.014 A 
ATOM     40  C   UNL A   1      43.594  27.338  36.702  1.00  0.00     0.010 A 
ATOM     41  C   UNL A   1      45.310  28.666  35.618  1.00  0.00     0.010 A 
ATOM     42  C   UNL A   1      44.585  26.553  37.301  1.00  0.00     0.020 A 
ATOM     43  C   UNL A   1      46.303  27.872  36.199  1.00  0.00     0.020 A 
ATOM     44  C   UNL A   1      45.934  26.822  37.042  1.00  0.00     0.054 A 
BRANCH  44  45
ATOM     45  S   UNL A   1      47.196  25.745  37.778  1.00  0.00     0.124 S 
ATOM     46  O   UNL A   1      48.339  25.977  36.897  1.00  0.00    -0.237 OA
ATOM     47  O   UNL A   1      47.327  26.282  39.129  1.00  0.00    -0.237 OA
ATOM     48  O   UNL A   1      46.606  24.411  37.695  1.00  0.00    -0.744 OA
ENDBRANCH  44  45
ENDBRANCH  25  39
BRANCH  26  49
ATOM     49  C   UNL A   1      36.700  33.187  30.910  1.00  0.00    -0.014 A 
ATOM     50  C   UNL A   1      36.924  33.939  29.744  1.00  0.00     0.010 A 
ATOM     51  C   UNL A   1      35.392  33.078  31.416  1.00  0.00     0.010 A 
ATOM     52  C   UNL A   1      35.862  34.593  29.111  1.00  0.00     0.020 A 
ATOM     53  C   UNL A   1      34.323  33.705  30.769  1.00  0.00     0.020 A 
ATOM     54  C   UNL A   1      34.569  34.473  29.631  1.00  0.00     0.054 A 
BRANCH  54  55
ATOM     55  S   UNL A   1      33.197  35.304  28.783  1.00  0.00     0.124 S 
ATOM     56  O   UNL A   1      32.575  34.198  28.064  1.00  0.00    -0.237 OA
ATOM     57  O   UNL A   1      32.423  35.855  29.892  1.00  0.00    -0.237 OA
ATOM     58  O   UNL A   1      33.867  36.298  27.948  1.00  0.00    -0.744 OA
ENDBRANCH  54  55
ENDBRANCH  26  49
BRANCH  38  59
ATOM     59  C   UNL A   1      39.914  34.257  36.992  1.00  0.00    -0.014 A 
ATOM     60  C   UNL A   1      40.473  35.542  36.870  1.00  0.00     0.010 A 
ATOM     61  C   UNL A   1      39.136  33.949  38.123  1.00  0.00     0.010 A 
ATOM     62  C   UNL A   1      40.284  36.491  37.877  1.00  0.00     0.020 A 
ATOM     63  C   UNL A   1      38.925  34.904  39.119  1.00  0.00     0.020 A 
ATOM     64  C   UNL A   1      39.513  36.165  38.997  1.00  0.00     0.054 A 
BRANCH  64  65
ATOM     65  S   UNL A   1      39.251  37.426  40.274  1.00  0.00     0.124 S 
ATOM     66  O   UNL A   1      38.414  38.396  39.574  1.00  0.00    -0.237 OA
ATOM     67  O   UNL A   1      38.589  36.675  41.338  1.00  0.00    -0.237 OA
ATOM     68  O   UNL A   1      40.603  37.883  40.591  1.00  0.00    -0.744 OA
ENDBRANCH  64  65
ENDBRANCH  38  59
ENDBRANCH  12  13
ENDBRANCH   5   7
ENDBRANCH   2   3
ENDBRANCH   1   2
BRANCH   1  69
ATOM     69  C   UNL A   1      37.819  21.866  25.522  1.00  0.00     0.023 C 
BRANCH  69  70
ATOM     70  C   UNL A   1      36.763  20.979  24.864  1.00  0.00     0.116 C 
BRANCH  70  71
ATOM     71  N   UNL A   1      35.538  20.887  25.638  1.00  0.00    -0.351 N 
ATOM     72  C   UNL A   1      34.258  21.167  25.247  1.00  0.00     0.278 C 
ATOM     73  H   UNL A   1      35.643  20.584  26.569  1.00  0.00     0.163 HD
ATOM     74  O   UNL A   1      33.331  20.843  25.991  1.00  0.00    -0.268 OA
BRANCH  72  75
ATOM     75  C   UNL A   1      34.032  21.867  23.892  1.00  0.00     0.273 C 
ATOM     76  C   UNL A   1      34.178  23.376  23.992  1.00  0.00     0.088 C 
ATOM     77  N   UNL A   1      32.658  21.691  23.385  1.00  0.00    -0.336 N 
ATOM     78  C   UNL A   1      32.772  23.904  24.355  1.00  0.00     0.029 C 
ATOM     79  C   UNL A   1      31.834  22.730  24.009  1.00  0.00     0.268 C 
ATOM     80  H   UNL A   1      32.306  20.767  23.637  1.00  0.00     0.346 HD
ATOM     81  H   UNL A   1      32.632  21.768  22.368  1.00  0.00     0.346 HD
ATOM     82  C   UNL A   1      32.446  25.174  23.526  1.00  0.00     0.034 C 
ATOM     83  C   UNL A   1      32.645  24.234  25.867  1.00  0.00     0.034 C 
ATOM     84  C   UNL A   1      33.264  26.387  23.998  1.00  0.00     0.120 C 
ATOM     85  C   UNL A   1      33.397  25.506  26.259  1.00  0.00     0.120 C 
ATOM     86  N   UNL A   1      32.996  26.620  25.406  1.00  0.00    -0.342 N 
ATOM     87  C   UNL A   1      31.979  27.447  25.890  1.00  0.00     0.233 C 
ATOM     88  O   UNL A   1      31.263  27.080  26.822  1.00  0.00    -0.274 OA
BRANCH  87  89
ATOM     89  C   UNL A   1      31.812  28.880  25.403  1.00  0.00     0.077 C 
ATOM     90  C   UNL A   1      32.316  30.156  26.075  1.00  0.00     0.023 C 
ATOM     91  C   UNL A   1      33.142  29.544  25.001  1.00  0.00     0.023 C 
BRANCH  89  92
ATOM     92  C   UNL A   1      30.640  29.046  24.411  1.00  0.00     0.003 A 
ATOM     93  C   UNL A   1      30.163  27.973  23.636  1.00  0.00     0.008 A 
ATOM     94  C   UNL A   1      30.023  30.294  24.204  1.00  0.00     0.127 A 
ATOM     95  C   UNL A   1      29.134  28.146  22.702  1.00  0.00     0.001 A 
ATOM     96  C   UNL A   1      29.010  30.481  23.265  1.00  0.00     0.039 A 
ATOM     97  F   UNL A   1      30.401  31.353  24.937  1.00  0.00    -0.207 F 
ATOM     98  C   UNL A   1      28.565  29.404  22.508  1.00  0.00     0.003 A 
ENDBRANCH  89  92
ENDBRANCH  87  89
ENDBRANCH  72  75
ENDBRANCH  70  71
ENDBRANCH  69  70
ENDBRANCH   1  69
TORSDOF 16
ENDMDL
MODEL 3
REMARK VINA RESULT:     -12.3      2.315      9.112
REMARK SMILES O=C(NCCCCNC(=O)[C@@H]1CC2(CCN(C(=O)C3(c4ccccc4F)CC3)CC2)C[NH2+]1)c1ccc(-c2c3nc(c(-c4ccc(S(=O)(=O)[O-])cc4)c4ccc([nH]4)c(-c4ccc(S(=O)(=O)[O-])cc4)c4nc(c(-c5ccc(S(=O)(=O)[O-])cc5)c5ccc2[nH]5)C=C4)C=C3)cc1
REMARK SMILES IDX 5 1 4 2 3 3 1 4 2 5 33 7 34 8 92 9 35 10 91 11 36 12 37 13
REMARK SMILES IDX 38 14 85 15 39 16 90 17 84 18 86 19 40 20 89 21 83 22 82 23
REMARK SMILES IDX 41 25 71 26 52 27 70 28 53 29 56 30 69 31 87 32 54 33 55 34
REMARK SMILES IDX 68 36 88 37 57 38 42 39 43 40 51 41 44 42 50 43 45 44 46 45
REMARK SMILES IDX 47 46 48 47 49 48 72 49 73 50 81 51 74 52 80 53 75 54 76 55
REMARK SMILES IDX 77 56 78 57 79 58 58 59 59 60 67 61 60 62 66 63 61 64 62 65
REMARK SMILES IDX 63 66 64 67 65 68 6 69 7 70 8 71 9 72 10 74 11 75 12 76
REMARK SMILES IDX 32 77 13 78 31 79 14 82 30 83 15 84 29 85 16 86 17 87 18 88
REMARK SMILES IDX 19 89 27 90 28 91 20 92 21 93 25 94 22 95 24 96 26 97 23 98
REMARK H PARENT 3 6 86 24 56 35 8 73 32 80 32 81
REMARK Flexibility Score: inf
ROOT
ATOM      1  C   UNL A   1      31.801  31.784  26.547  1.00  0.00     0.023 C 
ENDROOT
BRANCH   1   2
ATOM      2  C   UNL A   1      32.962  32.445  27.280  1.00  0.00     0.116 C 
BRANCH   2   3
ATOM      3  N   UNL A   1      32.694  33.828  27.634  1.00  0.00    -0.352 N 
ATOM      4  O   UNL A   1      32.810  35.703  28.880  1.00  0.00    -0.269 OA
ATOM      5  C   UNL A   1      33.260  34.587  28.632  1.00  0.00     0.251 C 
ATOM      6  H   UNL A   1      32.015  34.284  27.086  1.00  0.00     0.163 HD
BRANCH   5   7
ATOM      7  C   UNL A   1      34.395  34.047  29.417  1.00  0.00     0.039 A 
ATOM      8  C   UNL A   1      34.169  33.252  30.542  1.00  0.00     0.014 A 
ATOM      9  C   UNL A   1      35.701  34.330  29.007  1.00  0.00     0.014 A 
ATOM     10  C   UNL A   1      35.242  32.835  31.322  1.00  0.00     0.010 A 
ATOM     11  C   UNL A   1      36.783  33.847  29.752  1.00  0.00     0.010 A 
ATOM     12  C   UNL A   1      36.561  33.108  30.924  1.00  0.00    -0.014 A 
BRANCH  12  13
ATOM     13  C   UNL A   1      37.687  32.509  31.685  1.00  0.00     0.031 A 
ATOM     14  C   UNL A   1      38.082  33.023  33.041  1.00  0.00     0.074 A 
ATOM     15  C   UNL A   1      38.352  31.477  31.128  1.00  0.00     0.049 A 
ATOM     16  N   UNL A   1      39.034  32.593  33.831  1.00  0.00    -0.248 NA
ATOM     17  C   UNL A   1      37.323  34.161  33.583  1.00  0.00     0.031 C 
ATOM     18  C   UNL A   1      38.068  30.909  29.805  1.00  0.00     0.029 A 
ATOM     19  N   UNL A   1      39.389  30.715  31.598  1.00  0.00    -0.354 N 
ATOM     20  C   UNL A   1      39.005  33.416  34.951  1.00  0.00     0.074 A 
ATOM     21  C   UNL A   1      37.947  34.380  34.736  1.00  0.00     0.031 C 
ATOM     22  C   UNL A   1      38.888  29.870  29.586  1.00  0.00     0.029 A 
ATOM     23  C   UNL A   1      39.793  29.736  30.721  1.00  0.00     0.049 A 
ATOM     24  H   UNL A   1      39.806  30.855  32.479  1.00  0.00     0.167 HD
ATOM     25  C   UNL A   1      39.790  33.369  36.054  1.00  0.00     0.031 A 
ATOM     26  C   UNL A   1      40.796  28.843  30.803  1.00  0.00     0.031 A 
ATOM     27  C   UNL A   1      40.834  32.397  36.265  1.00  0.00     0.049 A 
ATOM     28  C   UNL A   1      41.662  28.832  32.029  1.00  0.00     0.074 A 
ATOM     29  C   UNL A   1      41.638  32.231  37.380  1.00  0.00     0.029 A 
ATOM     30  N   UNL A   1      41.229  31.441  35.343  1.00  0.00    -0.354 N 
ATOM     31  N   UNL A   1      41.571  29.578  33.103  1.00  0.00    -0.248 NA
ATOM     32  C   UNL A   1      42.767  27.866  32.050  1.00  0.00     0.031 C 
ATOM     33  C   UNL A   1      42.557  31.211  37.110  1.00  0.00     0.029 A 
ATOM     34  C   UNL A   1      42.290  30.708  35.848  1.00  0.00     0.049 A 
ATOM     35  H   UNL A   1      40.816  31.303  34.460  1.00  0.00     0.167 HD
ATOM     36  C   UNL A   1      42.607  29.167  33.933  1.00  0.00     0.074 A 
ATOM     37  C   UNL A   1      43.290  28.088  33.249  1.00  0.00     0.031 C 
ATOM     38  C   UNL A   1      42.966  29.647  35.148  1.00  0.00     0.031 A 
BRANCH  25  39
ATOM     39  C   UNL A   1      39.578  34.404  37.127  1.00  0.00    -0.014 A 
ATOM     40  C   UNL A   1      38.859  34.103  38.298  1.00  0.00     0.010 A 
ATOM     41  C   UNL A   1      40.208  35.657  37.013  1.00  0.00     0.010 A 
ATOM     42  C   UNL A   1      38.766  35.042  39.330  1.00  0.00     0.020 A 
ATOM     43  C   UNL A   1      40.132  36.592  38.051  1.00  0.00     0.020 A 
ATOM     44  C   UNL A   1      39.406  36.280  39.201  1.00  0.00     0.054 A 
BRANCH  44  45
ATOM     45  S   UNL A   1      39.325  37.452  40.584  1.00  0.00     0.124 S 
ATOM     46  O   UNL A   1      38.853  36.600  41.673  1.00  0.00    -0.237 OA
ATOM     47  O   UNL A   1      40.707  37.909  40.699  1.00  0.00    -0.237 OA
ATOM     48  O   UNL A   1      38.373  38.463  40.128  1.00  0.00    -0.744 OA
ENDBRANCH  44  45
ENDBRANCH  25  39
BRANCH  26  49
ATOM     49  C   UNL A   1      41.064  27.921  29.667  1.00  0.00    -0.014 A 
ATOM     50  C   UNL A   1      42.157  28.132  28.810  1.00  0.00     0.010 A 
ATOM     51  C   UNL A   1      40.216  26.822  29.440  1.00  0.00     0.010 A 
ATOM     52  C   UNL A   1      42.382  27.274  27.728  1.00  0.00     0.020 A 
ATOM     53  C   UNL A   1      40.454  25.946  28.379  1.00  0.00     0.020 A 
ATOM     54  C   UNL A   1      41.525  26.189  27.519  1.00  0.00     0.054 A 
BRANCH  54  55
ATOM     55  S   UNL A   1      41.846  25.069  26.128  1.00  0.00     0.124 S 
ATOM     56  O   UNL A   1      43.241  24.705  26.351  1.00  0.00    -0.237 OA
ATOM     57  O   UNL A   1      40.871  24.003  26.345  1.00  0.00    -0.237 OA
ATOM     58  O   UNL A   1      41.594  25.903  24.956  1.00  0.00    -0.744 OA
ENDBRANCH  54  55
ENDBRANCH  26  49
BRANCH  38  59
ATOM     59  C   UNL A   1      44.151  29.002  35.813  1.00  0.00    -0.014 A 
ATOM     60  C   UNL A   1      43.991  27.865  36.625  1.00  0.00     0.010 A 
ATOM     61  C   UNL A   1      45.441  29.517  35.594  1.00  0.00     0.010 A 
ATOM     62  C   UNL A   1      45.099  27.273  37.234  1.00  0.00     0.020 A 
ATOM     63  C   UNL A   1      46.554  28.912  36.182  1.00  0.00     0.020 A 
ATOM     64  C   UNL A   1      46.374  27.802  37.011  1.00  0.00     0.054 A 
BRANCH  64  65
ATOM     65  S   UNL A   1      47.802  26.993  37.782  1.00  0.00     0.124 S 
ATOM     66  O   UNL A   1      47.259  26.590  39.076  1.00  0.00    -0.237 OA
ATOM     67  O   UNL A   1      48.096  25.903  36.856  1.00  0.00    -0.237 OA
ATOM     68  O   UNL A   1      48.812  28.049  37.832  1.00  0.00    -0.744 OA
ENDBRANCH  64  65
ENDBRANCH  38  59
ENDBRANCH  12  13
ENDBRANCH   5   7
ENDBRANCH   2   3
ENDBRANCH   1   2
BRANCH   1  69
ATOM     69  C   UNL A   1      31.772  30.256  26.601  1.00  0.00     0.023 C 
BRANCH  69  70
ATOM     70  C   UNL A   1      32.756  29.548  25.673  1.00  0.00     0.116 C 
BRANCH  70  71
ATOM     71  N   UNL A   1      32.275  29.447  24.306  1.00  0.00    -0.351 N 
ATOM     72  C   UNL A   1      31.268  28.666  23.811  1.00  0.00     0.278 C 
ATOM     73  H   UNL A   1      32.736  30.017  23.648  1.00  0.00     0.163 HD
ATOM     74  O   UNL A   1      30.883  28.863  22.657  1.00  0.00    -0.268 OA
BRANCH  72  75
ATOM     75  C   UNL A   1      30.656  27.580  24.717  1.00  0.00     0.273 C 
ATOM     76  C   UNL A   1      31.711  26.651  25.296  1.00  0.00     0.088 C 
ATOM     77  N   UNL A   1      29.763  26.664  23.983  1.00  0.00    -0.336 N 
ATOM     78  C   UNL A   1      31.874  25.516  24.261  1.00  0.00     0.029 C 
ATOM     79  C   UNL A   1      30.610  25.627  23.387  1.00  0.00     0.268 C 
ATOM     80  H   UNL A   1      29.264  27.171  23.252  1.00  0.00     0.346 HD
ATOM     81  H   UNL A   1      29.069  26.253  24.608  1.00  0.00     0.346 HD
ATOM     82  C   UNL A   1      31.966  24.144  24.981  1.00  0.00     0.034 C 
ATOM     83  C   UNL A   1      33.132  25.711  23.373  1.00  0.00     0.034 C 
ATOM     84  C   UNL A   1      33.309  23.972  25.709  1.00  0.00     0.120 C 
ATOM     85  C   UNL A   1      34.434  25.430  24.122  1.00  0.00     0.120 C 
ATOM     86  N   UNL A   1      34.389  24.112  24.747  1.00  0.00    -0.342 N 
ATOM     87  C   UNL A   1      34.943  23.054  24.023  1.00  0.00     0.233 C 
ATOM     88  O   UNL A   1      35.171  23.170  22.819  1.00  0.00    -0.274 OA
BRANCH  87  89
ATOM     89  C   UNL A   1      35.432  21.784  24.707  1.00  0.00     0.077 C 
ATOM     90  C   UNL A   1      36.863  21.438  25.116  1.00  0.00     0.023 C 
ATOM     91  C   UNL A   1      35.953  22.026  26.136  1.00  0.00     0.023 C 
BRANCH  89  92
ATOM     92  C   UNL A   1      34.465  20.593  24.527  1.00  0.00     0.003 A 
ATOM     93  C   UNL A   1      33.090  20.780  24.292  1.00  0.00     0.008 A 
ATOM     94  C   UNL A   1      34.910  19.262  24.635  1.00  0.00     0.127 A 
ATOM     95  C   UNL A   1      32.214  19.693  24.181  1.00  0.00     0.001 A 
ATOM     96  C   UNL A   1      34.043  18.174  24.543  1.00  0.00     0.039 A 
ATOM     97  F   UNL A   1      36.215  19.009  24.819  1.00  0.00    -0.207 F 
ATOM     98  C   UNL A   1      32.689  18.390  24.319  1.00  0.00     0.003 A 
ENDBRANCH  89  92
ENDBRANCH  87  89
ENDBRANCH  72  75
ENDBRANCH  70  71
ENDBRANCH  69  70
ENDBRANCH   1  69
TORSDOF 16
ENDMDL
