MODEL 1
REMARK VINA RESULT:     -11.3      0.000      0.000
REMARK SMILES O=C(CSCc1nnnn1-c1ccc([N+](=O)[O-])cc1)NCCCCNC(=O)c1ccc(-c2c3nc(c(-c4ccc(S(=O)(=O)[O-])cc4)c4ccc([nH]4)c(-c4ccc(S(=O)(=O)[O-])cc4)c4nc(c(-c5ccc(S(=O)(=O)[O-])cc5)c5ccc2[nH]5)C=C4)C=C3)cc1
REMARK SMILES IDX 21 1 20 2 1 3 2 4 3 6 4 7 5 8 6 9 7 10 10 11 8 12 9 13 11 14
REMARK SMILES IDX 12 15 19 16 13 17 18 18 14 19 15 20 16 21 17 22 22 23 23 24
REMARK SMILES IDX 24 25 25 26 26 27 27 29 28 30 29 31 87 32 30 33 86 34 31 35
REMARK SMILES IDX 32 36 33 37 80 38 34 39 85 40 79 41 81 42 35 43 84 44 78 45
REMARK SMILES IDX 77 46 36 48 66 49 47 50 65 51 48 52 51 53 64 54 82 55 49 56
REMARK SMILES IDX 50 57 63 59 83 60 52 61 37 62 38 63 46 64 39 65 45 66 40 67
REMARK SMILES IDX 41 68 42 69 43 70 44 71 67 72 68 73 76 74 69 75 75 76 70 77
REMARK SMILES IDX 71 78 72 79 73 80 74 81 53 82 54 83 62 84 55 85 61 86 56 87
REMARK SMILES IDX 57 88 58 89 59 90 60 91
REMARK H PARENT 20 5 25 28 81 47 51 58
REMARK Flexibility Score: inf
ROOT
ATOM      1  C   UNL A   1      37.255  22.356  25.411  1.00  0.00     0.116 C 
ENDROOT
BRANCH   1   2
ATOM      2  N   UNL A   1      36.177  21.984  26.312  1.00  0.00    -0.355 N 
ATOM      3  O   UNL A   1      34.896  23.830  25.936  1.00  0.00    -0.274 OA
ATOM      4  C   UNL A   1      35.010  22.703  26.415  1.00  0.00     0.230 C 
ATOM      5  H   UNL A   1      36.287  21.182  26.871  1.00  0.00     0.163 HD
BRANCH   4   6
ATOM      6  C   UNL A   1      33.866  22.077  27.203  1.00  0.00     0.169 C 
BRANCH   6   7
ATOM      7  S   UNL A   1      32.325  23.046  27.268  1.00  0.00    -0.144 SA
BRANCH   7   8
ATOM      8  C   UNL A   1      31.314  22.331  25.919  1.00  0.00     0.149 C 
BRANCH   8   9
ATOM      9  C   UNL A   1      31.772  22.644  24.540  1.00  0.00     0.166 A 
ATOM     10  N   UNL A   1      31.785  23.840  23.980  1.00  0.00    -0.113 NA
ATOM     11  N   UNL A   1      32.318  21.757  23.629  1.00  0.00    -0.196 N 
ATOM     12  N   UNL A   1      32.417  23.704  22.774  1.00  0.00    -0.023 NA
ATOM     13  N   UNL A   1      32.814  22.457  22.586  1.00  0.00    -0.040 NA
BRANCH  11  14
ATOM     14  C   UNL A   1      32.509  20.364  23.724  1.00  0.00     0.069 A 
ATOM     15  C   UNL A   1      32.146  19.566  22.628  1.00  0.00     0.035 A 
ATOM     16  C   UNL A   1      33.118  19.800  24.850  1.00  0.00     0.035 A 
ATOM     17  C   UNL A   1      32.526  18.223  22.601  1.00  0.00     0.088 A 
ATOM     18  C   UNL A   1      33.460  18.446  24.841  1.00  0.00     0.088 A 
ATOM     19  C   UNL A   1      33.213  17.677  23.694  1.00  0.00     0.269 A 
BRANCH  19  20
ATOM     20  N   UNL A   1      33.760  16.318  23.605  1.00  0.00     0.062 N 
ATOM     21  O   UNL A   1      34.396  16.014  22.584  1.00  0.00    -0.258 OA
ATOM     22  O   UNL A   1      33.540  15.544  24.549  1.00  0.00    -0.258 OA
ENDBRANCH  19  20
ENDBRANCH  11  14
ENDBRANCH   8   9
ENDBRANCH   7   8
ENDBRANCH   6   7
ENDBRANCH   4   6
ENDBRANCH   1   2
BRANCH   1  23
ATOM     23  C   UNL A   1      38.676  21.975  25.850  1.00  0.00     0.023 C 
BRANCH  23  24
ATOM     24  C   UNL A   1      39.243  20.662  25.300  1.00  0.00     0.023 C 
BRANCH  24  25
ATOM     25  C   UNL A   1      39.760  19.691  26.351  1.00  0.00     0.116 C 
BRANCH  25  26
ATOM     26  N   UNL A   1      40.998  19.005  25.965  1.00  0.00    -0.352 N 
ATOM     27  C   UNL A   1      42.233  19.584  25.715  1.00  0.00     0.251 C 
ATOM     28  H   UNL A   1      40.947  18.026  25.875  1.00  0.00     0.163 HD
ATOM     29  O   UNL A   1      43.070  19.015  25.016  1.00  0.00    -0.269 OA
BRANCH  27  30
ATOM     30  C   UNL A   1      42.529  20.890  26.327  1.00  0.00     0.039 A 
ATOM     31  C   UNL A   1      42.866  22.025  25.582  1.00  0.00     0.014 A 
ATOM     32  C   UNL A   1      42.404  20.962  27.711  1.00  0.00     0.014 A 
ATOM     33  C   UNL A   1      42.983  23.251  26.243  1.00  0.00     0.010 A 
ATOM     34  C   UNL A   1      42.327  22.184  28.319  1.00  0.00     0.010 A 
ATOM     35  C   UNL A   1      42.690  23.323  27.612  1.00  0.00    -0.014 A 
BRANCH  35  36
ATOM     36  C   UNL A   1      42.643  24.586  28.345  1.00  0.00     0.031 A 
ATOM     37  C   UNL A   1      41.439  25.412  28.068  1.00  0.00     0.074 A 
ATOM     38  C   UNL A   1      43.471  24.841  29.384  1.00  0.00     0.049 A 
ATOM     39  N   UNL A   1      41.381  26.512  27.394  1.00  0.00    -0.248 NA
ATOM     40  C   UNL A   1      40.118  24.879  28.443  1.00  0.00     0.031 C 
ATOM     41  C   UNL A   1      44.502  23.959  29.958  1.00  0.00     0.029 A 
ATOM     42  N   UNL A   1      43.490  25.900  30.239  1.00  0.00    -0.354 N 
ATOM     43  C   UNL A   1      40.060  26.943  27.482  1.00  0.00     0.074 A 
ATOM     44  C   UNL A   1      39.302  25.808  27.937  1.00  0.00     0.031 C 
ATOM     45  C   UNL A   1      44.868  24.409  31.178  1.00  0.00     0.029 A 
ATOM     46  C   UNL A   1      44.253  25.705  31.390  1.00  0.00     0.049 A 
ATOM     47  H   UNL A   1      43.004  26.737  30.059  1.00  0.00     0.167 HD
ATOM     48  C   UNL A   1      39.751  28.271  27.455  1.00  0.00     0.031 A 
ATOM     49  C   UNL A   1      44.391  26.560  32.433  1.00  0.00     0.031 A 
ATOM     50  C   UNL A   1      40.912  29.059  27.122  1.00  0.00     0.049 A 
ATOM     51  C   UNL A   1      44.037  27.902  31.926  1.00  0.00     0.074 A 
ATOM     52  C   UNL A   1      41.696  29.260  26.009  1.00  0.00     0.029 A 
ATOM     53  N   UNL A   1      41.632  29.485  28.212  1.00  0.00    -0.354 N 
ATOM     54  N   UNL A   1      44.736  28.521  31.018  1.00  0.00    -0.248 NA
ATOM     55  C   UNL A   1      42.687  28.407  32.127  1.00  0.00     0.031 C 
ATOM     56  C   UNL A   1      43.009  29.507  26.511  1.00  0.00     0.029 A 
ATOM     57  C   UNL A   1      42.965  29.510  27.907  1.00  0.00     0.049 A 
ATOM     58  H   UNL A   1      41.247  29.734  29.084  1.00  0.00     0.167 HD
ATOM     59  C   UNL A   1      43.795  29.174  30.241  1.00  0.00     0.074 A 
ATOM     60  C   UNL A   1      42.587  29.207  31.060  1.00  0.00     0.031 C 
ATOM     61  C   UNL A   1      44.005  29.359  28.905  1.00  0.00     0.031 A 
BRANCH  48  62
ATOM     62  C   UNL A   1      38.587  28.907  28.189  1.00  0.00    -0.014 A 
ATOM     63  C   UNL A   1      37.851  29.915  27.524  1.00  0.00     0.010 A 
ATOM     64  C   UNL A   1      38.373  28.778  29.574  1.00  0.00     0.010 A 
ATOM     65  C   UNL A   1      37.019  30.799  28.225  1.00  0.00     0.020 A 
ATOM     66  C   UNL A   1      37.515  29.630  30.277  1.00  0.00     0.020 A 
ATOM     67  C   UNL A   1      36.872  30.659  29.603  1.00  0.00     0.054 A 
BRANCH  67  68
ATOM     68  S   UNL A   1      35.890  31.874  30.517  1.00  0.00     0.124 S 
ATOM     69  O   UNL A   1      36.780  33.032  30.530  1.00  0.00    -0.237 OA
ATOM     70  O   UNL A   1      34.697  31.997  29.683  1.00  0.00    -0.237 OA
ATOM     71  O   UNL A   1      35.676  31.233  31.812  1.00  0.00    -0.744 OA
ENDBRANCH  67  68
ENDBRANCH  48  62
BRANCH  49  72
ATOM     72  C   UNL A   1      44.633  26.305  33.872  1.00  0.00    -0.014 A 
ATOM     73  C   UNL A   1      45.782  26.806  34.516  1.00  0.00     0.010 A 
ATOM     74  C   UNL A   1      43.575  25.842  34.680  1.00  0.00     0.010 A 
ATOM     75  C   UNL A   1      45.841  26.905  35.917  1.00  0.00     0.020 A 
ATOM     76  C   UNL A   1      43.628  25.942  36.078  1.00  0.00     0.020 A 
ATOM     77  C   UNL A   1      44.752  26.496  36.689  1.00  0.00     0.054 A 
BRANCH  77  78
ATOM     78  S   UNL A   1      44.765  26.808  38.483  1.00  0.00     0.124 S 
ATOM     79  O   UNL A   1      43.446  26.331  38.889  1.00  0.00    -0.237 OA
ATOM     80  O   UNL A   1      45.896  26.004  38.938  1.00  0.00    -0.237 OA
ATOM     81  O   UNL A   1      44.959  28.254  38.577  1.00  0.00    -0.744 OA
ENDBRANCH  77  78
ENDBRANCH  49  72
BRANCH  61  82
ATOM     82  C   UNL A   1      45.421  29.228  28.400  1.00  0.00    -0.014 A 
ATOM     83  C   UNL A   1      45.949  28.068  27.798  1.00  0.00     0.010 A 
ATOM     84  C   UNL A   1      46.220  30.382  28.452  1.00  0.00     0.010 A 
ATOM     85  C   UNL A   1      47.254  28.062  27.284  1.00  0.00     0.020 A 
ATOM     86  C   UNL A   1      47.512  30.388  27.928  1.00  0.00     0.020 A 
ATOM     87  C   UNL A   1      48.029  29.225  27.356  1.00  0.00     0.054 A 
BRANCH  87  88
ATOM     88  S   UNL A   1      49.707  29.230  26.666  1.00  0.00     0.124 S 
ATOM     89  O   UNL A   1      49.550  28.447  25.443  1.00  0.00    -0.237 OA
ATOM     90  O   UNL A   1      49.974  30.653  26.470  1.00  0.00    -0.237 OA
ATOM     91  O   UNL A   1      50.514  28.596  27.708  1.00  0.00    -0.744 OA
ENDBRANCH  87  88
ENDBRANCH  61  82
ENDBRANCH  35  36
ENDBRANCH  27  30
ENDBRANCH  25  26
ENDBRANCH  24  25
ENDBRANCH  23  24
ENDBRANCH   1  23
TORSDOF 19
ENDMDL
MODEL 2
REMARK VINA RESULT:     -11.1      2.926      8.395
REMARK SMILES O=C(CSCc1nnnn1-c1ccc([N+](=O)[O-])cc1)NCCCCNC(=O)c1ccc(-c2c3nc(c(-c4ccc(S(=O)(=O)[O-])cc4)c4ccc([nH]4)c(-c4ccc(S(=O)(=O)[O-])cc4)c4nc(c(-c5ccc(S(=O)(=O)[O-])cc5)c5ccc2[nH]5)C=C4)C=C3)cc1
REMARK SMILES IDX 21 1 20 2 1 3 2 4 3 6 4 7 5 8 6 9 7 10 10 11 8 12 9 13 11 14
REMARK SMILES IDX 12 15 19 16 13 17 18 18 14 19 15 20 16 21 17 22 22 23 23 24
REMARK SMILES IDX 24 25 25 26 26 27 27 29 28 30 29 31 87 32 30 33 86 34 31 35
REMARK SMILES IDX 32 36 33 37 80 38 34 39 85 40 79 41 81 42 35 43 84 44 78 45
REMARK SMILES IDX 77 46 36 48 66 49 47 50 65 51 48 52 51 53 64 54 82 55 49 56
REMARK SMILES IDX 50 57 63 59 83 60 52 61 37 62 38 63 46 64 39 65 45 66 40 67
REMARK SMILES IDX 41 68 42 69 43 70 44 71 67 72 68 73 76 74 69 75 75 76 70 77
REMARK SMILES IDX 71 78 72 79 73 80 74 81 53 82 54 83 62 84 55 85 61 86 56 87
REMARK SMILES IDX 57 88 58 89 59 90 60 91
REMARK H PARENT 20 5 25 28 81 47 51 58
REMARK Flexibility Score: inf
ROOT
ATOM      1  C   UNL A   1      34.501  22.982  23.291  1.00  0.00     0.116 C 
ENDROOT
BRANCH   1   2
ATOM      2  N   UNL A   1      33.168  23.190  23.831  1.00  0.00    -0.355 N 
ATOM      3  O   UNL A   1      33.153  21.341  25.161  1.00  0.00    -0.274 OA
ATOM      4  C   UNL A   1      32.638  22.407  24.828  1.00  0.00     0.230 C 
ATOM      5  H   UNL A   1      32.622  23.924  23.468  1.00  0.00     0.163 HD
BRANCH   4   6
ATOM      6  C   UNL A   1      31.341  22.876  25.476  1.00  0.00     0.169 C 
BRANCH   6   7
ATOM      7  S   UNL A   1      31.466  24.371  26.508  1.00  0.00    -0.144 SA
BRANCH   7   8
ATOM      8  C   UNL A   1      30.542  25.629  25.550  1.00  0.00     0.149 C 
BRANCH   8   9
ATOM      9  C   UNL A   1      31.208  26.108  24.311  1.00  0.00     0.166 A 
ATOM     10  N   UNL A   1      31.064  25.591  23.104  1.00  0.00    -0.113 NA
ATOM     11  N   UNL A   1      32.041  27.207  24.191  1.00  0.00    -0.196 N 
ATOM     12  N   UNL A   1      31.726  26.419  22.238  1.00  0.00    -0.023 NA
ATOM     13  N   UNL A   1      32.256  27.446  22.880  1.00  0.00    -0.040 NA
BRANCH  11  14
ATOM     14  C   UNL A   1      32.526  28.087  25.178  1.00  0.00     0.069 A 
ATOM     15  C   UNL A   1      33.665  27.710  25.906  1.00  0.00     0.035 A 
ATOM     16  C   UNL A   1      31.935  29.340  25.374  1.00  0.00     0.035 A 
ATOM     17  C   UNL A   1      34.298  28.644  26.726  1.00  0.00     0.088 A 
ATOM     18  C   UNL A   1      32.544  30.262  26.227  1.00  0.00     0.088 A 
ATOM     19  C   UNL A   1      33.753  29.930  26.855  1.00  0.00     0.269 A 
BRANCH  19  20
ATOM     20  N   UNL A   1      34.500  30.967  27.580  1.00  0.00     0.062 N 
ATOM     21  O   UNL A   1      35.729  30.835  27.678  1.00  0.00    -0.258 OA
ATOM     22  O   UNL A   1      33.854  31.907  28.068  1.00  0.00    -0.258 OA
ENDBRANCH  19  20
ENDBRANCH  11  14
ENDBRANCH   8   9
ENDBRANCH   7   8
ENDBRANCH   6   7
ENDBRANCH   4   6
ENDBRANCH   1   2
BRANCH   1  23
ATOM     23  C   UNL A   1      35.668  23.559  24.103  1.00  0.00     0.023 C 
BRANCH  23  24
ATOM     24  C   UNL A   1      36.920  22.686  24.235  1.00  0.00     0.023 C 
BRANCH  24  25
ATOM     25  C   UNL A   1      37.515  22.616  25.634  1.00  0.00     0.116 C 
BRANCH  25  26
ATOM     26  N   UNL A   1      38.562  21.600  25.783  1.00  0.00    -0.352 N 
ATOM     27  C   UNL A   1      39.868  21.799  26.205  1.00  0.00     0.251 C 
ATOM     28  H   UNL A   1      38.310  20.675  25.560  1.00  0.00     0.163 HD
ATOM     29  O   UNL A   1      40.759  21.005  25.907  1.00  0.00    -0.269 OA
BRANCH  27  30
ATOM     30  C   UNL A   1      40.161  22.977  27.040  1.00  0.00     0.039 A 
ATOM     31  C   UNL A   1      41.306  23.084  27.834  1.00  0.00     0.014 A 
ATOM     32  C   UNL A   1      39.253  24.027  26.959  1.00  0.00     0.014 A 
ATOM     33  C   UNL A   1      41.569  24.299  28.473  1.00  0.00     0.010 A 
ATOM     34  C   UNL A   1      39.608  25.264  27.420  1.00  0.00     0.010 A 
ATOM     35  C   UNL A   1      40.721  25.393  28.241  1.00  0.00    -0.014 A 
BRANCH  35  36
ATOM     36  C   UNL A   1      41.004  26.733  28.748  1.00  0.00     0.031 A 
ATOM     37  C   UNL A   1      42.169  27.398  28.108  1.00  0.00     0.074 A 
ATOM     38  C   UNL A   1      40.120  27.409  29.517  1.00  0.00     0.049 A 
ATOM     39  N   UNL A   1      43.328  27.625  28.632  1.00  0.00    -0.248 NA
ATOM     40  C   UNL A   1      42.102  27.705  26.669  1.00  0.00     0.031 C 
ATOM     41  C   UNL A   1      38.784  26.971  29.957  1.00  0.00     0.029 A 
ATOM     42  N   UNL A   1      40.169  28.689  29.975  1.00  0.00    -0.354 N 
ATOM     43  C   UNL A   1      44.046  28.336  27.674  1.00  0.00     0.074 A 
ATOM     44  C   UNL A   1      43.336  28.159  26.434  1.00  0.00     0.031 C 
ATOM     45  C   UNL A   1      38.073  28.031  30.401  1.00  0.00     0.029 A 
ATOM     46  C   UNL A   1      38.958  29.178  30.465  1.00  0.00     0.049 A 
ATOM     47  H   UNL A   1      40.993  29.228  29.962  1.00  0.00     0.167 HD
ATOM     48  C   UNL A   1      44.995  29.244  28.038  1.00  0.00     0.031 A 
ATOM     49  C   UNL A   1      38.706  30.432  30.915  1.00  0.00     0.031 A 
ATOM     50  C   UNL A   1      45.252  29.175  29.456  1.00  0.00     0.049 A 
ATOM     51  C   UNL A   1      40.012  31.017  31.283  1.00  0.00     0.074 A 
ATOM     52  C   UNL A   1      45.835  28.278  30.321  1.00  0.00     0.029 A 
ATOM     53  N   UNL A   1      44.478  30.025  30.208  1.00  0.00    -0.354 N 
ATOM     54  N   UNL A   1      40.743  30.556  32.258  1.00  0.00    -0.248 NA
ATOM     55  C   UNL A   1      40.709  31.864  30.327  1.00  0.00     0.031 C 
ATOM     56  C   UNL A   1      45.127  28.423  31.552  1.00  0.00     0.029 A 
ATOM     57  C   UNL A   1      44.183  29.444  31.411  1.00  0.00     0.049 A 
ATOM     58  H   UNL A   1      44.179  30.920  29.925  1.00  0.00     0.167 HD
ATOM     59  C   UNL A   1      42.045  30.677  31.803  1.00  0.00     0.074 A 
ATOM     60  C   UNL A   1      41.971  31.630  30.700  1.00  0.00     0.031 C 
ATOM     61  C   UNL A   1      42.996  29.772  32.175  1.00  0.00     0.031 A 
BRANCH  48  62
ATOM     62  C   UNL A   1      45.332  30.506  27.268  1.00  0.00    -0.014 A 
ATOM     63  C   UNL A   1      46.695  30.814  27.057  1.00  0.00     0.010 A 
ATOM     64  C   UNL A   1      44.404  31.532  27.007  1.00  0.00     0.010 A 
ATOM     65  C   UNL A   1      47.109  32.103  26.694  1.00  0.00     0.020 A 
ATOM     66  C   UNL A   1      44.803  32.811  26.607  1.00  0.00     0.020 A 
ATOM     67  C   UNL A   1      46.157  33.099  26.488  1.00  0.00     0.054 A 
BRANCH  67  68
ATOM     68  S   UNL A   1      46.702  34.787  26.135  1.00  0.00     0.124 S 
ATOM     69  O   UNL A   1      46.987  35.298  27.473  1.00  0.00    -0.237 OA
ATOM     70  O   UNL A   1      47.865  34.563  25.279  1.00  0.00    -0.237 OA
ATOM     71  O   UNL A   1      45.549  35.385  25.467  1.00  0.00    -0.744 OA
ENDBRANCH  67  68
ENDBRANCH  48  62
BRANCH  49  72
ATOM     72  C   UNL A   1      37.464  31.239  30.899  1.00  0.00    -0.014 A 
ATOM     73  C   UNL A   1      36.397  30.948  31.772  1.00  0.00     0.010 A 
ATOM     74  C   UNL A   1      37.459  32.488  30.247  1.00  0.00     0.010 A 
ATOM     75  C   UNL A   1      35.399  31.902  32.038  1.00  0.00     0.020 A 
ATOM     76  C   UNL A   1      36.467  33.444  30.511  1.00  0.00     0.020 A 
ATOM     77  C   UNL A   1      35.454  33.155  31.424  1.00  0.00     0.054 A 
BRANCH  77  78
ATOM     78  S   UNL A   1      34.267  34.444  31.921  1.00  0.00     0.124 S 
ATOM     79  O   UNL A   1      33.452  33.747  32.913  1.00  0.00    -0.237 OA
ATOM     80  O   UNL A   1      35.137  35.494  32.442  1.00  0.00    -0.237 OA
ATOM     81  O   UNL A   1      33.579  34.774  30.675  1.00  0.00    -0.744 OA
ENDBRANCH  77  78
ENDBRANCH  49  72
BRANCH  61  82
ATOM     82  C   UNL A   1      42.712  28.923  33.390  1.00  0.00    -0.014 A 
ATOM     83  C   UNL A   1      41.924  27.755  33.381  1.00  0.00     0.010 A 
ATOM     84  C   UNL A   1      43.366  29.284  34.580  1.00  0.00     0.010 A 
ATOM     85  C   UNL A   1      41.779  26.984  34.543  1.00  0.00     0.020 A 
ATOM     86  C   UNL A   1      43.240  28.512  35.735  1.00  0.00     0.020 A 
ATOM     87  C   UNL A   1      42.437  27.371  35.715  1.00  0.00     0.054 A 
BRANCH  87  88
ATOM     88  S   UNL A   1      42.275  26.359  37.213  1.00  0.00     0.124 S 
ATOM     89  O   UNL A   1      43.313  26.909  38.080  1.00  0.00    -0.237 OA
ATOM     90  O   UNL A   1      40.901  26.621  37.635  1.00  0.00    -0.237 OA
ATOM     91  O   UNL A   1      42.519  24.997  36.742  1.00  0.00    -0.744 OA
ENDBRANCH  87  88
ENDBRANCH  61  82
ENDBRANCH  35  36
ENDBRANCH  27  30
ENDBRANCH  25  26
ENDBRANCH  24  25
ENDBRANCH  23  24
ENDBRANCH   1  23
TORSDOF 19
ENDMDL
MODEL 3
REMARK VINA RESULT:     -11.1      3.147      8.418
REMARK SMILES O=C(CSCc1nnnn1-c1ccc([N+](=O)[O-])cc1)NCCCCNC(=O)c1ccc(-c2c3nc(c(-c4ccc(S(=O)(=O)[O-])cc4)c4ccc([nH]4)c(-c4ccc(S(=O)(=O)[O-])cc4)c4nc(c(-c5ccc(S(=O)(=O)[O-])cc5)c5ccc2[nH]5)C=C4)C=C3)cc1
REMARK SMILES IDX 21 1 20 2 1 3 2 4 3 6 4 7 5 8 6 9 7 10 10 11 8 12 9 13 11 14
REMARK SMILES IDX 12 15 19 16 13 17 18 18 14 19 15 20 16 21 17 22 22 23 23 24
REMARK SMILES IDX 24 25 25 26 26 27 27 29 28 30 29 31 87 32 30 33 86 34 31 35
REMARK SMILES IDX 32 36 33 37 80 38 34 39 85 40 79 41 81 42 35 43 84 44 78 45
REMARK SMILES IDX 77 46 36 48 66 49 47 50 65 51 48 52 51 53 64 54 82 55 49 56
REMARK SMILES IDX 50 57 63 59 83 60 52 61 37 62 38 63 46 64 39 65 45 66 40 67
REMARK SMILES IDX 41 68 42 69 43 70 44 71 67 72 68 73 76 74 69 75 75 76 70 77
REMARK SMILES IDX 71 78 72 79 73 80 74 81 53 82 54 83 62 84 55 85 61 86 56 87
REMARK SMILES IDX 57 88 58 89 59 90 60 91
REMARK H PARENT 20 5 25 28 81 47 51 58
REMARK Flexibility Score: inf
ROOT
ATOM      1  C   UNL A   1      38.404  21.346  25.544  1.00  0.00     0.116 C 
ENDROOT
BRANCH   1   2
ATOM      2  N   UNL A   1      37.272  22.093  26.065  1.00  0.00    -0.355 N 
ATOM      3  O   UNL A   1      36.738  23.124  24.106  1.00  0.00    -0.274 OA
ATOM      4  C   UNL A   1      36.443  22.843  25.266  1.00  0.00     0.230 C 
ATOM      5  H   UNL A   1      37.091  22.060  27.032  1.00  0.00     0.163 HD
BRANCH   4   6
ATOM      6  C   UNL A   1      35.157  23.373  25.888  1.00  0.00     0.169 C 
BRANCH   6   7
ATOM      7  S   UNL A   1      34.592  24.994  25.280  1.00  0.00    -0.144 SA
BRANCH   7   8
ATOM      8  C   UNL A   1      33.038  24.600  24.396  1.00  0.00     0.149 C 
BRANCH   8   9
ATOM      9  C   UNL A   1      33.037  24.893  22.939  1.00  0.00     0.166 A 
ATOM     10  N   UNL A   1      33.628  24.170  22.004  1.00  0.00    -0.113 NA
ATOM     11  N   UNL A   1      32.373  25.926  22.303  1.00  0.00    -0.196 N 
ATOM     12  N   UNL A   1      33.254  24.703  20.800  1.00  0.00    -0.023 NA
ATOM     13  N   UNL A   1      32.429  25.722  20.970  1.00  0.00    -0.040 NA
BRANCH  11  14
ATOM     14  C   UNL A   1      31.614  26.983  22.843  1.00  0.00     0.069 A 
ATOM     15  C   UNL A   1      32.285  28.150  23.241  1.00  0.00     0.035 A 
ATOM     16  C   UNL A   1      30.219  26.903  22.909  1.00  0.00     0.035 A 
ATOM     17  C   UNL A   1      31.548  29.289  23.568  1.00  0.00     0.088 A 
ATOM     18  C   UNL A   1      29.481  28.030  23.277  1.00  0.00     0.088 A 
ATOM     19  C   UNL A   1      30.147  29.234  23.550  1.00  0.00     0.269 A 
BRANCH  19  20
ATOM     20  N   UNL A   1      29.368  30.465  23.729  1.00  0.00     0.062 N 
ATOM     21  O   UNL A   1      29.846  31.355  24.449  1.00  0.00    -0.258 OA
ATOM     22  O   UNL A   1      28.267  30.538  23.163  1.00  0.00    -0.258 OA
ENDBRANCH  19  20
ENDBRANCH  11  14
ENDBRANCH   8   9
ENDBRANCH   7   8
ENDBRANCH   6   7
ENDBRANCH   4   6
ENDBRANCH   1   2
BRANCH   1  23
ATOM     23  C   UNL A   1      39.673  21.334  26.409  1.00  0.00     0.023 C 
BRANCH  23  24
ATOM     24  C   UNL A   1      40.486  20.035  26.429  1.00  0.00     0.023 C 
BRANCH  24  25
ATOM     25  C   UNL A   1      41.821  20.120  27.153  1.00  0.00     0.116 C 
BRANCH  25  26
ATOM     26  N   UNL A   1      42.959  20.390  26.267  1.00  0.00    -0.352 N 
ATOM     27  C   UNL A   1      43.441  21.631  25.879  1.00  0.00     0.251 C 
ATOM     28  H   UNL A   1      43.432  19.605  25.908  1.00  0.00     0.163 HD
ATOM     29  O   UNL A   1      44.097  21.763  24.846  1.00  0.00    -0.269 OA
BRANCH  27  30
ATOM     30  C   UNL A   1      43.170  22.790  26.747  1.00  0.00     0.039 A 
ATOM     31  C   UNL A   1      43.808  22.992  27.974  1.00  0.00     0.014 A 
ATOM     32  C   UNL A   1      42.266  23.726  26.256  1.00  0.00     0.014 A 
ATOM     33  C   UNL A   1      43.593  24.194  28.653  1.00  0.00     0.010 A 
ATOM     34  C   UNL A   1      42.210  24.970  26.818  1.00  0.00     0.010 A 
ATOM     35  C   UNL A   1      42.806  25.189  28.054  1.00  0.00    -0.014 A 
BRANCH  35  36
ATOM     36  C   UNL A   1      42.652  26.525  28.623  1.00  0.00     0.031 A 
ATOM     37  C   UNL A   1      43.772  27.453  28.323  1.00  0.00     0.074 A 
ATOM     38  C   UNL A   1      41.474  26.955  29.131  1.00  0.00     0.049 A 
ATOM     39  N   UNL A   1      44.677  27.882  29.138  1.00  0.00    -0.248 NA
ATOM     40  C   UNL A   1      44.018  27.828  26.919  1.00  0.00     0.031 C 
ATOM     41  C   UNL A   1      40.196  26.225  29.195  1.00  0.00     0.029 A 
ATOM     42  N   UNL A   1      41.125  28.187  29.591  1.00  0.00    -0.354 N 
ATOM     43  C   UNL A   1      45.450  28.783  28.411  1.00  0.00     0.074 A 
ATOM     44  C   UNL A   1      45.143  28.541  27.026  1.00  0.00     0.031 C 
ATOM     45  C   UNL A   1      39.183  27.086  29.437  1.00  0.00     0.029 A 
ATOM     46  C   UNL A   1      39.753  28.385  29.742  1.00  0.00     0.049 A 
ATOM     47  H   UNL A   1      41.788  28.884  29.802  1.00  0.00     0.167 HD
ATOM     48  C   UNL A   1      46.053  29.844  29.020  1.00  0.00     0.031 A 
ATOM     49  C   UNL A   1      39.129  29.530  30.113  1.00  0.00     0.031 A 
ATOM     50  C   UNL A   1      45.940  29.741  30.454  1.00  0.00     0.049 A 
ATOM     51  C   UNL A   1      40.136  30.347  30.820  1.00  0.00     0.074 A 
ATOM     52  C   UNL A   1      46.456  28.932  31.440  1.00  0.00     0.029 A 
ATOM     53  N   UNL A   1      44.832  30.365  30.976  1.00  0.00    -0.354 N 
ATOM     54  N   UNL A   1      40.669  29.988  31.953  1.00  0.00    -0.248 NA
ATOM     55  C   UNL A   1      40.859  31.377  30.089  1.00  0.00     0.031 C 
ATOM     56  C   UNL A   1      45.438  28.852  32.437  1.00  0.00     0.029 A 
ATOM     57  C   UNL A   1      44.367  29.663  32.053  1.00  0.00     0.049 A 
ATOM     58  H   UNL A   1      44.433  31.195  30.627  1.00  0.00     0.167 HD
ATOM     59  C   UNL A   1      41.987  30.402  31.864  1.00  0.00     0.074 A 
ATOM     60  C   UNL A   1      42.000  31.386  30.785  1.00  0.00     0.031 C 
ATOM     61  C   UNL A   1      42.980  29.691  32.473  1.00  0.00     0.031 A 
BRANCH  48  62
ATOM     62  C   UNL A   1      46.299  31.193  28.373  1.00  0.00    -0.014 A 
ATOM     63  C   UNL A   1      45.273  32.162  28.443  1.00  0.00     0.010 A 
ATOM     64  C   UNL A   1      47.346  31.443  27.466  1.00  0.00     0.010 A 
ATOM     65  C   UNL A   1      45.252  33.272  27.587  1.00  0.00     0.020 A 
ATOM     66  C   UNL A   1      47.355  32.567  26.634  1.00  0.00     0.020 A 
ATOM     67  C   UNL A   1      46.288  33.456  26.674  1.00  0.00     0.054 A 
BRANCH  67  68
ATOM     68  S   UNL A   1      46.196  34.824  25.494  1.00  0.00     0.124 S 
ATOM     69  O   UNL A   1      47.596  34.985  25.110  1.00  0.00    -0.237 OA
ATOM     70  O   UNL A   1      45.312  34.285  24.464  1.00  0.00    -0.237 OA
ATOM     71  O   UNL A   1      45.632  35.917  26.282  1.00  0.00    -0.744 OA
ENDBRANCH  67  68
ENDBRANCH  48  62
BRANCH  49  72
ATOM     72  C   UNL A   1      37.790  30.062  29.768  1.00  0.00    -0.014 A 
ATOM     73  C   UNL A   1      37.026  30.776  30.712  1.00  0.00     0.010 A 
ATOM     74  C   UNL A   1      37.405  30.142  28.415  1.00  0.00     0.010 A 
ATOM     75  C   UNL A   1      35.959  31.597  30.309  1.00  0.00     0.020 A 
ATOM     76  C   UNL A   1      36.344  30.963  28.006  1.00  0.00     0.020 A 
ATOM     77  C   UNL A   1      35.640  31.705  28.953  1.00  0.00     0.054 A 
BRANCH  77  78
ATOM     78  S   UNL A   1      34.386  32.916  28.427  1.00  0.00     0.124 S 
ATOM     79  O   UNL A   1      33.935  33.469  29.702  1.00  0.00    -0.237 OA
ATOM     80  O   UNL A   1      35.154  33.824  27.581  1.00  0.00    -0.237 OA
ATOM     81  O   UNL A   1      33.399  32.101  27.721  1.00  0.00    -0.744 OA
ENDBRANCH  77  78
ENDBRANCH  49  72
BRANCH  61  82
ATOM     82  C   UNL A   1      42.578  28.729  33.564  1.00  0.00    -0.014 A 
ATOM     83  C   UNL A   1      42.233  27.380  33.350  1.00  0.00     0.010 A 
ATOM     84  C   UNL A   1      42.655  29.203  34.884  1.00  0.00     0.010 A 
ATOM     85  C   UNL A   1      41.950  26.536  34.434  1.00  0.00     0.020 A 
ATOM     86  C   UNL A   1      42.391  28.364  35.967  1.00  0.00     0.020 A 
ATOM     87  C   UNL A   1      42.029  27.037  35.737  1.00  0.00     0.054 A 
BRANCH  87  88
ATOM     88  S   UNL A   1      41.691  25.940  37.143  1.00  0.00     0.124 S 
ATOM     89  O   UNL A   1      42.753  26.292  38.082  1.00  0.00    -0.237 OA
ATOM     90  O   UNL A   1      40.342  26.334  37.546  1.00  0.00    -0.237 OA
ATOM     91  O   UNL A   1      41.790  24.599  36.571  1.00  0.00    -0.744 OA
ENDBRANCH  87  88
ENDBRANCH  61  82
ENDBRANCH  35  36
ENDBRANCH  27  30
ENDBRANCH  25  26
ENDBRANCH  24  25
ENDBRANCH  23  24
ENDBRANCH   1  23
TORSDOF 19
ENDMDL
