MODEL 1
REMARK VINA RESULT:     -11.8      0.000      0.000
REMARK SMILES Cc1ccc(NC(=O)CN2C(=O)S/C(=C\c3cc(Cl)c(OCC(=O)NCCCCNC(=O)c4ccc(-c5c6nc(c(-c7ccc(S(=O)(=O)[O-])cc7)c7ccc([nH]7)c(-c7ccc(S(=O)(=O)[O-])cc7)c7nc(c(-c8ccc(S(=O)(=O)[O-])cc8)c8ccc5[nH]8)C=C7)C=C6)cc4)c(Cl)c3)C2=O)cc1
REMARK SMILES IDX 26 1 25 2 23 3 24 4 22 6 21 7 20 8 16 9 17 10 95 11 18 12
REMARK SMILES IDX 93 13 19 14 94 15 15 16 10 17 11 18 96 19 12 20 13 21 14 22
REMARK SMILES IDX 97 23 9 24 7 25 6 26 8 28 5 29 1 30 2 31 3 32 99 33 4 34
REMARK SMILES IDX 98 35 27 36 28 37 29 38 30 39 31 40 32 42 33 43 34 44 92 45
REMARK SMILES IDX 35 46 91 47 36 48 37 49 38 50 85 51 39 52 90 53 84 54 86 55
REMARK SMILES IDX 40 56 89 57 83 58 82 59 41 61 71 62 52 63 70 64 53 65 56 66
REMARK SMILES IDX 69 67 87 68 54 69 55 70 68 72 88 73 57 74 42 75 43 76 51 77
REMARK SMILES IDX 44 78 50 79 45 80 46 81 47 82 48 83 49 84 72 85 73 86 81 87
REMARK SMILES IDX 74 88 80 89 75 90 76 91 77 92 78 93 79 94 58 95 59 96 67 97
REMARK SMILES IDX 60 98 66 99 61 100 62 101 63 102 64 103 65 104
REMARK H PARENT 25 5 6 27 30 41 86 60 56 71
REMARK Flexibility Score: inf
ROOT
ATOM      1  C   UNL A   1      33.829  24.517  25.503  1.00  0.00     0.116 C 
ENDROOT
BRANCH   1   2
ATOM      2  N   UNL A   1      32.714  23.786  24.928  1.00  0.00    -0.353 N 
ATOM      3  C   UNL A   1      32.233  23.802  23.654  1.00  0.00     0.257 C 
ATOM      4  O   UNL A   1      31.359  22.986  23.359  1.00  0.00    -0.271 OA
ATOM      5  H   UNL A   1      32.236  23.191  25.551  1.00  0.00     0.163 HD
BRANCH   3   6
ATOM      6  C   UNL A   1      32.818  24.781  22.620  1.00  0.00     0.329 C 
BRANCH   6   7
ATOM      7  O   UNL A   1      32.048  25.898  22.214  1.00  0.00    -0.481 OA
BRANCH   7   8
ATOM      8  C   UNL A   1      31.767  26.953  23.040  1.00  0.00     0.157 A 
ATOM      9  C   UNL A   1      31.515  29.312  24.649  1.00  0.00    -0.021 A 
ATOM     10  C   UNL A   1      32.582  29.181  23.771  1.00  0.00     0.032 A 
ATOM     11  C   UNL A   1      30.609  28.248  24.732  1.00  0.00     0.032 A 
ATOM     12  C   UNL A   1      32.704  28.016  22.985  1.00  0.00     0.085 A 
ATOM     13  C   UNL A   1      30.679  27.124  23.897  1.00  0.00     0.085 A 
ATOM     14  Cl  UNL A   1      34.058  27.956  21.896  1.00  0.00    -0.080 Cl
ATOM     15  Cl  UNL A   1      29.257  26.147  23.953  1.00  0.00    -0.080 Cl
BRANCH   9  16
ATOM     16  C   UNL A   1      31.326  30.488  25.527  1.00  0.00     0.029 C 
ATOM     17  N   UNL A   1      33.530  32.253  27.704  1.00  0.00    -0.259 N 
ATOM     18  C   UNL A   1      34.310  31.126  27.633  1.00  0.00     0.294 C 
ATOM     19  C   UNL A   1      32.272  32.146  27.141  1.00  0.00     0.268 C 
ATOM     20  O   UNL A   1      35.519  31.048  27.718  1.00  0.00    -0.261 OA
ATOM     21  S   UNL A   1      33.300  29.742  27.300  1.00  0.00    -0.022 SA
ATOM     22  C   UNL A   1      32.098  30.761  26.596  1.00  0.00     0.083 C 
ATOM     23  O   UNL A   1      31.474  33.057  26.971  1.00  0.00    -0.268 OA
BRANCH  17  24
ATOM     24  C   UNL A   1      34.160  33.546  27.920  1.00  0.00     0.230 C 
BRANCH  24  25
ATOM     25  C   UNL A   1      33.763  34.194  29.252  1.00  0.00     0.244 C 
ATOM     26  N   UNL A   1      34.544  34.067  30.364  1.00  0.00    -0.325 N 
ATOM     27  H   UNL A   1      34.515  34.839  30.974  1.00  0.00     0.169 HD
ATOM     28  O   UNL A   1      32.730  34.865  29.337  1.00  0.00    -0.273 OA
BRANCH  26  29
ATOM     29  C   UNL A   1      35.383  33.027  30.787  1.00  0.00     0.041 A 
ATOM     30  C   UNL A   1      37.675  29.588  32.028  1.00  0.00     0.044 C 
ATOM     31  C   UNL A   1      36.866  30.778  31.609  1.00  0.00    -0.051 A 
ATOM     32  C   UNL A   1      37.274  31.540  30.511  1.00  0.00     0.005 A 
ATOM     33  C   UNL A   1      35.702  31.144  32.290  1.00  0.00     0.005 A 
ATOM     34  C   UNL A   1      36.537  32.654  30.102  1.00  0.00     0.026 A 
ATOM     35  C   UNL A   1      34.959  32.254  31.872  1.00  0.00     0.026 A 
ENDBRANCH  26  29
ENDBRANCH  24  25
ENDBRANCH  17  24
ENDBRANCH   9  16
ENDBRANCH   7   8
ENDBRANCH   6   7
ENDBRANCH   3   6
ENDBRANCH   1   2
BRANCH   1  36
ATOM     36  C   UNL A   1      35.193  24.070  24.969  1.00  0.00     0.023 C 
BRANCH  36  37
ATOM     37  C   UNL A   1      36.192  23.583  26.014  1.00  0.00     0.023 C 
BRANCH  37  38
ATOM     38  C   UNL A   1      37.481  22.997  25.461  1.00  0.00     0.116 C 
BRANCH  38  39
ATOM     39  N   UNL A   1      38.326  22.314  26.430  1.00  0.00    -0.352 N 
ATOM     40  C   UNL A   1      39.600  22.715  26.823  1.00  0.00     0.251 C 
ATOM     41  H   UNL A   1      37.965  21.496  26.844  1.00  0.00     0.163 HD
ATOM     42  O   UNL A   1      40.480  21.925  27.143  1.00  0.00    -0.269 OA
BRANCH  40  43
ATOM     43  C   UNL A   1      39.795  24.169  27.024  1.00  0.00     0.039 A 
ATOM     44  C   UNL A   1      40.423  24.893  26.002  1.00  0.00     0.014 A 
ATOM     45  C   UNL A   1      39.682  24.691  28.304  1.00  0.00     0.014 A 
ATOM     46  C   UNL A   1      41.150  26.034  26.324  1.00  0.00     0.010 A 
ATOM     47  C   UNL A   1      40.531  25.705  28.654  1.00  0.00     0.010 A 
ATOM     48  C   UNL A   1      41.283  26.352  27.667  1.00  0.00    -0.014 A 
BRANCH  48  49
ATOM     49  C   UNL A   1      42.106  27.408  28.207  1.00  0.00     0.031 A 
ATOM     50  C   UNL A   1      41.426  28.676  28.542  1.00  0.00     0.074 A 
ATOM     51  C   UNL A   1      43.354  27.106  28.623  1.00  0.00     0.049 A 
ATOM     52  N   UNL A   1      42.033  29.768  28.832  1.00  0.00    -0.248 NA
ATOM     53  C   UNL A   1      39.967  28.822  28.544  1.00  0.00     0.031 C 
ATOM     54  C   UNL A   1      44.175  27.815  29.598  1.00  0.00     0.029 A 
ATOM     55  N   UNL A   1      44.216  26.130  28.163  1.00  0.00    -0.354 N 
ATOM     56  C   UNL A   1      41.099  30.614  29.391  1.00  0.00     0.074 A 
ATOM     57  C   UNL A   1      39.818  30.038  29.077  1.00  0.00     0.031 C 
ATOM     58  C   UNL A   1      45.460  27.437  29.447  1.00  0.00     0.029 A 
ATOM     59  C   UNL A   1      45.522  26.607  28.254  1.00  0.00     0.049 A 
ATOM     60  H   UNL A   1      43.951  25.243  27.826  1.00  0.00     0.167 HD
ATOM     61  C   UNL A   1      41.541  31.609  30.205  1.00  0.00     0.031 A 
ATOM     62  C   UNL A   1      46.243  26.939  27.135  1.00  0.00     0.031 A 
ATOM     63  C   UNL A   1      43.001  31.631  30.225  1.00  0.00     0.049 A 
ATOM     64  C   UNL A   1      46.546  28.426  27.057  1.00  0.00     0.074 A 
ATOM     65  C   UNL A   1      43.930  31.134  31.124  1.00  0.00     0.029 A 
ATOM     66  N   UNL A   1      43.682  31.895  29.046  1.00  0.00    -0.354 N 
ATOM     67  N   UNL A   1      45.838  29.348  27.653  1.00  0.00    -0.248 NA
ATOM     68  C   UNL A   1      47.690  28.988  26.345  1.00  0.00     0.031 C 
ATOM     69  C   UNL A   1      45.174  31.039  30.446  1.00  0.00     0.029 A 
ATOM     70  C   UNL A   1      45.000  31.503  29.153  1.00  0.00     0.049 A 
ATOM     71  H   UNL A   1      43.281  32.306  28.247  1.00  0.00     0.167 HD
ATOM     72  C   UNL A   1      46.417  30.577  27.468  1.00  0.00     0.074 A 
ATOM     73  C   UNL A   1      47.569  30.299  26.628  1.00  0.00     0.031 C 
ATOM     74  C   UNL A   1      45.914  31.714  28.039  1.00  0.00     0.031 A 
BRANCH  61  75
ATOM     75  C   UNL A   1      40.703  32.382  31.192  1.00  0.00    -0.014 A 
ATOM     76  C   UNL A   1      40.469  31.805  32.459  1.00  0.00     0.010 A 
ATOM     77  C   UNL A   1      40.084  33.623  30.953  1.00  0.00     0.010 A 
ATOM     78  C   UNL A   1      39.629  32.396  33.408  1.00  0.00     0.020 A 
ATOM     79  C   UNL A   1      39.232  34.226  31.894  1.00  0.00     0.020 A 
ATOM     80  C   UNL A   1      39.005  33.602  33.115  1.00  0.00     0.054 A 
BRANCH  80  81
ATOM     81  S   UNL A   1      37.918  34.340  34.360  1.00  0.00     0.124 S 
ATOM     82  O   UNL A   1      38.813  35.271  35.044  1.00  0.00    -0.237 OA
ATOM     83  O   UNL A   1      36.876  34.954  33.542  1.00  0.00    -0.237 OA
ATOM     84  O   UNL A   1      37.485  33.199  35.163  1.00  0.00    -0.744 OA
ENDBRANCH  80  81
ENDBRANCH  61  75
BRANCH  62  85
ATOM     85  C   UNL A   1      45.955  26.045  25.968  1.00  0.00    -0.014 A 
ATOM     86  C   UNL A   1      46.800  24.924  25.809  1.00  0.00     0.010 A 
ATOM     87  C   UNL A   1      44.664  26.002  25.408  1.00  0.00     0.010 A 
ATOM     88  C   UNL A   1      46.294  23.716  25.321  1.00  0.00     0.020 A 
ATOM     89  C   UNL A   1      44.162  24.794  24.897  1.00  0.00     0.020 A 
ATOM     90  C   UNL A   1      44.953  23.642  24.942  1.00  0.00     0.054 A 
BRANCH  90  91
ATOM     91  S   UNL A   1      44.223  21.987  24.728  1.00  0.00     0.124 S 
ATOM     92  O   UNL A   1      44.920  21.205  25.744  1.00  0.00    -0.237 OA
ATOM     93  O   UNL A   1      42.805  22.243  24.994  1.00  0.00    -0.237 OA
ATOM     94  O   UNL A   1      44.549  21.651  23.347  1.00  0.00    -0.744 OA
ENDBRANCH  90  91
ENDBRANCH  62  85
BRANCH  74  95
ATOM     95  C   UNL A   1      46.260  33.148  27.690  1.00  0.00    -0.014 A 
ATOM     96  C   UNL A   1      45.807  33.823  26.550  1.00  0.00     0.010 A 
ATOM     97  C   UNL A   1      46.998  33.922  28.628  1.00  0.00     0.010 A 
ATOM     98  C   UNL A   1      46.122  35.172  26.328  1.00  0.00     0.020 A 
ATOM     99  C   UNL A   1      47.265  35.279  28.449  1.00  0.00     0.020 A 
ATOM    100  C   UNL A   1      46.849  35.891  27.278  1.00  0.00     0.054 A 
BRANCH 100 101
ATOM    101  S   UNL A   1      47.209  37.637  26.983  1.00  0.00     0.124 S 
ATOM    102  O   UNL A   1      45.871  38.185  26.773  1.00  0.00    -0.237 OA
ATOM    103  O   UNL A   1      47.866  38.041  28.223  1.00  0.00    -0.237 OA
ATOM    104  O   UNL A   1      48.071  37.620  25.805  1.00  0.00    -0.744 OA
ENDBRANCH 100 101
ENDBRANCH  74  95
ENDBRANCH  48  49
ENDBRANCH  40  43
ENDBRANCH  38  39
ENDBRANCH  37  38
ENDBRANCH  36  37
ENDBRANCH   1  36
TORSDOF 20
ENDMDL
MODEL 2
REMARK VINA RESULT:     -11.3      1.930      2.594
REMARK SMILES Cc1ccc(NC(=O)CN2C(=O)S/C(=C\c3cc(Cl)c(OCC(=O)NCCCCNC(=O)c4ccc(-c5c6nc(c(-c7ccc(S(=O)(=O)[O-])cc7)c7ccc([nH]7)c(-c7ccc(S(=O)(=O)[O-])cc7)c7nc(c(-c8ccc(S(=O)(=O)[O-])cc8)c8ccc5[nH]8)C=C7)C=C6)cc4)c(Cl)c3)C2=O)cc1
REMARK SMILES IDX 26 1 25 2 23 3 24 4 22 6 21 7 20 8 16 9 17 10 95 11 18 12
REMARK SMILES IDX 93 13 19 14 94 15 15 16 10 17 11 18 96 19 12 20 13 21 14 22
REMARK SMILES IDX 97 23 9 24 7 25 6 26 8 28 5 29 1 30 2 31 3 32 99 33 4 34
REMARK SMILES IDX 98 35 27 36 28 37 29 38 30 39 31 40 32 42 33 43 34 44 92 45
REMARK SMILES IDX 35 46 91 47 36 48 37 49 38 50 85 51 39 52 90 53 84 54 86 55
REMARK SMILES IDX 40 56 89 57 83 58 82 59 41 61 71 62 52 63 70 64 53 65 56 66
REMARK SMILES IDX 69 67 87 68 54 69 55 70 68 72 88 73 57 74 42 75 43 76 51 77
REMARK SMILES IDX 44 78 50 79 45 80 46 81 47 82 48 83 49 84 72 85 73 86 81 87
REMARK SMILES IDX 74 88 80 89 75 90 76 91 77 92 78 93 79 94 58 95 59 96 67 97
REMARK SMILES IDX 60 98 66 99 61 100 62 101 63 102 64 103 65 104
REMARK H PARENT 25 5 6 27 30 41 86 60 56 71
REMARK Flexibility Score: inf
ROOT
ATOM      1  C   UNL A   1      32.230  23.613  24.955  1.00  0.00     0.116 C 
ENDROOT
BRANCH   1   2
ATOM      2  N   UNL A   1      32.602  23.072  23.659  1.00  0.00    -0.353 N 
ATOM      3  C   UNL A   1      33.158  23.701  22.586  1.00  0.00     0.257 C 
ATOM      4  O   UNL A   1      33.519  23.006  21.636  1.00  0.00    -0.271 OA
ATOM      5  H   UNL A   1      32.425  22.111  23.538  1.00  0.00     0.163 HD
BRANCH   3   6
ATOM      6  C   UNL A   1      33.366  25.226  22.608  1.00  0.00     0.329 C 
BRANCH   6   7
ATOM      7  O   UNL A   1      32.237  26.080  22.579  1.00  0.00    -0.481 OA
BRANCH   7   8
ATOM      8  C   UNL A   1      32.054  27.108  23.464  1.00  0.00     0.157 A 
ATOM      9  C   UNL A   1      31.975  29.431  25.142  1.00  0.00    -0.021 A 
ATOM     10  C   UNL A   1      32.880  29.363  24.091  1.00  0.00     0.032 A 
ATOM     11  C   UNL A   1      31.147  28.323  25.356  1.00  0.00     0.032 A 
ATOM     12  C   UNL A   1      32.919  28.216  23.271  1.00  0.00     0.085 A 
ATOM     13  C   UNL A   1      31.123  27.215  24.498  1.00  0.00     0.085 A 
ATOM     14  Cl  UNL A   1      34.065  28.236  21.965  1.00  0.00    -0.080 Cl
ATOM     15  Cl  UNL A   1      29.778  26.169  24.776  1.00  0.00    -0.080 Cl
BRANCH   9  16
ATOM     16  C   UNL A   1      31.888  30.585  26.065  1.00  0.00     0.029 C 
ATOM     17  N   UNL A   1      34.336  32.350  27.962  1.00  0.00    -0.259 N 
ATOM     18  C   UNL A   1      35.119  31.241  27.759  1.00  0.00     0.294 C 
ATOM     19  C   UNL A   1      33.015  32.229  27.572  1.00  0.00     0.268 C 
ATOM     20  O   UNL A   1      36.330  31.187  27.677  1.00  0.00    -0.261 OA
ATOM     21  S   UNL A   1      34.098  29.844  27.535  1.00  0.00    -0.022 SA
ATOM     22  C   UNL A   1      32.793  30.851  27.025  1.00  0.00     0.083 C 
ATOM     23  O   UNL A   1      32.186  33.126  27.533  1.00  0.00    -0.268 OA
BRANCH  17  24
ATOM     24  C   UNL A   1      34.967  33.651  28.119  1.00  0.00     0.230 C 
BRANCH  24  25
ATOM     25  C   UNL A   1      34.832  34.217  29.538  1.00  0.00     0.244 C 
ATOM     26  N   UNL A   1      35.698  33.859  30.531  1.00  0.00    -0.325 N 
ATOM     27  H   UNL A   1      35.865  34.561  31.200  1.00  0.00     0.169 HD
ATOM     28  O   UNL A   1      33.942  35.030  29.805  1.00  0.00    -0.273 OA
BRANCH  26  29
ATOM     29  C   UNL A   1      36.392  32.664  30.761  1.00  0.00     0.041 A 
ATOM     30  C   UNL A   1      38.770  29.183  31.687  1.00  0.00     0.044 C 
ATOM     31  C   UNL A   1      37.960  30.401  31.359  1.00  0.00    -0.051 A 
ATOM     32  C   UNL A   1      36.614  30.458  31.735  1.00  0.00     0.005 A 
ATOM     33  C   UNL A   1      38.520  31.491  30.688  1.00  0.00     0.005 A 
ATOM     34  C   UNL A   1      35.838  31.582  31.441  1.00  0.00     0.026 A 
ATOM     35  C   UNL A   1      37.743  32.620  30.403  1.00  0.00     0.026 A 
ENDBRANCH  26  29
ENDBRANCH  24  25
ENDBRANCH  17  24
ENDBRANCH   9  16
ENDBRANCH   7   8
ENDBRANCH   6   7
ENDBRANCH   3   6
ENDBRANCH   1   2
BRANCH   1  36
ATOM     36  C   UNL A   1      33.425  24.101  25.778  1.00  0.00     0.023 C 
BRANCH  36  37
ATOM     37  C   UNL A   1      34.459  23.042  26.148  1.00  0.00     0.023 C 
BRANCH  37  38
ATOM     38  C   UNL A   1      35.911  23.473  26.012  1.00  0.00     0.116 C 
BRANCH  38  39
ATOM     39  N   UNL A   1      36.899  22.437  26.273  1.00  0.00    -0.352 N 
ATOM     40  C   UNL A   1      38.277  22.568  26.115  1.00  0.00     0.251 C 
ATOM     41  H   UNL A   1      36.564  21.565  26.587  1.00  0.00     0.163 HD
ATOM     42  O   UNL A   1      39.003  21.640  25.782  1.00  0.00    -0.269 OA
BRANCH  40  43
ATOM     43  C   UNL A   1      38.865  23.852  26.559  1.00  0.00     0.039 A 
ATOM     44  C   UNL A   1      39.564  24.614  25.613  1.00  0.00     0.014 A 
ATOM     45  C   UNL A   1      39.014  24.089  27.918  1.00  0.00     0.014 A 
ATOM     46  C   UNL A   1      40.592  25.449  26.037  1.00  0.00     0.010 A 
ATOM     47  C   UNL A   1      40.129  24.768  28.326  1.00  0.00     0.010 A 
ATOM     48  C   UNL A   1      40.929  25.420  27.382  1.00  0.00    -0.014 A 
BRANCH  48  49
ATOM     49  C   UNL A   1      42.048  26.103  27.987  1.00  0.00     0.031 A 
ATOM     50  C   UNL A   1      41.884  27.547  28.247  1.00  0.00     0.074 A 
ATOM     51  C   UNL A   1      43.045  25.364  28.518  1.00  0.00     0.049 A 
ATOM     52  N   UNL A   1      42.839  28.335  28.582  1.00  0.00    -0.248 NA
ATOM     53  C   UNL A   1      40.599  28.241  28.113  1.00  0.00     0.031 C 
ATOM     54  C   UNL A   1      43.993  25.746  29.559  1.00  0.00     0.029 A 
ATOM     55  N   UNL A   1      43.499  24.113  28.148  1.00  0.00    -0.354 N 
ATOM     56  C   UNL A   1      42.260  29.498  29.045  1.00  0.00     0.074 A 
ATOM     57  C   UNL A   1      40.887  29.443  28.620  1.00  0.00     0.031 C 
ATOM     58  C   UNL A   1      45.041  24.899  29.530  1.00  0.00     0.029 A 
ATOM     59  C   UNL A   1      44.876  24.057  28.355  1.00  0.00     0.049 A 
ATOM     60  H   UNL A   1      42.942  23.382  27.795  1.00  0.00     0.167 HD
ATOM     61  C   UNL A   1      42.983  30.282  29.888  1.00  0.00     0.031 A 
ATOM     62  C   UNL A   1      45.758  24.040  27.305  1.00  0.00     0.031 A 
ATOM     63  C   UNL A   1      44.333  29.744  30.043  1.00  0.00     0.049 A 
ATOM     64  C   UNL A   1      46.616  25.293  27.243  1.00  0.00     0.074 A 
ATOM     65  C   UNL A   1      44.921  28.969  31.028  1.00  0.00     0.029 A 
ATOM     66  N   UNL A   1      45.157  29.676  28.930  1.00  0.00    -0.354 N 
ATOM     67  N   UNL A   1      46.271  26.440  27.763  1.00  0.00    -0.248 NA
ATOM     68  C   UNL A   1      47.942  25.343  26.634  1.00  0.00     0.031 C 
ATOM     69  C   UNL A   1      46.083  28.375  30.469  1.00  0.00     0.029 A 
ATOM     70  C   UNL A   1      46.208  28.814  29.162  1.00  0.00     0.049 A 
ATOM     71  H   UNL A   1      45.012  30.174  28.094  1.00  0.00     0.167 HD
ATOM     72  C   UNL A   1      47.292  27.345  27.622  1.00  0.00     0.074 A 
ATOM     73  C   UNL A   1      48.312  26.611  26.894  1.00  0.00     0.031 C 
ATOM     74  C   UNL A   1      47.220  28.611  28.135  1.00  0.00     0.031 A 
BRANCH  61  75
ATOM     75  C   UNL A   1      42.430  31.359  30.787  1.00  0.00    -0.014 A 
ATOM     76  C   UNL A   1      41.987  30.986  32.075  1.00  0.00     0.010 A 
ATOM     77  C   UNL A   1      42.268  32.714  30.445  1.00  0.00     0.010 A 
ATOM     78  C   UNL A   1      41.371  31.889  32.947  1.00  0.00     0.020 A 
ATOM     79  C   UNL A   1      41.645  33.633  31.308  1.00  0.00     0.020 A 
ATOM     80  C   UNL A   1      41.194  33.210  32.553  1.00  0.00     0.054 A 
BRANCH  80  81
ATOM     81  S   UNL A   1      40.389  34.355  33.700  1.00  0.00     0.124 S 
ATOM     82  O   UNL A   1      40.285  33.555  34.919  1.00  0.00    -0.237 OA
ATOM     83  O   UNL A   1      41.336  35.465  33.753  1.00  0.00    -0.237 OA
ATOM     84  O   UNL A   1      39.115  34.657  33.052  1.00  0.00    -0.744 OA
ENDBRANCH  80  81
ENDBRANCH  61  75
BRANCH  62  85
ATOM     85  C   UNL A   1      45.244  23.274  26.124  1.00  0.00    -0.014 A 
ATOM     86  C   UNL A   1      46.212  22.805  25.207  1.00  0.00     0.010 A 
ATOM     87  C   UNL A   1      44.002  22.617  26.190  1.00  0.00     0.010 A 
ATOM     88  C   UNL A   1      46.038  21.581  24.556  1.00  0.00     0.020 A 
ATOM     89  C   UNL A   1      43.818  21.397  25.518  1.00  0.00     0.020 A 
ATOM     90  C   UNL A   1      44.872  20.849  24.780  1.00  0.00     0.054 A 
BRANCH  90  91
ATOM     91  S   UNL A   1      44.860  19.099  24.277  1.00  0.00     0.124 S 
ATOM     92  O   UNL A   1      46.197  18.655  24.656  1.00  0.00    -0.237 OA
ATOM     93  O   UNL A   1      43.764  18.556  25.085  1.00  0.00    -0.237 OA
ATOM     94  O   UNL A   1      44.606  19.162  22.842  1.00  0.00    -0.744 OA
ENDBRANCH  90  91
ENDBRANCH  62  85
BRANCH  74  95
ATOM     95  C   UNL A   1      48.120  29.787  27.807  1.00  0.00    -0.014 A 
ATOM     96  C   UNL A   1      49.519  29.757  27.848  1.00  0.00     0.010 A 
ATOM     97  C   UNL A   1      47.530  30.982  27.309  1.00  0.00     0.010 A 
ATOM     98  C   UNL A   1      50.284  30.872  27.471  1.00  0.00     0.020 A 
ATOM     99  C   UNL A   1      48.281  32.074  26.873  1.00  0.00     0.020 A 
ATOM    100  C   UNL A   1      49.660  32.022  26.987  1.00  0.00     0.054 A 
BRANCH 100 101
ATOM    101  S   UNL A   1      50.672  33.429  26.475  1.00  0.00     0.124 S 
ATOM    102  O   UNL A   1      50.815  33.187  25.042  1.00  0.00    -0.237 OA
ATOM    103  O   UNL A   1      49.836  34.571  26.839  1.00  0.00    -0.237 OA
ATOM    104  O   UNL A   1      51.894  33.283  27.261  1.00  0.00    -0.744 OA
ENDBRANCH 100 101
ENDBRANCH  74  95
ENDBRANCH  48  49
ENDBRANCH  40  43
ENDBRANCH  38  39
ENDBRANCH  37  38
ENDBRANCH  36  37
ENDBRANCH   1  36
TORSDOF 20
ENDMDL
MODEL 3
REMARK VINA RESULT:     -11.2      3.966     11.079
REMARK SMILES Cc1ccc(NC(=O)CN2C(=O)S/C(=C\c3cc(Cl)c(OCC(=O)NCCCCNC(=O)c4ccc(-c5c6nc(c(-c7ccc(S(=O)(=O)[O-])cc7)c7ccc([nH]7)c(-c7ccc(S(=O)(=O)[O-])cc7)c7nc(c(-c8ccc(S(=O)(=O)[O-])cc8)c8ccc5[nH]8)C=C7)C=C6)cc4)c(Cl)c3)C2=O)cc1
REMARK SMILES IDX 26 1 25 2 23 3 24 4 22 6 21 7 20 8 16 9 17 10 95 11 18 12
REMARK SMILES IDX 93 13 19 14 94 15 15 16 10 17 11 18 96 19 12 20 13 21 14 22
REMARK SMILES IDX 97 23 9 24 7 25 6 26 8 28 5 29 1 30 2 31 3 32 99 33 4 34
REMARK SMILES IDX 98 35 27 36 28 37 29 38 30 39 31 40 32 42 33 43 34 44 92 45
REMARK SMILES IDX 35 46 91 47 36 48 37 49 38 50 85 51 39 52 90 53 84 54 86 55
REMARK SMILES IDX 40 56 89 57 83 58 82 59 41 61 71 62 52 63 70 64 53 65 56 66
REMARK SMILES IDX 69 67 87 68 54 69 55 70 68 72 88 73 57 74 42 75 43 76 51 77
REMARK SMILES IDX 44 78 50 79 45 80 46 81 47 82 48 83 49 84 72 85 73 86 81 87
REMARK SMILES IDX 74 88 80 89 75 90 76 91 77 92 78 93 79 94 58 95 59 96 67 97
REMARK SMILES IDX 60 98 66 99 61 100 62 101 63 102 64 103 65 104
REMARK H PARENT 25 5 6 27 30 41 86 60 56 71
REMARK Flexibility Score: inf
ROOT
ATOM      1  C   UNL A   1      33.646  34.971  30.638  1.00  0.00     0.116 C 
ENDROOT
BRANCH   1   2
ATOM      2  N   UNL A   1      34.361  35.090  29.380  1.00  0.00    -0.353 N 
ATOM      3  C   UNL A   1      34.394  34.236  28.319  1.00  0.00     0.257 C 
ATOM      4  O   UNL A   1      34.961  34.615  27.294  1.00  0.00    -0.271 OA
ATOM      5  H   UNL A   1      34.900  35.907  29.279  1.00  0.00     0.163 HD
BRANCH   3   6
ATOM      6  C   UNL A   1      33.692  32.869  28.406  1.00  0.00     0.329 C 
BRANCH   6   7
ATOM      7  O   UNL A   1      34.202  31.780  27.659  1.00  0.00    -0.481 OA
BRANCH   7   8
ATOM      8  C   UNL A   1      33.405  30.823  27.093  1.00  0.00     0.157 A 
ATOM      9  C   UNL A   1      32.018  28.567  25.995  1.00  0.00    -0.021 A 
ATOM     10  C   UNL A   1      33.233  28.388  26.642  1.00  0.00     0.032 A 
ATOM     11  C   UNL A   1      31.532  29.874  25.879  1.00  0.00     0.032 A 
ATOM     12  C   UNL A   1      33.914  29.502  27.176  1.00  0.00     0.085 A 
ATOM     13  C   UNL A   1      32.162  30.975  26.477  1.00  0.00     0.085 A 
ATOM     14  Cl  UNL A   1      35.413  29.174  27.992  1.00  0.00    -0.080 Cl
ATOM     15  Cl  UNL A   1      31.180  32.395  26.490  1.00  0.00    -0.080 Cl
BRANCH   9  16
ATOM     16  C   UNL A   1      31.252  27.457  25.384  1.00  0.00     0.029 C 
ATOM     17  N   UNL A   1      32.248  24.493  23.673  1.00  0.00    -0.259 N 
ATOM     18  C   UNL A   1      33.453  25.131  23.516  1.00  0.00     0.294 C 
ATOM     19  C   UNL A   1      31.221  25.268  24.178  1.00  0.00     0.268 C 
ATOM     20  O   UNL A   1      34.558  24.632  23.437  1.00  0.00    -0.261 OA
ATOM     21  S   UNL A   1      33.199  26.857  23.528  1.00  0.00    -0.022 SA
ATOM     22  C   UNL A   1      31.730  26.658  24.411  1.00  0.00     0.083 C 
ATOM     23  O   UNL A   1      30.118  24.873  24.524  1.00  0.00    -0.268 OA
BRANCH  17  24
ATOM     24  C   UNL A   1      32.214  23.040  23.749  1.00  0.00     0.230 C 
BRANCH  24  25
ATOM     25  C   UNL A   1      32.045  22.517  25.180  1.00  0.00     0.244 C 
ATOM     26  N   UNL A   1      33.101  22.460  26.044  1.00  0.00    -0.325 N 
ATOM     27  H   UNL A   1      32.863  22.594  26.990  1.00  0.00     0.169 HD
ATOM     28  O   UNL A   1      30.937  22.155  25.588  1.00  0.00    -0.273 OA
BRANCH  26  29
ATOM     29  C   UNL A   1      34.467  22.246  25.817  1.00  0.00     0.041 A 
ATOM     30  C   UNL A   1      38.724  21.616  25.493  1.00  0.00     0.044 C 
ATOM     31  C   UNL A   1      37.248  21.850  25.615  1.00  0.00    -0.051 A 
ATOM     32  C   UNL A   1      36.354  20.857  25.205  1.00  0.00     0.005 A 
ATOM     33  C   UNL A   1      36.741  23.043  26.138  1.00  0.00     0.005 A 
ATOM     34  C   UNL A   1      34.974  21.053  25.308  1.00  0.00     0.026 A 
ATOM     35  C   UNL A   1      35.359  23.232  26.250  1.00  0.00     0.026 A 
ENDBRANCH  26  29
ENDBRANCH  24  25
ENDBRANCH  17  24
ENDBRANCH   9  16
ENDBRANCH   7   8
ENDBRANCH   6   7
ENDBRANCH   3   6
ENDBRANCH   1   2
BRANCH   1  36
ATOM     36  C   UNL A   1      34.567  34.852  31.855  1.00  0.00     0.023 C 
BRANCH  36  37
ATOM     37  C   UNL A   1      35.849  34.052  31.648  1.00  0.00     0.023 C 
BRANCH  37  38
ATOM     38  C   UNL A   1      35.683  32.541  31.652  1.00  0.00     0.116 C 
BRANCH  38  39
ATOM     39  N   UNL A   1      35.936  31.879  30.380  1.00  0.00    -0.352 N 
ATOM     40  C   UNL A   1      37.167  31.802  29.734  1.00  0.00     0.251 C 
ATOM     41  H   UNL A   1      35.169  31.448  29.937  1.00  0.00     0.163 HD
ATOM     42  O   UNL A   1      37.282  31.783  28.515  1.00  0.00    -0.269 OA
BRANCH  40  43
ATOM     43  C   UNL A   1      38.343  31.550  30.597  1.00  0.00     0.039 A 
ATOM     44  C   UNL A   1      39.557  32.155  30.244  1.00  0.00     0.014 A 
ATOM     45  C   UNL A   1      38.308  30.486  31.487  1.00  0.00     0.014 A 
ATOM     46  C   UNL A   1      40.752  31.539  30.595  1.00  0.00     0.010 A 
ATOM     47  C   UNL A   1      39.466  29.785  31.685  1.00  0.00     0.010 A 
ATOM     48  C   UNL A   1      40.678  30.299  31.213  1.00  0.00    -0.014 A 
BRANCH  48  49
ATOM     49  C   UNL A   1      41.798  29.444  31.527  1.00  0.00     0.031 A 
ATOM     50  C   UNL A   1      41.975  28.243  30.686  1.00  0.00     0.074 A 
ATOM     51  C   UNL A   1      42.750  29.908  32.363  1.00  0.00     0.049 A 
ATOM     52  N   UNL A   1      42.782  27.283  30.955  1.00  0.00    -0.248 NA
ATOM     53  C   UNL A   1      41.209  28.010  29.457  1.00  0.00     0.031 C 
ATOM     54  C   UNL A   1      44.144  29.487  32.464  1.00  0.00     0.029 A 
ATOM     55  N   UNL A   1      42.637  30.809  33.404  1.00  0.00    -0.354 N 
ATOM     56  C   UNL A   1      42.907  26.527  29.809  1.00  0.00     0.074 A 
ATOM     57  C   UNL A   1      41.826  26.938  28.954  1.00  0.00     0.031 C 
ATOM     58  C   UNL A   1      44.642  29.900  33.645  1.00  0.00     0.029 A 
ATOM     59  C   UNL A   1      43.531  30.446  34.410  1.00  0.00     0.049 A 
ATOM     60  H   UNL A   1      42.024  31.579  33.431  1.00  0.00     0.167 HD
ATOM     61  C   UNL A   1      44.026  25.768  29.661  1.00  0.00     0.031 A 
ATOM     62  C   UNL A   1      43.096  29.918  35.599  1.00  0.00     0.031 A 
ATOM     63  C   UNL A   1      44.847  25.842  30.866  1.00  0.00     0.049 A 
ATOM     64  C   UNL A   1      43.527  28.472  35.786  1.00  0.00     0.074 A 
ATOM     65  C   UNL A   1      45.972  26.584  31.185  1.00  0.00     0.029 A 
ATOM     66  N   UNL A   1      44.327  25.364  32.059  1.00  0.00    -0.354 N 
ATOM     67  N   UNL A   1      43.823  27.665  34.803  1.00  0.00    -0.248 NA
ATOM     68  C   UNL A   1      43.703  27.838  37.090  1.00  0.00     0.031 C 
ATOM     69  C   UNL A   1      46.086  26.603  32.600  1.00  0.00     0.029 A 
ATOM     70  C   UNL A   1      45.050  25.852  33.129  1.00  0.00     0.049 A 
ATOM     71  H   UNL A   1      43.553  24.762  32.133  1.00  0.00     0.167 HD
ATOM     72  C   UNL A   1      44.262  26.464  35.299  1.00  0.00     0.074 A 
ATOM     73  C   UNL A   1      44.154  26.619  36.739  1.00  0.00     0.031 C 
ATOM     74  C   UNL A   1      44.697  25.455  34.485  1.00  0.00     0.031 A 
BRANCH  61  75
ATOM     75  C   UNL A   1      44.534  25.185  28.366  1.00  0.00    -0.014 A 
ATOM     76  C   UNL A   1      43.744  24.206  27.724  1.00  0.00     0.010 A 
ATOM     77  C   UNL A   1      45.760  25.493  27.749  1.00  0.00     0.010 A 
ATOM     78  C   UNL A   1      44.169  23.536  26.573  1.00  0.00     0.020 A 
ATOM     79  C   UNL A   1      46.204  24.823  26.596  1.00  0.00     0.020 A 
ATOM     80  C   UNL A   1      45.405  23.842  26.019  1.00  0.00     0.054 A 
BRANCH  80  81
ATOM     81  S   UNL A   1      45.933  22.954  24.533  1.00  0.00     0.124 S 
ATOM     82  O   UNL A   1      44.686  22.838  23.779  1.00  0.00    -0.237 OA
ATOM     83  O   UNL A   1      46.931  23.856  23.966  1.00  0.00    -0.237 OA
ATOM     84  O   UNL A   1      46.459  21.693  25.050  1.00  0.00    -0.744 OA
ENDBRANCH  80  81
ENDBRANCH  61  75
BRANCH  62  85
ATOM     85  C   UNL A   1      41.800  30.509  36.061  1.00  0.00    -0.014 A 
ATOM     86  C   UNL A   1      41.837  31.857  36.484  1.00  0.00     0.010 A 
ATOM     87  C   UNL A   1      40.577  29.975  35.615  1.00  0.00     0.010 A 
ATOM     88  C   UNL A   1      40.754  32.707  36.242  1.00  0.00     0.020 A 
ATOM     89  C   UNL A   1      39.480  30.825  35.392  1.00  0.00     0.020 A 
ATOM     90  C   UNL A   1      39.611  32.197  35.625  1.00  0.00     0.054 A 
BRANCH  90  91
ATOM     91  S   UNL A   1      38.414  33.387  34.941  1.00  0.00     0.124 S 
ATOM     92  O   UNL A   1      38.778  34.624  35.626  1.00  0.00    -0.237 OA
ATOM     93  O   UNL A   1      38.726  33.345  33.510  1.00  0.00    -0.237 OA
ATOM     94  O   UNL A   1      37.124  32.821  35.317  1.00  0.00    -0.744 OA
ENDBRANCH  90  91
ENDBRANCH  62  85
BRANCH  74  95
ATOM     95  C   UNL A   1      44.922  24.003  34.860  1.00  0.00    -0.014 A 
ATOM     96  C   UNL A   1      44.291  22.913  34.248  1.00  0.00     0.010 A 
ATOM     97  C   UNL A   1      45.924  23.691  35.819  1.00  0.00     0.010 A 
ATOM     98  C   UNL A   1      44.597  21.594  34.611  1.00  0.00     0.020 A 
ATOM     99  C   UNL A   1      46.283  22.383  36.145  1.00  0.00     0.020 A 
ATOM    100  C   UNL A   1      45.590  21.337  35.557  1.00  0.00     0.054 A 
BRANCH 100 101
ATOM    101  S   UNL A   1      45.990  19.626  35.979  1.00  0.00     0.124 S 
ATOM    102  O   UNL A   1      45.124  18.884  35.065  1.00  0.00    -0.237 OA
ATOM    103  O   UNL A   1      47.420  19.551  35.688  1.00  0.00    -0.237 OA
ATOM    104  O   UNL A   1      45.641  19.526  37.393  1.00  0.00    -0.744 OA
ENDBRANCH 100 101
ENDBRANCH  74  95
ENDBRANCH  48  49
ENDBRANCH  40  43
ENDBRANCH  38  39
ENDBRANCH  37  38
ENDBRANCH  36  37
ENDBRANCH   1  36
TORSDOF 20
ENDMDL
