MODEL 1
REMARK VINA RESULT:     -12.5      0.000      0.000
REMARK SMILES Cc1ccc(S(=O)(=O)n2cc(C(=O)C(=O)N[C@@H](Cc3c[nH]c4ccccc34)C(=O)NCC(=O)NCCCCNC(=O)c3ccc(-c4c5nc(c(-c6ccc(S(=O)(=O)[O-])cc6)c6ccc([nH]6)c(-c6ccc(S(=O)(=O)[O-])cc6)c6nc(c(-c7ccc(S(=O)(=O)[O-])cc7)c7ccc4[nH]7)C=C6)C=C5)cc3)c3ccccc32)cc1
REMARK SMILES IDX 32 1 33 2 34 3 31 5 30 6 28 7 29 8 17 10 16 11 14 12 15 13
REMARK SMILES IDX 12 15 13 16 11 17 9 18 10 19 107 20 102 21 106 22 103 23
REMARK SMILES IDX 105 24 104 25 6 26 7 27 8 28 5 29 1 30 2 31 3 32 109 33 4 34
REMARK SMILES IDX 108 35 18 36 19 37 20 38 27 39 21 40 22 41 26 42 23 44 25 45
REMARK SMILES IDX 24 46 35 47 36 48 37 49 38 50 39 51 40 52 41 54 42 55 43 56
REMARK SMILES IDX 101 57 44 58 100 59 45 60 46 61 47 62 94 63 48 64 99 65
REMARK SMILES IDX 93 66 95 67 49 68 98 69 92 70 91 71 50 73 80 74 61 75 79 76
REMARK SMILES IDX 62 77 65 78 78 79 96 80 63 81 64 82 77 84 97 85 66 86 51 87
REMARK SMILES IDX 52 88 60 89 53 90 59 91 54 92 55 93 56 94 57 95 58 96 81 97
REMARK SMILES IDX 82 98 90 99 83 100 89 101 84 102 85 103 86 104 87 105 88 106
REMARK SMILES IDX 67 107 68 108 76 109 69 110 75 111 70 112 71 113 72 114
REMARK SMILES IDX 73 115 74 116
REMARK H PARENT 34 4 30 9 16 14 21 43 39 53 95 72 65 83
REMARK Flexibility Score: inf
ROOT
ATOM      1  C   UNL A   1      38.054  22.568  25.841  1.00  0.00     0.239 C 
ATOM      2  O   UNL A   1      38.047  21.457  25.310  1.00  0.00    -0.273 OA
ATOM      3  N   UNL A   1      39.106  22.929  26.631  1.00  0.00    -0.355 N 
ATOM      4  H   UNL A   1      39.825  22.265  26.735  1.00  0.00     0.163 HD
ENDROOT
BRANCH   1   5
ATOM      5  C   UNL A   1      37.004  23.627  25.513  1.00  0.00     0.216 C 
BRANCH   5   6
ATOM      6  N   UNL A   1      36.504  23.707  24.152  1.00  0.00    -0.345 N 
ATOM      7  C   UNL A   1      35.286  23.363  23.642  1.00  0.00     0.243 C 
ATOM      8  O   UNL A   1      34.959  23.976  22.615  1.00  0.00    -0.273 OA
ATOM      9  H   UNL A   1      37.144  24.066  23.497  1.00  0.00     0.164 HD
BRANCH   7  10
ATOM     10  C   UNL A   1      34.268  22.370  24.306  1.00  0.00     0.176 C 
BRANCH  10  11
ATOM     11  N   UNL A   1      32.867  22.369  23.811  1.00  0.00    -0.337 N 
ATOM     12  C   UNL A   1      31.691  22.927  24.343  1.00  0.00     0.293 C 
ATOM     13  O   UNL A   1      30.617  22.668  23.806  1.00  0.00    -0.265 OA
ATOM     14  H   UNL A   1      32.739  21.894  22.958  1.00  0.00     0.164 HD
BRANCH  12  15
ATOM     15  C   UNL A   1      31.731  23.906  25.537  1.00  0.00     0.252 C 
ATOM     16  O   UNL A   1      31.678  23.348  26.638  1.00  0.00    -0.283 OA
BRANCH  15  17
ATOM     17  C   UNL A   1      31.815  25.404  25.469  1.00  0.00     0.054 A 
ATOM     18  N   UNL A   1      32.297  27.622  25.672  1.00  0.00    -0.240 N 
ATOM     19  C   UNL A   1      32.839  26.334  25.756  1.00  0.00     0.117 A 
ATOM     20  C   UNL A   1      31.283  27.482  24.716  1.00  0.00     0.065 A 
ATOM     21  C   UNL A   1      30.762  26.209  24.895  1.00  0.00     0.012 A 
ATOM     22  C   UNL A   1      30.734  28.400  23.802  1.00  0.00     0.028 A 
ATOM     23  C   UNL A   1      29.468  25.969  24.385  1.00  0.00     0.011 A 
ATOM     24  C   UNL A   1      29.463  28.147  23.316  1.00  0.00     0.002 A 
ATOM     25  C   UNL A   1      28.811  26.970  23.654  1.00  0.00     0.001 A 
BRANCH  18  26
ATOM     26  S   UNL A   1      32.834  29.270  25.891  1.00  0.00     0.268 S 
ATOM     27  O   UNL A   1      31.593  29.823  26.438  1.00  0.00    -0.201 OA
ATOM     28  O   UNL A   1      33.253  29.649  24.550  1.00  0.00    -0.201 OA
BRANCH  26  29
ATOM     29  C   UNL A   1      33.964  30.111  26.983  1.00  0.00     0.088 A 
ATOM     30  C   UNL A   1      36.952  31.300  29.946  1.00  0.00     0.044 C 
ATOM     31  C   UNL A   1      35.925  30.909  28.924  1.00  0.00    -0.051 A 
ATOM     32  C   UNL A   1      36.050  29.697  28.262  1.00  0.00     0.005 A 
ATOM     33  C   UNL A   1      34.826  31.716  28.606  1.00  0.00     0.005 A 
ATOM     34  C   UNL A   1      35.092  29.317  27.319  1.00  0.00     0.022 A 
ATOM     35  C   UNL A   1      33.845  31.301  27.667  1.00  0.00     0.022 A 
ENDBRANCH  26  29
ENDBRANCH  18  26
ENDBRANCH  15  17
ENDBRANCH  12  15
ENDBRANCH  10  11
BRANCH  10  36
ATOM     36  C   UNL A   1      34.848  20.937  24.533  1.00  0.00     0.072 C 
BRANCH  36  37
ATOM     37  C   UNL A   1      33.972  19.873  25.147  1.00  0.00    -0.020 A 
ATOM     38  C   UNL A   1      33.296  19.990  26.353  1.00  0.00     0.087 A 
ATOM     39  C   UNL A   1      33.684  18.549  24.658  1.00  0.00     0.003 A 
ATOM     40  N   UNL A   1      32.730  18.780  26.659  1.00  0.00    -0.361 N 
ATOM     41  C   UNL A   1      33.044  17.858  25.690  1.00  0.00     0.046 A 
ATOM     42  C   UNL A   1      34.023  17.829  23.492  1.00  0.00     0.010 A 
ATOM     43  H   UNL A   1      32.180  18.599  27.455  1.00  0.00     0.166 HD
ATOM     44  C   UNL A   1      32.836  16.473  25.667  1.00  0.00     0.026 A 
ATOM     45  C   UNL A   1      33.842  16.441  23.461  1.00  0.00     0.001 A 
ATOM     46  C   UNL A   1      33.280  15.772  24.545  1.00  0.00     0.002 A 
ENDBRANCH  36  37
ENDBRANCH  10  36
ENDBRANCH   7  10
ENDBRANCH   5   6
ENDBRANCH   1   5
BRANCH   3  47
ATOM     47  C   UNL A   1      39.279  24.184  27.332  1.00  0.00     0.116 C 
BRANCH  47  48
ATOM     48  C   UNL A   1      40.672  24.310  27.952  1.00  0.00     0.023 C 
BRANCH  48  49
ATOM     49  C   UNL A   1      41.298  22.976  28.365  1.00  0.00     0.023 C 
BRANCH  49  50
ATOM     50  C   UNL A   1      42.472  22.576  27.488  1.00  0.00     0.116 C 
BRANCH  50  51
ATOM     51  N   UNL A   1      43.765  22.516  28.126  1.00  0.00    -0.352 N 
ATOM     52  C   UNL A   1      44.721  23.529  27.985  1.00  0.00     0.251 C 
ATOM     53  H   UNL A   1      43.983  21.733  28.683  1.00  0.00     0.163 HD
ATOM     54  O   UNL A   1      45.881  23.315  27.755  1.00  0.00    -0.269 OA
BRANCH  52  55
ATOM     55  C   UNL A   1      44.227  24.911  28.255  1.00  0.00     0.039 A 
ATOM     56  C   UNL A   1      44.064  25.790  27.183  1.00  0.00     0.014 A 
ATOM     57  C   UNL A   1      44.097  25.372  29.563  1.00  0.00     0.014 A 
ATOM     58  C   UNL A   1      43.945  27.157  27.432  1.00  0.00     0.010 A 
ATOM     59  C   UNL A   1      44.109  26.726  29.807  1.00  0.00     0.010 A 
ATOM     60  C   UNL A   1      44.075  27.620  28.738  1.00  0.00    -0.014 A 
BRANCH  60  61
ATOM     61  C   UNL A   1      44.085  29.019  29.135  1.00  0.00     0.031 A 
ATOM     62  C   UNL A   1      42.806  29.734  29.227  1.00  0.00     0.074 A 
ATOM     63  C   UNL A   1      45.228  29.563  29.603  1.00  0.00     0.049 A 
ATOM     64  N   UNL A   1      42.679  31.012  29.338  1.00  0.00    -0.248 NA
ATOM     65  C   UNL A   1      41.530  29.027  29.166  1.00  0.00     0.031 C 
ATOM     66  C   UNL A   1      45.415  30.823  30.320  1.00  0.00     0.029 A 
ATOM     67  N   UNL A   1      46.503  29.252  29.131  1.00  0.00    -0.354 N 
ATOM     68  C   UNL A   1      41.382  31.241  29.732  1.00  0.00     0.074 A 
ATOM     69  C   UNL A   1      40.681  30.010  29.466  1.00  0.00     0.031 C 
ATOM     70  C   UNL A   1      46.592  31.353  29.943  1.00  0.00     0.029 A 
ATOM     71  C   UNL A   1      47.062  30.515  28.854  1.00  0.00     0.049 A 
ATOM     72  H   UNL A   1      46.913  28.364  29.019  1.00  0.00     0.167 HD
ATOM     73  C   UNL A   1      41.105  32.377  30.433  1.00  0.00     0.031 A 
ATOM     74  C   UNL A   1      47.219  30.926  27.560  1.00  0.00     0.031 A 
ATOM     75  C   UNL A   1      42.227  33.310  30.395  1.00  0.00     0.049 A 
ATOM     76  C   UNL A   1      46.708  32.299  27.292  1.00  0.00     0.074 A 
ATOM     77  C   UNL A   1      43.215  33.647  31.307  1.00  0.00     0.029 A 
ATOM     78  N   UNL A   1      42.626  33.821  29.167  1.00  0.00    -0.354 N 
ATOM     79  N   UNL A   1      45.636  32.774  27.854  1.00  0.00    -0.248 NA
ATOM     80  C   UNL A   1      47.404  33.277  26.461  1.00  0.00     0.031 C 
ATOM     81  C   UNL A   1      44.267  34.278  30.591  1.00  0.00     0.029 A 
ATOM     82  C   UNL A   1      43.895  34.348  29.259  1.00  0.00     0.049 A 
ATOM     83  H   UNL A   1      42.080  33.810  28.349  1.00  0.00     0.167 HD
ATOM     84  C   UNL A   1      45.527  34.102  27.543  1.00  0.00     0.074 A 
ATOM     85  C   UNL A   1      46.640  34.368  26.649  1.00  0.00     0.031 C 
ATOM     86  C   UNL A   1      44.545  34.882  28.074  1.00  0.00     0.031 A 
BRANCH  73  87
ATOM     87  C   UNL A   1      39.953  32.497  31.406  1.00  0.00    -0.014 A 
ATOM     88  C   UNL A   1      39.119  33.633  31.344  1.00  0.00     0.010 A 
ATOM     89  C   UNL A   1      39.690  31.599  32.456  1.00  0.00     0.010 A 
ATOM     90  C   UNL A   1      38.139  33.894  32.313  1.00  0.00     0.020 A 
ATOM     91  C   UNL A   1      38.727  31.852  33.442  1.00  0.00     0.020 A 
ATOM     92  C   UNL A   1      37.963  33.009  33.370  1.00  0.00     0.054 A 
BRANCH  92  93
ATOM     93  S   UNL A   1      36.726  33.377  34.637  1.00  0.00     0.124 S 
ATOM     94  O   UNL A   1      35.519  32.770  34.082  1.00  0.00    -0.237 OA
ATOM     95  O   UNL A   1      37.281  32.718  35.816  1.00  0.00    -0.237 OA
ATOM     96  O   UNL A   1      36.712  34.838  34.694  1.00  0.00    -0.744 OA
ENDBRANCH  92  93
ENDBRANCH  73  87
BRANCH  74  97
ATOM     97  C   UNL A   1      47.341  29.797  26.599  1.00  0.00    -0.014 A 
ATOM     98  C   UNL A   1      48.470  28.992  26.833  1.00  0.00     0.010 A 
ATOM     99  C   UNL A   1      46.354  29.297  25.747  1.00  0.00     0.010 A 
ATOM    100  C   UNL A   1      48.601  27.699  26.350  1.00  0.00     0.020 A 
ATOM    101  C   UNL A   1      46.482  27.988  25.218  1.00  0.00     0.020 A 
ATOM    102  C   UNL A   1      47.582  27.188  25.566  1.00  0.00     0.054 A 
BRANCH 102 103
ATOM    103  S   UNL A   1      47.702  25.427  25.154  1.00  0.00     0.124 S 
ATOM    104  O   UNL A   1      46.317  25.111  24.818  1.00  0.00    -0.237 OA
ATOM    105  O   UNL A   1      48.631  25.437  24.022  1.00  0.00    -0.237 OA
ATOM    106  O   UNL A   1      48.211  24.828  26.383  1.00  0.00    -0.744 OA
ENDBRANCH 102 103
ENDBRANCH  74  97
BRANCH  86 107
ATOM    107  C   UNL A   1      44.123  36.235  27.568  1.00  0.00    -0.014 A 
ATOM    108  C   UNL A   1      42.855  36.505  27.032  1.00  0.00     0.010 A 
ATOM    109  C   UNL A   1      44.974  37.342  27.802  1.00  0.00     0.010 A 
ATOM    110  C   UNL A   1      42.465  37.812  26.715  1.00  0.00     0.020 A 
ATOM    111  C   UNL A   1      44.577  38.653  27.534  1.00  0.00     0.020 A 
ATOM    112  C   UNL A   1      43.326  38.877  26.974  1.00  0.00     0.054 A 
BRANCH 112 113
ATOM    113  S   UNL A   1      42.762  40.567  26.664  1.00  0.00     0.124 S 
ATOM    114  O   UNL A   1      43.357  41.291  27.785  1.00  0.00    -0.237 OA
ATOM    115  O   UNL A   1      43.331  40.865  25.351  1.00  0.00    -0.237 OA
ATOM    116  O   UNL A   1      41.306  40.453  26.691  1.00  0.00    -0.744 OA
ENDBRANCH 112 113
ENDBRANCH  86 107
ENDBRANCH  60  61
ENDBRANCH  52  55
ENDBRANCH  50  51
ENDBRANCH  49  50
ENDBRANCH  48  49
ENDBRANCH  47  48
ENDBRANCH   3  47
TORSDOF 23
ENDMDL
MODEL 2
REMARK VINA RESULT:     -10.7      3.623      6.950
REMARK SMILES Cc1ccc(S(=O)(=O)n2cc(C(=O)C(=O)N[C@@H](Cc3c[nH]c4ccccc34)C(=O)NCC(=O)NCCCCNC(=O)c3ccc(-c4c5nc(c(-c6ccc(S(=O)(=O)[O-])cc6)c6ccc([nH]6)c(-c6ccc(S(=O)(=O)[O-])cc6)c6nc(c(-c7ccc(S(=O)(=O)[O-])cc7)c7ccc4[nH]7)C=C6)C=C5)cc3)c3ccccc32)cc1
REMARK SMILES IDX 32 1 33 2 34 3 31 5 30 6 28 7 29 8 17 10 16 11 14 12 15 13
REMARK SMILES IDX 12 15 13 16 11 17 9 18 10 19 107 20 102 21 106 22 103 23
REMARK SMILES IDX 105 24 104 25 6 26 7 27 8 28 5 29 1 30 2 31 3 32 109 33 4 34
REMARK SMILES IDX 108 35 18 36 19 37 20 38 27 39 21 40 22 41 26 42 23 44 25 45
REMARK SMILES IDX 24 46 35 47 36 48 37 49 38 50 39 51 40 52 41 54 42 55 43 56
REMARK SMILES IDX 101 57 44 58 100 59 45 60 46 61 47 62 94 63 48 64 99 65
REMARK SMILES IDX 93 66 95 67 49 68 98 69 92 70 91 71 50 73 80 74 61 75 79 76
REMARK SMILES IDX 62 77 65 78 78 79 96 80 63 81 64 82 77 84 97 85 66 86 51 87
REMARK SMILES IDX 52 88 60 89 53 90 59 91 54 92 55 93 56 94 57 95 58 96 81 97
REMARK SMILES IDX 82 98 90 99 83 100 89 101 84 102 85 103 86 104 87 105 88 106
REMARK SMILES IDX 67 107 68 108 76 109 69 110 75 111 70 112 71 113 72 114
REMARK SMILES IDX 73 115 74 116
REMARK H PARENT 34 4 30 9 16 14 21 43 39 53 95 72 65 83
REMARK Flexibility Score: inf
ROOT
ATOM      1  C   UNL A   1      38.809  22.564  26.389  1.00  0.00     0.239 C 
ATOM      2  O   UNL A   1      39.070  21.386  26.145  1.00  0.00    -0.273 OA
ATOM      3  N   UNL A   1      39.647  23.289  27.186  1.00  0.00    -0.355 N 
ATOM      4  H   UNL A   1      40.440  22.818  27.531  1.00  0.00     0.163 HD
ENDROOT
BRANCH   1   5
ATOM      5  C   UNL A   1      37.664  23.298  25.694  1.00  0.00     0.216 C 
BRANCH   5   6
ATOM      6  N   UNL A   1      37.425  23.032  24.287  1.00  0.00    -0.345 N 
ATOM      7  C   UNL A   1      36.254  22.980  23.588  1.00  0.00     0.243 C 
ATOM      8  O   UNL A   1      36.356  23.233  22.379  1.00  0.00    -0.273 OA
ATOM      9  H   UNL A   1      38.236  22.863  23.754  1.00  0.00     0.164 HD
BRANCH   7  10
ATOM     10  C   UNL A   1      34.833  22.745  24.212  1.00  0.00     0.176 C 
BRANCH  10  11
ATOM     11  N   UNL A   1      33.683  22.571  23.286  1.00  0.00    -0.337 N 
ATOM     12  C   UNL A   1      32.312  22.842  23.444  1.00  0.00     0.293 C 
ATOM     13  O   UNL A   1      31.532  22.478  22.567  1.00  0.00    -0.265 OA
ATOM     14  H   UNL A   1      33.924  22.203  22.406  1.00  0.00     0.164 HD
BRANCH  12  15
ATOM     15  C   UNL A   1      31.781  23.641  24.655  1.00  0.00     0.252 C 
ATOM     16  O   UNL A   1      31.049  22.983  25.400  1.00  0.00    -0.283 OA
BRANCH  15  17
ATOM     17  C   UNL A   1      32.063  25.081  24.974  1.00  0.00     0.054 A 
ATOM     18  N   UNL A   1      32.264  27.170  25.862  1.00  0.00    -0.240 N 
ATOM     19  C   UNL A   1      32.132  25.813  26.181  1.00  0.00     0.117 A 
ATOM     20  C   UNL A   1      32.948  27.147  24.640  1.00  0.00     0.065 A 
ATOM     21  C   UNL A   1      32.494  26.023  23.967  1.00  0.00     0.012 A 
ATOM     22  C   UNL A   1      33.833  28.071  24.051  1.00  0.00     0.028 A 
ATOM     23  C   UNL A   1      32.671  25.997  22.568  1.00  0.00     0.011 A 
ATOM     24  C   UNL A   1      33.991  28.031  22.678  1.00  0.00     0.002 A 
ATOM     25  C   UNL A   1      33.366  27.040  21.935  1.00  0.00     0.001 A 
BRANCH  18  26
ATOM     26  S   UNL A   1      32.388  28.693  26.708  1.00  0.00     0.268 S 
ATOM     27  O   UNL A   1      31.896  28.248  28.014  1.00  0.00    -0.201 OA
ATOM     28  O   UNL A   1      31.562  29.576  25.898  1.00  0.00    -0.201 OA
BRANCH  26  29
ATOM     29  C   UNL A   1      33.718  29.722  27.300  1.00  0.00     0.088 A 
ATOM     30  C   UNL A   1      36.499  32.936  28.328  1.00  0.00     0.044 C 
ATOM     31  C   UNL A   1      35.555  31.821  27.985  1.00  0.00    -0.051 A 
ATOM     32  C   UNL A   1      34.202  32.093  27.849  1.00  0.00     0.005 A 
ATOM     33  C   UNL A   1      35.979  30.502  27.786  1.00  0.00     0.005 A 
ATOM     34  C   UNL A   1      33.315  31.066  27.516  1.00  0.00     0.022 A 
ATOM     35  C   UNL A   1      35.069  29.476  27.418  1.00  0.00     0.022 A 
ENDBRANCH  26  29
ENDBRANCH  18  26
ENDBRANCH  15  17
ENDBRANCH  12  15
ENDBRANCH  10  11
BRANCH  10  36
ATOM     36  C   UNL A   1      34.831  21.732  25.402  1.00  0.00     0.072 C 
BRANCH  36  37
ATOM     37  C   UNL A   1      35.084  20.270  25.128  1.00  0.00    -0.020 A 
ATOM     38  C   UNL A   1      36.322  19.647  25.185  1.00  0.00     0.087 A 
ATOM     39  C   UNL A   1      34.145  19.252  24.730  1.00  0.00     0.003 A 
ATOM     40  N   UNL A   1      36.189  18.360  24.732  1.00  0.00    -0.361 N 
ATOM     41  C   UNL A   1      34.889  18.132  24.348  1.00  0.00     0.046 A 
ATOM     42  C   UNL A   1      32.749  19.217  24.529  1.00  0.00     0.010 A 
ATOM     43  H   UNL A   1      36.916  17.699  24.687  1.00  0.00     0.166 HD
ATOM     44  C   UNL A   1      34.331  17.039  23.673  1.00  0.00     0.026 A 
ATOM     45  C   UNL A   1      32.178  18.142  23.836  1.00  0.00     0.001 A 
ATOM     46  C   UNL A   1      32.965  17.082  23.393  1.00  0.00     0.002 A 
ENDBRANCH  36  37
ENDBRANCH  10  36
ENDBRANCH   7  10
ENDBRANCH   5   6
ENDBRANCH   1   5
BRANCH   3  47
ATOM     47  C   UNL A   1      39.495  24.674  27.578  1.00  0.00     0.116 C 
BRANCH  47  48
ATOM     48  C   UNL A   1      40.452  25.595  26.818  1.00  0.00     0.023 C 
BRANCH  48  49
ATOM     49  C   UNL A   1      41.706  25.983  27.605  1.00  0.00     0.023 C 
BRANCH  49  50
ATOM     50  C   UNL A   1      41.426  26.993  28.705  1.00  0.00     0.116 C 
BRANCH  50  51
ATOM     51  N   UNL A   1      40.918  28.278  28.289  1.00  0.00    -0.352 N 
ATOM     52  C   UNL A   1      41.406  29.483  28.809  1.00  0.00     0.251 C 
ATOM     53  H   UNL A   1      40.202  28.309  27.614  1.00  0.00     0.163 HD
ATOM     54  O   UNL A   1      40.696  30.382  29.171  1.00  0.00    -0.269 OA
BRANCH  52  55
ATOM     55  C   UNL A   1      42.891  29.632  28.779  1.00  0.00     0.039 A 
ATOM     56  C   UNL A   1      43.541  30.123  29.913  1.00  0.00     0.014 A 
ATOM     57  C   UNL A   1      43.596  29.453  27.591  1.00  0.00     0.014 A 
ATOM     58  C   UNL A   1      44.849  30.594  29.800  1.00  0.00     0.010 A 
ATOM     59  C   UNL A   1      44.836  30.032  27.447  1.00  0.00     0.010 A 
ATOM     60  C   UNL A   1      45.445  30.640  28.544  1.00  0.00    -0.014 A 
BRANCH  60  61
ATOM     61  C   UNL A   1      46.753  31.206  28.256  1.00  0.00     0.031 A 
ATOM     62  C   UNL A   1      46.830  32.418  27.431  1.00  0.00     0.074 A 
ATOM     63  C   UNL A   1      47.835  30.735  28.911  1.00  0.00     0.049 A 
ATOM     64  N   UNL A   1      47.908  32.891  26.909  1.00  0.00    -0.248 NA
ATOM     65  C   UNL A   1      45.636  33.192  27.100  1.00  0.00     0.031 C 
ATOM     66  C   UNL A   1      49.170  31.320  29.012  1.00  0.00     0.029 A 
ATOM     67  N   UNL A   1      48.025  29.399  29.265  1.00  0.00    -0.354 N 
ATOM     68  C   UNL A   1      47.620  34.178  26.519  1.00  0.00     0.074 A 
ATOM     69  C   UNL A   1      46.181  34.262  26.519  1.00  0.00     0.031 C 
ATOM     70  C   UNL A   1      50.069  30.320  29.034  1.00  0.00     0.029 A 
ATOM     71  C   UNL A   1      49.310  29.112  28.764  1.00  0.00     0.049 A 
ATOM     72  H   UNL A   1      47.409  28.802  29.748  1.00  0.00     0.167 HD
ATOM     73  C   UNL A   1      48.639  35.081  26.448  1.00  0.00     0.031 A 
ATOM     74  C   UNL A   1      49.454  28.327  27.655  1.00  0.00     0.031 A 
ATOM     75  C   UNL A   1      49.938  34.422  26.534  1.00  0.00     0.049 A 
ATOM     76  C   UNL A   1      50.363  28.895  26.621  1.00  0.00     0.074 A 
ATOM     77  C   UNL A   1      50.869  34.282  27.552  1.00  0.00     0.029 A 
ATOM     78  N   UNL A   1      50.291  33.514  25.544  1.00  0.00    -0.354 N 
ATOM     79  N   UNL A   1      50.425  30.168  26.361  1.00  0.00    -0.248 NA
ATOM     80  C   UNL A   1      51.340  28.106  25.876  1.00  0.00     0.031 C 
ATOM     81  C   UNL A   1      51.726  33.202  27.209  1.00  0.00     0.029 A 
ATOM     82  C   UNL A   1      51.331  32.719  25.973  1.00  0.00     0.049 A 
ATOM     83  H   UNL A   1      49.860  33.448  24.662  1.00  0.00     0.167 HD
ATOM     84  C   UNL A   1      51.463  30.390  25.498  1.00  0.00     0.074 A 
ATOM     85  C   UNL A   1      51.990  29.070  25.201  1.00  0.00     0.031 C 
ATOM     86  C   UNL A   1      51.823  31.649  25.122  1.00  0.00     0.031 A 
BRANCH  73  87
ATOM     87  C   UNL A   1      48.447  36.572  26.622  1.00  0.00    -0.014 A 
ATOM     88  C   UNL A   1      48.779  37.166  27.857  1.00  0.00     0.010 A 
ATOM     89  C   UNL A   1      47.862  37.424  25.668  1.00  0.00     0.010 A 
ATOM     90  C   UNL A   1      48.475  38.504  28.148  1.00  0.00     0.020 A 
ATOM     91  C   UNL A   1      47.536  38.758  25.948  1.00  0.00     0.020 A 
ATOM     92  C   UNL A   1      47.835  39.288  27.195  1.00  0.00     0.054 A 
BRANCH  92  93
ATOM     93  S   UNL A   1      47.409  40.999  27.596  1.00  0.00     0.124 S 
ATOM     94  O   UNL A   1      48.721  41.629  27.714  1.00  0.00    -0.237 OA
ATOM     95  O   UNL A   1      46.615  41.403  26.439  1.00  0.00    -0.237 OA
ATOM     96  O   UNL A   1      46.664  40.886  28.850  1.00  0.00    -0.744 OA
ENDBRANCH  92  93
ENDBRANCH  73  87
BRANCH  74  97
ATOM     97  C   UNL A   1      48.316  27.391  27.450  1.00  0.00    -0.014 A 
ATOM     98  C   UNL A   1      47.513  27.730  26.347  1.00  0.00     0.010 A 
ATOM     99  C   UNL A   1      48.152  26.119  28.005  1.00  0.00     0.010 A 
ATOM    100  C   UNL A   1      46.653  26.838  25.723  1.00  0.00     0.020 A 
ATOM    101  C   UNL A   1      47.256  25.202  27.400  1.00  0.00     0.020 A 
ATOM    102  C   UNL A   1      46.554  25.559  26.238  1.00  0.00     0.054 A 
BRANCH 102 103
ATOM    103  S   UNL A   1      45.594  24.377  25.254  1.00  0.00     0.124 S 
ATOM    104  O   UNL A   1      44.389  25.148  24.966  1.00  0.00    -0.237 OA
ATOM    105  O   UNL A   1      46.474  24.145  24.106  1.00  0.00    -0.237 OA
ATOM    106  O   UNL A   1      45.425  23.246  26.158  1.00  0.00    -0.744 OA
ENDBRANCH 102 103
ENDBRANCH  74  97
BRANCH  86 107
ATOM    107  C   UNL A   1      52.702  32.003  23.953  1.00  0.00    -0.014 A 
ATOM    108  C   UNL A   1      52.535  31.474  22.665  1.00  0.00     0.010 A 
ATOM    109  C   UNL A   1      53.634  33.058  24.102  1.00  0.00     0.010 A 
ATOM    110  C   UNL A   1      53.284  31.950  21.582  1.00  0.00     0.020 A 
ATOM    111  C   UNL A   1      54.352  33.572  23.021  1.00  0.00     0.020 A 
ATOM    112  C   UNL A   1      54.183  33.001  21.766  1.00  0.00     0.054 A 
BRANCH 112 113
ATOM    113  S   UNL A   1      55.058  33.678  20.336  1.00  0.00     0.124 S 
ATOM    114  O   UNL A   1      55.994  32.602  20.022  1.00  0.00    -0.237 OA
ATOM    115  O   UNL A   1      53.986  33.881  19.364  1.00  0.00    -0.237 OA
ATOM    116  O   UNL A   1      55.660  34.905  20.852  1.00  0.00    -0.744 OA
ENDBRANCH 112 113
ENDBRANCH  86 107
ENDBRANCH  60  61
ENDBRANCH  52  55
ENDBRANCH  50  51
ENDBRANCH  49  50
ENDBRANCH  48  49
ENDBRANCH  47  48
ENDBRANCH   3  47
TORSDOF 23
ENDMDL
MODEL 3
REMARK VINA RESULT:     -10.3      6.017      8.737
REMARK SMILES Cc1ccc(S(=O)(=O)n2cc(C(=O)C(=O)N[C@@H](Cc3c[nH]c4ccccc34)C(=O)NCC(=O)NCCCCNC(=O)c3ccc(-c4c5nc(c(-c6ccc(S(=O)(=O)[O-])cc6)c6ccc([nH]6)c(-c6ccc(S(=O)(=O)[O-])cc6)c6nc(c(-c7ccc(S(=O)(=O)[O-])cc7)c7ccc4[nH]7)C=C6)C=C5)cc3)c3ccccc32)cc1
REMARK SMILES IDX 32 1 33 2 34 3 31 5 30 6 28 7 29 8 17 10 16 11 14 12 15 13
REMARK SMILES IDX 12 15 13 16 11 17 9 18 10 19 107 20 102 21 106 22 103 23
REMARK SMILES IDX 105 24 104 25 6 26 7 27 8 28 5 29 1 30 2 31 3 32 109 33 4 34
REMARK SMILES IDX 108 35 18 36 19 37 20 38 27 39 21 40 22 41 26 42 23 44 25 45
REMARK SMILES IDX 24 46 35 47 36 48 37 49 38 50 39 51 40 52 41 54 42 55 43 56
REMARK SMILES IDX 101 57 44 58 100 59 45 60 46 61 47 62 94 63 48 64 99 65
REMARK SMILES IDX 93 66 95 67 49 68 98 69 92 70 91 71 50 73 80 74 61 75 79 76
REMARK SMILES IDX 62 77 65 78 78 79 96 80 63 81 64 82 77 84 97 85 66 86 51 87
REMARK SMILES IDX 52 88 60 89 53 90 59 91 54 92 55 93 56 94 57 95 58 96 81 97
REMARK SMILES IDX 82 98 90 99 83 100 89 101 84 102 85 103 86 104 87 105 88 106
REMARK SMILES IDX 67 107 68 108 76 109 69 110 75 111 70 112 71 113 72 114
REMARK SMILES IDX 73 115 74 116
REMARK H PARENT 34 4 30 9 16 14 21 43 39 53 95 72 65 83
REMARK Flexibility Score: inf
ROOT
ATOM      1  C   UNL A   1      38.708  22.989  26.443  1.00  0.00     0.239 C 
ATOM      2  O   UNL A   1      38.917  21.779  26.351  1.00  0.00    -0.273 OA
ATOM      3  N   UNL A   1      39.509  23.752  27.242  1.00  0.00    -0.355 N 
ATOM      4  H   UNL A   1      40.233  23.281  27.714  1.00  0.00     0.163 HD
ENDROOT
BRANCH   1   5
ATOM      5  C   UNL A   1      37.684  23.701  25.561  1.00  0.00     0.216 C 
BRANCH   5   6
ATOM      6  N   UNL A   1      37.403  23.153  24.247  1.00  0.00    -0.345 N 
ATOM      7  C   UNL A   1      36.211  22.952  23.614  1.00  0.00     0.243 C 
ATOM      8  O   UNL A   1      36.270  22.955  22.376  1.00  0.00    -0.273 OA
ATOM      9  H   UNL A   1      38.198  22.884  23.732  1.00  0.00     0.164 HD
BRANCH   7  10
ATOM     10  C   UNL A   1      34.814  22.839  24.321  1.00  0.00     0.176 C 
BRANCH  10  11
ATOM     11  N   UNL A   1      33.597  22.827  23.468  1.00  0.00    -0.337 N 
ATOM     12  C   UNL A   1      32.274  23.226  23.727  1.00  0.00     0.293 C 
ATOM     13  O   UNL A   1      31.408  22.986  22.890  1.00  0.00    -0.265 OA
ATOM     14  H   UNL A   1      33.743  22.479  22.559  1.00  0.00     0.164 HD
BRANCH  12  15
ATOM     15  C   UNL A   1      31.905  24.016  25.003  1.00  0.00     0.252 C 
ATOM     16  O   UNL A   1      31.534  23.300  25.939  1.00  0.00    -0.283 OA
BRANCH  15  17
ATOM     17  C   UNL A   1      31.950  25.507  25.182  1.00  0.00     0.054 A 
ATOM     18  N   UNL A   1      32.361  27.670  25.765  1.00  0.00    -0.240 N 
ATOM     19  C   UNL A   1      32.934  26.398  25.666  1.00  0.00     0.117 A 
ATOM     20  C   UNL A   1      31.395  27.667  24.751  1.00  0.00     0.065 A 
ATOM     21  C   UNL A   1      30.902  26.372  24.695  1.00  0.00     0.012 A 
ATOM     22  C   UNL A   1      30.861  28.711  23.971  1.00  0.00     0.028 A 
ATOM     23  C   UNL A   1      29.639  26.192  24.091  1.00  0.00     0.011 A 
ATOM     24  C   UNL A   1      29.621  28.515  23.389  1.00  0.00     0.002 A 
ATOM     25  C   UNL A   1      28.988  27.286  23.501  1.00  0.00     0.001 A 
BRANCH  18  26
ATOM     26  S   UNL A   1      32.840  29.272  26.273  1.00  0.00     0.268 S 
ATOM     27  O   UNL A   1      31.775  29.509  27.250  1.00  0.00    -0.201 OA
ATOM     28  O   UNL A   1      32.840  30.017  25.023  1.00  0.00    -0.201 OA
BRANCH  26  29
ATOM     29  C   UNL A   1      34.183  29.962  27.222  1.00  0.00     0.088 A 
ATOM     30  C   UNL A   1      37.205  32.467  29.149  1.00  0.00     0.044 C 
ATOM     31  C   UNL A   1      36.173  31.593  28.497  1.00  0.00    -0.051 A 
ATOM     32  C   UNL A   1      34.936  32.127  28.171  1.00  0.00     0.005 A 
ATOM     33  C   UNL A   1      36.404  30.246  28.192  1.00  0.00     0.005 A 
ATOM     34  C   UNL A   1      33.973  31.327  27.551  1.00  0.00     0.022 A 
ATOM     35  C   UNL A   1      35.425  29.455  27.534  1.00  0.00     0.022 A 
ENDBRANCH  26  29
ENDBRANCH  18  26
ENDBRANCH  15  17
ENDBRANCH  12  15
ENDBRANCH  10  11
BRANCH  10  36
ATOM     36  C   UNL A   1      34.777  21.781  25.470  1.00  0.00     0.072 C 
BRANCH  36  37
ATOM     37  C   UNL A   1      35.014  20.327  25.144  1.00  0.00    -0.020 A 
ATOM     38  C   UNL A   1      36.231  19.670  25.250  1.00  0.00     0.087 A 
ATOM     39  C   UNL A   1      34.080  19.353  24.638  1.00  0.00     0.003 A 
ATOM     40  N   UNL A   1      36.097  18.409  24.728  1.00  0.00    -0.361 N 
ATOM     41  C   UNL A   1      34.821  18.233  24.252  1.00  0.00     0.046 A 
ATOM     42  C   UNL A   1      32.699  19.364  24.347  1.00  0.00     0.010 A 
ATOM     43  H   UNL A   1      36.811  17.732  24.698  1.00  0.00     0.166 HD
ATOM     44  C   UNL A   1      34.283  17.188  23.491  1.00  0.00     0.026 A 
ATOM     45  C   UNL A   1      32.150  18.338  23.568  1.00  0.00     0.001 A 
ATOM     46  C   UNL A   1      32.939  17.280  23.126  1.00  0.00     0.002 A 
ENDBRANCH  36  37
ENDBRANCH  10  36
ENDBRANCH   7  10
ENDBRANCH   5   6
ENDBRANCH   1   5
BRANCH   3  47
ATOM     47  C   UNL A   1      39.408  25.178  27.470  1.00  0.00     0.116 C 
BRANCH  47  48
ATOM     48  C   UNL A   1      40.405  25.968  26.622  1.00  0.00     0.023 C 
BRANCH  48  49
ATOM     49  C   UNL A   1      41.020  27.174  27.338  1.00  0.00     0.023 C 
BRANCH  49  50
ATOM     50  C   UNL A   1      40.193  27.643  28.523  1.00  0.00     0.116 C 
BRANCH  50  51
ATOM     51  N   UNL A   1      40.403  29.002  28.960  1.00  0.00    -0.352 N 
ATOM     52  C   UNL A   1      40.154  29.417  30.274  1.00  0.00     0.251 C 
ATOM     53  H   UNL A   1      40.735  29.663  28.310  1.00  0.00     0.163 HD
ATOM     54  O   UNL A   1      39.560  30.426  30.547  1.00  0.00    -0.269 OA
BRANCH  52  55
ATOM     55  C   UNL A   1      40.780  28.575  31.335  1.00  0.00     0.039 A 
ATOM     56  C   UNL A   1      40.053  28.305  32.496  1.00  0.00     0.014 A 
ATOM     57  C   UNL A   1      42.122  28.210  31.249  1.00  0.00     0.014 A 
ATOM     58  C   UNL A   1      40.722  27.830  33.625  1.00  0.00     0.010 A 
ATOM     59  C   UNL A   1      42.803  27.865  32.393  1.00  0.00     0.010 A 
ATOM     60  C   UNL A   1      42.109  27.715  33.592  1.00  0.00    -0.014 A 
BRANCH  60  61
ATOM     61  C   UNL A   1      42.947  27.344  34.720  1.00  0.00     0.031 A 
ATOM     62  C   UNL A   1      43.669  28.402  35.439  1.00  0.00     0.074 A 
ATOM     63  C   UNL A   1      42.884  26.086  35.203  1.00  0.00     0.049 A 
ATOM     64  N   UNL A   1      44.612  28.205  36.294  1.00  0.00    -0.248 NA
ATOM     65  C   UNL A   1      43.382  29.815  35.206  1.00  0.00     0.031 C 
ATOM     66  C   UNL A   1      43.389  25.567  36.473  1.00  0.00     0.029 A 
ATOM     67  N   UNL A   1      42.707  24.946  34.420  1.00  0.00    -0.354 N 
ATOM     68  C   UNL A   1      44.777  29.390  36.972  1.00  0.00     0.074 A 
ATOM     69  C   UNL A   1      44.109  30.383  36.169  1.00  0.00     0.031 C 
ATOM     70  C   UNL A   1      43.822  24.310  36.272  1.00  0.00     0.029 A 
ATOM     71  C   UNL A   1      43.755  24.102  34.837  1.00  0.00     0.049 A 
ATOM     72  H   UNL A   1      42.016  24.773  33.740  1.00  0.00     0.167 HD
ATOM     73  C   UNL A   1      45.277  29.351  38.239  1.00  0.00     0.031 A 
ATOM     74  C   UNL A   1      44.833  23.895  34.023  1.00  0.00     0.031 A 
ATOM     75  C   UNL A   1      45.825  28.035  38.552  1.00  0.00     0.049 A 
ATOM     76  C   UNL A   1      46.149  24.059  34.702  1.00  0.00     0.074 A 
ATOM     77  C   UNL A   1      45.358  26.961  39.295  1.00  0.00     0.029 A 
ATOM     78  N   UNL A   1      46.899  27.566  37.806  1.00  0.00    -0.354 N 
ATOM     79  N   UNL A   1      46.361  24.959  35.617  1.00  0.00    -0.248 NA
ATOM     80  C   UNL A   1      47.289  23.173  34.490  1.00  0.00     0.031 C 
ATOM     81  C   UNL A   1      46.099  25.812  38.907  1.00  0.00     0.029 A 
ATOM     82  C   UNL A   1      47.029  26.203  37.959  1.00  0.00     0.049 A 
ATOM     83  H   UNL A   1      47.484  28.128  37.249  1.00  0.00     0.167 HD
ATOM     84  C   UNL A   1      47.597  24.747  36.164  1.00  0.00     0.074 A 
ATOM     85  C   UNL A   1      48.152  23.637  35.411  1.00  0.00     0.031 C 
ATOM     86  C   UNL A   1      48.049  25.485  37.215  1.00  0.00     0.031 A 
BRANCH  73  87
ATOM     87  C   UNL A   1      44.979  30.401  39.287  1.00  0.00    -0.014 A 
ATOM     88  C   UNL A   1      44.202  31.523  38.930  1.00  0.00     0.010 A 
ATOM     89  C   UNL A   1      45.501  30.405  40.592  1.00  0.00     0.010 A 
ATOM     90  C   UNL A   1      44.025  32.613  39.794  1.00  0.00     0.020 A 
ATOM     91  C   UNL A   1      45.347  31.493  41.462  1.00  0.00     0.020 A 
ATOM     92  C   UNL A   1      44.617  32.599  41.052  1.00  0.00     0.054 A 
BRANCH  92  93
ATOM     93  S   UNL A   1      44.418  34.028  42.142  1.00  0.00     0.124 S 
ATOM     94  O   UNL A   1      43.988  33.410  43.393  1.00  0.00    -0.237 OA
ATOM     95  O   UNL A   1      45.758  34.606  42.149  1.00  0.00    -0.237 OA
ATOM     96  O   UNL A   1      43.398  34.836  41.472  1.00  0.00    -0.744 OA
ENDBRANCH  92  93
ENDBRANCH  73  87
BRANCH  74  97
ATOM     97  C   UNL A   1      44.523  24.091  32.581  1.00  0.00    -0.014 A 
ATOM     98  C   UNL A   1      45.170  25.208  32.024  1.00  0.00     0.010 A 
ATOM     99  C   UNL A   1      43.951  23.168  31.703  1.00  0.00     0.010 A 
ATOM    100  C   UNL A   1      45.359  25.382  30.661  1.00  0.00     0.020 A 
ATOM    101  C   UNL A   1      44.106  23.342  30.304  1.00  0.00     0.020 A 
ATOM    102  C   UNL A   1      44.850  24.423  29.804  1.00  0.00     0.054 A 
BRANCH 102 103
ATOM    103  S   UNL A   1      45.319  24.585  28.060  1.00  0.00     0.124 S 
ATOM    104  O   UNL A   1      44.592  23.472  27.457  1.00  0.00    -0.237 OA
ATOM    105  O   UNL A   1      44.810  25.917  27.726  1.00  0.00    -0.237 OA
ATOM    106  O   UNL A   1      46.771  24.454  28.090  1.00  0.00    -0.744 OA
ENDBRANCH 102 103
ENDBRANCH  74  97
BRANCH  86 107
ATOM    107  C   UNL A   1      49.478  25.577  37.678  1.00  0.00    -0.014 A 
ATOM    108  C   UNL A   1      50.556  25.865  36.828  1.00  0.00     0.010 A 
ATOM    109  C   UNL A   1      49.743  25.553  39.068  1.00  0.00     0.010 A 
ATOM    110  C   UNL A   1      51.842  26.086  37.335  1.00  0.00     0.020 A 
ATOM    111  C   UNL A   1      51.010  25.818  39.588  1.00  0.00     0.020 A 
ATOM    112  C   UNL A   1      52.059  26.068  38.712  1.00  0.00     0.054 A 
BRANCH 112 113
ATOM    113  S   UNL A   1      53.702  26.467  39.355  1.00  0.00     0.124 S 
ATOM    114  O   UNL A   1      53.521  26.254  40.788  1.00  0.00    -0.237 OA
ATOM    115  O   UNL A   1      54.560  25.497  38.678  1.00  0.00    -0.237 OA
ATOM    116  O   UNL A   1      53.901  27.855  38.945  1.00  0.00    -0.744 OA
ENDBRANCH 112 113
ENDBRANCH  86 107
ENDBRANCH  60  61
ENDBRANCH  52  55
ENDBRANCH  50  51
ENDBRANCH  49  50
ENDBRANCH  48  49
ENDBRANCH  47  48
ENDBRANCH   3  47
TORSDOF 23
ENDMDL
