MODEL 1
REMARK VINA RESULT:     -11.5      0.000      0.000
REMARK SMILES Cc1c(Cl)cccc1-c1cccc(Cl)c1C(=O)NCCCCNC(=O)c1ccc(-c2c3nc(c(-c4ccc(S(=O)(=O)[O-])cc4)c4ccc([nH]4)c(-c4ccc(S(=O)(=O)[O-])cc4)c4nc(c(-c5ccc(S(=O)(=O)[O-])cc5)c5ccc2[nH]5)C=C4)C=C3)cc1
REMARK SMILES IDX 21 1 20 2 19 3 18 4 16 5 17 6 15 8 9 9 10 10 11 11 13 12
REMARK SMILES IDX 12 13 14 14 8 15 1 16 2 17 3 18 4 19 5 20 7 21 6 22 22 23
REMARK SMILES IDX 23 24 24 25 25 27 26 28 27 29 85 30 28 31 84 32 29 33 30 34
REMARK SMILES IDX 31 35 78 36 32 37 83 38 77 39 79 40 33 41 82 42 76 43 75 44
REMARK SMILES IDX 34 46 64 47 45 48 63 49 46 50 49 51 62 52 80 53 47 54 48 55
REMARK SMILES IDX 61 57 81 58 50 59 35 60 36 61 44 62 37 63 43 64 38 65 39 66
REMARK SMILES IDX 40 67 41 68 42 69 65 70 66 71 74 72 67 73 73 74 68 75 69 76
REMARK SMILES IDX 70 77 71 78 72 79 51 80 52 81 60 82 53 83 59 84 54 85 55 86
REMARK SMILES IDX 56 87 57 88 58 89
REMARK H PARENT 18 7 23 26 79 45 49 56
REMARK Flexibility Score: inf
ROOT
ATOM      1  C   UNL A   1      32.839  28.649  25.917  1.00  0.00     0.023 C 
ENDROOT
BRANCH   1   2
ATOM      2  C   UNL A   1      33.998  28.489  24.931  1.00  0.00     0.023 C 
BRANCH   2   3
ATOM      3  C   UNL A   1      33.659  28.567  23.449  1.00  0.00     0.116 C 
BRANCH   3   4
ATOM      4  N   UNL A   1      33.868  27.358  22.689  1.00  0.00    -0.352 N 
ATOM      5  C   UNL A   1      33.097  26.222  22.654  1.00  0.00     0.253 C 
ATOM      6  O   UNL A   1      33.265  25.426  21.729  1.00  0.00    -0.269 OA
ATOM      7  H   UNL A   1      34.672  27.347  22.120  1.00  0.00     0.163 HD
BRANCH   5   8
ATOM      8  C   UNL A   1      32.090  25.883  23.696  1.00  0.00     0.066 A 
ATOM      9  C   UNL A   1      32.352  25.030  24.801  1.00  0.00    -0.004 A 
ATOM     10  C   UNL A   1      31.365  24.925  25.811  1.00  0.00     0.009 A 
ATOM     11  C   UNL A   1      30.167  25.631  25.752  1.00  0.00     0.002 A 
ATOM     12  C   UNL A   1      30.865  26.586  23.645  1.00  0.00     0.054 A 
ATOM     13  C   UNL A   1      29.916  26.458  24.668  1.00  0.00     0.021 A 
ATOM     14  Cl  UNL A   1      30.415  27.616  22.324  1.00  0.00    -0.083 Cl
BRANCH   9  15
ATOM     15  C   UNL A   1      33.560  24.192  24.969  1.00  0.00    -0.013 A 
ATOM     16  C   UNL A   1      32.448  22.074  24.076  1.00  0.00     0.046 C 
ATOM     17  C   UNL A   1      33.622  22.811  24.673  1.00  0.00    -0.025 A 
ATOM     18  C   UNL A   1      34.807  22.106  24.986  1.00  0.00     0.044 A 
ATOM     19  Cl  UNL A   1      34.935  20.396  24.758  1.00  0.00    -0.084 Cl
ATOM     20  C   UNL A   1      35.923  22.757  25.522  1.00  0.00     0.021 A 
ATOM     21  C   UNL A   1      34.720  24.831  25.478  1.00  0.00     0.009 A 
ATOM     22  C   UNL A   1      35.886  24.124  25.756  1.00  0.00     0.002 A 
ENDBRANCH   9  15
ENDBRANCH   5   8
ENDBRANCH   3   4
ENDBRANCH   2   3
ENDBRANCH   1   2
BRANCH   1  23
ATOM     23  C   UNL A   1      33.170  28.883  27.391  1.00  0.00     0.116 C 
BRANCH  23  24
ATOM     24  N   UNL A   1      33.416  30.272  27.754  1.00  0.00    -0.352 N 
ATOM     25  C   UNL A   1      34.574  30.907  28.148  1.00  0.00     0.251 C 
ATOM     26  H   UNL A   1      32.623  30.854  27.711  1.00  0.00     0.163 HD
ATOM     27  O   UNL A   1      34.550  32.114  28.382  1.00  0.00    -0.269 OA
BRANCH  25  28
ATOM     28  C   UNL A   1      35.820  30.136  28.366  1.00  0.00     0.039 A 
ATOM     29  C   UNL A   1      36.736  30.041  27.313  1.00  0.00     0.014 A 
ATOM     30  C   UNL A   1      36.122  29.561  29.602  1.00  0.00     0.014 A 
ATOM     31  C   UNL A   1      38.006  29.500  27.540  1.00  0.00     0.010 A 
ATOM     32  C   UNL A   1      37.413  29.092  29.849  1.00  0.00     0.010 A 
ATOM     33  C   UNL A   1      38.381  29.095  28.832  1.00  0.00    -0.014 A 
BRANCH  33  34
ATOM     34  C   UNL A   1      39.795  28.765  29.160  1.00  0.00     0.031 A 
ATOM     35  C   UNL A   1      40.709  29.796  29.763  1.00  0.00     0.074 A 
ATOM     36  C   UNL A   1      40.287  27.557  28.814  1.00  0.00     0.049 A 
ATOM     37  N   UNL A   1      41.993  29.717  30.005  1.00  0.00    -0.248 NA
ATOM     38  C   UNL A   1      40.109  31.092  30.114  1.00  0.00     0.031 C 
ATOM     39  C   UNL A   1      39.525  26.480  28.175  1.00  0.00     0.029 A 
ATOM     40  N   UNL A   1      41.553  27.035  28.933  1.00  0.00    -0.354 N 
ATOM     41  C   UNL A   1      42.361  30.957  30.513  1.00  0.00     0.074 A 
ATOM     42  C   UNL A   1      41.169  31.780  30.513  1.00  0.00     0.031 C 
ATOM     43  C   UNL A   1      40.328  25.423  27.980  1.00  0.00     0.029 A 
ATOM     44  C   UNL A   1      41.673  25.757  28.435  1.00  0.00     0.049 A 
ATOM     45  H   UNL A   1      42.303  27.528  29.337  1.00  0.00     0.167 HD
ATOM     46  C   UNL A   1      43.575  31.370  30.949  1.00  0.00     0.031 A 
ATOM     47  C   UNL A   1      42.744  24.946  28.341  1.00  0.00     0.031 A 
ATOM     48  C   UNL A   1      44.758  30.550  30.963  1.00  0.00     0.049 A 
ATOM     49  C   UNL A   1      44.080  25.424  28.839  1.00  0.00     0.074 A 
ATOM     50  C   UNL A   1      46.018  30.867  31.441  1.00  0.00     0.029 A 
ATOM     51  N   UNL A   1      44.829  29.255  30.477  1.00  0.00    -0.354 N 
ATOM     52  N   UNL A   1      44.390  26.582  29.369  1.00  0.00    -0.248 NA
ATOM     53  C   UNL A   1      45.204  24.485  28.730  1.00  0.00     0.031 C 
ATOM     54  C   UNL A   1      46.860  29.772  31.211  1.00  0.00     0.029 A 
ATOM     55  C   UNL A   1      46.113  28.761  30.629  1.00  0.00     0.049 A 
ATOM     56  H   UNL A   1      44.075  28.757  30.082  1.00  0.00     0.167 HD
ATOM     57  C   UNL A   1      45.744  26.503  29.677  1.00  0.00     0.074 A 
ATOM     58  C   UNL A   1      46.189  25.182  29.285  1.00  0.00     0.031 C 
ATOM     59  C   UNL A   1      46.545  27.444  30.235  1.00  0.00     0.031 A 
BRANCH  46  60
ATOM     60  C   UNL A   1      43.684  32.788  31.446  1.00  0.00    -0.014 A 
ATOM     61  C   UNL A   1      43.578  33.084  32.817  1.00  0.00     0.010 A 
ATOM     62  C   UNL A   1      43.920  33.833  30.536  1.00  0.00     0.010 A 
ATOM     63  C   UNL A   1      43.659  34.405  33.264  1.00  0.00     0.020 A 
ATOM     64  C   UNL A   1      44.025  35.155  30.982  1.00  0.00     0.020 A 
ATOM     65  C   UNL A   1      43.873  35.433  32.341  1.00  0.00     0.054 A 
BRANCH  65  66
ATOM     66  S   UNL A   1      43.977  37.140  32.947  1.00  0.00     0.124 S 
ATOM     67  O   UNL A   1      42.804  37.222  33.814  1.00  0.00    -0.237 OA
ATOM     68  O   UNL A   1      45.266  37.162  33.632  1.00  0.00    -0.237 OA
ATOM     69  O   UNL A   1      43.909  37.945  31.729  1.00  0.00    -0.744 OA
ENDBRANCH  65  66
ENDBRANCH  46  60
BRANCH  47  70
ATOM     70  C   UNL A   1      42.594  23.585  27.759  1.00  0.00    -0.014 A 
ATOM     71  C   UNL A   1      43.005  23.330  26.439  1.00  0.00     0.010 A 
ATOM     72  C   UNL A   1      42.059  22.534  28.526  1.00  0.00     0.010 A 
ATOM     73  C   UNL A   1      42.875  22.050  25.892  1.00  0.00     0.020 A 
ATOM     74  C   UNL A   1      41.948  21.248  27.989  1.00  0.00     0.020 A 
ATOM     75  C   UNL A   1      42.348  21.016  26.671  1.00  0.00     0.054 A 
BRANCH  75  76
ATOM     76  S   UNL A   1      42.247  19.348  25.962  1.00  0.00     0.124 S 
ATOM     77  O   UNL A   1      42.851  18.537  27.014  1.00  0.00    -0.237 OA
ATOM     78  O   UNL A   1      40.810  19.170  25.772  1.00  0.00    -0.237 OA
ATOM     79  O   UNL A   1      43.021  19.456  24.728  1.00  0.00    -0.744 OA
ENDBRANCH  75  76
ENDBRANCH  47  70
BRANCH  59  80
ATOM     80  C   UNL A   1      47.980  27.072  30.483  1.00  0.00    -0.014 A 
ATOM     81  C   UNL A   1      48.996  27.470  29.598  1.00  0.00     0.010 A 
ATOM     82  C   UNL A   1      48.322  26.364  31.649  1.00  0.00     0.010 A 
ATOM     83  C   UNL A   1      50.330  27.149  29.865  1.00  0.00     0.020 A 
ATOM     84  C   UNL A   1      49.657  26.059  31.929  1.00  0.00     0.020 A 
ATOM     85  C   UNL A   1      50.652  26.444  31.029  1.00  0.00     0.054 A 
BRANCH  85  86
ATOM     86  S   UNL A   1      52.395  26.087  31.385  1.00  0.00     0.124 S 
ATOM     87  O   UNL A   1      52.760  27.200  32.259  1.00  0.00    -0.237 OA
ATOM     88  O   UNL A   1      52.332  24.777  32.027  1.00  0.00    -0.237 OA
ATOM     89  O   UNL A   1      53.025  26.098  30.067  1.00  0.00    -0.744 OA
ENDBRANCH  85  86
ENDBRANCH  59  80
ENDBRANCH  33  34
ENDBRANCH  25  28
ENDBRANCH  23  24
ENDBRANCH   1  23
TORSDOF 15
ENDMDL
MODEL 2
REMARK VINA RESULT:     -11.2      2.767      9.301
REMARK SMILES Cc1c(Cl)cccc1-c1cccc(Cl)c1C(=O)NCCCCNC(=O)c1ccc(-c2c3nc(c(-c4ccc(S(=O)(=O)[O-])cc4)c4ccc([nH]4)c(-c4ccc(S(=O)(=O)[O-])cc4)c4nc(c(-c5ccc(S(=O)(=O)[O-])cc5)c5ccc2[nH]5)C=C4)C=C3)cc1
REMARK SMILES IDX 21 1 20 2 19 3 18 4 16 5 17 6 15 8 9 9 10 10 11 11 13 12
REMARK SMILES IDX 12 13 14 14 8 15 1 16 2 17 3 18 4 19 5 20 7 21 6 22 22 23
REMARK SMILES IDX 23 24 24 25 25 27 26 28 27 29 85 30 28 31 84 32 29 33 30 34
REMARK SMILES IDX 31 35 78 36 32 37 83 38 77 39 79 40 33 41 82 42 76 43 75 44
REMARK SMILES IDX 34 46 64 47 45 48 63 49 46 50 49 51 62 52 80 53 47 54 48 55
REMARK SMILES IDX 61 57 81 58 50 59 35 60 36 61 44 62 37 63 43 64 38 65 39 66
REMARK SMILES IDX 40 67 41 68 42 69 65 70 66 71 74 72 67 73 73 74 68 75 69 76
REMARK SMILES IDX 70 77 71 78 72 79 51 80 52 81 60 82 53 83 59 84 54 85 55 86
REMARK SMILES IDX 56 87 57 88 58 89
REMARK H PARENT 18 7 23 26 79 45 49 56
REMARK Flexibility Score: inf
ROOT
ATOM      1  C   UNL A   1      35.948  22.509  25.570  1.00  0.00     0.023 C 
ENDROOT
BRANCH   1   2
ATOM      2  C   UNL A   1      35.195  23.271  26.662  1.00  0.00     0.023 C 
BRANCH   2   3
ATOM      3  C   UNL A   1      34.030  22.553  27.327  1.00  0.00     0.116 C 
BRANCH   3   4
ATOM      4  N   UNL A   1      32.795  23.295  27.411  1.00  0.00    -0.352 N 
ATOM      5  C   UNL A   1      31.948  23.671  26.396  1.00  0.00     0.253 C 
ATOM      6  O   UNL A   1      30.806  24.029  26.686  1.00  0.00    -0.269 OA
ATOM      7  H   UNL A   1      32.523  23.568  28.317  1.00  0.00     0.163 HD
BRANCH   5   8
ATOM      8  C   UNL A   1      32.352  23.705  24.964  1.00  0.00     0.066 A 
ATOM      9  C   UNL A   1      32.823  24.869  24.302  1.00  0.00    -0.004 A 
ATOM     10  C   UNL A   1      33.335  24.729  22.989  1.00  0.00     0.009 A 
ATOM     11  C   UNL A   1      33.393  23.497  22.344  1.00  0.00     0.002 A 
ATOM     12  C   UNL A   1      32.408  22.462  24.294  1.00  0.00     0.054 A 
ATOM     13  C   UNL A   1      32.926  22.365  22.996  1.00  0.00     0.021 A 
ATOM     14  Cl  UNL A   1      31.817  20.983  24.981  1.00  0.00    -0.083 Cl
BRANCH   9  15
ATOM     15  C   UNL A   1      32.782  26.242  24.850  1.00  0.00    -0.013 A 
ATOM     16  C   UNL A   1      30.609  26.859  23.659  1.00  0.00     0.046 C 
ATOM     17  C   UNL A   1      31.785  27.197  24.542  1.00  0.00    -0.025 A 
ATOM     18  C   UNL A   1      31.927  28.509  25.048  1.00  0.00     0.044 A 
ATOM     19  Cl  UNL A   1      30.815  29.768  24.636  1.00  0.00    -0.084 Cl
ATOM     20  C   UNL A   1      32.992  28.857  25.885  1.00  0.00     0.021 A 
ATOM     21  C   UNL A   1      33.830  26.615  25.732  1.00  0.00     0.009 A 
ATOM     22  C   UNL A   1      33.938  27.906  26.240  1.00  0.00     0.002 A 
ENDBRANCH   9  15
ENDBRANCH   5   8
ENDBRANCH   3   4
ENDBRANCH   2   3
ENDBRANCH   1   2
BRANCH   1  23
ATOM     23  C   UNL A   1      37.252  23.105  25.040  1.00  0.00     0.116 C 
BRANCH  23  24
ATOM     24  N   UNL A   1      38.459  22.392  25.431  1.00  0.00    -0.352 N 
ATOM     25  C   UNL A   1      39.509  22.776  26.237  1.00  0.00     0.251 C 
ATOM     26  H   UNL A   1      38.539  21.484  25.059  1.00  0.00     0.163 HD
ATOM     27  O   UNL A   1      40.425  21.984  26.453  1.00  0.00    -0.269 OA
BRANCH  25  28
ATOM     28  C   UNL A   1      39.582  24.155  26.776  1.00  0.00     0.039 A 
ATOM     29  C   UNL A   1      39.025  24.405  28.034  1.00  0.00     0.014 A 
ATOM     30  C   UNL A   1      40.236  25.178  26.090  1.00  0.00     0.014 A 
ATOM     31  C   UNL A   1      39.250  25.635  28.663  1.00  0.00     0.010 A 
ATOM     32  C   UNL A   1      40.525  26.375  26.746  1.00  0.00     0.010 A 
ATOM     33  C   UNL A   1      40.070  26.600  28.056  1.00  0.00    -0.014 A 
BRANCH  33  34
ATOM     34  C   UNL A   1      40.541  27.798  28.804  1.00  0.00     0.031 A 
ATOM     35  C   UNL A   1      41.878  27.803  29.493  1.00  0.00     0.074 A 
ATOM     36  C   UNL A   1      39.710  28.851  28.951  1.00  0.00     0.049 A 
ATOM     37  N   UNL A   1      42.395  28.712  30.280  1.00  0.00    -0.248 NA
ATOM     38  C   UNL A   1      42.733  26.623  29.294  1.00  0.00     0.031 C 
ATOM     39  C   UNL A   1      38.364  28.958  28.378  1.00  0.00     0.029 A 
ATOM     40  N   UNL A   1      39.866  30.029  29.641  1.00  0.00    -0.354 N 
ATOM     41  C   UNL A   1      43.622  28.206  30.691  1.00  0.00     0.074 A 
ATOM     42  C   UNL A   1      43.756  26.895  30.090  1.00  0.00     0.031 C 
ATOM     43  C   UNL A   1      37.829  30.140  28.722  1.00  0.00     0.029 A 
ATOM     44  C   UNL A   1      38.769  30.859  29.575  1.00  0.00     0.049 A 
ATOM     45  H   UNL A   1      40.685  30.258  30.138  1.00  0.00     0.167 HD
ATOM     46  C   UNL A   1      44.556  28.782  31.485  1.00  0.00     0.031 A 
ATOM     47  C   UNL A   1      38.536  32.057  30.144  1.00  0.00     0.031 A 
ATOM     48  C   UNL A   1      44.431  30.090  32.072  1.00  0.00     0.049 A 
ATOM     49  C   UNL A   1      39.590  32.679  31.015  1.00  0.00     0.074 A 
ATOM     50  C   UNL A   1      45.352  30.779  32.843  1.00  0.00     0.029 A 
ATOM     51  N   UNL A   1      43.317  30.907  31.956  1.00  0.00    -0.354 N 
ATOM     52  N   UNL A   1      40.768  32.206  31.342  1.00  0.00    -0.248 NA
ATOM     53  C   UNL A   1      39.286  33.997  31.588  1.00  0.00     0.031 C 
ATOM     54  C   UNL A   1      44.780  31.999  33.223  1.00  0.00     0.029 A 
ATOM     55  C   UNL A   1      43.520  32.087  32.652  1.00  0.00     0.049 A 
ATOM     56  H   UNL A   1      42.502  30.682  31.451  1.00  0.00     0.167 HD
ATOM     57  C   UNL A   1      41.355  33.179  32.144  1.00  0.00     0.074 A 
ATOM     58  C   UNL A   1      40.408  34.270  32.242  1.00  0.00     0.031 C 
ATOM     59  C   UNL A   1      42.571  33.167  32.743  1.00  0.00     0.031 A 
BRANCH  46  60
ATOM     60  C   UNL A   1      45.803  27.988  31.771  1.00  0.00    -0.014 A 
ATOM     61  C   UNL A   1      46.956  28.143  30.980  1.00  0.00     0.010 A 
ATOM     62  C   UNL A   1      45.833  27.096  32.858  1.00  0.00     0.010 A 
ATOM     63  C   UNL A   1      48.100  27.385  31.241  1.00  0.00     0.020 A 
ATOM     64  C   UNL A   1      46.984  26.353  33.137  1.00  0.00     0.020 A 
ATOM     65  C   UNL A   1      48.103  26.487  32.313  1.00  0.00     0.054 A 
BRANCH  65  66
ATOM     66  S   UNL A   1      49.603  25.517  32.633  1.00  0.00     0.124 S 
ATOM     67  O   UNL A   1      49.905  24.987  31.306  1.00  0.00    -0.237 OA
ATOM     68  O   UNL A   1      50.536  26.521  33.135  1.00  0.00    -0.237 OA
ATOM     69  O   UNL A   1      49.171  24.527  33.616  1.00  0.00    -0.744 OA
ENDBRANCH  65  66
ENDBRANCH  46  60
BRANCH  47  70
ATOM     70  C   UNL A   1      37.246  32.756  29.896  1.00  0.00    -0.014 A 
ATOM     71  C   UNL A   1      36.209  32.686  30.842  1.00  0.00     0.010 A 
ATOM     72  C   UNL A   1      37.055  33.510  28.724  1.00  0.00     0.010 A 
ATOM     73  C   UNL A   1      34.999  33.350  30.618  1.00  0.00     0.020 A 
ATOM     74  C   UNL A   1      35.855  34.194  28.507  1.00  0.00     0.020 A 
ATOM     75  C   UNL A   1      34.830  34.101  29.451  1.00  0.00     0.054 A 
BRANCH  75  76
ATOM     76  S   UNL A   1      33.276  35.006  29.209  1.00  0.00     0.124 S 
ATOM     77  O   UNL A   1      33.752  36.298  28.725  1.00  0.00    -0.237 OA
ATOM     78  O   UNL A   1      32.576  34.181  28.228  1.00  0.00    -0.237 OA
ATOM     79  O   UNL A   1      32.677  35.016  30.542  1.00  0.00    -0.744 OA
ENDBRANCH  75  76
ENDBRANCH  47  70
BRANCH  59  80
ATOM     80  C   UNL A   1      42.962  34.381  33.538  1.00  0.00    -0.014 A 
ATOM     81  C   UNL A   1      42.775  34.428  34.930  1.00  0.00     0.010 A 
ATOM     82  C   UNL A   1      43.581  35.465  32.890  1.00  0.00     0.010 A 
ATOM     83  C   UNL A   1      43.181  35.550  35.659  1.00  0.00     0.020 A 
ATOM     84  C   UNL A   1      44.007  36.579  33.618  1.00  0.00     0.020 A 
ATOM     85  C   UNL A   1      43.794  36.619  34.998  1.00  0.00     0.054 A 
BRANCH  85  86
ATOM     86  S   UNL A   1      44.365  38.040  35.971  1.00  0.00     0.124 S 
ATOM     87  O   UNL A   1      43.558  37.922  37.183  1.00  0.00    -0.237 OA
ATOM     88  O   UNL A   1      45.791  37.767  36.136  1.00  0.00    -0.237 OA
ATOM     89  O   UNL A   1      44.051  39.187  35.123  1.00  0.00    -0.744 OA
ENDBRANCH  85  86
ENDBRANCH  59  80
ENDBRANCH  33  34
ENDBRANCH  25  28
ENDBRANCH  23  24
ENDBRANCH   1  23
TORSDOF 15
ENDMDL
MODEL 3
REMARK VINA RESULT:     -11.1      4.603     10.461
REMARK SMILES Cc1c(Cl)cccc1-c1cccc(Cl)c1C(=O)NCCCCNC(=O)c1ccc(-c2c3nc(c(-c4ccc(S(=O)(=O)[O-])cc4)c4ccc([nH]4)c(-c4ccc(S(=O)(=O)[O-])cc4)c4nc(c(-c5ccc(S(=O)(=O)[O-])cc5)c5ccc2[nH]5)C=C4)C=C3)cc1
REMARK SMILES IDX 21 1 20 2 19 3 18 4 16 5 17 6 15 8 9 9 10 10 11 11 13 12
REMARK SMILES IDX 12 13 14 14 8 15 1 16 2 17 3 18 4 19 5 20 7 21 6 22 22 23
REMARK SMILES IDX 23 24 24 25 25 27 26 28 27 29 85 30 28 31 84 32 29 33 30 34
REMARK SMILES IDX 31 35 78 36 32 37 83 38 77 39 79 40 33 41 82 42 76 43 75 44
REMARK SMILES IDX 34 46 64 47 45 48 63 49 46 50 49 51 62 52 80 53 47 54 48 55
REMARK SMILES IDX 61 57 81 58 50 59 35 60 36 61 44 62 37 63 43 64 38 65 39 66
REMARK SMILES IDX 40 67 41 68 42 69 65 70 66 71 74 72 67 73 73 74 68 75 69 76
REMARK SMILES IDX 70 77 71 78 72 79 51 80 52 81 60 82 53 83 59 84 54 85 55 86
REMARK SMILES IDX 56 87 57 88 58 89
REMARK H PARENT 18 7 23 26 79 45 49 56
REMARK Flexibility Score: inf
ROOT
ATOM      1  C   UNL A   1      37.336  23.307  25.237  1.00  0.00     0.023 C 
ENDROOT
BRANCH   1   2
ATOM      2  C   UNL A   1      37.494  21.896  24.668  1.00  0.00     0.023 C 
BRANCH   2   3
ATOM      3  C   UNL A   1      36.406  20.888  25.008  1.00  0.00     0.116 C 
BRANCH   3   4
ATOM      4  N   UNL A   1      35.534  21.246  26.101  1.00  0.00    -0.352 N 
ATOM      5  C   UNL A   1      34.161  21.207  26.151  1.00  0.00     0.253 C 
ATOM      6  O   UNL A   1      33.612  21.258  27.252  1.00  0.00    -0.269 OA
ATOM      7  H   UNL A   1      35.983  21.560  26.919  1.00  0.00     0.163 HD
BRANCH   5   8
ATOM      8  C   UNL A   1      33.299  21.143  24.940  1.00  0.00     0.066 A 
ATOM      9  C   UNL A   1      32.899  22.282  24.192  1.00  0.00    -0.004 A 
ATOM     10  C   UNL A   1      32.222  22.072  22.966  1.00  0.00     0.009 A 
ATOM     11  C   UNL A   1      31.950  20.797  22.480  1.00  0.00     0.002 A 
ATOM     12  C   UNL A   1      33.007  19.854  24.438  1.00  0.00     0.054 A 
ATOM     13  C   UNL A   1      32.339  19.689  23.218  1.00  0.00     0.021 A 
ATOM     14  Cl  UNL A   1      33.401  18.393  25.286  1.00  0.00    -0.083 Cl
BRANCH   9  15
ATOM     15  C   UNL A   1      33.086  23.689  24.609  1.00  0.00    -0.013 A 
ATOM     16  C   UNL A   1      31.104  23.677  26.218  1.00  0.00     0.046 C 
ATOM     17  C   UNL A   1      32.248  24.371  25.521  1.00  0.00    -0.025 A 
ATOM     18  C   UNL A   1      32.474  25.748  25.747  1.00  0.00     0.044 A 
ATOM     19  Cl  UNL A   1      31.435  26.687  26.762  1.00  0.00    -0.084 Cl
ATOM     20  C   UNL A   1      33.536  26.423  25.134  1.00  0.00     0.021 A 
ATOM     21  C   UNL A   1      34.177  24.391  24.032  1.00  0.00     0.009 A 
ATOM     22  C   UNL A   1      34.397  25.742  24.287  1.00  0.00     0.002 A 
ENDBRANCH   9  15
ENDBRANCH   5   8
ENDBRANCH   3   4
ENDBRANCH   2   3
ENDBRANCH   1   2
BRANCH   1  23
ATOM     23  C   UNL A   1      38.192  23.702  26.440  1.00  0.00     0.116 C 
BRANCH  23  24
ATOM     24  N   UNL A   1      39.630  23.642  26.218  1.00  0.00    -0.352 N 
ATOM     25  C   UNL A   1      40.648  24.439  26.696  1.00  0.00     0.251 C 
ATOM     26  H   UNL A   1      39.925  22.910  25.629  1.00  0.00     0.163 HD
ATOM     27  O   UNL A   1      41.811  24.179  26.392  1.00  0.00    -0.269 OA
BRANCH  25  28
ATOM     28  C   UNL A   1      40.347  25.646  27.502  1.00  0.00     0.039 A 
ATOM     29  C   UNL A   1      39.435  25.529  28.556  1.00  0.00     0.014 A 
ATOM     30  C   UNL A   1      40.989  26.863  27.271  1.00  0.00     0.014 A 
ATOM     31  C   UNL A   1      39.278  26.584  29.461  1.00  0.00     0.010 A 
ATOM     32  C   UNL A   1      40.890  27.886  28.215  1.00  0.00     0.010 A 
ATOM     33  C   UNL A   1      40.065  27.741  29.342  1.00  0.00    -0.014 A 
BRANCH  33  34
ATOM     34  C   UNL A   1      40.114  28.760  30.426  1.00  0.00     0.031 A 
ATOM     35  C   UNL A   1      41.045  28.600  31.596  1.00  0.00     0.074 A 
ATOM     36  C   UNL A   1      39.235  29.784  30.407  1.00  0.00     0.049 A 
ATOM     37  N   UNL A   1      41.136  29.327  32.681  1.00  0.00    -0.248 NA
ATOM     38  C   UNL A   1      41.974  27.461  31.555  1.00  0.00     0.031 C 
ATOM     39  C   UNL A   1      38.241  30.032  29.358  1.00  0.00     0.029 A 
ATOM     40  N   UNL A   1      39.022  30.802  31.306  1.00  0.00    -0.354 N 
ATOM     41  C   UNL A   1      42.113  28.722  33.463  1.00  0.00     0.074 A 
ATOM     42  C   UNL A   1      42.561  27.550  32.740  1.00  0.00     0.031 C 
ATOM     43  C   UNL A   1      37.543  31.137  29.661  1.00  0.00     0.029 A 
ATOM     44  C   UNL A   1      38.003  31.655  30.945  1.00  0.00     0.049 A 
ATOM     45  H   UNL A   1      39.548  30.912  32.131  1.00  0.00     0.167 HD
ATOM     46  C   UNL A   1      42.601  29.111  34.665  1.00  0.00     0.031 A 
ATOM     47  C   UNL A   1      37.485  32.725  31.577  1.00  0.00     0.031 A 
ATOM     48  C   UNL A   1      42.167  30.284  35.379  1.00  0.00     0.049 A 
ATOM     49  C   UNL A   1      38.048  33.142  32.907  1.00  0.00     0.074 A 
ATOM     50  C   UNL A   1      42.646  30.788  36.576  1.00  0.00     0.029 A 
ATOM     51  N   UNL A   1      41.154  31.134  34.964  1.00  0.00    -0.354 N 
ATOM     52  N   UNL A   1      39.012  32.587  33.599  1.00  0.00    -0.248 NA
ATOM     53  C   UNL A   1      37.456  34.331  33.535  1.00  0.00     0.031 C 
ATOM     54  C   UNL A   1      41.896  31.925  36.903  1.00  0.00     0.029 A 
ATOM     55  C   UNL A   1      40.981  32.151  35.888  1.00  0.00     0.049 A 
ATOM     56  H   UNL A   1      40.634  31.030  34.134  1.00  0.00     0.167 HD
ATOM     57  C   UNL A   1      39.158  33.372  34.738  1.00  0.00     0.074 A 
ATOM     58  C   UNL A   1      38.191  34.446  34.634  1.00  0.00     0.031 C 
ATOM     59  C   UNL A   1      40.016  33.215  35.775  1.00  0.00     0.031 A 
BRANCH  46  60
ATOM     60  C   UNL A   1      43.664  28.248  35.291  1.00  0.00    -0.014 A 
ATOM     61  C   UNL A   1      45.020  28.414  34.955  1.00  0.00     0.010 A 
ATOM     62  C   UNL A   1      43.308  27.277  36.244  1.00  0.00     0.010 A 
ATOM     63  C   UNL A   1      45.995  27.592  35.525  1.00  0.00     0.020 A 
ATOM     64  C   UNL A   1      44.284  26.469  36.835  1.00  0.00     0.020 A 
ATOM     65  C   UNL A   1      45.619  26.618  36.455  1.00  0.00     0.054 A 
BRANCH  65  66
ATOM     66  S   UNL A   1      46.905  25.566  37.184  1.00  0.00     0.124 S 
ATOM     67  O   UNL A   1      48.001  25.730  36.232  1.00  0.00    -0.237 OA
ATOM     68  O   UNL A   1      47.116  26.174  38.494  1.00  0.00    -0.237 OA
ATOM     69  O   UNL A   1      46.295  24.239  37.208  1.00  0.00    -0.744 OA
ENDBRANCH  65  66
ENDBRANCH  46  60
BRANCH  47  70
ATOM     70  C   UNL A   1      36.373  33.489  30.950  1.00  0.00    -0.014 A 
ATOM     71  C   UNL A   1      35.221  33.801  31.691  1.00  0.00     0.010 A 
ATOM     72  C   UNL A   1      36.468  33.926  29.616  1.00  0.00     0.010 A 
ATOM     73  C   UNL A   1      34.178  34.527  31.109  1.00  0.00     0.020 A 
ATOM     74  C   UNL A   1      35.437  34.672  29.037  1.00  0.00     0.020 A 
ATOM     75  C   UNL A   1      34.293  34.959  29.785  1.00  0.00     0.054 A 
BRANCH  75  76
ATOM     76  S   UNL A   1      32.956  35.955  29.068  1.00  0.00     0.124 S 
ATOM     77  O   UNL A   1      33.696  37.043  28.436  1.00  0.00    -0.237 OA
ATOM     78  O   UNL A   1      32.311  35.014  28.157  1.00  0.00    -0.237 OA
ATOM     79  O   UNL A   1      32.154  36.333  30.230  1.00  0.00    -0.744 OA
ENDBRANCH  75  76
ENDBRANCH  47  70
BRANCH  59  80
ATOM     80  C   UNL A   1      39.972  34.243  36.871  1.00  0.00    -0.014 A 
ATOM     81  C   UNL A   1      40.671  35.456  36.756  1.00  0.00     0.010 A 
ATOM     82  C   UNL A   1      39.173  34.014  38.005  1.00  0.00     0.010 A 
ATOM     83  C   UNL A   1      40.587  36.417  37.767  1.00  0.00     0.020 A 
ATOM     84  C   UNL A   1      39.070  34.981  39.009  1.00  0.00     0.020 A 
ATOM     85  C   UNL A   1      39.788  36.173  38.888  1.00  0.00     0.054 A 
BRANCH  85  86
ATOM     86  S   UNL A   1      39.648  37.458  40.162  1.00  0.00     0.124 S 
ATOM     87  O   UNL A   1      41.038  37.875  40.326  1.00  0.00    -0.237 OA
ATOM     88  O   UNL A   1      38.766  38.440  39.536  1.00  0.00    -0.237 OA
ATOM     89  O   UNL A   1      39.071  36.751  41.303  1.00  0.00    -0.744 OA
ENDBRANCH  85  86
ENDBRANCH  59  80
ENDBRANCH  33  34
ENDBRANCH  25  28
ENDBRANCH  23  24
ENDBRANCH   1  23
TORSDOF 15
ENDMDL
