MODEL 1
REMARK VINA RESULT:     -11.3      0.000      0.000
REMARK SMILES C[NH+](C)CCc1nc(Nc2ccc(O)c(C(=O)NCCCCNC(=O)c3ccc(-c4c5nc(c(-c6ccc(S(=O)(=O)[O-])cc6)c6ccc([nH]6)c(-c6ccc(S(=O)(=O)[O-])cc6)c6nc(c(-c7ccc(S(=O)(=O)[O-])cc7)c7ccc4[nH]7)C=C6)C=C5)cc3)c2)c2ccccc2n1
REMARK SMILES IDX 19 1 18 2 16 3 17 4 15 6 10 7 11 8 86 9 12 10 13 11 9 12
REMARK SMILES IDX 8 14 6 15 7 16 93 17 92 18 87 19 91 20 88 21 90 22 89 23
REMARK SMILES IDX 5 24 4 25 2 26 1 27 3 28 14 30 20 32 21 33 22 34 23 35 24 36
REMARK SMILES IDX 25 38 26 39 27 40 85 41 28 42 84 43 29 44 30 45 31 46 78 47
REMARK SMILES IDX 32 48 83 49 77 50 79 51 33 52 82 53 76 54 75 55 34 57 64 58
REMARK SMILES IDX 45 59 63 60 46 61 49 62 62 63 80 64 47 65 48 66 61 68 81 69
REMARK SMILES IDX 50 70 35 71 36 72 44 73 37 74 43 75 38 76 39 77 40 78 41 79
REMARK SMILES IDX 42 80 65 81 66 82 74 83 67 84 73 85 68 86 69 87 70 88 71 89
REMARK SMILES IDX 72 90 51 91 52 92 60 93 53 94 59 95 54 96 55 97 56 98 57 99
REMARK SMILES IDX 58 100
REMARK H PARENT 18 5 9 13 2 29 14 31 23 37 79 56 49 67
REMARK Flexibility Score: inf
ROOT
ATOM      1  C   UNL A   1      34.702  20.940  25.008  1.00  0.00     0.116 C 
ENDROOT
BRANCH   1   2
ATOM      2  N   UNL A   1      34.482  21.387  26.365  1.00  0.00    -0.352 N 
ATOM      3  C   UNL A   1      33.694  22.372  26.897  1.00  0.00     0.255 C 
ATOM      4  O   UNL A   1      33.810  22.551  28.115  1.00  0.00    -0.269 OA
ATOM      5  H   UNL A   1      34.998  20.885  27.037  1.00  0.00     0.163 HD
BRANCH   3   6
ATOM      6  C   UNL A   1      32.664  23.180  26.164  1.00  0.00     0.083 A 
ATOM      7  C   UNL A   1      32.383  25.284  24.906  1.00  0.00     0.041 A 
ATOM      8  C   UNL A   1      31.035  24.985  24.725  1.00  0.00     0.030 A 
ATOM      9  C   UNL A   1      33.173  24.387  25.635  1.00  0.00     0.043 A 
ATOM     10  C   UNL A   1      30.508  23.791  25.207  1.00  0.00     0.049 A 
ATOM     11  C   UNL A   1      31.321  22.885  25.900  1.00  0.00     0.128 A 
BRANCH   7  12
ATOM     12  N   UNL A   1      32.941  26.486  24.440  1.00  0.00    -0.340 N 
ATOM     13  H   UNL A   1      33.778  26.419  23.927  1.00  0.00     0.168 HD
BRANCH  12  14
ATOM     14  C   UNL A   1      32.419  27.781  24.637  1.00  0.00     0.142 A 
ATOM     15  C   UNL A   1      30.734  29.283  24.209  1.00  0.00     0.137 A 
ATOM     16  N   UNL A   1      31.342  28.130  23.915  1.00  0.00    -0.215 NA
ATOM     17  N   UNL A   1      31.190  30.173  25.104  1.00  0.00    -0.233 NA
ATOM     18  C   UNL A   1      32.303  29.852  25.774  1.00  0.00     0.076 A 
ATOM     19  C   UNL A   1      32.982  28.640  25.591  1.00  0.00     0.043 A 
ATOM     20  C   UNL A   1      32.792  30.747  26.716  1.00  0.00     0.029 A 
ATOM     21  C   UNL A   1      34.144  28.362  26.357  1.00  0.00     0.014 A 
ATOM     22  C   UNL A   1      33.932  30.473  27.479  1.00  0.00     0.002 A 
ATOM     23  C   UNL A   1      34.611  29.276  27.298  1.00  0.00     0.001 A 
BRANCH  15  24
ATOM     24  C   UNL A   1      29.414  29.545  23.549  1.00  0.00     0.138 C 
BRANCH  24  25
ATOM     25  C   UNL A   1      29.502  30.505  22.343  1.00  0.00     0.269 C 
BRANCH  25  26
ATOM     26  N   UNL A   1      28.510  31.584  22.180  1.00  0.00    -0.339 N 
ATOM     27  C   UNL A   1      28.855  32.803  22.908  1.00  0.00     0.332 C 
ATOM     28  C   UNL A   1      28.193  31.874  20.788  1.00  0.00     0.332 C 
ATOM     29  H   UNL A   1      27.661  31.212  22.607  1.00  0.00     0.347 HD
ENDBRANCH  25  26
ENDBRANCH  24  25
ENDBRANCH  15  24
ENDBRANCH  12  14
ENDBRANCH   7  12
BRANCH  11  30
ATOM     30  O   UNL A   1      30.741  21.701  26.240  1.00  0.00    -0.507 OA
ATOM     31  H   UNL A   1      31.182  20.895  26.061  1.00  0.00     0.293 HD
ENDBRANCH  11  30
ENDBRANCH   3   6
ENDBRANCH   1   2
BRANCH   1  32
ATOM     32  C   UNL A   1      36.035  21.483  24.485  1.00  0.00     0.023 C 
BRANCH  32  33
ATOM     33  C   UNL A   1      36.138  23.006  24.455  1.00  0.00     0.023 C 
BRANCH  33  34
ATOM     34  C   UNL A   1      37.212  23.585  25.366  1.00  0.00     0.116 C 
BRANCH  34  35
ATOM     35  N   UNL A   1      38.359  22.706  25.539  1.00  0.00    -0.352 N 
ATOM     36  C   UNL A   1      39.556  22.979  26.161  1.00  0.00     0.251 C 
ATOM     37  H   UNL A   1      38.265  21.800  25.165  1.00  0.00     0.163 HD
ATOM     38  O   UNL A   1      40.465  22.158  26.150  1.00  0.00    -0.269 OA
BRANCH  36  39
ATOM     39  C   UNL A   1      39.738  24.300  26.794  1.00  0.00     0.039 A 
ATOM     40  C   UNL A   1      39.278  24.488  28.099  1.00  0.00     0.014 A 
ATOM     41  C   UNL A   1      40.419  25.319  26.125  1.00  0.00     0.014 A 
ATOM     42  C   UNL A   1      39.568  25.680  28.763  1.00  0.00     0.010 A 
ATOM     43  C   UNL A   1      40.767  26.478  26.812  1.00  0.00     0.010 A 
ATOM     44  C   UNL A   1      40.349  26.666  28.138  1.00  0.00    -0.014 A 
BRANCH  44  45
ATOM     45  C   UNL A   1      40.746  27.903  28.853  1.00  0.00     0.031 A 
ATOM     46  C   UNL A   1      42.098  27.990  29.504  1.00  0.00     0.074 A 
ATOM     47  C   UNL A   1      39.865  28.915  28.974  1.00  0.00     0.049 A 
ATOM     48  N   UNL A   1      42.600  28.952  30.234  1.00  0.00    -0.248 NA
ATOM     49  C   UNL A   1      42.993  26.833  29.335  1.00  0.00     0.031 C 
ATOM     50  C   UNL A   1      38.507  28.930  28.423  1.00  0.00     0.029 A 
ATOM     51  N   UNL A   1      39.978  30.126  29.610  1.00  0.00    -0.354 N 
ATOM     52  C   UNL A   1      43.858  28.511  30.624  1.00  0.00     0.074 A 
ATOM     53  C   UNL A   1      44.024  27.177  30.091  1.00  0.00     0.031 C 
ATOM     54  C   UNL A   1      37.925  30.103  28.721  1.00  0.00     0.029 A 
ATOM     55  C   UNL A   1      38.850  30.906  29.515  1.00  0.00     0.049 A 
ATOM     56  H   UNL A   1      40.790  30.409  30.089  1.00  0.00     0.167 HD
ATOM     57  C   UNL A   1      44.799  29.166  31.344  1.00  0.00     0.031 A 
ATOM     58  C   UNL A   1      38.589  32.129  30.014  1.00  0.00     0.031 A 
ATOM     59  C   UNL A   1      44.637  30.498  31.860  1.00  0.00     0.049 A 
ATOM     60  C   UNL A   1      39.651  32.837  30.810  1.00  0.00     0.074 A 
ATOM     61  C   UNL A   1      45.549  31.267  32.561  1.00  0.00     0.029 A 
ATOM     62  N   UNL A   1      43.488  31.261  31.726  1.00  0.00    -0.354 N 
ATOM     63  N   UNL A   1      40.856  32.425  31.123  1.00  0.00    -0.248 NA
ATOM     64  C   UNL A   1      39.322  34.178  31.310  1.00  0.00     0.031 C 
ATOM     65  C   UNL A   1      44.938  32.484  32.882  1.00  0.00     0.029 A 
ATOM     66  C   UNL A   1      43.661  32.489  32.342  1.00  0.00     0.049 A 
ATOM     67  H   UNL A   1      42.669  30.973  31.261  1.00  0.00     0.167 HD
ATOM     68  C   UNL A   1      41.439  33.467  31.836  1.00  0.00     0.074 A 
ATOM     69  C   UNL A   1      40.458  34.532  31.897  1.00  0.00     0.031 C 
ATOM     70  C   UNL A   1      42.674  33.537  32.388  1.00  0.00     0.031 A 
BRANCH  57  71
ATOM     71  C   UNL A   1      46.091  28.441  31.610  1.00  0.00    -0.014 A 
ATOM     72  C   UNL A   1      47.105  28.391  30.637  1.00  0.00     0.010 A 
ATOM     73  C   UNL A   1      46.305  27.822  32.855  1.00  0.00     0.010 A 
ATOM     74  C   UNL A   1      48.291  27.695  30.884  1.00  0.00     0.020 A 
ATOM     75  C   UNL A   1      47.502  27.147  33.116  1.00  0.00     0.020 A 
ATOM     76  C   UNL A   1      48.478  27.071  32.121  1.00  0.00     0.054 A 
BRANCH  76  77
ATOM     77  S   UNL A   1      50.032  26.185  32.422  1.00  0.00     0.124 S 
ATOM     78  O   UNL A   1      50.033  26.069  33.880  1.00  0.00    -0.237 OA
ATOM     79  O   UNL A   1      49.835  24.934  31.694  1.00  0.00    -0.237 OA
ATOM     80  O   UNL A   1      51.050  27.072  31.867  1.00  0.00    -0.744 OA
ENDBRANCH  76  77
ENDBRANCH  57  71
BRANCH  58  81
ATOM     81  C   UNL A   1      37.275  32.775  29.754  1.00  0.00    -0.014 A 
ATOM     82  C   UNL A   1      36.174  32.503  30.586  1.00  0.00     0.010 A 
ATOM     83  C   UNL A   1      37.117  33.670  28.681  1.00  0.00     0.010 A 
ATOM     84  C   UNL A   1      34.934  33.099  30.338  1.00  0.00     0.020 A 
ATOM     85  C   UNL A   1      35.884  34.286  28.445  1.00  0.00     0.020 A 
ATOM     86  C   UNL A   1      34.797  33.986  29.268  1.00  0.00     0.054 A 
BRANCH  86  87
ATOM     87  S   UNL A   1      33.191  34.784  28.992  1.00  0.00     0.124 S 
ATOM     88  O   UNL A   1      32.604  34.754  30.328  1.00  0.00    -0.237 OA
ATOM     89  O   UNL A   1      33.573  36.104  28.497  1.00  0.00    -0.237 OA
ATOM     90  O   UNL A   1      32.548  33.920  28.004  1.00  0.00    -0.744 OA
ENDBRANCH  86  87
ENDBRANCH  58  81
BRANCH  70  91
ATOM     91  C   UNL A   1      43.051  34.820  33.077  1.00  0.00    -0.014 A 
ATOM     92  C   UNL A   1      42.971  34.944  34.474  1.00  0.00     0.010 A 
ATOM     93  C   UNL A   1      43.548  35.895  32.316  1.00  0.00     0.010 A 
ATOM     94  C   UNL A   1      43.358  36.133  35.098  1.00  0.00     0.020 A 
ATOM     95  C   UNL A   1      43.958  37.075  32.938  1.00  0.00     0.020 A 
ATOM     96  C   UNL A   1      43.849  37.192  34.326  1.00  0.00     0.054 A 
BRANCH  96  97
ATOM     97  S   UNL A   1      44.393  38.706  35.162  1.00  0.00     0.124 S 
ATOM     98  O   UNL A   1      43.687  39.739  34.411  1.00  0.00    -0.237 OA
ATOM     99  O   UNL A   1      43.934  38.501  36.533  1.00  0.00    -0.237 OA
ATOM    100  O   UNL A   1      45.845  38.692  34.991  1.00  0.00    -0.744 OA
ENDBRANCH  96  97
ENDBRANCH  70  91
ENDBRANCH  44  45
ENDBRANCH  36  39
ENDBRANCH  34  35
ENDBRANCH  33  34
ENDBRANCH  32  33
ENDBRANCH   1  32
TORSDOF 20
ENDMDL
MODEL 2
REMARK VINA RESULT:     -11.1      5.451      8.736
REMARK SMILES C[NH+](C)CCc1nc(Nc2ccc(O)c(C(=O)NCCCCNC(=O)c3ccc(-c4c5nc(c(-c6ccc(S(=O)(=O)[O-])cc6)c6ccc([nH]6)c(-c6ccc(S(=O)(=O)[O-])cc6)c6nc(c(-c7ccc(S(=O)(=O)[O-])cc7)c7ccc4[nH]7)C=C6)C=C5)cc3)c2)c2ccccc2n1
REMARK SMILES IDX 19 1 18 2 16 3 17 4 15 6 10 7 11 8 86 9 12 10 13 11 9 12
REMARK SMILES IDX 8 14 6 15 7 16 93 17 92 18 87 19 91 20 88 21 90 22 89 23
REMARK SMILES IDX 5 24 4 25 2 26 1 27 3 28 14 30 20 32 21 33 22 34 23 35 24 36
REMARK SMILES IDX 25 38 26 39 27 40 85 41 28 42 84 43 29 44 30 45 31 46 78 47
REMARK SMILES IDX 32 48 83 49 77 50 79 51 33 52 82 53 76 54 75 55 34 57 64 58
REMARK SMILES IDX 45 59 63 60 46 61 49 62 62 63 80 64 47 65 48 66 61 68 81 69
REMARK SMILES IDX 50 70 35 71 36 72 44 73 37 74 43 75 38 76 39 77 40 78 41 79
REMARK SMILES IDX 42 80 65 81 66 82 74 83 67 84 73 85 68 86 69 87 70 88 71 89
REMARK SMILES IDX 72 90 51 91 52 92 60 93 53 94 59 95 54 96 55 97 56 98 57 99
REMARK SMILES IDX 58 100
REMARK H PARENT 18 5 9 13 2 29 14 31 23 37 79 56 49 67
REMARK Flexibility Score: inf
ROOT
ATOM      1  C   UNL A   1      41.689  20.557  27.417  1.00  0.00     0.116 C 
ENDROOT
BRANCH   1   2
ATOM      2  N   UNL A   1      41.893  19.255  26.822  1.00  0.00    -0.352 N 
ATOM      3  C   UNL A   1      42.844  18.772  25.963  1.00  0.00     0.255 C 
ATOM      4  O   UNL A   1      42.671  17.611  25.575  1.00  0.00    -0.269 OA
ATOM      5  H   UNL A   1      41.219  18.588  27.086  1.00  0.00     0.163 HD
BRANCH   3   6
ATOM      6  C   UNL A   1      44.091  19.480  25.527  1.00  0.00     0.083 A 
ATOM      7  C   UNL A   1      44.932  21.707  24.877  1.00  0.00     0.041 A 
ATOM      8  C   UNL A   1      46.198  21.161  24.677  1.00  0.00     0.030 A 
ATOM      9  C   UNL A   1      43.896  20.858  25.282  1.00  0.00     0.043 A 
ATOM     10  C   UNL A   1      46.432  19.815  24.937  1.00  0.00     0.049 A 
ATOM     11  C   UNL A   1      45.393  18.986  25.382  1.00  0.00     0.128 A 
BRANCH   7  12
ATOM     12  N   UNL A   1      44.663  23.061  24.612  1.00  0.00    -0.340 N 
ATOM     13  H   UNL A   1      44.065  23.255  23.854  1.00  0.00     0.168 HD
BRANCH  12  14
ATOM     14  C   UNL A   1      45.165  24.168  25.326  1.00  0.00     0.142 A 
ATOM     15  C   UNL A   1      46.377  26.119  25.284  1.00  0.00     0.137 A 
ATOM     16  N   UNL A   1      46.025  24.978  24.686  1.00  0.00    -0.215 NA
ATOM     17  N   UNL A   1      46.019  26.463  26.531  1.00  0.00    -0.233 NA
ATOM     18  C   UNL A   1      45.217  25.620  27.191  1.00  0.00     0.076 A 
ATOM     19  C   UNL A   1      44.734  24.429  26.633  1.00  0.00     0.043 A 
ATOM     20  C   UNL A   1      44.819  25.954  28.479  1.00  0.00     0.029 A 
ATOM     21  C   UNL A   1      43.868  23.598  27.390  1.00  0.00     0.014 A 
ATOM     22  C   UNL A   1      43.957  25.143  29.224  1.00  0.00     0.002 A 
ATOM     23  C   UNL A   1      43.481  23.959  28.678  1.00  0.00     0.001 A 
BRANCH  15  24
ATOM     24  C   UNL A   1      47.154  27.106  24.465  1.00  0.00     0.138 C 
BRANCH  24  25
ATOM     25  C   UNL A   1      48.527  26.579  23.995  1.00  0.00     0.269 C 
BRANCH  25  26
ATOM     26  N   UNL A   1      49.754  26.951  24.724  1.00  0.00    -0.339 N 
ATOM     27  C   UNL A   1      50.172  25.950  25.701  1.00  0.00     0.332 C 
ATOM     28  C   UNL A   1      50.856  27.326  23.849  1.00  0.00     0.332 C 
ATOM     29  H   UNL A   1      49.492  27.787  25.246  1.00  0.00     0.347 HD
ENDBRANCH  25  26
ENDBRANCH  24  25
ENDBRANCH  15  24
ENDBRANCH  12  14
ENDBRANCH   7  12
BRANCH  11  30
ATOM     30  O   UNL A   1      45.744  17.712  25.708  1.00  0.00    -0.507 OA
ATOM     31  H   UNL A   1      46.609  17.402  25.524  1.00  0.00     0.293 HD
ENDBRANCH  11  30
ENDBRANCH   3   6
ENDBRANCH   1   2
BRANCH   1  32
ATOM     32  C   UNL A   1      40.992  21.488  26.419  1.00  0.00     0.023 C 
BRANCH  32  33
ATOM     33  C   UNL A   1      39.761  22.207  26.966  1.00  0.00     0.023 C 
BRANCH  33  34
ATOM     34  C   UNL A   1      39.850  23.726  26.930  1.00  0.00     0.116 C 
BRANCH  34  35
ATOM     35  N   UNL A   1      40.813  24.227  25.961  1.00  0.00    -0.352 N 
ATOM     36  C   UNL A   1      41.385  25.477  25.897  1.00  0.00     0.251 C 
ATOM     37  H   UNL A   1      41.091  23.590  25.264  1.00  0.00     0.163 HD
ATOM     38  O   UNL A   1      42.119  25.779  24.963  1.00  0.00    -0.269 OA
BRANCH  36  39
ATOM     39  C   UNL A   1      41.056  26.461  26.947  1.00  0.00     0.039 A 
ATOM     40  C   UNL A   1      40.142  26.101  27.940  1.00  0.00     0.014 A 
ATOM     41  C   UNL A   1      41.697  27.701  26.984  1.00  0.00     0.014 A 
ATOM     42  C   UNL A   1      39.927  26.962  29.017  1.00  0.00     0.010 A 
ATOM     43  C   UNL A   1      41.534  28.525  28.092  1.00  0.00     0.010 A 
ATOM     44  C   UNL A   1      40.652  28.161  29.120  1.00  0.00    -0.014 A 
BRANCH  44  45
ATOM     45  C   UNL A   1      40.507  29.049  30.298  1.00  0.00     0.031 A 
ATOM     46  C   UNL A   1      41.380  28.842  31.504  1.00  0.00     0.074 A 
ATOM     47  C   UNL A   1      39.546  29.994  30.307  1.00  0.00     0.049 A 
ATOM     48  N   UNL A   1      41.357  29.464  32.654  1.00  0.00    -0.248 NA
ATOM     49  C   UNL A   1      42.394  27.778  31.415  1.00  0.00     0.031 C 
ATOM     50  C   UNL A   1      38.609  30.263  29.213  1.00  0.00     0.029 A 
ATOM     51  N   UNL A   1      39.193  30.899  31.276  1.00  0.00    -0.354 N 
ATOM     52  C   UNL A   1      42.337  28.858  33.430  1.00  0.00     0.074 A 
ATOM     53  C   UNL A   1      42.904  27.788  32.637  1.00  0.00     0.031 C 
ATOM     54  C   UNL A   1      37.807  31.282  29.562  1.00  0.00     0.029 A 
ATOM     55  C   UNL A   1      38.146  31.713  30.915  1.00  0.00     0.049 A 
ATOM     56  H   UNL A   1      39.646  30.959  32.147  1.00  0.00     0.167 HD
ATOM     57  C   UNL A   1      42.743  29.175  34.681  1.00  0.00     0.031 A 
ATOM     58  C   UNL A   1      37.527  32.695  31.597  1.00  0.00     0.031 A 
ATOM     59  C   UNL A   1      42.188  30.248  35.461  1.00  0.00     0.049 A 
ATOM     60  C   UNL A   1      37.997  33.031  32.986  1.00  0.00     0.074 A 
ATOM     61  C   UNL A   1      42.563  30.681  36.720  1.00  0.00     0.029 A 
ATOM     62  N   UNL A   1      41.143  31.062  35.052  1.00  0.00    -0.354 N 
ATOM     63  N   UNL A   1      38.962  32.480  33.683  1.00  0.00    -0.248 NA
ATOM     64  C   UNL A   1      37.301  34.125  33.676  1.00  0.00     0.031 C 
ATOM     65  C   UNL A   1      41.719  31.735  37.088  1.00  0.00     0.029 A 
ATOM     66  C   UNL A   1      40.849  31.987  36.039  1.00  0.00     0.049 A 
ATOM     67  H   UNL A   1      40.677  30.992  34.187  1.00  0.00     0.167 HD
ATOM     68  C   UNL A   1      39.007  33.179  34.884  1.00  0.00     0.074 A 
ATOM     69  C   UNL A   1      37.980  34.199  34.813  1.00  0.00     0.031 C 
ATOM     70  C   UNL A   1      39.826  32.996  35.948  1.00  0.00     0.031 A 
BRANCH  57  71
ATOM     71  C   UNL A   1      43.847  28.346  35.279  1.00  0.00    -0.014 A 
ATOM     72  C   UNL A   1      45.197  28.698  35.094  1.00  0.00     0.010 A 
ATOM     73  C   UNL A   1      43.535  27.213  36.053  1.00  0.00     0.010 A 
ATOM     74  C   UNL A   1      46.215  27.908  35.632  1.00  0.00     0.020 A 
ATOM     75  C   UNL A   1      44.551  26.434  36.615  1.00  0.00     0.020 A 
ATOM     76  C   UNL A   1      45.885  26.776  36.385  1.00  0.00     0.054 A 
BRANCH  76  77
ATOM     77  S   UNL A   1      47.226  25.774  37.083  1.00  0.00     0.124 S 
ATOM     78  O   UNL A   1      47.617  24.956  35.936  1.00  0.00    -0.237 OA
ATOM     79  O   UNL A   1      48.200  26.782  37.496  1.00  0.00    -0.237 OA
ATOM     80  O   UNL A   1      46.582  25.049  38.175  1.00  0.00    -0.744 OA
ENDBRANCH  76  77
ENDBRANCH  57  71
BRANCH  58  81
ATOM     81  C   UNL A   1      36.410  33.450  30.968  1.00  0.00    -0.014 A 
ATOM     82  C   UNL A   1      36.604  34.114  29.743  1.00  0.00     0.010 A 
ATOM     83  C   UNL A   1      35.147  33.505  31.583  1.00  0.00     0.010 A 
ATOM     84  C   UNL A   1      35.561  34.834  29.155  1.00  0.00     0.020 A 
ATOM     85  C   UNL A   1      34.094  34.204  30.985  1.00  0.00     0.020 A 
ATOM     86  C   UNL A   1      34.313  34.875  29.780  1.00  0.00     0.054 A 
BRANCH  86  87
ATOM     87  S   UNL A   1      32.959  35.778  28.976  1.00  0.00     0.124 S 
ATOM     88  O   UNL A   1      33.676  36.836  28.274  1.00  0.00    -0.237 OA
ATOM     89  O   UNL A   1      32.353  34.753  28.130  1.00  0.00    -0.237 OA
ATOM     90  O   UNL A   1      32.131  36.218  30.097  1.00  0.00    -0.744 OA
ENDBRANCH  86  87
ENDBRANCH  58  81
BRANCH  70  91
ATOM     91  C   UNL A   1      39.669  33.938  37.110  1.00  0.00    -0.014 A 
ATOM     92  C   UNL A   1      38.869  33.602  38.214  1.00  0.00     0.010 A 
ATOM     93  C   UNL A   1      40.384  35.151  37.119  1.00  0.00     0.010 A 
ATOM     94  C   UNL A   1      38.764  34.476  39.299  1.00  0.00     0.020 A 
ATOM     95  C   UNL A   1      40.300  36.015  38.212  1.00  0.00     0.020 A 
ATOM     96  C   UNL A   1      39.480  35.678  39.291  1.00  0.00     0.054 A 
BRANCH  96  97
ATOM     97  S   UNL A   1      39.369  36.773  40.733  1.00  0.00     0.124 S 
ATOM     98  O   UNL A   1      38.710  35.917  41.715  1.00  0.00    -0.237 OA
ATOM     99  O   UNL A   1      40.768  37.085  41.009  1.00  0.00    -0.237 OA
ATOM    100  O   UNL A   1      38.570  37.898  40.251  1.00  0.00    -0.744 OA
ENDBRANCH  96  97
ENDBRANCH  70  91
ENDBRANCH  44  45
ENDBRANCH  36  39
ENDBRANCH  34  35
ENDBRANCH  33  34
ENDBRANCH  32  33
ENDBRANCH   1  32
TORSDOF 20
ENDMDL
MODEL 3
REMARK VINA RESULT:     -10.9      1.184      8.058
REMARK SMILES C[NH+](C)CCc1nc(Nc2ccc(O)c(C(=O)NCCCCNC(=O)c3ccc(-c4c5nc(c(-c6ccc(S(=O)(=O)[O-])cc6)c6ccc([nH]6)c(-c6ccc(S(=O)(=O)[O-])cc6)c6nc(c(-c7ccc(S(=O)(=O)[O-])cc7)c7ccc4[nH]7)C=C6)C=C5)cc3)c2)c2ccccc2n1
REMARK SMILES IDX 19 1 18 2 16 3 17 4 15 6 10 7 11 8 86 9 12 10 13 11 9 12
REMARK SMILES IDX 8 14 6 15 7 16 93 17 92 18 87 19 91 20 88 21 90 22 89 23
REMARK SMILES IDX 5 24 4 25 2 26 1 27 3 28 14 30 20 32 21 33 22 34 23 35 24 36
REMARK SMILES IDX 25 38 26 39 27 40 85 41 28 42 84 43 29 44 30 45 31 46 78 47
REMARK SMILES IDX 32 48 83 49 77 50 79 51 33 52 82 53 76 54 75 55 34 57 64 58
REMARK SMILES IDX 45 59 63 60 46 61 49 62 62 63 80 64 47 65 48 66 61 68 81 69
REMARK SMILES IDX 50 70 35 71 36 72 44 73 37 74 43 75 38 76 39 77 40 78 41 79
REMARK SMILES IDX 42 80 65 81 66 82 74 83 67 84 73 85 68 86 69 87 70 88 71 89
REMARK SMILES IDX 72 90 51 91 52 92 60 93 53 94 59 95 54 96 55 97 56 98 57 99
REMARK SMILES IDX 58 100
REMARK H PARENT 18 5 9 13 2 29 14 31 23 37 79 56 49 67
REMARK Flexibility Score: inf
ROOT
ATOM      1  C   UNL A   1      34.165  23.922  22.709  1.00  0.00     0.116 C 
ENDROOT
BRANCH   1   2
ATOM      2  N   UNL A   1      33.272  22.865  22.290  1.00  0.00    -0.352 N 
ATOM      3  C   UNL A   1      32.256  22.208  22.930  1.00  0.00     0.255 C 
ATOM      4  O   UNL A   1      31.741  21.277  22.299  1.00  0.00    -0.269 OA
ATOM      5  H   UNL A   1      33.423  22.561  21.366  1.00  0.00     0.163 HD
BRANCH   3   6
ATOM      6  C   UNL A   1      31.669  22.561  24.264  1.00  0.00     0.083 A 
ATOM      7  C   UNL A   1      30.408  24.338  25.420  1.00  0.00     0.041 A 
ATOM      8  C   UNL A   1      30.449  23.591  26.595  1.00  0.00     0.030 A 
ATOM      9  C   UNL A   1      31.031  23.821  24.279  1.00  0.00     0.043 A 
ATOM     10  C   UNL A   1      31.043  22.333  26.608  1.00  0.00     0.049 A 
ATOM     11  C   UNL A   1      31.627  21.811  25.446  1.00  0.00     0.128 A 
BRANCH   7  12
ATOM     12  N   UNL A   1      29.825  25.616  25.379  1.00  0.00    -0.340 N 
ATOM     13  H   UNL A   1      28.970  25.730  25.854  1.00  0.00     0.168 HD
BRANCH  12  14
ATOM     14  C   UNL A   1      30.345  26.751  24.724  1.00  0.00     0.142 A 
ATOM     15  C   UNL A   1      29.976  28.501  23.282  1.00  0.00     0.137 A 
ATOM     16  N   UNL A   1      29.574  27.333  23.789  1.00  0.00    -0.215 NA
ATOM     17  N   UNL A   1      31.153  29.083  23.559  1.00  0.00    -0.233 NA
ATOM     18  C   UNL A   1      31.948  28.465  24.440  1.00  0.00     0.076 A 
ATOM     19  C   UNL A   1      31.596  27.271  25.081  1.00  0.00     0.043 A 
ATOM     20  C   UNL A   1      33.168  29.049  24.756  1.00  0.00     0.029 A 
ATOM     21  C   UNL A   1      32.485  26.688  26.021  1.00  0.00     0.014 A 
ATOM     22  C   UNL A   1      34.042  28.483  25.689  1.00  0.00     0.002 A 
ATOM     23  C   UNL A   1      33.700  27.297  26.324  1.00  0.00     0.001 A 
BRANCH  15  24
ATOM     24  C   UNL A   1      29.000  29.238  22.413  1.00  0.00     0.138 C 
BRANCH  24  25
ATOM     25  C   UNL A   1      29.635  30.394  21.611  1.00  0.00     0.269 C 
BRANCH  25  26
ATOM     26  N   UNL A   1      29.132  31.772  21.771  1.00  0.00    -0.339 N 
ATOM     27  C   UNL A   1      28.112  32.133  20.790  1.00  0.00     0.332 C 
ATOM     28  C   UNL A   1      28.688  32.072  23.126  1.00  0.00     0.332 C 
ATOM     29  H   UNL A   1      29.945  32.360  21.588  1.00  0.00     0.347 HD
ENDBRANCH  25  26
ENDBRANCH  24  25
ENDBRANCH  15  24
ENDBRANCH  12  14
ENDBRANCH   7  12
BRANCH  11  30
ATOM     30  O   UNL A   1      32.089  20.534  25.532  1.00  0.00    -0.507 OA
ATOM     31  H   UNL A   1      31.973  20.046  26.323  1.00  0.00     0.293 HD
ENDBRANCH  11  30
ENDBRANCH   3   6
ENDBRANCH   1   2
BRANCH   1  32
ATOM     32  C   UNL A   1      35.384  23.328  23.423  1.00  0.00     0.023 C 
BRANCH  32  33
ATOM     33  C   UNL A   1      35.371  23.477  24.943  1.00  0.00     0.023 C 
BRANCH  33  34
ATOM     34  C   UNL A   1      36.661  24.027  25.534  1.00  0.00     0.116 C 
BRANCH  34  35
ATOM     35  N   UNL A   1      37.737  23.049  25.587  1.00  0.00    -0.352 N 
ATOM     36  C   UNL A   1      38.979  23.178  26.167  1.00  0.00     0.251 C 
ATOM     37  H   UNL A   1      37.553  22.184  25.153  1.00  0.00     0.163 HD
ATOM     38  O   UNL A   1      39.815  22.291  26.052  1.00  0.00    -0.269 OA
BRANCH  36  39
ATOM     39  C   UNL A   1      39.297  24.428  26.884  1.00  0.00     0.039 A 
ATOM     40  C   UNL A   1      38.888  24.563  28.212  1.00  0.00     0.014 A 
ATOM     41  C   UNL A   1      40.053  25.427  26.267  1.00  0.00     0.014 A 
ATOM     42  C   UNL A   1      39.303  25.674  28.948  1.00  0.00     0.010 A 
ATOM     43  C   UNL A   1      40.523  26.497  27.021  1.00  0.00     0.010 A 
ATOM     44  C   UNL A   1      40.156  26.627  28.368  1.00  0.00    -0.014 A 
BRANCH  44  45
ATOM     45  C   UNL A   1      40.683  27.769  29.155  1.00  0.00     0.031 A 
ATOM     46  C   UNL A   1      39.838  28.995  29.354  1.00  0.00     0.074 A 
ATOM     47  C   UNL A   1      41.944  27.727  29.628  1.00  0.00     0.049 A 
ATOM     48  N   UNL A   1      40.145  30.120  29.945  1.00  0.00    -0.248 NA
ATOM     49  C   UNL A   1      38.477  28.963  28.792  1.00  0.00     0.031 C 
ATOM     50  C   UNL A   1      42.877  26.608  29.462  1.00  0.00     0.029 A 
ATOM     51  N   UNL A   1      42.663  28.654  30.339  1.00  0.00    -0.354 N 
ATOM     52  C   UNL A   1      39.027  30.934  29.812  1.00  0.00     0.074 A 
ATOM     53  C   UNL A   1      38.052  30.192  29.042  1.00  0.00     0.031 C 
ATOM     54  C   UNL A   1      44.033  26.905  30.077  1.00  0.00     0.029 A 
ATOM     55  C   UNL A   1      43.939  28.246  30.647  1.00  0.00     0.049 A 
ATOM     56  H   UNL A   1      42.299  29.530  30.602  1.00  0.00     0.167 HD
ATOM     57  C   UNL A   1      38.822  32.178  30.303  1.00  0.00     0.031 A 
ATOM     58  C   UNL A   1      44.923  28.881  31.312  1.00  0.00     0.031 A 
ATOM     59  C   UNL A   1      39.787  32.907  31.080  1.00  0.00     0.049 A 
ATOM     60  C   UNL A   1      44.671  30.263  31.849  1.00  0.00     0.074 A 
ATOM     61  C   UNL A   1      39.658  34.156  31.663  1.00  0.00     0.029 A 
ATOM     62  N   UNL A   1      41.060  32.451  31.386  1.00  0.00    -0.354 N 
ATOM     63  N   UNL A   1      43.587  30.995  31.758  1.00  0.00    -0.248 NA
ATOM     64  C   UNL A   1      45.770  30.899  32.585  1.00  0.00     0.031 C 
ATOM     65  C   UNL A   1      40.867  34.470  32.293  1.00  0.00     0.029 A 
ATOM     66  C   UNL A   1      41.733  33.398  32.140  1.00  0.00     0.049 A 
ATOM     67  H   UNL A   1      41.431  31.583  31.109  1.00  0.00     0.167 HD
ATOM     68  C   UNL A   1      43.865  32.169  32.449  1.00  0.00     0.074 A 
ATOM     69  C   UNL A   1      45.215  32.044  32.961  1.00  0.00     0.031 C 
ATOM     70  C   UNL A   1      43.074  33.252  32.644  1.00  0.00     0.031 A 
BRANCH  57  71
ATOM     71  C   UNL A   1      37.495  32.825  30.010  1.00  0.00    -0.014 A 
ATOM     72  C   UNL A   1      36.427  32.724  30.920  1.00  0.00     0.010 A 
ATOM     73  C   UNL A   1      37.318  33.560  28.824  1.00  0.00     0.010 A 
ATOM     74  C   UNL A   1      35.191  33.306  30.628  1.00  0.00     0.020 A 
ATOM     75  C   UNL A   1      36.090  34.167  28.541  1.00  0.00     0.020 A 
ATOM     76  C   UNL A   1      35.029  34.019  29.436  1.00  0.00     0.054 A 
BRANCH  76  77
ATOM     77  S   UNL A   1      33.418  34.777  29.087  1.00  0.00     0.124 S 
ATOM     78  O   UNL A   1      33.811  36.069  28.526  1.00  0.00    -0.237 OA
ATOM     79  O   UNL A   1      32.820  33.838  28.140  1.00  0.00    -0.237 OA
ATOM     80  O   UNL A   1      32.773  34.835  30.395  1.00  0.00    -0.744 OA
ENDBRANCH  76  77
ENDBRANCH  57  71
BRANCH  58  81
ATOM     81  C   UNL A   1      46.231  28.206  31.530  1.00  0.00    -0.014 A 
ATOM     82  C   UNL A   1      47.272  28.358  30.597  1.00  0.00     0.010 A 
ATOM     83  C   UNL A   1      46.446  27.414  32.672  1.00  0.00     0.010 A 
ATOM     84  C   UNL A   1      48.498  27.716  30.792  1.00  0.00     0.020 A 
ATOM     85  C   UNL A   1      47.679  26.790  32.883  1.00  0.00     0.020 A 
ATOM     86  C   UNL A   1      48.693  26.935  31.934  1.00  0.00     0.054 A 
BRANCH  86  87
ATOM     87  S   UNL A   1      50.308  26.148  32.191  1.00  0.00     0.124 S 
ATOM     88  O   UNL A   1      51.211  27.088  31.536  1.00  0.00    -0.237 OA
ATOM     89  O   UNL A   1      50.403  26.087  33.647  1.00  0.00    -0.237 OA
ATOM     90  O   UNL A   1      50.163  24.852  31.530  1.00  0.00    -0.744 OA
ENDBRANCH  86  87
ENDBRANCH  58  81
BRANCH  70  91
ATOM     91  C   UNL A   1      43.633  34.375  33.474  1.00  0.00    -0.014 A 
ATOM     92  C   UNL A   1      44.331  35.439  32.880  1.00  0.00     0.010 A 
ATOM     93  C   UNL A   1      43.403  34.391  34.862  1.00  0.00     0.010 A 
ATOM     94  C   UNL A   1      44.813  36.490  33.664  1.00  0.00     0.020 A 
ATOM     95  C   UNL A   1      43.862  35.451  35.646  1.00  0.00     0.020 A 
ATOM     96  C   UNL A   1      44.576  36.489  35.043  1.00  0.00     0.054 A 
BRANCH  96  97
ATOM     97  S   UNL A   1      45.167  37.889  36.034  1.00  0.00     0.124 S 
ATOM     98  O   UNL A   1      45.048  37.370  37.393  1.00  0.00    -0.237 OA
ATOM     99  O   UNL A   1      46.532  38.074  35.549  1.00  0.00    -0.237 OA
ATOM    100  O   UNL A   1      44.241  38.968  35.693  1.00  0.00    -0.744 OA
ENDBRANCH  96  97
ENDBRANCH  70  91
ENDBRANCH  44  45
ENDBRANCH  36  39
ENDBRANCH  34  35
ENDBRANCH  33  34
ENDBRANCH  32  33
ENDBRANCH   1  32
TORSDOF 20
ENDMDL
