MODEL 1
REMARK VINA RESULT:     -11.8      0.000      0.000
REMARK SMILES Cc1cccc(S(=O)(=O)Nc2cc(C(=O)NCCCCNC(=O)c3ccc(-c4c5nc(c(-c6ccc(S(=O)(=O)[O-])cc6)c6ccc([nH]6)c(-c6ccc(S(=O)(=O)[O-])cc6)c6nc(c(-c7ccc(S(=O)(=O)[O-])cc7)c7ccc4[nH]7)C=C6)C=C5)cc3)ccc2N2CCC[C@H](C[NH+]3CCCC3)C2)c1
REMARK SMILES IDX 18 1 17 2 16 3 14 4 15 5 13 7 11 8 12 9 86 10 85 11 84 12
REMARK SMILES IDX 10 13 7 15 8 16 9 17 6 18 1 19 2 20 3 21 99 22 4 23 5 24
REMARK SMILES IDX 87 25 88 26 98 27 89 28 91 29 90 30 92 31 93 32 94 33 97 34
REMARK SMILES IDX 95 36 96 37 19 38 20 39 21 40 22 41 23 43 24 44 25 45 83 46
REMARK SMILES IDX 26 47 82 48 27 49 28 50 29 51 76 52 30 53 81 54 75 55 77 56
REMARK SMILES IDX 31 57 80 58 74 59 73 60 32 62 62 63 43 64 61 65 44 66 47 67
REMARK SMILES IDX 60 68 78 69 45 70 46 71 59 73 79 74 48 75 33 76 34 77 42 78
REMARK SMILES IDX 35 79 41 80 36 81 37 82 38 83 39 84 40 85 63 86 64 87 72 88
REMARK SMILES IDX 65 89 71 90 66 91 67 92 68 93 69 94 70 95 49 96 50 97 58 98
REMARK SMILES IDX 51 99 57 100 52 101 53 102 54 103 55 104 56 105
REMARK H PARENT 16 6 10 14 93 35 21 42 77 61 47 72
REMARK Flexibility Score: inf
ROOT
ATOM      1  C   UNL A   1      40.134  25.065  27.127  1.00  0.00     0.023 C 
ENDROOT
BRANCH   1   2
ATOM      2  C   UNL A   1      38.976  24.113  27.456  1.00  0.00     0.116 C 
BRANCH   2   3
ATOM      3  N   UNL A   1      39.075  22.857  26.726  1.00  0.00    -0.352 N 
ATOM      4  C   UNL A   1      38.230  22.196  25.873  1.00  0.00     0.251 C 
ATOM      5  O   UNL A   1      38.631  21.138  25.382  1.00  0.00    -0.269 OA
ATOM      6  H   UNL A   1      39.924  22.384  26.876  1.00  0.00     0.163 HD
BRANCH   4   7
ATOM      7  C   UNL A   1      36.891  22.705  25.459  1.00  0.00     0.042 A 
ATOM      8  C   UNL A   1      34.615  22.445  24.659  1.00  0.00     0.073 A 
ATOM      9  C   UNL A   1      35.910  21.945  24.830  1.00  0.00     0.042 A 
ATOM     10  C   UNL A   1      34.304  23.787  24.952  1.00  0.00     0.061 A 
ATOM     11  C   UNL A   1      35.328  24.579  25.489  1.00  0.00     0.029 A 
ATOM     12  C   UNL A   1      36.589  24.041  25.768  1.00  0.00     0.016 A 
BRANCH   8  13
ATOM     13  N   UNL A   1      33.606  21.518  24.239  1.00  0.00    -0.277 N 
ATOM     14  H   UNL A   1      33.325  21.486  23.295  1.00  0.00     0.180 HD
BRANCH  13  15
ATOM     15  S   UNL A   1      32.892  20.466  25.389  1.00  0.00     0.261 S 
ATOM     16  O   UNL A   1      31.464  20.648  25.227  1.00  0.00    -0.201 OA
ATOM     17  O   UNL A   1      33.497  20.771  26.671  1.00  0.00    -0.201 OA
BRANCH  15  18
ATOM     18  C   UNL A   1      33.272  18.760  25.041  1.00  0.00     0.088 A 
ATOM     19  C   UNL A   1      32.184  15.212  25.944  1.00  0.00     0.044 C 
ATOM     20  C   UNL A   1      32.896  16.366  25.302  1.00  0.00    -0.050 A 
ATOM     21  C   UNL A   1      34.059  16.114  24.579  1.00  0.00     0.003 A 
ATOM     22  C   UNL A   1      32.464  17.693  25.463  1.00  0.00     0.025 A 
ATOM     23  C   UNL A   1      34.810  17.174  24.085  1.00  0.00     0.002 A 
ATOM     24  C   UNL A   1      34.435  18.493  24.318  1.00  0.00     0.022 A 
ENDBRANCH  15  18
ENDBRANCH  13  15
ENDBRANCH   8  13
BRANCH  10  25
ATOM     25  N   UNL A   1      33.066  24.366  24.738  1.00  0.00    -0.369 N 
ATOM     26  C   UNL A   1      32.713  24.748  23.377  1.00  0.00     0.116 C 
ATOM     27  C   UNL A   1      31.999  24.296  25.731  1.00  0.00     0.126 C 
ATOM     28  C   UNL A   1      31.962  26.076  23.407  1.00  0.00     0.022 C 
ATOM     29  C   UNL A   1      31.244  25.632  25.816  1.00  0.00     0.064 C 
ATOM     30  C   UNL A   1      30.799  26.034  24.399  1.00  0.00     0.013 C 
BRANCH  29  31
ATOM     31  C   UNL A   1      32.122  26.656  26.583  1.00  0.00     0.267 C 
BRANCH  31  32
ATOM     32  N   UNL A   1      32.385  27.976  26.003  1.00  0.00    -0.335 N 
ATOM     33  C   UNL A   1      33.792  28.287  25.763  1.00  0.00     0.262 C 
ATOM     34  C   UNL A   1      31.774  29.110  26.684  1.00  0.00     0.262 C 
ATOM     35  H   UNL A   1      31.917  27.859  25.105  1.00  0.00     0.348 HD
ATOM     36  C   UNL A   1      34.186  29.221  26.889  1.00  0.00     0.067 C 
ATOM     37  C   UNL A   1      32.913  29.994  27.180  1.00  0.00     0.067 C 
ENDBRANCH  31  32
ENDBRANCH  29  31
ENDBRANCH  10  25
ENDBRANCH   4   7
ENDBRANCH   2   3
ENDBRANCH   1   2
BRANCH   1  38
ATOM     38  C   UNL A   1      40.674  25.813  28.346  1.00  0.00     0.023 C 
BRANCH  38  39
ATOM     39  C   UNL A   1      39.585  26.556  29.103  1.00  0.00     0.116 C 
BRANCH  39  40
ATOM     40  N   UNL A   1      38.629  27.239  28.245  1.00  0.00    -0.352 N 
ATOM     41  C   UNL A   1      38.599  28.616  28.088  1.00  0.00     0.251 C 
ATOM     42  H   UNL A   1      37.971  26.697  27.752  1.00  0.00     0.163 HD
ATOM     43  O   UNL A   1      37.572  29.281  28.025  1.00  0.00    -0.269 OA
BRANCH  41  44
ATOM     44  C   UNL A   1      39.916  29.248  27.865  1.00  0.00     0.039 A 
ATOM     45  C   UNL A   1      40.595  28.957  26.677  1.00  0.00     0.014 A 
ATOM     46  C   UNL A   1      40.559  29.865  28.935  1.00  0.00     0.014 A 
ATOM     47  C   UNL A   1      41.973  29.139  26.617  1.00  0.00     0.010 A 
ATOM     48  C   UNL A   1      41.933  29.949  28.911  1.00  0.00     0.010 A 
ATOM     49  C   UNL A   1      42.642  29.548  27.768  1.00  0.00    -0.014 A 
BRANCH  49  50
ATOM     50  C   UNL A   1      44.088  29.540  27.922  1.00  0.00     0.031 A 
ATOM     51  C   UNL A   1      44.902  30.562  27.235  1.00  0.00     0.074 A 
ATOM     52  C   UNL A   1      44.652  28.711  28.826  1.00  0.00     0.049 A 
ATOM     53  N   UNL A   1      46.184  30.518  27.113  1.00  0.00    -0.248 NA
ATOM     54  C   UNL A   1      44.301  31.708  26.562  1.00  0.00     0.031 C 
ATOM     55  C   UNL A   1      45.988  28.814  29.407  1.00  0.00     0.029 A 
ATOM     56  N   UNL A   1      44.197  27.461  29.240  1.00  0.00    -0.354 N 
ATOM     57  C   UNL A   1      46.596  31.754  26.670  1.00  0.00     0.074 A 
ATOM     58  C   UNL A   1      45.387  32.407  26.227  1.00  0.00     0.031 C 
ATOM     59  C   UNL A   1      46.367  27.597  29.822  1.00  0.00     0.029 A 
ATOM     60  C   UNL A   1      45.338  26.661  29.394  1.00  0.00     0.049 A 
ATOM     61  H   UNL A   1      43.263  27.193  29.394  1.00  0.00     0.167 HD
ATOM     62  C   UNL A   1      47.886  32.139  26.889  1.00  0.00     0.031 A 
ATOM     63  C   UNL A   1      45.558  25.501  28.714  1.00  0.00     0.031 A 
ATOM     64  C   UNL A   1      48.700  31.014  27.368  1.00  0.00     0.049 A 
ATOM     65  C   UNL A   1      46.849  25.591  27.934  1.00  0.00     0.074 A 
ATOM     66  C   UNL A   1      49.215  30.670  28.607  1.00  0.00     0.029 A 
ATOM     67  N   UNL A   1      48.823  29.877  26.566  1.00  0.00    -0.354 N 
ATOM     68  N   UNL A   1      47.397  26.727  27.586  1.00  0.00    -0.248 NA
ATOM     69  C   UNL A   1      47.648  24.439  27.533  1.00  0.00     0.031 C 
ATOM     70  C   UNL A   1      49.541  29.285  28.575  1.00  0.00     0.029 A 
ATOM     71  C   UNL A   1      49.266  28.798  27.307  1.00  0.00     0.049 A 
ATOM     72  H   UNL A   1      48.623  29.849  25.603  1.00  0.00     0.167 HD
ATOM     73  C   UNL A   1      48.621  26.491  27.027  1.00  0.00     0.074 A 
ATOM     74  C   UNL A   1      48.718  25.040  26.979  1.00  0.00     0.031 C 
ATOM     75  C   UNL A   1      49.482  27.494  26.683  1.00  0.00     0.031 A 
BRANCH  62  76
ATOM     76  C   UNL A   1      48.312  33.600  26.955  1.00  0.00    -0.014 A 
ATOM     77  C   UNL A   1      48.515  34.225  28.204  1.00  0.00     0.010 A 
ATOM     78  C   UNL A   1      48.444  34.440  25.833  1.00  0.00     0.010 A 
ATOM     79  C   UNL A   1      48.748  35.610  28.323  1.00  0.00     0.020 A 
ATOM     80  C   UNL A   1      48.648  35.825  25.932  1.00  0.00     0.020 A 
ATOM     81  C   UNL A   1      48.790  36.407  27.181  1.00  0.00     0.054 A 
BRANCH  81  82
ATOM     82  S   UNL A   1      49.035  38.196  27.334  1.00  0.00     0.124 S 
ATOM     83  O   UNL A   1      48.497  38.475  28.663  1.00  0.00    -0.237 OA
ATOM     84  O   UNL A   1      50.481  38.327  27.196  1.00  0.00    -0.237 OA
ATOM     85  O   UNL A   1      48.255  38.749  26.227  1.00  0.00    -0.744 OA
ENDBRANCH  81  82
ENDBRANCH  62  76
BRANCH  63  86
ATOM     86  C   UNL A   1      44.313  24.768  28.347  1.00  0.00    -0.014 A 
ATOM     87  C   UNL A   1      43.982  24.748  26.970  1.00  0.00     0.010 A 
ATOM     88  C   UNL A   1      43.807  23.751  29.175  1.00  0.00     0.010 A 
ATOM     89  C   UNL A   1      43.353  23.635  26.400  1.00  0.00     0.020 A 
ATOM     90  C   UNL A   1      43.161  22.640  28.604  1.00  0.00     0.020 A 
ATOM     91  C   UNL A   1      43.015  22.556  27.214  1.00  0.00     0.054 A 
BRANCH  91  92
ATOM     92  S   UNL A   1      42.561  20.981  26.415  1.00  0.00     0.124 S 
ATOM     93  O   UNL A   1      43.829  20.538  25.845  1.00  0.00    -0.237 OA
ATOM     94  O   UNL A   1      42.060  20.191  27.543  1.00  0.00    -0.237 OA
ATOM     95  O   UNL A   1      41.544  21.380  25.449  1.00  0.00    -0.744 OA
ENDBRANCH  91  92
ENDBRANCH  63  86
BRANCH  75  96
ATOM     96  C   UNL A   1      50.690  27.317  25.798  1.00  0.00    -0.014 A 
ATOM     97  C   UNL A   1      50.607  26.996  24.434  1.00  0.00     0.010 A 
ATOM     98  C   UNL A   1      51.969  27.643  26.306  1.00  0.00     0.010 A 
ATOM     99  C   UNL A   1      51.750  26.946  23.628  1.00  0.00     0.020 A 
ATOM    100  C   UNL A   1      53.109  27.644  25.499  1.00  0.00     0.020 A 
ATOM    101  C   UNL A   1      52.994  27.273  24.165  1.00  0.00     0.054 A 
BRANCH 101 102
ATOM    102  S   UNL A   1      54.448  27.303  23.089  1.00  0.00     0.124 S 
ATOM    103  O   UNL A   1      54.006  26.481  21.966  1.00  0.00    -0.237 OA
ATOM    104  O   UNL A   1      54.612  28.726  22.797  1.00  0.00    -0.237 OA
ATOM    105  O   UNL A   1      55.499  26.721  23.920  1.00  0.00    -0.744 OA
ENDBRANCH 101 102
ENDBRANCH  75  96
ENDBRANCH  49  50
ENDBRANCH  41  44
ENDBRANCH  39  40
ENDBRANCH  38  39
ENDBRANCH   1  38
TORSDOF 20
ENDMDL
MODEL 2
REMARK VINA RESULT:     -10.8      5.921      9.255
REMARK SMILES Cc1cccc(S(=O)(=O)Nc2cc(C(=O)NCCCCNC(=O)c3ccc(-c4c5nc(c(-c6ccc(S(=O)(=O)[O-])cc6)c6ccc([nH]6)c(-c6ccc(S(=O)(=O)[O-])cc6)c6nc(c(-c7ccc(S(=O)(=O)[O-])cc7)c7ccc4[nH]7)C=C6)C=C5)cc3)ccc2N2CCC[C@H](C[NH+]3CCCC3)C2)c1
REMARK SMILES IDX 18 1 17 2 16 3 14 4 15 5 13 7 11 8 12 9 86 10 85 11 84 12
REMARK SMILES IDX 10 13 7 15 8 16 9 17 6 18 1 19 2 20 3 21 99 22 4 23 5 24
REMARK SMILES IDX 87 25 88 26 98 27 89 28 91 29 90 30 92 31 93 32 94 33 97 34
REMARK SMILES IDX 95 36 96 37 19 38 20 39 21 40 22 41 23 43 24 44 25 45 83 46
REMARK SMILES IDX 26 47 82 48 27 49 28 50 29 51 76 52 30 53 81 54 75 55 77 56
REMARK SMILES IDX 31 57 80 58 74 59 73 60 32 62 62 63 43 64 61 65 44 66 47 67
REMARK SMILES IDX 60 68 78 69 45 70 46 71 59 73 79 74 48 75 33 76 34 77 42 78
REMARK SMILES IDX 35 79 41 80 36 81 37 82 38 83 39 84 40 85 63 86 64 87 72 88
REMARK SMILES IDX 65 89 71 90 66 91 67 92 68 93 69 94 70 95 49 96 50 97 58 98
REMARK SMILES IDX 51 99 57 100 52 101 53 102 54 103 55 104 56 105
REMARK H PARENT 16 6 10 14 93 35 21 42 77 61 47 72
REMARK Flexibility Score: inf
ROOT
ATOM      1  C   UNL A   1      40.485  21.829  27.137  1.00  0.00     0.023 C 
ENDROOT
BRANCH   1   2
ATOM      2  C   UNL A   1      39.293  22.315  26.303  1.00  0.00     0.116 C 
BRANCH   2   3
ATOM      3  N   UNL A   1      38.459  21.213  25.843  1.00  0.00    -0.352 N 
ATOM      4  C   UNL A   1      37.210  21.148  25.283  1.00  0.00     0.251 C 
ATOM      5  O   UNL A   1      36.785  20.034  24.968  1.00  0.00    -0.269 OA
ATOM      6  H   UNL A   1      38.880  20.331  25.958  1.00  0.00     0.163 HD
BRANCH   4   7
ATOM      7  C   UNL A   1      36.366  22.340  24.979  1.00  0.00     0.042 A 
ATOM      8  C   UNL A   1      34.475  23.464  23.957  1.00  0.00     0.073 A 
ATOM      9  C   UNL A   1      35.344  22.372  24.036  1.00  0.00     0.042 A 
ATOM     10  C   UNL A   1      34.705  24.638  24.701  1.00  0.00     0.061 A 
ATOM     11  C   UNL A   1      35.800  24.638  25.575  1.00  0.00     0.029 A 
ATOM     12  C   UNL A   1      36.597  23.499  25.736  1.00  0.00     0.016 A 
BRANCH   8  13
ATOM     13  N   UNL A   1      33.306  23.312  23.142  1.00  0.00    -0.277 N 
ATOM     14  H   UNL A   1      33.281  23.697  22.236  1.00  0.00     0.180 HD
BRANCH  13  15
ATOM     15  S   UNL A   1      31.953  22.455  23.755  1.00  0.00     0.261 S 
ATOM     16  O   UNL A   1      30.832  22.905  22.954  1.00  0.00    -0.201 OA
ATOM     17  O   UNL A   1      31.927  22.679  25.186  1.00  0.00    -0.201 OA
BRANCH  15  18
ATOM     18  C   UNL A   1      32.129  20.697  23.516  1.00  0.00     0.088 A 
ATOM     19  C   UNL A   1      33.059  17.507  25.398  1.00  0.00     0.044 C 
ATOM     20  C   UNL A   1      32.616  18.447  24.317  1.00  0.00    -0.050 A 
ATOM     21  C   UNL A   1      32.560  17.980  23.006  1.00  0.00     0.003 A 
ATOM     22  C   UNL A   1      32.321  19.797  24.575  1.00  0.00     0.025 A 
ATOM     23  C   UNL A   1      32.281  18.861  21.968  1.00  0.00     0.002 A 
ATOM     24  C   UNL A   1      32.077  20.216  22.209  1.00  0.00     0.022 A 
ENDBRANCH  15  18
ENDBRANCH  13  15
ENDBRANCH   8  13
BRANCH  10  25
ATOM     25  N   UNL A   1      33.929  25.780  24.616  1.00  0.00    -0.369 N 
ATOM     26  C   UNL A   1      33.745  26.388  23.304  1.00  0.00     0.116 C 
ATOM     27  C   UNL A   1      33.036  26.188  25.695  1.00  0.00     0.126 C 
ATOM     28  C   UNL A   1      33.784  27.908  23.447  1.00  0.00     0.022 C 
ATOM     29  C   UNL A   1      33.079  27.712  25.892  1.00  0.00     0.064 C 
ATOM     30  C   UNL A   1      32.823  28.389  24.535  1.00  0.00     0.013 C 
BRANCH  29  31
ATOM     31  C   UNL A   1      34.400  28.086  26.615  1.00  0.00     0.267 C 
BRANCH  31  32
ATOM     32  N   UNL A   1      34.377  29.008  27.754  1.00  0.00    -0.335 N 
ATOM     33  C   UNL A   1      33.371  30.064  27.686  1.00  0.00     0.262 C 
ATOM     34  C   UNL A   1      35.652  29.611  28.118  1.00  0.00     0.262 C 
ATOM     35  H   UNL A   1      34.116  28.354  28.492  1.00  0.00     0.348 HD
ATOM     36  C   UNL A   1      34.137  31.312  27.293  1.00  0.00     0.067 C 
ATOM     37  C   UNL A   1      35.499  31.116  27.933  1.00  0.00     0.067 C 
ENDBRANCH  31  32
ENDBRANCH  29  31
ENDBRANCH  10  25
ENDBRANCH   4   7
ENDBRANCH   2   3
ENDBRANCH   1   2
BRANCH   1  38
ATOM     38  C   UNL A   1      40.847  22.766  28.288  1.00  0.00     0.023 C 
BRANCH  38  39
ATOM     39  C   UNL A   1      42.011  23.683  27.949  1.00  0.00     0.116 C 
BRANCH  39  40
ATOM     40  N   UNL A   1      41.664  24.771  27.049  1.00  0.00    -0.352 N 
ATOM     41  C   UNL A   1      40.633  25.665  27.300  1.00  0.00     0.251 C 
ATOM     42  H   UNL A   1      42.186  24.880  26.221  1.00  0.00     0.163 HD
ATOM     43  O   UNL A   1      39.858  26.080  26.447  1.00  0.00    -0.269 OA
BRANCH  41  44
ATOM     44  C   UNL A   1      40.596  26.205  28.674  1.00  0.00     0.039 A 
ATOM     45  C   UNL A   1      39.356  26.283  29.319  1.00  0.00     0.014 A 
ATOM     46  C   UNL A   1      41.713  26.872  29.168  1.00  0.00     0.014 A 
ATOM     47  C   UNL A   1      39.194  27.169  30.379  1.00  0.00     0.010 A 
ATOM     48  C   UNL A   1      41.527  27.820  30.150  1.00  0.00     0.010 A 
ATOM     49  C   UNL A   1      40.260  27.995  30.726  1.00  0.00    -0.014 A 
BRANCH  49  50
ATOM     50  C   UNL A   1      40.157  29.126  31.636  1.00  0.00     0.031 A 
ATOM     51  C   UNL A   1      39.570  30.394  31.163  1.00  0.00     0.074 A 
ATOM     52  C   UNL A   1      40.439  28.948  32.945  1.00  0.00     0.049 A 
ATOM     53  N   UNL A   1      39.635  31.514  31.797  1.00  0.00    -0.248 NA
ATOM     54  C   UNL A   1      38.900  30.504  29.872  1.00  0.00     0.031 C 
ATOM     55  C   UNL A   1      40.038  29.803  34.058  1.00  0.00     0.029 A 
ATOM     56  N   UNL A   1      41.349  28.059  33.510  1.00  0.00    -0.354 N 
ATOM     57  C   UNL A   1      38.751  32.379  31.192  1.00  0.00     0.074 A 
ATOM     58  C   UNL A   1      38.420  31.748  29.937  1.00  0.00     0.031 C 
ATOM     59  C   UNL A   1      40.898  29.617  35.070  1.00  0.00     0.029 A 
ATOM     60  C   UNL A   1      41.950  28.739  34.578  1.00  0.00     0.049 A 
ATOM     61  H   UNL A   1      41.534  27.136  33.219  1.00  0.00     0.167 HD
ATOM     62  C   UNL A   1      38.277  33.442  31.902  1.00  0.00     0.031 A 
ATOM     63  C   UNL A   1      43.288  28.974  34.683  1.00  0.00     0.031 A 
ATOM     64  C   UNL A   1      39.015  33.611  33.160  1.00  0.00     0.049 A 
ATOM     65  C   UNL A   1      43.549  30.458  34.789  1.00  0.00     0.074 A 
ATOM     66  C   UNL A   1      38.711  33.347  34.486  1.00  0.00     0.029 A 
ATOM     67  N   UNL A   1      40.393  33.831  33.114  1.00  0.00    -0.354 N 
ATOM     68  N   UNL A   1      42.706  31.366  34.369  1.00  0.00    -0.248 NA
ATOM     69  C   UNL A   1      44.733  31.041  35.411  1.00  0.00     0.031 C 
ATOM     70  C   UNL A   1      39.934  33.295  35.213  1.00  0.00     0.029 A 
ATOM     71  C   UNL A   1      40.975  33.571  34.340  1.00  0.00     0.049 A 
ATOM     72  H   UNL A   1      40.884  34.130  32.315  1.00  0.00     0.167 HD
ATOM     73  C   UNL A   1      43.150  32.605  34.732  1.00  0.00     0.074 A 
ATOM     74  C   UNL A   1      44.444  32.354  35.348  1.00  0.00     0.031 C 
ATOM     75  C   UNL A   1      42.413  33.739  34.542  1.00  0.00     0.031 A 
BRANCH  62  76
ATOM     76  C   UNL A   1      36.952  34.123  31.583  1.00  0.00    -0.014 A 
ATOM     77  C   UNL A   1      36.295  34.895  32.565  1.00  0.00     0.010 A 
ATOM     78  C   UNL A   1      36.254  33.973  30.368  1.00  0.00     0.010 A 
ATOM     79  C   UNL A   1      34.996  35.408  32.373  1.00  0.00     0.020 A 
ATOM     80  C   UNL A   1      34.951  34.451  30.169  1.00  0.00     0.020 A 
ATOM     81  C   UNL A   1      34.321  35.161  31.180  1.00  0.00     0.054 A 
BRANCH  81  82
ATOM     82  S   UNL A   1      32.630  35.771  30.952  1.00  0.00     0.124 S 
ATOM     83  O   UNL A   1      31.940  35.228  32.120  1.00  0.00    -0.237 OA
ATOM     84  O   UNL A   1      32.817  37.218  30.944  1.00  0.00    -0.237 OA
ATOM     85  O   UNL A   1      32.221  35.192  29.673  1.00  0.00    -0.744 OA
ENDBRANCH  81  82
ENDBRANCH  62  76
BRANCH  63  86
ATOM     86  C   UNL A   1      44.138  27.935  34.034  1.00  0.00    -0.014 A 
ATOM     87  C   UNL A   1      44.798  27.035  34.904  1.00  0.00     0.010 A 
ATOM     88  C   UNL A   1      43.896  27.533  32.709  1.00  0.00     0.010 A 
ATOM     89  C   UNL A   1      45.012  25.703  34.531  1.00  0.00     0.020 A 
ATOM     90  C   UNL A   1      44.125  26.200  32.328  1.00  0.00     0.020 A 
ATOM     91  C   UNL A   1      44.604  25.278  33.268  1.00  0.00     0.054 A 
BRANCH  91  92
ATOM     92  S   UNL A   1      44.531  23.487  32.941  1.00  0.00     0.124 S 
ATOM     93  O   UNL A   1      44.489  23.432  31.484  1.00  0.00    -0.237 OA
ATOM     94  O   UNL A   1      45.769  23.005  33.561  1.00  0.00    -0.237 OA
ATOM     95  O   UNL A   1      43.307  23.074  33.620  1.00  0.00    -0.744 OA
ENDBRANCH  91  92
ENDBRANCH  63  86
BRANCH  75  96
ATOM     96  C   UNL A   1      42.962  35.140  34.636  1.00  0.00    -0.014 A 
ATOM     97  C   UNL A   1      43.964  35.635  33.787  1.00  0.00     0.010 A 
ATOM     98  C   UNL A   1      42.339  36.067  35.504  1.00  0.00     0.010 A 
ATOM     99  C   UNL A   1      44.368  36.974  33.840  1.00  0.00     0.020 A 
ATOM    100  C   UNL A   1      42.700  37.416  35.532  1.00  0.00     0.020 A 
ATOM    101  C   UNL A   1      43.731  37.858  34.711  1.00  0.00     0.054 A 
BRANCH 101 102
ATOM    102  S   UNL A   1      44.193  39.607  34.699  1.00  0.00     0.124 S 
ATOM    103  O   UNL A   1      45.375  39.599  33.841  1.00  0.00    -0.237 OA
ATOM    104  O   UNL A   1      43.012  40.254  34.131  1.00  0.00    -0.237 OA
ATOM    105  O   UNL A   1      44.440  39.904  36.107  1.00  0.00    -0.744 OA
ENDBRANCH 101 102
ENDBRANCH  75  96
ENDBRANCH  49  50
ENDBRANCH  41  44
ENDBRANCH  39  40
ENDBRANCH  38  39
ENDBRANCH   1  38
TORSDOF 20
ENDMDL
MODEL 3
REMARK VINA RESULT:     -10.7      5.742     13.822
REMARK SMILES Cc1cccc(S(=O)(=O)Nc2cc(C(=O)NCCCCNC(=O)c3ccc(-c4c5nc(c(-c6ccc(S(=O)(=O)[O-])cc6)c6ccc([nH]6)c(-c6ccc(S(=O)(=O)[O-])cc6)c6nc(c(-c7ccc(S(=O)(=O)[O-])cc7)c7ccc4[nH]7)C=C6)C=C5)cc3)ccc2N2CCC[C@H](C[NH+]3CCCC3)C2)c1
REMARK SMILES IDX 18 1 17 2 16 3 14 4 15 5 13 7 11 8 12 9 86 10 85 11 84 12
REMARK SMILES IDX 10 13 7 15 8 16 9 17 6 18 1 19 2 20 3 21 99 22 4 23 5 24
REMARK SMILES IDX 87 25 88 26 98 27 89 28 91 29 90 30 92 31 93 32 94 33 97 34
REMARK SMILES IDX 95 36 96 37 19 38 20 39 21 40 22 41 23 43 24 44 25 45 83 46
REMARK SMILES IDX 26 47 82 48 27 49 28 50 29 51 76 52 30 53 81 54 75 55 77 56
REMARK SMILES IDX 31 57 80 58 74 59 73 60 32 62 62 63 43 64 61 65 44 66 47 67
REMARK SMILES IDX 60 68 78 69 45 70 46 71 59 73 79 74 48 75 33 76 34 77 42 78
REMARK SMILES IDX 35 79 41 80 36 81 37 82 38 83 39 84 40 85 63 86 64 87 72 88
REMARK SMILES IDX 65 89 71 90 66 91 67 92 68 93 69 94 70 95 49 96 50 97 58 98
REMARK SMILES IDX 51 99 57 100 52 101 53 102 54 103 55 104 56 105
REMARK H PARENT 16 6 10 14 93 35 21 42 77 61 47 72
REMARK Flexibility Score: inf
ROOT
ATOM      1  C   UNL A   1      36.775  33.561  29.029  1.00  0.00     0.023 C 
ENDROOT
BRANCH   1   2
ATOM      2  C   UNL A   1      38.249  33.246  29.315  1.00  0.00     0.116 C 
BRANCH   2   3
ATOM      3  N   UNL A   1      38.691  33.794  30.589  1.00  0.00    -0.352 N 
ATOM      4  C   UNL A   1      39.913  34.177  31.076  1.00  0.00     0.251 C 
ATOM      5  O   UNL A   1      39.950  34.643  32.217  1.00  0.00    -0.269 OA
ATOM      6  H   UNL A   1      37.959  33.913  31.236  1.00  0.00     0.163 HD
BRANCH   4   7
ATOM      7  C   UNL A   1      41.182  34.120  30.293  1.00  0.00     0.042 A 
ATOM      8  C   UNL A   1      43.063  35.107  29.122  1.00  0.00     0.073 A 
ATOM      9  C   UNL A   1      41.777  35.207  29.662  1.00  0.00     0.042 A 
ATOM     10  C   UNL A   1      43.727  33.868  29.038  1.00  0.00     0.061 A 
ATOM     11  C   UNL A   1      43.075  32.754  29.584  1.00  0.00     0.029 A 
ATOM     12  C   UNL A   1      41.840  32.882  30.228  1.00  0.00     0.016 A 
BRANCH   8  13
ATOM     13  N   UNL A   1      43.700  36.327  28.720  1.00  0.00    -0.277 N 
ATOM     14  H   UNL A   1      44.099  36.923  29.395  1.00  0.00     0.180 HD
BRANCH  13  15
ATOM     15  S   UNL A   1      43.764  36.739  27.057  1.00  0.00     0.261 S 
ATOM     16  O   UNL A   1      42.844  35.825  26.410  1.00  0.00    -0.201 OA
ATOM     17  O   UNL A   1      45.161  36.718  26.671  1.00  0.00    -0.201 OA
BRANCH  15  18
ATOM     18  C   UNL A   1      43.182  38.400  26.771  1.00  0.00     0.088 A 
ATOM     19  C   UNL A   1      44.426  42.004  26.551  1.00  0.00     0.044 C 
ATOM     20  C   UNL A   1      43.534  40.798  26.519  1.00  0.00    -0.050 A 
ATOM     21  C   UNL A   1      42.154  40.988  26.500  1.00  0.00     0.003 A 
ATOM     22  C   UNL A   1      44.044  39.490  26.577  1.00  0.00     0.025 A 
ATOM     23  C   UNL A   1      41.303  39.894  26.603  1.00  0.00     0.002 A 
ATOM     24  C   UNL A   1      41.803  38.604  26.750  1.00  0.00     0.022 A 
ENDBRANCH  15  18
ENDBRANCH  13  15
ENDBRANCH   8  13
BRANCH  10  25
ATOM     25  N   UNL A   1      44.967  33.685  28.451  1.00  0.00    -0.369 N 
ATOM     26  C   UNL A   1      45.009  33.231  27.067  1.00  0.00     0.116 C 
ATOM     27  C   UNL A   1      46.185  34.240  29.031  1.00  0.00     0.126 C 
ATOM     28  C   UNL A   1      46.150  32.230  26.903  1.00  0.00     0.022 C 
ATOM     29  C   UNL A   1      47.348  33.241  28.917  1.00  0.00     0.064 C 
ATOM     30  C   UNL A   1      47.463  32.789  27.452  1.00  0.00     0.013 C 
BRANCH  29  31
ATOM     31  C   UNL A   1      47.151  32.123  29.975  1.00  0.00     0.267 C 
BRANCH  31  32
ATOM     32  N   UNL A   1      47.102  32.462  31.399  1.00  0.00    -0.335 N 
ATOM     33  C   UNL A   1      48.231  31.989  32.196  1.00  0.00     0.262 C 
ATOM     34  C   UNL A   1      45.870  32.118  32.099  1.00  0.00     0.262 C 
ATOM     35  H   UNL A   1      47.152  33.478  31.330  1.00  0.00     0.348 HD
ATOM     36  C   UNL A   1      47.705  30.781  32.945  1.00  0.00     0.067 C 
ATOM     37  C   UNL A   1      46.241  31.109  33.179  1.00  0.00     0.067 C 
ENDBRANCH  31  32
ENDBRANCH  29  31
ENDBRANCH  10  25
ENDBRANCH   4   7
ENDBRANCH   2   3
ENDBRANCH   1   2
BRANCH   1  38
ATOM     38  C   UNL A   1      36.042  32.439  28.294  1.00  0.00     0.023 C 
BRANCH  38  39
ATOM     39  C   UNL A   1      35.412  31.434  29.245  1.00  0.00     0.116 C 
BRANCH  39  40
ATOM     40  N   UNL A   1      35.139  30.140  28.641  1.00  0.00    -0.352 N 
ATOM     41  C   UNL A   1      36.016  29.508  27.771  1.00  0.00     0.251 C 
ATOM     42  H   UNL A   1      34.292  29.689  28.859  1.00  0.00     0.163 HD
ATOM     43  O   UNL A   1      35.671  28.899  26.765  1.00  0.00    -0.269 OA
BRANCH  41  44
ATOM     44  C   UNL A   1      37.428  29.499  28.205  1.00  0.00     0.039 A 
ATOM     45  C   UNL A   1      38.421  29.535  27.220  1.00  0.00     0.014 A 
ATOM     46  C   UNL A   1      37.728  29.171  29.525  1.00  0.00     0.014 A 
ATOM     47  C   UNL A   1      39.700  29.081  27.525  1.00  0.00     0.010 A 
ATOM     48  C   UNL A   1      38.963  28.629  29.799  1.00  0.00     0.010 A 
ATOM     49  C   UNL A   1      39.934  28.547  28.790  1.00  0.00    -0.014 A 
BRANCH  49  50
ATOM     50  C   UNL A   1      41.137  27.817  29.161  1.00  0.00     0.031 A 
ATOM     51  C   UNL A   1      41.259  26.386  28.820  1.00  0.00     0.074 A 
ATOM     52  C   UNL A   1      42.195  28.495  29.656  1.00  0.00     0.049 A 
ATOM     53  N   UNL A   1      42.160  25.595  29.290  1.00  0.00    -0.248 NA
ATOM     54  C   UNL A   1      40.305  25.715  27.945  1.00  0.00     0.031 C 
ATOM     55  C   UNL A   1      43.582  28.044  29.719  1.00  0.00     0.029 A 
ATOM     56  N   UNL A   1      42.183  29.663  30.415  1.00  0.00    -0.354 N 
ATOM     57  C   UNL A   1      42.122  24.440  28.542  1.00  0.00     0.074 A 
ATOM     58  C   UNL A   1      40.879  24.517  27.811  1.00  0.00     0.031 C 
ATOM     59  C   UNL A   1      44.205  28.716  30.698  1.00  0.00     0.029 A 
ATOM     60  C   UNL A   1      43.195  29.517  31.374  1.00  0.00     0.049 A 
ATOM     61  H   UNL A   1      41.584  30.436  30.302  1.00  0.00     0.167 HD
ATOM     62  C   UNL A   1      43.226  23.641  28.503  1.00  0.00     0.031 A 
ATOM     63  C   UNL A   1      42.987  29.554  32.720  1.00  0.00     0.031 A 
ATOM     64  C   UNL A   1      44.216  24.055  29.505  1.00  0.00     0.049 A 
ATOM     65  C   UNL A   1      43.464  28.269  33.356  1.00  0.00     0.074 A 
ATOM     66  C   UNL A   1      45.426  24.725  29.428  1.00  0.00     0.029 A 
ATOM     67  N   UNL A   1      43.855  24.059  30.854  1.00  0.00    -0.354 N 
ATOM     68  N   UNL A   1      43.596  27.149  32.695  1.00  0.00    -0.248 NA
ATOM     69  C   UNL A   1      43.877  28.147  34.750  1.00  0.00     0.031 C 
ATOM     70  C   UNL A   1      45.729  25.230  30.724  1.00  0.00     0.029 A 
ATOM     71  C   UNL A   1      44.728  24.832  31.596  1.00  0.00     0.049 A 
ATOM     72  H   UNL A   1      43.082  23.576  31.226  1.00  0.00     0.167 HD
ATOM     73  C   UNL A   1      44.181  26.211  33.497  1.00  0.00     0.074 A 
ATOM     74  C   UNL A   1      44.302  26.871  34.788  1.00  0.00     0.031 C 
ATOM     75  C   UNL A   1      44.561  24.981  33.040  1.00  0.00     0.031 A 
BRANCH  62  76
ATOM     76  C   UNL A   1      43.514  22.686  27.351  1.00  0.00    -0.014 A 
ATOM     77  C   UNL A   1      42.728  21.527  27.175  1.00  0.00     0.010 A 
ATOM     78  C   UNL A   1      44.596  22.821  26.460  1.00  0.00     0.010 A 
ATOM     79  C   UNL A   1      43.054  20.534  26.230  1.00  0.00     0.020 A 
ATOM     80  C   UNL A   1      44.953  21.831  25.532  1.00  0.00     0.020 A 
ATOM     81  C   UNL A   1      44.183  20.684  25.427  1.00  0.00     0.054 A 
BRANCH  81  82
ATOM     82  S   UNL A   1      44.636  19.382  24.250  1.00  0.00     0.124 S 
ATOM     83  O   UNL A   1      44.523  20.067  22.965  1.00  0.00    -0.237 OA
ATOM     84  O   UNL A   1      45.991  19.040  24.667  1.00  0.00    -0.237 OA
ATOM     85  O   UNL A   1      43.635  18.341  24.482  1.00  0.00    -0.744 OA
ENDBRANCH  81  82
ENDBRANCH  62  76
BRANCH  63  86
ATOM     86  C   UNL A   1      41.841  30.413  33.133  1.00  0.00    -0.014 A 
ATOM     87  C   UNL A   1      40.685  29.736  33.590  1.00  0.00     0.010 A 
ATOM     88  C   UNL A   1      42.049  31.741  33.545  1.00  0.00     0.010 A 
ATOM     89  C   UNL A   1      39.882  30.286  34.596  1.00  0.00     0.020 A 
ATOM     90  C   UNL A   1      41.233  32.300  34.545  1.00  0.00     0.020 A 
ATOM     91  C   UNL A   1      40.209  31.536  35.118  1.00  0.00     0.054 A 
BRANCH  91  92
ATOM     92  S   UNL A   1      39.406  32.062  36.667  1.00  0.00     0.124 S 
ATOM     93  O   UNL A   1      38.833  33.353  36.304  1.00  0.00    -0.237 OA
ATOM     94  O   UNL A   1      38.444  30.982  36.904  1.00  0.00    -0.237 OA
ATOM     95  O   UNL A   1      40.514  32.112  37.615  1.00  0.00    -0.744 OA
ENDBRANCH  91  92
ENDBRANCH  63  86
BRANCH  75  96
ATOM     96  C   UNL A   1      44.921  23.815  33.925  1.00  0.00    -0.014 A 
ATOM     97  C   UNL A   1      44.121  22.669  34.056  1.00  0.00     0.010 A 
ATOM     98  C   UNL A   1      46.198  23.782  34.535  1.00  0.00     0.010 A 
ATOM     99  C   UNL A   1      44.546  21.566  34.806  1.00  0.00     0.020 A 
ATOM    100  C   UNL A   1      46.651  22.668  35.245  1.00  0.00     0.020 A 
ATOM    101  C   UNL A   1      45.810  21.571  35.394  1.00  0.00     0.054 A 
BRANCH 101 102
ATOM    102  S   UNL A   1      46.388  20.101  36.275  1.00  0.00     0.124 S 
ATOM    103  O   UNL A   1      45.655  19.037  35.594  1.00  0.00    -0.237 OA
ATOM    104  O   UNL A   1      47.830  20.120  36.037  1.00  0.00    -0.237 OA
ATOM    105  O   UNL A   1      45.989  20.353  37.658  1.00  0.00    -0.744 OA
ENDBRANCH 101 102
ENDBRANCH  75  96
ENDBRANCH  49  50
ENDBRANCH  41  44
ENDBRANCH  39  40
ENDBRANCH  38  39
ENDBRANCH   1  38
TORSDOF 20
ENDMDL
