MODEL 1
REMARK VINA RESULT:     -12.1      0.000      0.000
REMARK SMILES Cc1cc(/C=C2/C(=O)NC(=S)[NH+]=C2NCCCCNC(=O)c2ccc(-c3c4nc(c(-c5ccc(S(=O)(=O)[O-])cc5)c5ccc([nH]5)c(-c5ccc(S(=O)(=O)[O-])cc5)c5nc(c(-c6ccc(S(=O)(=O)[O-])cc6)c6ccc3[nH]6)C=C5)C=C4)cc2)c(C)n1-c1cccc(C(=O)[O-])c1
REMARK SMILES IDX 17 1 16 2 15 3 14 4 5 5 6 6 7 7 13 8 8 9 9 10 12 11 10 12
REMARK SMILES IDX 11 16 4 17 1 18 2 19 3 20 84 21 82 22 83 23 85 24 86 25
REMARK SMILES IDX 93 26 87 27 89 28 88 29 90 30 91 31 92 32 18 33 19 34 20 35
REMARK SMILES IDX 21 37 22 38 23 39 81 40 24 41 80 42 25 43 26 44 27 45 74 46
REMARK SMILES IDX 28 47 79 48 73 49 75 50 29 51 78 52 72 53 71 54 30 56 60 57
REMARK SMILES IDX 41 58 59 59 42 60 45 61 58 62 76 63 43 64 44 65 57 67 77 68
REMARK SMILES IDX 46 69 31 70 32 71 40 72 33 73 39 74 34 75 35 76 36 77 37 78
REMARK SMILES IDX 38 79 61 80 62 81 70 82 63 83 69 84 64 85 65 86 66 87 67 88
REMARK SMILES IDX 68 89 47 90 48 91 56 92 49 93 55 94 50 95 51 96 52 97 53 98
REMARK SMILES IDX 54 99
REMARK H PARENT 9 13 12 14 14 15 19 36 75 55 45 66
REMARK Flexibility Score: inf
ROOT
ATOM      1  C   UNL A   1      42.520  27.509  30.669  1.00  0.00     0.024 C 
ENDROOT
BRANCH   1   2
ATOM      2  C   UNL A   1      43.281  26.598  29.681  1.00  0.00     0.039 C 
BRANCH   2   3
ATOM      3  C   UNL A   1      42.896  25.219  29.110  1.00  0.00     0.194 C 
BRANCH   3   4
ATOM      4  N   UNL A   1      43.424  24.721  27.854  1.00  0.00    -0.305 N 
ATOM      5  C   UNL A   1      40.352  24.692  26.876  1.00  0.00     0.032 C 
ATOM      6  C   UNL A   1      41.247  23.682  26.926  1.00  0.00     0.128 C 
ATOM      7  C   UNL A   1      40.689  22.334  26.659  1.00  0.00     0.319 C 
ATOM      8  C   UNL A   1      42.745  23.742  27.122  1.00  0.00     0.234 C 
ATOM      9  O   UNL A   1      39.521  22.018  26.860  1.00  0.00    -0.250 OA
ATOM     10  N   UNL A   1      41.595  21.462  26.139  1.00  0.00    -0.229 N 
ATOM     11  N   UNL A   1      43.496  22.786  26.633  1.00  0.00    -0.236 N 
ATOM     12  C   UNL A   1      42.940  21.691  26.017  1.00  0.00     0.295 C 
ATOM     13  H   UNL A   1      41.255  20.595  25.823  1.00  0.00     0.268 HD
ATOM     14  H   UNL A   1      44.475  22.853  26.708  1.00  0.00     0.268 HD
ATOM     15  H   UNL A   1      44.276  25.079  27.511  1.00  0.00     0.256 HD
ATOM     16  S   UNL A   1      43.829  20.521  25.203  1.00  0.00    -0.005 S 
BRANCH   5  17
ATOM     17  C   UNL A   1      40.586  26.097  26.992  1.00  0.00    -0.003 A 
ATOM     18  C   UNL A   1      41.907  29.332  25.797  1.00  0.00     0.065 C 
ATOM     19  C   UNL A   1      41.197  28.202  26.465  1.00  0.00     0.020 A 
ATOM     20  C   UNL A   1      41.375  26.868  26.128  1.00  0.00     0.031 A 
ATOM     21  N   UNL A   1      40.297  28.266  27.544  1.00  0.00    -0.318 N 
ATOM     22  C   UNL A   1      40.114  26.938  27.981  1.00  0.00     0.027 A 
ATOM     23  C   UNL A   1      39.394  26.520  29.219  1.00  0.00     0.065 C 
BRANCH  21  24
ATOM     24  C   UNL A   1      39.442  29.373  27.950  1.00  0.00     0.046 A 
ATOM     25  C   UNL A   1      39.803  30.207  29.533  1.00  0.00     0.026 A 
ATOM     26  C   UNL A   1      37.755  29.385  27.308  1.00  0.00     0.036 A 
ATOM     27  C   UNL A   1      38.448  30.957  30.507  1.00  0.00     0.003 A 
ATOM     28  C   UNL A   1      36.441  30.258  28.197  1.00  0.00    -0.001 A 
ATOM     29  C   UNL A   1      36.764  31.027  29.793  1.00  0.00     0.010 A 
BRANCH  28  30
ATOM     30  C   UNL A   1      35.054  30.274  27.680  1.00  0.00     0.072 C 
ATOM     31  O   UNL A   1      34.427  31.257  27.337  1.00  0.00    -0.545 OA
ATOM     32  O   UNL A   1      34.480  29.057  27.724  1.00  0.00    -0.545 OA
ENDBRANCH  28  30
ENDBRANCH  21  24
ENDBRANCH   5  17
ENDBRANCH   3   4
ENDBRANCH   2   3
ENDBRANCH   1   2
BRANCH   1  33
ATOM     33  C   UNL A   1      43.039  29.072  31.040  1.00  0.00     0.116 C 
BRANCH  33  34
ATOM     34  N   UNL A   1      42.302  30.750  32.091  1.00  0.00    -0.352 N 
ATOM     35  C   UNL A   1      42.127  32.314  32.059  1.00  0.00     0.251 C 
ATOM     36  H   UNL A   1      41.914  30.425  32.935  1.00  0.00     0.163 HD
ATOM     37  O   UNL A   1      41.569  32.742  33.080  1.00  0.00    -0.269 OA
BRANCH  35  38
ATOM     38  C   UNL A   1      42.654  33.402  30.949  1.00  0.00     0.039 A 
ATOM     39  C   UNL A   1      42.402  34.758  31.142  1.00  0.00     0.014 A 
ATOM     40  C   UNL A   1      43.465  33.182  29.802  1.00  0.00     0.014 A 
ATOM     41  C   UNL A   1      43.101  35.808  30.387  1.00  0.00     0.010 A 
ATOM     42  C   UNL A   1      44.074  34.285  28.937  1.00  0.00     0.010 A 
ATOM     43  C   UNL A   1      43.967  35.674  29.216  1.00  0.00    -0.014 A 
BRANCH  43  44
ATOM     44  C   UNL A   1      44.118  37.086  28.174  1.00  0.00     0.031 A 
ATOM     45  C   UNL A   1      45.592  37.210  28.259  1.00  0.00     0.074 A 
ATOM     46  C   UNL A   1      43.551  38.229  27.505  1.00  0.00     0.049 A 
ATOM     47  N   UNL A   1      46.002  37.334  29.481  1.00  0.00    -0.248 NA
ATOM     48  C   UNL A   1      46.616  36.736  27.333  1.00  0.00     0.031 C 
ATOM     49  C   UNL A   1      42.153  38.729  27.501  1.00  0.00     0.029 A 
ATOM     50  N   UNL A   1      44.121  39.305  26.656  1.00  0.00    -0.354 N 
ATOM     51  C   UNL A   1      47.351  37.175  29.520  1.00  0.00     0.074 A 
ATOM     52  C   UNL A   1      47.660  36.658  28.180  1.00  0.00     0.031 C 
ATOM     53  C   UNL A   1      41.942  39.785  26.641  1.00  0.00     0.029 A 
ATOM     54  C   UNL A   1      43.173  40.232  25.965  1.00  0.00     0.049 A 
ATOM     55  H   UNL A   1      45.094  39.407  26.551  1.00  0.00     0.167 HD
ATOM     56  C   UNL A   1      47.928  38.162  30.265  1.00  0.00     0.031 A 
ATOM     57  C   UNL A   1      43.372  41.331  25.064  1.00  0.00     0.031 A 
ATOM     58  C   UNL A   1      48.176  39.304  29.414  1.00  0.00     0.049 A 
ATOM     59  C   UNL A   1      44.581  41.960  25.602  1.00  0.00     0.074 A 
ATOM     60  C   UNL A   1      48.669  39.385  28.123  1.00  0.00     0.029 A 
ATOM     61  N   UNL A   1      47.403  40.431  29.620  1.00  0.00    -0.354 N 
ATOM     62  N   UNL A   1      44.572  42.653  26.699  1.00  0.00    -0.248 NA
ATOM     63  C   UNL A   1      45.848  41.904  24.890  1.00  0.00     0.031 C 
ATOM     64  C   UNL A   1      47.747  40.215  27.459  1.00  0.00     0.029 A 
ATOM     65  C   UNL A   1      47.098  40.999  28.402  1.00  0.00     0.049 A 
ATOM     66  H   UNL A   1      47.117  40.773  30.498  1.00  0.00     0.167 HD
ATOM     67  C   UNL A   1      45.872  42.560  27.093  1.00  0.00     0.074 A 
ATOM     68  C   UNL A   1      46.635  42.355  25.868  1.00  0.00     0.031 C 
ATOM     69  C   UNL A   1      46.101  42.037  28.325  1.00  0.00     0.031 A 
BRANCH  56  70
ATOM     70  C   UNL A   1      47.287  38.268  31.658  1.00  0.00    -0.014 A 
ATOM     71  C   UNL A   1      48.035  37.918  32.787  1.00  0.00     0.010 A 
ATOM     72  C   UNL A   1      45.912  38.578  31.855  1.00  0.00     0.010 A 
ATOM     73  C   UNL A   1      47.424  37.851  34.051  1.00  0.00     0.020 A 
ATOM     74  C   UNL A   1      45.287  38.462  33.099  1.00  0.00     0.020 A 
ATOM     75  C   UNL A   1      46.055  38.107  34.197  1.00  0.00     0.054 A 
BRANCH  75  76
ATOM     76  S   UNL A   1      45.293  37.947  35.836  1.00  0.00     0.124 S 
ATOM     77  O   UNL A   1      44.515  39.180  35.948  1.00  0.00    -0.237 OA
ATOM     78  O   UNL A   1      44.503  36.730  35.685  1.00  0.00    -0.237 OA
ATOM     79  O   UNL A   1      46.430  37.865  36.751  1.00  0.00    -0.744 OA
ENDBRANCH  75  76
ENDBRANCH  56  70
BRANCH  57  80
ATOM     80  C   UNL A   1      42.826  42.410  23.943  1.00  0.00    -0.014 A 
ATOM     81  C   UNL A   1      43.733  43.313  23.244  1.00  0.00     0.010 A 
ATOM     82  C   UNL A   1      41.624  42.230  23.225  1.00  0.00     0.010 A 
ATOM     83  C   UNL A   1      43.521  43.860  21.928  1.00  0.00     0.020 A 
ATOM     84  C   UNL A   1      41.390  42.797  21.908  1.00  0.00     0.020 A 
ATOM     85  C   UNL A   1      42.353  43.568  21.243  1.00  0.00     0.054 A 
BRANCH  85  86
ATOM     86  S   UNL A   1      42.165  44.052  19.464  1.00  0.00     0.124 S 
ATOM     87  O   UNL A   1      43.276  44.973  19.241  1.00  0.00    -0.237 OA
ATOM     88  O   UNL A   1      42.269  42.774  18.761  1.00  0.00    -0.237 OA
ATOM     89  O   UNL A   1      40.838  44.664  19.410  1.00  0.00    -0.744 OA
ENDBRANCH  85  86
ENDBRANCH  57  80
BRANCH  69  90
ATOM     90  C   UNL A   1      45.186  42.453  29.461  1.00  0.00    -0.014 A 
ATOM     91  C   UNL A   1      45.161  43.730  30.066  1.00  0.00     0.010 A 
ATOM     92  C   UNL A   1      44.338  41.469  29.997  1.00  0.00     0.010 A 
ATOM     93  C   UNL A   1      44.374  43.991  31.199  1.00  0.00     0.020 A 
ATOM     94  C   UNL A   1      43.518  41.731  31.100  1.00  0.00     0.020 A 
ATOM     95  C   UNL A   1      43.566  42.980  31.718  1.00  0.00     0.054 A 
BRANCH  95  96
ATOM     96  S   UNL A   1      42.620  43.293  33.234  1.00  0.00     0.124 S 
ATOM     97  O   UNL A   1      43.677  43.437  34.233  1.00  0.00    -0.237 OA
ATOM     98  O   UNL A   1      41.894  44.519  32.917  1.00  0.00    -0.237 OA
ATOM     99  O   UNL A   1      41.799  42.093  33.384  1.00  0.00    -0.744 OA
ENDBRANCH  95  96
ENDBRANCH  69  90
ENDBRANCH  43  44
ENDBRANCH  35  38
ENDBRANCH  33  34
ENDBRANCH   1  33
TORSDOF 16
ENDMDL
MODEL 2
REMARK VINA RESULT:     -11.6      9.817     18.684
REMARK SMILES Cc1cc(/C=C2/C(=O)NC(=S)[NH+]=C2NCCCCNC(=O)c2ccc(-c3c4nc(c(-c5ccc(S(=O)(=O)[O-])cc5)c5ccc([nH]5)c(-c5ccc(S(=O)(=O)[O-])cc5)c5nc(c(-c6ccc(S(=O)(=O)[O-])cc6)c6ccc3[nH]6)C=C5)C=C4)cc2)c(C)n1-c1cccc(C(=O)[O-])c1
REMARK SMILES IDX 17 1 16 2 15 3 14 4 5 5 6 6 7 7 13 8 8 9 9 10 12 11 10 12
REMARK SMILES IDX 11 16 4 17 1 18 2 19 3 20 84 21 82 22 83 23 85 24 86 25
REMARK SMILES IDX 93 26 87 27 89 28 88 29 90 30 91 31 92 32 18 33 19 34 20 35
REMARK SMILES IDX 21 37 22 38 23 39 81 40 24 41 80 42 25 43 26 44 27 45 74 46
REMARK SMILES IDX 28 47 79 48 73 49 75 50 29 51 78 52 72 53 71 54 30 56 60 57
REMARK SMILES IDX 41 58 59 59 42 60 45 61 58 62 76 63 43 64 44 65 57 67 77 68
REMARK SMILES IDX 46 69 31 70 32 71 40 72 33 73 39 74 34 75 35 76 36 77 37 78
REMARK SMILES IDX 38 79 61 80 62 81 70 82 63 83 69 84 64 85 65 86 66 87 67 88
REMARK SMILES IDX 68 89 47 90 48 91 56 92 49 93 55 94 50 95 51 96 52 97 53 98
REMARK SMILES IDX 54 99
REMARK H PARENT 9 13 12 14 14 15 19 36 75 55 45 66
REMARK Flexibility Score: inf
ROOT
ATOM      1  C   UNL A   1      45.063  28.191  30.266  1.00  0.00     0.024 C 
ENDROOT
BRANCH   1   2
ATOM      2  C   UNL A   1      44.119  28.922  29.286  1.00  0.00     0.039 C 
BRANCH   2   3
ATOM      3  C   UNL A   1      42.732  29.548  29.529  1.00  0.00     0.194 C 
BRANCH   3   4
ATOM      4  N   UNL A   1      41.913  29.206  30.676  1.00  0.00    -0.305 N 
ATOM      5  C   UNL A   1      39.410  29.896  28.764  1.00  0.00     0.032 C 
ATOM      6  C   UNL A   1      39.749  30.425  29.960  1.00  0.00     0.128 C 
ATOM      7  C   UNL A   1      38.958  31.611  30.368  1.00  0.00     0.319 C 
ATOM      8  C   UNL A   1      40.751  29.927  30.975  1.00  0.00     0.234 C 
ATOM      9  O   UNL A   1      38.409  32.379  29.585  1.00  0.00    -0.250 OA
ATOM     10  N   UNL A   1      38.869  31.769  31.717  1.00  0.00    -0.229 N 
ATOM     11  N   UNL A   1      40.585  30.223  32.241  1.00  0.00    -0.236 N 
ATOM     12  C   UNL A   1      39.562  31.045  32.650  1.00  0.00     0.295 C 
ATOM     13  H   UNL A   1      38.255  32.461  32.049  1.00  0.00     0.268 HD
ATOM     14  H   UNL A   1      41.203  29.849  32.910  1.00  0.00     0.268 HD
ATOM     15  H   UNL A   1      42.179  28.454  31.255  1.00  0.00     0.256 HD
ATOM     16  S   UNL A   1      39.168  31.321  34.259  1.00  0.00    -0.005 S 
BRANCH   5  17
ATOM     17  C   UNL A   1      39.910  28.711  28.139  1.00  0.00    -0.003 A 
ATOM     18  C   UNL A   1      41.858  26.906  25.573  1.00  0.00     0.065 C 
ATOM     19  C   UNL A   1      41.088  27.367  26.766  1.00  0.00     0.020 A 
ATOM     20  C   UNL A   1      40.621  28.663  26.933  1.00  0.00     0.031 A 
ATOM     21  N   UNL A   1      40.666  26.602  27.868  1.00  0.00    -0.318 N 
ATOM     22  C   UNL A   1      39.758  27.412  28.582  1.00  0.00     0.027 A 
ATOM     23  C   UNL A   1      38.903  26.966  29.720  1.00  0.00     0.065 C 
BRANCH  21  24
ATOM     24  C   UNL A   1      41.251  25.382  28.405  1.00  0.00     0.046 A 
ATOM     25  C   UNL A   1      42.892  25.486  29.198  1.00  0.00     0.026 A 
ATOM     26  C   UNL A   1      40.725  23.824  27.661  1.00  0.00     0.036 A 
ATOM     27  C   UNL A   1      44.031  24.055  29.145  1.00  0.00     0.003 A 
ATOM     28  C   UNL A   1      41.790  22.362  27.741  1.00  0.00    -0.001 A 
ATOM     29  C   UNL A   1      43.439  22.464  28.457  1.00  0.00     0.010 A 
BRANCH  28  30
ATOM     30  C   UNL A   1      41.369  21.079  27.133  1.00  0.00     0.072 C 
ATOM     31  O   UNL A   1      40.759  20.187  27.689  1.00  0.00    -0.545 OA
ATOM     32  O   UNL A   1      41.836  20.933  25.878  1.00  0.00    -0.545 OA
ENDBRANCH  28  30
ENDBRANCH  21  24
ENDBRANCH   5  17
ENDBRANCH   3   4
ENDBRANCH   2   3
ENDBRANCH   1   2
BRANCH   1  33
ATOM     33  C   UNL A   1      46.366  27.257  29.738  1.00  0.00     0.116 C 
BRANCH  33  34
ATOM     34  N   UNL A   1      48.474  27.397  29.717  1.00  0.00    -0.352 N 
ATOM     35  C   UNL A   1      49.809  26.817  30.317  1.00  0.00     0.251 C 
ATOM     36  H   UNL A   1      48.719  28.107  29.081  1.00  0.00     0.163 HD
ATOM     37  O   UNL A   1      50.812  27.386  29.860  1.00  0.00    -0.269 OA
BRANCH  35  38
ATOM     38  C   UNL A   1      50.024  25.682  31.483  1.00  0.00     0.039 A 
ATOM     39  C   UNL A   1      49.189  25.675  32.597  1.00  0.00     0.014 A 
ATOM     40  C   UNL A   1      50.916  24.575  31.494  1.00  0.00     0.014 A 
ATOM     41  C   UNL A   1      49.099  24.527  33.510  1.00  0.00     0.010 A 
ATOM     42  C   UNL A   1      50.906  23.454  32.534  1.00  0.00     0.010 A 
ATOM     43  C   UNL A   1      49.952  23.341  33.580  1.00  0.00    -0.014 A 
BRANCH  43  44
ATOM     44  C   UNL A   1      50.016  22.497  35.125  1.00  0.00     0.031 A 
ATOM     45  C   UNL A   1      48.936  21.523  34.838  1.00  0.00     0.074 A 
ATOM     46  C   UNL A   1      50.408  22.423  36.509  1.00  0.00     0.049 A 
ATOM     47  N   UNL A   1      47.821  22.106  34.530  1.00  0.00    -0.248 NA
ATOM     48  C   UNL A   1      49.035  20.144  34.372  1.00  0.00     0.031 C 
ATOM     49  C   UNL A   1      51.156  23.403  37.337  1.00  0.00     0.029 A 
ATOM     50  N   UNL A   1      50.191  21.421  37.584  1.00  0.00    -0.354 N 
ATOM     51  C   UNL A   1      46.959  21.186  34.022  1.00  0.00     0.074 A 
ATOM     52  C   UNL A   1      47.818  20.014  33.809  1.00  0.00     0.031 C 
ATOM     53  C   UNL A   1      51.470  22.942  38.597  1.00  0.00     0.029 A 
ATOM     54  C   UNL A   1      50.930  21.598  38.870  1.00  0.00     0.049 A 
ATOM     55  H   UNL A   1      49.576  20.664  37.453  1.00  0.00     0.167 HD
ATOM     56  C   UNL A   1      45.729  21.315  34.598  1.00  0.00     0.031 A 
ATOM     57  C   UNL A   1      50.984  20.820  40.075  1.00  0.00     0.031 A 
ATOM     58  C   UNL A   1      45.701  20.539  35.818  1.00  0.00     0.049 A 
ATOM     59  C   UNL A   1      49.600  20.356  40.208  1.00  0.00     0.074 A 
ATOM     60  C   UNL A   1      46.187  19.274  36.100  1.00  0.00     0.029 A 
ATOM     61  N   UNL A   1      45.666  21.232  37.012  1.00  0.00    -0.354 N 
ATOM     62  N   UNL A   1      48.636  21.146  40.570  1.00  0.00    -0.248 NA
ATOM     63  C   UNL A   1      49.244  18.960  40.013  1.00  0.00     0.031 C 
ATOM     64  C   UNL A   1      46.927  19.451  37.283  1.00  0.00     0.029 A 
ATOM     65  C   UNL A   1      46.455  20.581  37.936  1.00  0.00     0.049 A 
ATOM     66  H   UNL A   1      45.158  22.059  37.177  1.00  0.00     0.167 HD
ATOM     67  C   UNL A   1      47.551  20.514  40.045  1.00  0.00     0.074 A 
ATOM     68  C   UNL A   1      47.919  19.105  39.975  1.00  0.00     0.031 C 
ATOM     69  C   UNL A   1      46.786  21.229  39.180  1.00  0.00     0.031 A 
BRANCH  56  70
ATOM     70  C   UNL A   1      45.207  22.757  34.501  1.00  0.00    -0.014 A 
ATOM     71  C   UNL A   1      44.878  23.448  35.672  1.00  0.00     0.010 A 
ATOM     72  C   UNL A   1      44.909  23.391  33.263  1.00  0.00     0.010 A 
ATOM     73  C   UNL A   1      44.249  24.703  35.604  1.00  0.00     0.020 A 
ATOM     74  C   UNL A   1      44.236  24.613  33.187  1.00  0.00     0.020 A 
ATOM     75  C   UNL A   1      43.918  25.270  34.366  1.00  0.00     0.054 A 
BRANCH  75  76
ATOM     76  S   UNL A   1      43.049  26.862  34.324  1.00  0.00     0.124 S 
ATOM     77  O   UNL A   1      41.739  26.525  34.881  1.00  0.00    -0.237 OA
ATOM     78  O   UNL A   1      43.890  27.690  35.181  1.00  0.00    -0.237 OA
ATOM     79  O   UNL A   1      43.029  27.219  32.906  1.00  0.00    -0.744 OA
ENDBRANCH  75  76
ENDBRANCH  56  70
BRANCH  57  80
ATOM     80  C   UNL A   1      51.682  20.409  41.511  1.00  0.00    -0.014 A 
ATOM     81  C   UNL A   1      51.380  21.127  42.744  1.00  0.00     0.010 A 
ATOM     82  C   UNL A   1      52.185  19.118  41.778  1.00  0.00     0.010 A 
ATOM     83  C   UNL A   1      51.444  20.575  44.073  1.00  0.00     0.020 A 
ATOM     84  C   UNL A   1      52.277  18.559  43.116  1.00  0.00     0.020 A 
ATOM     85  C   UNL A   1      51.864  19.267  44.253  1.00  0.00     0.054 A 
BRANCH  85  86
ATOM     86  S   UNL A   1      51.721  18.458  45.915  1.00  0.00     0.124 S 
ATOM     87  O   UNL A   1      50.342  18.732  46.310  1.00  0.00    -0.237 OA
ATOM     88  O   UNL A   1      52.017  17.056  45.626  1.00  0.00    -0.237 OA
ATOM     89  O   UNL A   1      52.737  19.137  46.718  1.00  0.00    -0.744 OA
ENDBRANCH  85  86
ENDBRANCH  57  80
BRANCH  69  90
ATOM     90  C   UNL A   1      46.500  22.681  39.509  1.00  0.00    -0.014 A 
ATOM     91  C   UNL A   1      45.348  23.158  40.175  1.00  0.00     0.010 A 
ATOM     92  C   UNL A   1      47.427  23.638  39.059  1.00  0.00     0.010 A 
ATOM     93  C   UNL A   1      45.101  24.533  40.323  1.00  0.00     0.020 A 
ATOM     94  C   UNL A   1      47.211  25.008  39.240  1.00  0.00     0.020 A 
ATOM     95  C   UNL A   1      46.032  25.451  39.839  1.00  0.00     0.054 A 
BRANCH  95  96
ATOM     96  S   UNL A   1      45.667  27.224  39.951  1.00  0.00     0.124 S 
ATOM     97  O   UNL A   1      46.991  27.822  39.794  1.00  0.00    -0.237 OA
ATOM     98  O   UNL A   1      44.752  27.439  38.835  1.00  0.00    -0.237 OA
ATOM     99  O   UNL A   1      45.085  27.375  41.284  1.00  0.00    -0.744 OA
ENDBRANCH  95  96
ENDBRANCH  69  90
ENDBRANCH  43  44
ENDBRANCH  35  38
ENDBRANCH  33  34
ENDBRANCH   1  33
TORSDOF 16
ENDMDL
MODEL 3
REMARK VINA RESULT:     -11.6      4.310     14.167
REMARK SMILES Cc1cc(/C=C2/C(=O)NC(=S)[NH+]=C2NCCCCNC(=O)c2ccc(-c3c4nc(c(-c5ccc(S(=O)(=O)[O-])cc5)c5ccc([nH]5)c(-c5ccc(S(=O)(=O)[O-])cc5)c5nc(c(-c6ccc(S(=O)(=O)[O-])cc6)c6ccc3[nH]6)C=C5)C=C4)cc2)c(C)n1-c1cccc(C(=O)[O-])c1
REMARK SMILES IDX 17 1 16 2 15 3 14 4 5 5 6 6 7 7 13 8 8 9 9 10 12 11 10 12
REMARK SMILES IDX 11 16 4 17 1 18 2 19 3 20 84 21 82 22 83 23 85 24 86 25
REMARK SMILES IDX 93 26 87 27 89 28 88 29 90 30 91 31 92 32 18 33 19 34 20 35
REMARK SMILES IDX 21 37 22 38 23 39 81 40 24 41 80 42 25 43 26 44 27 45 74 46
REMARK SMILES IDX 28 47 79 48 73 49 75 50 29 51 78 52 72 53 71 54 30 56 60 57
REMARK SMILES IDX 41 58 59 59 42 60 45 61 58 62 76 63 43 64 44 65 57 67 77 68
REMARK SMILES IDX 46 69 31 70 32 71 40 72 33 73 39 74 34 75 35 76 36 77 37 78
REMARK SMILES IDX 38 79 61 80 62 81 70 82 63 83 69 84 64 85 65 86 66 87 67 88
REMARK SMILES IDX 68 89 47 90 48 91 56 92 49 93 55 94 50 95 51 96 52 97 53 98
REMARK SMILES IDX 54 99
REMARK H PARENT 9 13 12 14 14 15 19 36 75 55 45 66
REMARK Flexibility Score: inf
ROOT
ATOM      1  C   UNL A   1      47.988  38.438  27.814  1.00  0.00     0.024 C 
ENDROOT
BRANCH   1   2
ATOM      2  C   UNL A   1      47.898  39.698  26.925  1.00  0.00     0.039 C 
BRANCH   2   3
ATOM      3  C   UNL A   1      46.679  40.329  26.224  1.00  0.00     0.194 C 
BRANCH   3   4
ATOM      4  N   UNL A   1      45.542  39.544  25.781  1.00  0.00    -0.305 N 
ATOM      5  C   UNL A   1      43.758  41.736  27.333  1.00  0.00     0.032 C 
ATOM      6  C   UNL A   1      43.813  40.397  27.503  1.00  0.00     0.128 C 
ATOM      7  C   UNL A   1      43.082  39.884  28.686  1.00  0.00     0.319 C 
ATOM      8  C   UNL A   1      44.433  39.346  26.611  1.00  0.00     0.234 C 
ATOM      9  O   UNL A   1      42.861  40.539  29.700  1.00  0.00    -0.250 OA
ATOM     10  N   UNL A   1      42.644  38.604  28.543  1.00  0.00    -0.229 N 
ATOM     11  N   UNL A   1      43.960  38.125  26.634  1.00  0.00    -0.236 N 
ATOM     12  C   UNL A   1      42.966  37.764  27.510  1.00  0.00     0.295 C 
ATOM     13  H   UNL A   1      42.045  38.252  29.239  1.00  0.00     0.268 HD
ATOM     14  H   UNL A   1      44.323  37.454  26.011  1.00  0.00     0.268 HD
ATOM     15  H   UNL A   1      45.551  39.143  24.881  1.00  0.00     0.256 HD
ATOM     16  S   UNL A   1      42.179  36.280  27.476  1.00  0.00    -0.005 S 
BRANCH   5  17
ATOM     17  C   UNL A   1      44.272  42.520  26.254  1.00  0.00    -0.003 A 
ATOM     18  C   UNL A   1      46.655  44.910  24.754  1.00  0.00     0.065 C 
ATOM     19  C   UNL A   1      45.629  43.870  25.065  1.00  0.00     0.020 A 
ATOM     20  C   UNL A   1      45.296  43.471  26.351  1.00  0.00     0.031 A 
ATOM     21  N   UNL A   1      44.811  43.170  24.160  1.00  0.00    -0.318 N 
ATOM     22  C   UNL A   1      43.838  42.512  24.942  1.00  0.00     0.027 A 
ATOM     23  C   UNL A   1      42.638  41.798  24.418  1.00  0.00     0.065 C 
BRANCH  21  24
ATOM     24  C   UNL A   1      45.057  42.867  22.758  1.00  0.00     0.046 A 
ATOM     25  C   UNL A   1      46.639  42.074  22.310  1.00  0.00     0.026 A 
ATOM     26  C   UNL A   1      44.199  43.881  21.536  1.00  0.00     0.036 A 
ATOM     27  C   UNL A   1      47.396  42.391  20.675  1.00  0.00     0.003 A 
ATOM     28  C   UNL A   1      44.871  44.072  19.866  1.00  0.00    -0.001 A 
ATOM     29  C   UNL A   1      46.464  43.355  19.428  1.00  0.00     0.010 A 
BRANCH  28  30
ATOM     30  C   UNL A   1      44.176  44.902  18.856  1.00  0.00     0.072 C 
ATOM     31  O   UNL A   1      44.222  46.114  18.768  1.00  0.00    -0.545 OA
ATOM     32  O   UNL A   1      43.364  44.172  18.068  1.00  0.00    -0.545 OA
ENDBRANCH  28  30
ENDBRANCH  21  24
ENDBRANCH   5  17
ENDBRANCH   3   4
ENDBRANCH   2   3
ENDBRANCH   1   2
BRANCH   1  33
ATOM     33  C   UNL A   1      49.117  37.214  27.533  1.00  0.00     0.116 C 
BRANCH  33  34
ATOM     34  N   UNL A   1      49.368  35.180  28.045  1.00  0.00    -0.352 N 
ATOM     35  C   UNL A   1      48.736  33.957  28.810  1.00  0.00     0.251 C 
ATOM     36  H   UNL A   1      50.216  34.876  27.648  1.00  0.00     0.163 HD
ATOM     37  O   UNL A   1      49.446  32.943  28.735  1.00  0.00    -0.269 OA
BRANCH  35  38
ATOM     38  C   UNL A   1      47.379  33.888  29.729  1.00  0.00     0.039 A 
ATOM     39  C   UNL A   1      46.273  33.176  29.271  1.00  0.00     0.014 A 
ATOM     40  C   UNL A   1      47.168  34.384  31.046  1.00  0.00     0.014 A 
ATOM     41  C   UNL A   1      45.158  32.796  30.149  1.00  0.00     0.010 A 
ATOM     42  C   UNL A   1      45.935  34.097  31.902  1.00  0.00     0.010 A 
ATOM     43  C   UNL A   1      44.874  33.235  31.515  1.00  0.00    -0.014 A 
BRANCH  43  44
ATOM     44  C   UNL A   1      43.198  33.141  32.049  1.00  0.00     0.031 A 
ATOM     45  C   UNL A   1      43.449  32.348  33.275  1.00  0.00     0.074 A 
ATOM     46  C   UNL A   1      41.785  33.251  31.798  1.00  0.00     0.049 A 
ATOM     47  N   UNL A   1      44.049  31.229  33.020  1.00  0.00    -0.248 NA
ATOM     48  C   UNL A   1      43.595  32.799  34.655  1.00  0.00     0.031 C 
ATOM     49  C   UNL A   1      41.069  33.614  30.548  1.00  0.00     0.029 A 
ATOM     50  N   UNL A   1      40.575  33.013  32.625  1.00  0.00    -0.354 N 
ATOM     51  C   UNL A   1      44.488  30.679  34.182  1.00  0.00     0.074 A 
ATOM     52  C   UNL A   1      44.309  31.770  35.149  1.00  0.00     0.031 C 
ATOM     53  C   UNL A   1      39.706  33.747  30.706  1.00  0.00     0.029 A 
ATOM     54  C   UNL A   1      39.251  33.428  32.071  1.00  0.00     0.049 A 
ATOM     55  H   UNL A   1      40.643  32.593  33.513  1.00  0.00     0.167 HD
ATOM     56  C   UNL A   1      44.160  29.356  34.238  1.00  0.00     0.031 A 
ATOM     57  C   UNL A   1      37.918  33.381  32.602  1.00  0.00     0.031 A 
ATOM     58  C   UNL A   1      42.827  29.228  34.783  1.00  0.00     0.049 A 
ATOM     59  C   UNL A   1      37.919  32.113  33.336  1.00  0.00     0.074 A 
ATOM     60  C   UNL A   1      42.211  29.877  35.840  1.00  0.00     0.029 A 
ATOM     61  N   UNL A   1      41.825  28.820  33.924  1.00  0.00    -0.354 N 
ATOM     62  N   UNL A   1      37.892  30.964  32.734  1.00  0.00    -0.248 NA
ATOM     63  C   UNL A   1      37.874  32.076  34.789  1.00  0.00     0.031 C 
ATOM     64  C   UNL A   1      40.987  30.314  35.303  1.00  0.00     0.029 A 
ATOM     65  C   UNL A   1      40.670  29.513  34.214  1.00  0.00     0.049 A 
ATOM     66  H   UNL A   1      41.922  28.141  33.217  1.00  0.00     0.167 HD
ATOM     67  C   UNL A   1      38.443  30.149  33.675  1.00  0.00     0.074 A 
ATOM     68  C   UNL A   1      38.157  30.784  34.955  1.00  0.00     0.031 C 
ATOM     69  C   UNL A   1      39.551  29.455  33.308  1.00  0.00     0.031 A 
BRANCH  56  70
ATOM     70  C   UNL A   1      44.639  28.600  32.989  1.00  0.00    -0.014 A 
ATOM     71  C   UNL A   1      45.910  28.869  32.469  1.00  0.00     0.010 A 
ATOM     72  C   UNL A   1      43.799  27.728  32.242  1.00  0.00     0.010 A 
ATOM     73  C   UNL A   1      46.306  28.314  31.240  1.00  0.00     0.020 A 
ATOM     74  C   UNL A   1      44.166  27.216  30.995  1.00  0.00     0.020 A 
ATOM     75  C   UNL A   1      45.430  27.506  30.505  1.00  0.00     0.054 A 
BRANCH  75  76
ATOM     76  S   UNL A   1      45.958  26.862  28.893  1.00  0.00     0.124 S 
ATOM     77  O   UNL A   1      47.416  26.893  28.999  1.00  0.00    -0.237 OA
ATOM     78  O   UNL A   1      45.367  25.528  28.891  1.00  0.00    -0.237 OA
ATOM     79  O   UNL A   1      45.401  27.811  27.931  1.00  0.00    -0.744 OA
ENDBRANCH  75  76
ENDBRANCH  56  70
BRANCH  57  80
ATOM     80  C   UNL A   1      36.333  33.838  32.596  1.00  0.00    -0.014 A 
ATOM     81  C   UNL A   1      35.800  34.765  33.587  1.00  0.00     0.010 A 
ATOM     82  C   UNL A   1      35.528  33.802  31.438  1.00  0.00     0.010 A 
ATOM     83  C   UNL A   1      34.678  35.648  33.390  1.00  0.00     0.020 A 
ATOM     84  C   UNL A   1      34.380  34.671  31.238  1.00  0.00     0.020 A 
ATOM     85  C   UNL A   1      33.986  35.621  32.189  1.00  0.00     0.054 A 
BRANCH  85  86
ATOM     86  S   UNL A   1      32.705  36.909  31.818  1.00  0.00     0.124 S 
ATOM     87  O   UNL A   1      31.488  36.360  32.411  1.00  0.00    -0.237 OA
ATOM     88  O   UNL A   1      33.234  38.101  32.479  1.00  0.00    -0.237 OA
ATOM     89  O   UNL A   1      32.700  36.980  30.358  1.00  0.00    -0.744 OA
ENDBRANCH  85  86
ENDBRANCH  57  80
BRANCH  69  90
ATOM     90  C   UNL A   1      39.584  28.837  31.923  1.00  0.00    -0.014 A 
ATOM     91  C   UNL A   1      38.828  27.717  31.509  1.00  0.00     0.010 A 
ATOM     92  C   UNL A   1      40.485  29.386  30.994  1.00  0.00     0.010 A 
ATOM     93  C   UNL A   1      39.017  27.129  30.247  1.00  0.00     0.020 A 
ATOM     94  C   UNL A   1      40.648  28.835  29.719  1.00  0.00     0.020 A 
ATOM     95  C   UNL A   1      39.939  27.687  29.364  1.00  0.00     0.054 A 
BRANCH  95  96
ATOM     96  S   UNL A   1      40.245  26.873  27.771  1.00  0.00     0.124 S 
ATOM     97  O   UNL A   1      41.570  26.290  27.972  1.00  0.00    -0.237 OA
ATOM     98  O   UNL A   1      39.151  25.912  27.682  1.00  0.00    -0.237 OA
ATOM     99  O   UNL A   1      40.203  27.971  26.808  1.00  0.00    -0.744 OA
ENDBRANCH  95  96
ENDBRANCH  69  90
ENDBRANCH  43  44
ENDBRANCH  35  38
ENDBRANCH  33  34
ENDBRANCH   1  33
TORSDOF 16
ENDMDL
