MODEL 1
REMARK VINA RESULT:     -12.3      0.000      0.000
REMARK SMILES O=C(NCCCCNC(=O)c1ccccc1Nc1cccc(C(F)(F)F)c1)c1ccc(-c2c3nc(c(-c4ccc(S(=O)(=O)[O-])cc4)c4ccc([nH]4)c(-c4ccc(S(=O)(=O)[O-])cc4)c4nc(c(-c5ccc(S(=O)(=O)[O-])cc5)c5ccc2[nH]5)C=C4)C=C3)cc1
REMARK SMILES IDX 5 1 4 2 3 3 1 4 2 5 28 7 29 8 87 9 30 10 86 11 31 12 32 13
REMARK SMILES IDX 33 14 80 15 34 16 85 17 79 18 81 19 35 20 84 21 78 22 77 23
REMARK SMILES IDX 36 25 66 26 47 27 65 28 48 29 51 30 64 31 82 32 49 33 50 34
REMARK SMILES IDX 63 36 83 37 52 38 37 39 38 40 46 41 39 42 45 43 40 44 41 45
REMARK SMILES IDX 42 46 43 47 44 48 67 49 68 50 76 51 69 52 75 53 70 54 71 55
REMARK SMILES IDX 72 56 73 57 74 58 53 59 54 60 62 61 55 62 61 63 56 64 57 65
REMARK SMILES IDX 58 66 59 67 60 68 6 69 7 70 8 71 9 72 10 74 11 75 12 76
REMARK SMILES IDX 16 77 13 78 15 79 14 80 17 81 18 83 19 84 27 85 20 86 22 87
REMARK SMILES IDX 21 88 23 89 24 90 25 91 26 92
REMARK H PARENT 3 6 81 24 51 35 8 73 17 82
REMARK Flexibility Score: inf
ROOT
ATOM      1  C   UNL A   1      34.367  29.357  27.088  1.00  0.00     0.023 C 
ENDROOT
BRANCH   1   2
ATOM      2  C   UNL A   1      35.488  30.197  27.687  1.00  0.00     0.116 C 
BRANCH   2   3
ATOM      3  N   UNL A   1      35.453  30.242  29.141  1.00  0.00    -0.352 N 
ATOM      4  O   UNL A   1      36.143  29.848  31.251  1.00  0.00    -0.269 OA
ATOM      5  C   UNL A   1      36.412  29.866  30.052  1.00  0.00     0.251 C 
ATOM      6  H   UNL A   1      34.618  30.591  29.530  1.00  0.00     0.163 HD
BRANCH   5   7
ATOM      7  C   UNL A   1      37.757  29.460  29.587  1.00  0.00     0.039 A 
ATOM      8  C   UNL A   1      38.692  28.934  30.481  1.00  0.00     0.014 A 
ATOM      9  C   UNL A   1      38.088  29.607  28.237  1.00  0.00     0.014 A 
ATOM     10  C   UNL A   1      39.998  28.707  30.060  1.00  0.00     0.010 A 
ATOM     11  C   UNL A   1      39.379  29.295  27.797  1.00  0.00     0.010 A 
ATOM     12  C   UNL A   1      40.357  28.876  28.712  1.00  0.00    -0.014 A 
BRANCH  12  13
ATOM     13  C   UNL A   1      41.744  28.560  28.285  1.00  0.00     0.031 A 
ATOM     14  C   UNL A   1      42.823  29.610  28.293  1.00  0.00     0.074 A 
ATOM     15  C   UNL A   1      42.039  27.293  27.931  1.00  0.00     0.049 A 
ATOM     16  N   UNL A   1      44.092  29.485  27.989  1.00  0.00    -0.248 NA
ATOM     17  C   UNL A   1      42.434  30.973  28.687  1.00  0.00     0.031 C 
ATOM     18  C   UNL A   1      41.077  26.187  27.878  1.00  0.00     0.029 A 
ATOM     19  N   UNL A   1      43.229  26.713  27.573  1.00  0.00    -0.354 N 
ATOM     20  C   UNL A   1      44.649  30.750  28.143  1.00  0.00     0.074 A 
ATOM     21  C   UNL A   1      43.575  31.635  28.542  1.00  0.00     0.031 C 
ATOM     22  C   UNL A   1      41.724  25.057  27.563  1.00  0.00     0.029 A 
ATOM     23  C   UNL A   1      43.130  25.363  27.330  1.00  0.00     0.049 A 
ATOM     24  H   UNL A   1      44.072  27.215  27.498  1.00  0.00     0.167 HD
ATOM     25  C   UNL A   1      45.938  31.136  27.978  1.00  0.00     0.031 A 
ATOM     26  C   UNL A   1      44.061  24.470  26.950  1.00  0.00     0.031 A 
ATOM     27  C   UNL A   1      47.004  30.253  27.577  1.00  0.00     0.049 A 
ATOM     28  C   UNL A   1      45.475  24.931  26.745  1.00  0.00     0.074 A 
ATOM     29  C   UNL A   1      48.343  30.552  27.387  1.00  0.00     0.029 A 
ATOM     30  N   UNL A   1      46.855  28.901  27.306  1.00  0.00    -0.354 N 
ATOM     31  N   UNL A   1      45.981  26.129  26.911  1.00  0.00    -0.248 NA
ATOM     32  C   UNL A   1      46.443  23.918  26.304  1.00  0.00     0.031 C 
ATOM     33  C   UNL A   1      48.996  29.388  26.962  1.00  0.00     0.029 A 
ATOM     34  C   UNL A   1      48.073  28.355  26.935  1.00  0.00     0.049 A 
ATOM     35  H   UNL A   1      46.008  28.404  27.368  1.00  0.00     0.167 HD
ATOM     36  C   UNL A   1      47.330  26.012  26.604  1.00  0.00     0.074 A 
ATOM     37  C   UNL A   1      47.565  24.622  26.268  1.00  0.00     0.031 C 
ATOM     38  C   UNL A   1      48.288  26.971  26.596  1.00  0.00     0.031 A 
BRANCH  25  39
ATOM     39  C   UNL A   1      46.268  32.587  28.213  1.00  0.00    -0.014 A 
ATOM     40  C   UNL A   1      46.186  33.528  27.170  1.00  0.00     0.010 A 
ATOM     41  C   UNL A   1      46.615  33.027  29.503  1.00  0.00     0.010 A 
ATOM     42  C   UNL A   1      46.478  34.875  27.405  1.00  0.00     0.020 A 
ATOM     43  C   UNL A   1      46.885  34.377  29.748  1.00  0.00     0.020 A 
ATOM     44  C   UNL A   1      46.831  35.290  28.693  1.00  0.00     0.054 A 
BRANCH  44  45
ATOM     45  S   UNL A   1      47.186  37.047  28.976  1.00  0.00     0.124 S 
ATOM     46  O   UNL A   1      48.463  36.985  29.683  1.00  0.00    -0.237 OA
ATOM     47  O   UNL A   1      47.246  37.587  27.620  1.00  0.00    -0.237 OA
ATOM     48  O   UNL A   1      46.053  37.505  29.775  1.00  0.00    -0.744 OA
ENDBRANCH  44  45
ENDBRANCH  25  39
BRANCH  26  49
ATOM     49  C   UNL A   1      43.673  23.053  26.720  1.00  0.00    -0.014 A 
ATOM     50  C   UNL A   1      44.034  22.391  25.534  1.00  0.00     0.010 A 
ATOM     51  C   UNL A   1      42.955  22.351  27.706  1.00  0.00     0.010 A 
ATOM     52  C   UNL A   1      43.667  21.058  25.330  1.00  0.00     0.020 A 
ATOM     53  C   UNL A   1      42.612  21.011  27.518  1.00  0.00     0.020 A 
ATOM     54  C   UNL A   1      42.959  20.376  26.324  1.00  0.00     0.054 A 
BRANCH  54  55
ATOM     55  S   UNL A   1      42.535  18.632  26.064  1.00  0.00     0.124 S 
ATOM     56  O   UNL A   1      43.432  18.262  24.974  1.00  0.00    -0.237 OA
ATOM     57  O   UNL A   1      42.836  18.033  27.363  1.00  0.00    -0.237 OA
ATOM     58  O   UNL A   1      41.115  18.674  25.723  1.00  0.00    -0.744 OA
ENDBRANCH  54  55
ENDBRANCH  26  49
BRANCH  38  59
ATOM     59  C   UNL A   1      49.682  26.540  26.233  1.00  0.00    -0.014 A 
ATOM     60  C   UNL A   1      50.183  26.727  24.933  1.00  0.00     0.010 A 
ATOM     61  C   UNL A   1      50.509  25.964  27.214  1.00  0.00     0.010 A 
ATOM     62  C   UNL A   1      51.477  26.310  24.609  1.00  0.00     0.020 A 
ATOM     63  C   UNL A   1      51.812  25.568  26.899  1.00  0.00     0.020 A 
ATOM     64  C   UNL A   1      52.282  25.729  25.595  1.00  0.00     0.054 A 
BRANCH  64  65
ATOM     65  S   UNL A   1      53.968  25.220  25.160  1.00  0.00     0.124 S 
ATOM     66  O   UNL A   1      54.732  25.680  26.316  1.00  0.00    -0.237 OA
ATOM     67  O   UNL A   1      53.843  23.770  25.024  1.00  0.00    -0.237 OA
ATOM     68  O   UNL A   1      54.233  25.935  23.913  1.00  0.00    -0.744 OA
ENDBRANCH  64  65
ENDBRANCH  38  59
ENDBRANCH  12  13
ENDBRANCH   5   7
ENDBRANCH   2   3
ENDBRANCH   1   2
BRANCH   1  69
ATOM     69  C   UNL A   1      32.972  29.977  27.150  1.00  0.00     0.023 C 
BRANCH  69  70
ATOM     70  C   UNL A   1      32.208  30.016  25.830  1.00  0.00     0.116 C 
BRANCH  70  71
ATOM     71  N   UNL A   1      33.044  29.722  24.677  1.00  0.00    -0.352 N 
ATOM     72  C   UNL A   1      32.966  28.660  23.813  1.00  0.00     0.253 C 
ATOM     73  H   UNL A   1      33.761  30.372  24.493  1.00  0.00     0.163 HD
ATOM     74  O   UNL A   1      33.763  28.550  22.886  1.00  0.00    -0.269 OA
BRANCH  72  75
ATOM     75  C   UNL A   1      31.939  27.619  24.013  1.00  0.00     0.063 A 
ATOM     76  C   UNL A   1      32.246  26.617  24.946  1.00  0.00     0.016 A 
ATOM     77  C   UNL A   1      30.718  27.617  23.309  1.00  0.00     0.051 A 
ATOM     78  C   UNL A   1      31.315  25.623  25.229  1.00  0.00     0.001 A 
ATOM     79  C   UNL A   1      29.790  26.615  23.634  1.00  0.00     0.027 A 
ATOM     80  C   UNL A   1      30.083  25.628  24.581  1.00  0.00     0.002 A 
BRANCH  77  81
ATOM     81  N   UNL A   1      30.416  28.602  22.347  1.00  0.00    -0.355 N 
ATOM     82  H   UNL A   1      30.794  28.429  21.455  1.00  0.00     0.167 HD
BRANCH  81  83
ATOM     83  C   UNL A   1      29.669  29.789  22.440  1.00  0.00     0.039 A 
ATOM     84  C   UNL A   1      29.451  30.361  23.699  1.00  0.00     0.026 A 
ATOM     85  C   UNL A   1      29.173  30.455  21.311  1.00  0.00     0.039 A 
ATOM     86  C   UNL A   1      28.755  31.564  23.829  1.00  0.00     0.003 A 
ATOM     87  C   UNL A   1      28.456  31.657  21.426  1.00  0.00     0.058 A 
ATOM     88  C   UNL A   1      28.261  32.211  22.698  1.00  0.00     0.013 A 
BRANCH  87  89
ATOM     89  C   UNL A   1      27.921  32.359  20.204  1.00  0.00     0.416 C 
ATOM     90  F   UNL A   1      28.899  32.698  19.317  1.00  0.00    -0.166 F 
ATOM     91  F   UNL A   1      27.041  31.586  19.508  1.00  0.00    -0.166 F 
ATOM     92  F   UNL A   1      27.258  33.515  20.485  1.00  0.00    -0.166 F 
ENDBRANCH  87  89
ENDBRANCH  81  83
ENDBRANCH  77  81
ENDBRANCH  72  75
ENDBRANCH  70  71
ENDBRANCH  69  70
ENDBRANCH   1  69
TORSDOF 17
ENDMDL
MODEL 2
REMARK VINA RESULT:     -12.2      6.223     10.728
REMARK SMILES O=C(NCCCCNC(=O)c1ccccc1Nc1cccc(C(F)(F)F)c1)c1ccc(-c2c3nc(c(-c4ccc(S(=O)(=O)[O-])cc4)c4ccc([nH]4)c(-c4ccc(S(=O)(=O)[O-])cc4)c4nc(c(-c5ccc(S(=O)(=O)[O-])cc5)c5ccc2[nH]5)C=C4)C=C3)cc1
REMARK SMILES IDX 5 1 4 2 3 3 1 4 2 5 28 7 29 8 87 9 30 10 86 11 31 12 32 13
REMARK SMILES IDX 33 14 80 15 34 16 85 17 79 18 81 19 35 20 84 21 78 22 77 23
REMARK SMILES IDX 36 25 66 26 47 27 65 28 48 29 51 30 64 31 82 32 49 33 50 34
REMARK SMILES IDX 63 36 83 37 52 38 37 39 38 40 46 41 39 42 45 43 40 44 41 45
REMARK SMILES IDX 42 46 43 47 44 48 67 49 68 50 76 51 69 52 75 53 70 54 71 55
REMARK SMILES IDX 72 56 73 57 74 58 53 59 54 60 62 61 55 62 61 63 56 64 57 65
REMARK SMILES IDX 58 66 59 67 60 68 6 69 7 70 8 71 9 72 10 74 11 75 12 76
REMARK SMILES IDX 16 77 13 78 15 79 14 80 17 81 18 83 19 84 27 85 20 86 22 87
REMARK SMILES IDX 21 88 23 89 24 90 25 91 26 92
REMARK H PARENT 3 6 81 24 51 35 8 73 17 82
REMARK Flexibility Score: inf
ROOT
ATOM      1  C   UNL A   1      31.450  31.939  26.872  1.00  0.00     0.023 C 
ENDROOT
BRANCH   1   2
ATOM      2  C   UNL A   1      32.800  32.511  27.284  1.00  0.00     0.116 C 
BRANCH   2   3
ATOM      3  N   UNL A   1      32.740  33.922  27.632  1.00  0.00    -0.352 N 
ATOM      4  O   UNL A   1      33.186  35.796  28.803  1.00  0.00    -0.269 OA
ATOM      5  C   UNL A   1      33.480  34.630  28.549  1.00  0.00     0.251 C 
ATOM      6  H   UNL A   1      32.069  34.448  27.138  1.00  0.00     0.163 HD
BRANCH   5   7
ATOM      7  C   UNL A   1      34.611  33.981  29.249  1.00  0.00     0.039 A 
ATOM      8  C   UNL A   1      34.383  33.071  30.283  1.00  0.00     0.014 A 
ATOM      9  C   UNL A   1      35.920  34.288  28.865  1.00  0.00     0.014 A 
ATOM     10  C   UNL A   1      35.454  32.593  31.031  1.00  0.00     0.010 A 
ATOM     11  C   UNL A   1      37.000  33.737  29.565  1.00  0.00     0.010 A 
ATOM     12  C   UNL A   1      36.775  32.914  30.678  1.00  0.00    -0.014 A 
BRANCH  12  13
ATOM     13  C   UNL A   1      37.897  32.332  31.460  1.00  0.00     0.031 A 
ATOM     14  C   UNL A   1      38.725  31.198  30.914  1.00  0.00     0.074 A 
ATOM     15  C   UNL A   1      38.196  32.869  32.659  1.00  0.00     0.049 A 
ATOM     16  N   UNL A   1      39.762  30.607  31.453  1.00  0.00    -0.248 NA
ATOM     17  C   UNL A   1      38.343  30.657  29.601  1.00  0.00     0.031 C 
ATOM     18  C   UNL A   1      37.464  33.967  33.297  1.00  0.00     0.029 A 
ATOM     19  N   UNL A   1      39.205  32.586  33.544  1.00  0.00    -0.354 N 
ATOM     20  C   UNL A   1      40.150  29.618  30.554  1.00  0.00     0.074 A 
ATOM     21  C   UNL A   1      39.219  29.672  29.447  1.00  0.00     0.031 C 
ATOM     22  C   UNL A   1      38.077  34.298  34.442  1.00  0.00     0.029 A 
ATOM     23  C   UNL A   1      39.207  33.401  34.652  1.00  0.00     0.049 A 
ATOM     24  H   UNL A   1      39.864  31.869  33.400  1.00  0.00     0.167 HD
ATOM     25  C   UNL A   1      41.189  28.753  30.640  1.00  0.00     0.031 A 
ATOM     26  C   UNL A   1      40.017  33.420  35.726  1.00  0.00     0.031 A 
ATOM     27  C   UNL A   1      42.111  28.699  31.746  1.00  0.00     0.049 A 
ATOM     28  C   UNL A   1      41.143  32.431  35.808  1.00  0.00     0.074 A 
ATOM     29  C   UNL A   1      43.199  27.860  31.920  1.00  0.00     0.029 A 
ATOM     30  N   UNL A   1      42.057  29.518  32.864  1.00  0.00    -0.354 N 
ATOM     31  N   UNL A   1      41.498  31.515  34.939  1.00  0.00    -0.248 NA
ATOM     32  C   UNL A   1      41.979  32.480  37.014  1.00  0.00     0.031 C 
ATOM     33  C   UNL A   1      43.778  28.144  33.163  1.00  0.00     0.029 A 
ATOM     34  C   UNL A   1      43.081  29.194  33.739  1.00  0.00     0.049 A 
ATOM     35  H   UNL A   1      41.388  30.225  33.014  1.00  0.00     0.167 HD
ATOM     36  C   UNL A   1      42.606  30.884  35.491  1.00  0.00     0.074 A 
ATOM     37  C   UNL A   1      42.876  31.540  36.754  1.00  0.00     0.031 C 
ATOM     38  C   UNL A   1      43.331  29.851  34.997  1.00  0.00     0.031 A 
BRANCH  25  39
ATOM     39  C   UNL A   1      41.379  27.775  29.510  1.00  0.00    -0.014 A 
ATOM     40  C   UNL A   1      42.488  27.867  28.650  1.00  0.00     0.010 A 
ATOM     41  C   UNL A   1      40.466  26.718  29.336  1.00  0.00     0.010 A 
ATOM     42  C   UNL A   1      42.662  26.942  27.616  1.00  0.00     0.020 A 
ATOM     43  C   UNL A   1      40.648  25.777  28.318  1.00  0.00     0.020 A 
ATOM     44  C   UNL A   1      41.737  25.905  27.453  1.00  0.00     0.054 A 
BRANCH  44  45
ATOM     45  S   UNL A   1      41.998  24.706  26.116  1.00  0.00     0.124 S 
ATOM     46  O   UNL A   1      41.853  25.546  24.929  1.00  0.00    -0.237 OA
ATOM     47  O   UNL A   1      43.350  24.220  26.377  1.00  0.00    -0.237 OA
ATOM     48  O   UNL A   1      40.935  23.725  26.317  1.00  0.00    -0.744 OA
ENDBRANCH  44  45
ENDBRANCH  25  39
BRANCH  26  49
ATOM     49  C   UNL A   1      39.774  34.401  36.816  1.00  0.00    -0.014 A 
ATOM     50  C   UNL A   1      38.995  34.055  37.934  1.00  0.00     0.010 A 
ATOM     51  C   UNL A   1      40.343  35.686  36.747  1.00  0.00     0.010 A 
ATOM     52  C   UNL A   1      38.775  34.984  38.955  1.00  0.00     0.020 A 
ATOM     53  C   UNL A   1      40.150  36.606  37.779  1.00  0.00     0.020 A 
ATOM     54  C   UNL A   1      39.355  36.254  38.871  1.00  0.00     0.054 A 
BRANCH  54  55
ATOM     55  S   UNL A   1      39.101  37.429  40.229  1.00  0.00     0.124 S 
ATOM     56  O   UNL A   1      38.204  38.406  39.620  1.00  0.00    -0.237 OA
ATOM     57  O   UNL A   1      38.511  36.591  41.270  1.00  0.00    -0.237 OA
ATOM     58  O   UNL A   1      40.450  37.909  40.520  1.00  0.00    -0.744 OA
ENDBRANCH  54  55
ENDBRANCH  26  49
BRANCH  38  59
ATOM     59  C   UNL A   1      44.501  29.384  35.819  1.00  0.00    -0.014 A 
ATOM     60  C   UNL A   1      45.758  30.001  35.707  1.00  0.00     0.010 A 
ATOM     61  C   UNL A   1      44.329  28.332  36.736  1.00  0.00     0.010 A 
ATOM     62  C   UNL A   1      46.838  29.548  36.470  1.00  0.00     0.020 A 
ATOM     63  C   UNL A   1      45.400  27.892  37.519  1.00  0.00     0.020 A 
ATOM     64  C   UNL A   1      46.651  28.492  37.369  1.00  0.00     0.054 A 
BRANCH  64  65
ATOM     65  S   UNL A   1      48.058  27.938  38.371  1.00  0.00     0.124 S 
ATOM     66  O   UNL A   1      49.084  28.916  38.021  1.00  0.00    -0.237 OA
ATOM     67  O   UNL A   1      47.540  28.031  39.735  1.00  0.00    -0.237 OA
ATOM     68  O   UNL A   1      48.305  26.578  37.898  1.00  0.00    -0.744 OA
ENDBRANCH  64  65
ENDBRANCH  38  59
ENDBRANCH  12  13
ENDBRANCH   5   7
ENDBRANCH   2   3
ENDBRANCH   1   2
BRANCH   1  69
ATOM     69  C   UNL A   1      31.501  30.745  25.920  1.00  0.00     0.023 C 
BRANCH  69  70
ATOM     70  C   UNL A   1      32.811  29.964  25.912  1.00  0.00     0.116 C 
BRANCH  70  71
ATOM     71  N   UNL A   1      33.347  29.759  24.575  1.00  0.00    -0.352 N 
ATOM     72  C   UNL A   1      33.411  28.597  23.849  1.00  0.00     0.253 C 
ATOM     73  H   UNL A   1      33.713  30.561  24.135  1.00  0.00     0.163 HD
ATOM     74  O   UNL A   1      33.910  28.590  22.728  1.00  0.00    -0.269 OA
BRANCH  72  75
ATOM     75  C   UNL A   1      32.908  27.336  24.427  1.00  0.00     0.063 A 
ATOM     76  C   UNL A   1      33.710  26.744  25.414  1.00  0.00     0.016 A 
ATOM     77  C   UNL A   1      31.695  26.747  24.015  1.00  0.00     0.051 A 
ATOM     78  C   UNL A   1      33.287  25.577  26.044  1.00  0.00     0.001 A 
ATOM     79  C   UNL A   1      31.285  25.584  24.685  1.00  0.00     0.027 A 
ATOM     80  C   UNL A   1      32.070  25.004  25.687  1.00  0.00     0.002 A 
BRANCH  77  81
ATOM     81  N   UNL A   1      30.900  27.320  23.002  1.00  0.00    -0.355 N 
ATOM     82  H   UNL A   1      31.212  27.135  22.087  1.00  0.00     0.167 HD
BRANCH  81  83
ATOM     83  C   UNL A   1      29.740  28.109  23.070  1.00  0.00     0.039 A 
ATOM     84  C   UNL A   1      28.504  27.489  23.284  1.00  0.00     0.026 A 
ATOM     85  C   UNL A   1      29.777  29.507  22.981  1.00  0.00     0.039 A 
ATOM     86  C   UNL A   1      27.334  28.242  23.406  1.00  0.00     0.003 A 
ATOM     87  C   UNL A   1      28.607  30.279  23.084  1.00  0.00     0.058 A 
ATOM     88  C   UNL A   1      27.385  29.631  23.308  1.00  0.00     0.013 A 
BRANCH  87  89
ATOM     89  C   UNL A   1      28.659  31.782  22.979  1.00  0.00     0.416 C 
ATOM     90  F   UNL A   1      29.378  32.358  23.982  1.00  0.00    -0.166 F 
ATOM     91  F   UNL A   1      29.241  32.198  21.819  1.00  0.00    -0.166 F 
ATOM     92  F   UNL A   1      27.434  32.374  23.012  1.00  0.00    -0.166 F 
ENDBRANCH  87  89
ENDBRANCH  81  83
ENDBRANCH  77  81
ENDBRANCH  72  75
ENDBRANCH  70  71
ENDBRANCH  69  70
ENDBRANCH   1  69
TORSDOF 17
ENDMDL
MODEL 3
REMARK VINA RESULT:     -12.1      4.257      9.853
REMARK SMILES O=C(NCCCCNC(=O)c1ccccc1Nc1cccc(C(F)(F)F)c1)c1ccc(-c2c3nc(c(-c4ccc(S(=O)(=O)[O-])cc4)c4ccc([nH]4)c(-c4ccc(S(=O)(=O)[O-])cc4)c4nc(c(-c5ccc(S(=O)(=O)[O-])cc5)c5ccc2[nH]5)C=C4)C=C3)cc1
REMARK SMILES IDX 5 1 4 2 3 3 1 4 2 5 28 7 29 8 87 9 30 10 86 11 31 12 32 13
REMARK SMILES IDX 33 14 80 15 34 16 85 17 79 18 81 19 35 20 84 21 78 22 77 23
REMARK SMILES IDX 36 25 66 26 47 27 65 28 48 29 51 30 64 31 82 32 49 33 50 34
REMARK SMILES IDX 63 36 83 37 52 38 37 39 38 40 46 41 39 42 45 43 40 44 41 45
REMARK SMILES IDX 42 46 43 47 44 48 67 49 68 50 76 51 69 52 75 53 70 54 71 55
REMARK SMILES IDX 72 56 73 57 74 58 53 59 54 60 62 61 55 62 61 63 56 64 57 65
REMARK SMILES IDX 58 66 59 67 60 68 6 69 7 70 8 71 9 72 10 74 11 75 12 76
REMARK SMILES IDX 16 77 13 78 15 79 14 80 17 81 18 83 19 84 27 85 20 86 22 87
REMARK SMILES IDX 21 88 23 89 24 90 25 91 26 92
REMARK H PARENT 3 6 81 24 51 35 8 73 17 82
REMARK Flexibility Score: inf
ROOT
ATOM      1  C   UNL A   1      35.652  23.984  26.072  1.00  0.00     0.023 C 
ENDROOT
BRANCH   1   2
ATOM      2  C   UNL A   1      36.793  23.938  25.063  1.00  0.00     0.116 C 
BRANCH   2   3
ATOM      3  N   UNL A   1      37.774  22.905  25.359  1.00  0.00    -0.352 N 
ATOM      4  O   UNL A   1      39.725  22.037  26.082  1.00  0.00    -0.269 OA
ATOM      5  C   UNL A   1      38.956  22.995  26.056  1.00  0.00     0.251 C 
ATOM      6  H   UNL A   1      37.560  22.010  25.007  1.00  0.00     0.163 HD
BRANCH   5   7
ATOM      7  C   UNL A   1      39.313  24.252  26.751  1.00  0.00     0.039 A 
ATOM      8  C   UNL A   1      40.057  25.240  26.102  1.00  0.00     0.014 A 
ATOM      9  C   UNL A   1      38.898  24.446  28.072  1.00  0.00     0.014 A 
ATOM     10  C   UNL A   1      40.517  26.340  26.818  1.00  0.00     0.010 A 
ATOM     11  C   UNL A   1      39.290  25.597  28.765  1.00  0.00     0.010 A 
ATOM     12  C   UNL A   1      40.133  26.537  28.155  1.00  0.00    -0.014 A 
BRANCH  12  13
ATOM     13  C   UNL A   1      40.589  27.758  28.868  1.00  0.00     0.031 A 
ATOM     14  C   UNL A   1      41.990  27.870  29.409  1.00  0.00     0.074 A 
ATOM     15  C   UNL A   1      39.736  28.796  28.985  1.00  0.00     0.049 A 
ATOM     16  N   UNL A   1      42.555  28.883  30.018  1.00  0.00    -0.248 NA
ATOM     17  C   UNL A   1      42.869  26.702  29.251  1.00  0.00     0.031 C 
ATOM     18  C   UNL A   1      38.351  28.805  28.506  1.00  0.00     0.029 A 
ATOM     19  N   UNL A   1      39.911  30.047  29.516  1.00  0.00    -0.354 N 
ATOM     20  C   UNL A   1      43.848  28.472  30.327  1.00  0.00     0.074 A 
ATOM     21  C   UNL A   1      43.975  27.107  29.861  1.00  0.00     0.031 C 
ATOM     22  C   UNL A   1      37.821  30.017  28.717  1.00  0.00     0.029 A 
ATOM     23  C   UNL A   1      38.802  30.852  29.400  1.00  0.00     0.049 A 
ATOM     24  H   UNL A   1      40.749  30.341  29.941  1.00  0.00     0.167 HD
ATOM     25  C   UNL A   1      44.839  29.170  30.933  1.00  0.00     0.031 A 
ATOM     26  C   UNL A   1      38.588  32.116  29.807  1.00  0.00     0.031 A 
ATOM     27  C   UNL A   1      44.707  30.527  31.400  1.00  0.00     0.049 A 
ATOM     28  C   UNL A   1      39.694  32.856  30.502  1.00  0.00     0.074 A 
ATOM     29  C   UNL A   1      45.658  31.319  32.022  1.00  0.00     0.029 A 
ATOM     30  N   UNL A   1      43.557  31.294  31.294  1.00  0.00    -0.354 N 
ATOM     31  N   UNL A   1      40.912  32.451  30.769  1.00  0.00    -0.248 NA
ATOM     32  C   UNL A   1      39.397  34.223  30.948  1.00  0.00     0.031 C 
ATOM     33  C   UNL A   1      45.068  32.552  32.330  1.00  0.00     0.029 A 
ATOM     34  C   UNL A   1      43.767  32.544  31.854  1.00  0.00     0.049 A 
ATOM     35  H   UNL A   1      42.715  30.994  30.883  1.00  0.00     0.167 HD
ATOM     36  C   UNL A   1      41.531  33.519  31.407  1.00  0.00     0.074 A 
ATOM     37  C   UNL A   1      40.561  34.594  31.461  1.00  0.00     0.031 C 
ATOM     38  C   UNL A   1      42.789  33.600  31.907  1.00  0.00     0.031 A 
BRANCH  25  39
ATOM     39  C   UNL A   1      46.156  28.471  31.146  1.00  0.00    -0.014 A 
ATOM     40  C   UNL A   1      47.194  28.576  30.201  1.00  0.00     0.010 A 
ATOM     41  C   UNL A   1      46.382  27.743  32.328  1.00  0.00     0.010 A 
ATOM     42  C   UNL A   1      48.418  27.938  30.418  1.00  0.00     0.020 A 
ATOM     43  C   UNL A   1      47.613  27.121  32.560  1.00  0.00     0.020 A 
ATOM     44  C   UNL A   1      48.618  27.209  31.595  1.00  0.00     0.054 A 
BRANCH  44  45
ATOM     45  S   UNL A   1      50.224  26.406  31.861  1.00  0.00     0.124 S 
ATOM     46  O   UNL A   1      50.723  27.118  33.036  1.00  0.00    -0.237 OA
ATOM     47  O   UNL A   1      49.855  25.011  32.084  1.00  0.00    -0.237 OA
ATOM     48  O   UNL A   1      50.951  26.665  30.622  1.00  0.00    -0.744 OA
ENDBRANCH  44  45
ENDBRANCH  25  39
BRANCH  26  49
ATOM     49  C   UNL A   1      37.263  32.751  29.581  1.00  0.00    -0.014 A 
ATOM     50  C   UNL A   1      36.420  33.059  30.662  1.00  0.00     0.010 A 
ATOM     51  C   UNL A   1      36.848  33.068  28.274  1.00  0.00     0.010 A 
ATOM     52  C   UNL A   1      35.176  33.659  30.438  1.00  0.00     0.020 A 
ATOM     53  C   UNL A   1      35.620  33.693  28.049  1.00  0.00     0.020 A 
ATOM     54  C   UNL A   1      34.785  33.972  29.132  1.00  0.00     0.054 A 
BRANCH  54  55
ATOM     55  S   UNL A   1      33.191  34.795  28.865  1.00  0.00     0.124 S 
ATOM     56  O   UNL A   1      32.598  34.747  30.198  1.00  0.00    -0.237 OA
ATOM     57  O   UNL A   1      33.591  36.120  28.397  1.00  0.00    -0.237 OA
ATOM     58  O   UNL A   1      32.542  33.959  27.857  1.00  0.00    -0.744 OA
ENDBRANCH  54  55
ENDBRANCH  26  49
BRANCH  38  59
ATOM     59  C   UNL A   1      43.189  34.906  32.536  1.00  0.00    -0.014 A 
ATOM     60  C   UNL A   1      43.037  35.123  33.916  1.00  0.00     0.010 A 
ATOM     61  C   UNL A   1      43.751  35.918  31.738  1.00  0.00     0.010 A 
ATOM     62  C   UNL A   1      43.403  36.346  34.483  1.00  0.00     0.020 A 
ATOM     63  C   UNL A   1      44.142  37.134  32.305  1.00  0.00     0.020 A 
ATOM     64  C   UNL A   1      43.950  37.346  33.672  1.00  0.00     0.054 A 
BRANCH  64  65
ATOM     65  S   UNL A   1      44.446  38.916  34.433  1.00  0.00     0.124 S 
ATOM     66  O   UNL A   1      44.141  38.681  35.841  1.00  0.00    -0.237 OA
ATOM     67  O   UNL A   1      45.867  39.001  34.103  1.00  0.00    -0.237 OA
ATOM     68  O   UNL A   1      43.600  39.905  33.767  1.00  0.00    -0.744 OA
ENDBRANCH  64  65
ENDBRANCH  38  59
ENDBRANCH  12  13
ENDBRANCH   5   7
ENDBRANCH   2   3
ENDBRANCH   1   2
BRANCH   1  69
ATOM     69  C   UNL A   1      34.254  23.748  25.500  1.00  0.00     0.023 C 
BRANCH  69  70
ATOM     70  C   UNL A   1      33.533  24.991  24.988  1.00  0.00     0.116 C 
BRANCH  70  71
ATOM     71  N   UNL A   1      32.184  25.126  25.513  1.00  0.00    -0.352 N 
ATOM     72  C   UNL A   1      31.567  26.247  26.008  1.00  0.00     0.253 C 
ATOM     73  H   UNL A   1      31.642  24.304  25.514  1.00  0.00     0.163 HD
ATOM     74  O   UNL A   1      30.416  26.192  26.428  1.00  0.00    -0.269 OA
BRANCH  72  75
ATOM     75  C   UNL A   1      32.300  27.527  26.068  1.00  0.00     0.063 A 
ATOM     76  C   UNL A   1      33.049  27.757  27.232  1.00  0.00     0.016 A 
ATOM     77  C   UNL A   1      32.254  28.474  25.026  1.00  0.00     0.051 A 
ATOM     78  C   UNL A   1      33.807  28.918  27.352  1.00  0.00     0.001 A 
ATOM     79  C   UNL A   1      33.046  29.624  25.166  1.00  0.00     0.027 A 
ATOM     80  C   UNL A   1      33.814  29.846  26.314  1.00  0.00     0.002 A 
BRANCH  77  81
ATOM     81  N   UNL A   1      31.478  28.264  23.868  1.00  0.00    -0.355 N 
ATOM     82  H   UNL A   1      31.944  27.785  23.147  1.00  0.00     0.167 HD
BRANCH  81  83
ATOM     83  C   UNL A   1      30.153  28.622  23.564  1.00  0.00     0.039 A 
ATOM     84  C   UNL A   1      29.212  27.614  23.326  1.00  0.00     0.026 A 
ATOM     85  C   UNL A   1      29.722  29.955  23.538  1.00  0.00     0.039 A 
ATOM     86  C   UNL A   1      27.876  27.926  23.068  1.00  0.00     0.003 A 
ATOM     87  C   UNL A   1      28.385  30.287  23.262  1.00  0.00     0.058 A 
ATOM     88  C   UNL A   1      27.462  29.257  23.037  1.00  0.00     0.013 A 
BRANCH  87  89
ATOM     89  C   UNL A   1      27.936  31.726  23.230  1.00  0.00     0.416 C 
ATOM     90  F   UNL A   1      27.607  32.150  21.978  1.00  0.00    -0.166 F 
ATOM     91  F   UNL A   1      26.830  31.939  23.997  1.00  0.00    -0.166 F 
ATOM     92  F   UNL A   1      28.876  32.602  23.683  1.00  0.00    -0.166 F 
ENDBRANCH  87  89
ENDBRANCH  81  83
ENDBRANCH  77  81
ENDBRANCH  72  75
ENDBRANCH  70  71
ENDBRANCH  69  70
ENDBRANCH   1  69
TORSDOF 17
ENDMDL
