MODEL 1
REMARK VINA RESULT:     -12.0      0.000      0.000
REMARK SMILES CN1C(=O)[C@@H]2CC=CC[C@]2(C(=O)NCCCCNC(=O)c2ccc(-c3c4nc(c(-c5ccc(S(=O)(=O)[O-])cc5)c5ccc([nH]5)c(-c5ccc(S(=O)(=O)[O-])cc5)c5nc(c(-c6ccc(S(=O)(=O)[O-])cc6)c6ccc3[nH]6)C=C5)C=C4)cc2)[C@H]1c1ccccc1
REMARK SMILES IDX 16 1 15 2 14 3 13 4 11 5 12 6 10 8 1 9 2 10 3 11 81 12 4 13
REMARK SMILES IDX 5 14 6 15 9 16 7 17 8 18 82 19 83 20 87 21 84 22 86 23 85 24
REMARK SMILES IDX 17 25 18 26 19 27 20 29 21 30 22 31 80 32 23 33 79 34 24 35
REMARK SMILES IDX 25 36 26 37 73 38 27 39 78 40 72 41 74 42 28 43 77 44 71 45
REMARK SMILES IDX 70 46 29 48 59 49 40 50 58 51 41 52 44 53 57 54 75 55 42 56
REMARK SMILES IDX 43 57 56 59 76 60 45 61 30 62 31 63 39 64 32 65 38 66 33 67
REMARK SMILES IDX 34 68 35 69 36 70 37 71 60 72 61 73 69 74 62 75 68 76 63 77
REMARK SMILES IDX 64 78 65 79 66 80 67 81 46 82 47 83 55 84 48 85 54 86 49 87
REMARK SMILES IDX 50 88 51 89 52 90 53 91
REMARK H PARENT 13 7 18 28 74 47 44 58
REMARK Flexibility Score: inf
ROOT
ATOM      1  C   UNL A   1      33.854  28.211  26.233  1.00  0.00     0.023 C 
ENDROOT
BRANCH   1   2
ATOM      2  C   UNL A   1      33.291  28.919  25.004  1.00  0.00     0.023 C 
BRANCH   2   3
ATOM      3  C   UNL A   1      32.608  28.047  23.957  1.00  0.00     0.116 C 
BRANCH   3   4
ATOM      4  N   UNL A   1      33.349  27.022  23.219  1.00  0.00    -0.356 N 
ATOM      5  C   UNL A   1      32.996  25.712  22.887  1.00  0.00     0.229 C 
ATOM      6  O   UNL A   1      33.498  25.219  21.873  1.00  0.00    -0.274 OA
ATOM      7  H   UNL A   1      34.240  27.302  22.907  1.00  0.00     0.163 HD
BRANCH   5   8
ATOM      8  C   UNL A   1      32.127  24.852  23.844  1.00  0.00     0.089 C 
ATOM      9  C   UNL A   1      32.522  21.680  25.837  1.00  0.00     0.147 C 
ATOM     10  N   UNL A   1      32.351  23.048  25.397  1.00  0.00    -0.337 N 
ATOM     11  C   UNL A   1      31.781  24.058  26.133  1.00  0.00     0.227 C 
ATOM     12  C   UNL A   1      32.901  23.518  24.164  1.00  0.00     0.131 C 
ATOM     13  O   UNL A   1      31.333  23.929  27.257  1.00  0.00    -0.275 OA
ATOM     14  C   UNL A   1      31.872  25.355  25.318  1.00  0.00     0.101 C 
ATOM     15  C   UNL A   1      30.680  26.246  25.667  1.00  0.00     0.041 C 
ATOM     16  C   UNL A   1      30.779  24.733  23.060  1.00  0.00     0.047 C 
ATOM     17  C   UNL A   1      29.616  26.319  24.638  1.00  0.00    -0.030 C 
ATOM     18  C   UNL A   1      29.658  25.644  23.486  1.00  0.00    -0.030 C 
BRANCH  12  19
ATOM     19  C   UNL A   1      34.443  23.622  24.260  1.00  0.00    -0.024 A 
ATOM     20  C   UNL A   1      35.309  22.980  23.358  1.00  0.00     0.006 A 
ATOM     21  C   UNL A   1      35.039  24.260  25.363  1.00  0.00     0.006 A 
ATOM     22  C   UNL A   1      36.662  22.799  23.647  1.00  0.00     0.000 A 
ATOM     23  C   UNL A   1      36.392  24.064  25.667  1.00  0.00     0.000 A 
ATOM     24  C   UNL A   1      37.194  23.301  24.824  1.00  0.00     0.000 A 
ENDBRANCH  12  19
ENDBRANCH   5   8
ENDBRANCH   3   4
ENDBRANCH   2   3
ENDBRANCH   1   2
BRANCH   1  25
ATOM     25  C   UNL A   1      33.428  28.729  27.605  1.00  0.00     0.116 C 
BRANCH  25  26
ATOM     26  N   UNL A   1      33.547  30.167  27.814  1.00  0.00    -0.352 N 
ATOM     27  C   UNL A   1      34.700  30.872  28.116  1.00  0.00     0.251 C 
ATOM     28  H   UNL A   1      32.719  30.693  27.731  1.00  0.00     0.163 HD
ATOM     29  O   UNL A   1      34.668  32.086  28.283  1.00  0.00    -0.269 OA
BRANCH  27  30
ATOM     30  C   UNL A   1      35.963  30.118  28.292  1.00  0.00     0.039 A 
ATOM     31  C   UNL A   1      36.890  30.096  27.250  1.00  0.00     0.014 A 
ATOM     32  C   UNL A   1      36.279  29.557  29.532  1.00  0.00     0.014 A 
ATOM     33  C   UNL A   1      38.177  29.606  27.490  1.00  0.00     0.010 A 
ATOM     34  C   UNL A   1      37.588  29.163  29.794  1.00  0.00     0.010 A 
ATOM     35  C   UNL A   1      38.555  29.191  28.780  1.00  0.00    -0.014 A 
BRANCH  35  36
ATOM     36  C   UNL A   1      39.967  28.825  29.074  1.00  0.00     0.031 A 
ATOM     37  C   UNL A   1      40.889  29.803  29.755  1.00  0.00     0.074 A 
ATOM     38  C   UNL A   1      40.434  27.619  28.690  1.00  0.00     0.049 A 
ATOM     39  N   UNL A   1      42.127  29.632  30.140  1.00  0.00    -0.248 NA
ATOM     40  C   UNL A   1      40.362  31.153  30.013  1.00  0.00     0.031 C 
ATOM     41  C   UNL A   1      39.669  26.611  27.949  1.00  0.00     0.029 A 
ATOM     42  N   UNL A   1      41.660  27.029  28.875  1.00  0.00    -0.354 N 
ATOM     43  C   UNL A   1      42.528  30.849  30.680  1.00  0.00     0.074 A 
ATOM     44  C   UNL A   1      41.424  31.767  30.511  1.00  0.00     0.031 C 
ATOM     45  C   UNL A   1      40.424  25.511  27.793  1.00  0.00     0.029 A 
ATOM     46  C   UNL A   1      41.735  25.744  28.386  1.00  0.00     0.049 A 
ATOM     47  H   UNL A   1      42.414  27.482  29.317  1.00  0.00     0.167 HD
ATOM     48  C   UNL A   1      43.697  31.168  31.286  1.00  0.00     0.031 A 
ATOM     49  C   UNL A   1      42.742  24.849  28.421  1.00  0.00     0.031 A 
ATOM     50  C   UNL A   1      44.794  30.251  31.450  1.00  0.00     0.049 A 
ATOM     51  C   UNL A   1      44.026  25.220  29.111  1.00  0.00     0.074 A 
ATOM     52  C   UNL A   1      45.994  30.455  32.108  1.00  0.00     0.029 A 
ATOM     53  N   UNL A   1      44.831  28.960  30.944  1.00  0.00    -0.354 N 
ATOM     54  N   UNL A   1      44.346  26.344  29.707  1.00  0.00    -0.248 NA
ATOM     55  C   UNL A   1      45.077  24.195  29.148  1.00  0.00     0.031 C 
ATOM     56  C   UNL A   1      46.783  29.312  31.943  1.00  0.00     0.029 A 
ATOM     57  C   UNL A   1      46.047  28.368  31.245  1.00  0.00     0.049 A 
ATOM     58  H   UNL A   1      44.101  28.528  30.444  1.00  0.00     0.167 HD
ATOM     59  C   UNL A   1      45.631  26.154  30.207  1.00  0.00     0.074 A 
ATOM     60  C   UNL A   1      46.011  24.798  29.869  1.00  0.00     0.031 C 
ATOM     61  C   UNL A   1      46.424  27.025  30.881  1.00  0.00     0.031 A 
BRANCH  48  62
ATOM     62  C   UNL A   1      43.847  32.573  31.811  1.00  0.00    -0.014 A 
ATOM     63  C   UNL A   1      43.495  32.898  33.134  1.00  0.00     0.010 A 
ATOM     64  C   UNL A   1      44.380  33.576  30.982  1.00  0.00     0.010 A 
ATOM     65  C   UNL A   1      43.633  34.207  33.604  1.00  0.00     0.020 A 
ATOM     66  C   UNL A   1      44.550  34.880  31.458  1.00  0.00     0.020 A 
ATOM     67  C   UNL A   1      44.158  35.191  32.761  1.00  0.00     0.054 A 
BRANCH  67  68
ATOM     68  S   UNL A   1      44.347  36.875  33.407  1.00  0.00     0.124 S 
ATOM     69  O   UNL A   1      45.032  37.544  32.302  1.00  0.00    -0.237 OA
ATOM     70  O   UNL A   1      42.965  37.289  33.630  1.00  0.00    -0.237 OA
ATOM     71  O   UNL A   1      45.145  36.696  34.617  1.00  0.00    -0.744 OA
ENDBRANCH  67  68
ENDBRANCH  48  62
BRANCH  49  72
ATOM     72  C   UNL A   1      42.563  23.503  27.804  1.00  0.00    -0.014 A 
ATOM     73  C   UNL A   1      43.034  23.237  26.506  1.00  0.00     0.010 A 
ATOM     74  C   UNL A   1      41.929  22.473  28.523  1.00  0.00     0.010 A 
ATOM     75  C   UNL A   1      42.862  21.973  25.933  1.00  0.00     0.020 A 
ATOM     76  C   UNL A   1      41.782  21.199  27.966  1.00  0.00     0.020 A 
ATOM     77  C   UNL A   1      42.241  20.960  26.670  1.00  0.00     0.054 A 
BRANCH  77  78
ATOM     78  S   UNL A   1      42.084  19.310  25.931  1.00  0.00     0.124 S 
ATOM     79  O   UNL A   1      40.641  19.198  25.741  1.00  0.00    -0.237 OA
ATOM     80  O   UNL A   1      42.877  19.436  24.711  1.00  0.00    -0.237 OA
ATOM     81  O   UNL A   1      42.653  18.426  26.946  1.00  0.00    -0.744 OA
ENDBRANCH  77  78
ENDBRANCH  49  72
BRANCH  61  82
ATOM     82  C   UNL A   1      47.780  26.526  31.308  1.00  0.00    -0.014 A 
ATOM     83  C   UNL A   1      48.895  26.620  30.455  1.00  0.00     0.010 A 
ATOM     84  C   UNL A   1      47.945  25.966  32.589  1.00  0.00     0.010 A 
ATOM     85  C   UNL A   1      50.134  26.109  30.852  1.00  0.00     0.020 A 
ATOM     86  C   UNL A   1      49.190  25.487  33.002  1.00  0.00     0.020 A 
ATOM     87  C   UNL A   1      50.271  25.539  32.121  1.00  0.00     0.054 A 
BRANCH  87  88
ATOM     88  S   UNL A   1      51.888  24.883  32.612  1.00  0.00     0.124 S 
ATOM     89  O   UNL A   1      52.796  25.642  31.755  1.00  0.00    -0.237 OA
ATOM     90  O   UNL A   1      51.949  25.208  34.035  1.00  0.00    -0.237 OA
ATOM     91  O   UNL A   1      51.790  23.456  32.308  1.00  0.00    -0.744 OA
ENDBRANCH  87  88
ENDBRANCH  61  82
ENDBRANCH  35  36
ENDBRANCH  27  30
ENDBRANCH  25  26
ENDBRANCH   1  25
TORSDOF 15
ENDMDL
MODEL 2
REMARK VINA RESULT:     -11.8      1.128      8.251
REMARK SMILES CN1C(=O)[C@@H]2CC=CC[C@]2(C(=O)NCCCCNC(=O)c2ccc(-c3c4nc(c(-c5ccc(S(=O)(=O)[O-])cc5)c5ccc([nH]5)c(-c5ccc(S(=O)(=O)[O-])cc5)c5nc(c(-c6ccc(S(=O)(=O)[O-])cc6)c6ccc3[nH]6)C=C5)C=C4)cc2)[C@H]1c1ccccc1
REMARK SMILES IDX 16 1 15 2 14 3 13 4 11 5 12 6 10 8 1 9 2 10 3 11 81 12 4 13
REMARK SMILES IDX 5 14 6 15 9 16 7 17 8 18 82 19 83 20 87 21 84 22 86 23 85 24
REMARK SMILES IDX 17 25 18 26 19 27 20 29 21 30 22 31 80 32 23 33 79 34 24 35
REMARK SMILES IDX 25 36 26 37 73 38 27 39 78 40 72 41 74 42 28 43 77 44 71 45
REMARK SMILES IDX 70 46 29 48 59 49 40 50 58 51 41 52 44 53 57 54 75 55 42 56
REMARK SMILES IDX 43 57 56 59 76 60 45 61 30 62 31 63 39 64 32 65 38 66 33 67
REMARK SMILES IDX 34 68 35 69 36 70 37 71 60 72 61 73 69 74 62 75 68 76 63 77
REMARK SMILES IDX 64 78 65 79 66 80 67 81 46 82 47 83 55 84 48 85 54 86 49 87
REMARK SMILES IDX 50 88 51 89 52 90 53 91
REMARK H PARENT 13 7 18 28 74 47 44 58
REMARK Flexibility Score: inf
ROOT
ATOM      1  C   UNL A   1      34.028  28.286  25.918  1.00  0.00     0.023 C 
ENDROOT
BRANCH   1   2
ATOM      2  C   UNL A   1      33.328  28.935  24.728  1.00  0.00     0.023 C 
BRANCH   2   3
ATOM      3  C   UNL A   1      32.599  28.006  23.763  1.00  0.00     0.116 C 
BRANCH   3   4
ATOM      4  N   UNL A   1      33.307  26.940  23.052  1.00  0.00    -0.356 N 
ATOM      5  C   UNL A   1      32.935  25.617  22.800  1.00  0.00     0.229 C 
ATOM      6  O   UNL A   1      33.396  25.070  21.796  1.00  0.00    -0.274 OA
ATOM      7  H   UNL A   1      34.187  27.197  22.694  1.00  0.00     0.163 HD
BRANCH   5   8
ATOM      8  C   UNL A   1      32.098  24.813  23.831  1.00  0.00     0.089 C 
ATOM      9  C   UNL A   1      32.556  21.756  25.985  1.00  0.00     0.147 C 
ATOM     10  N   UNL A   1      32.370  23.098  25.474  1.00  0.00    -0.337 N 
ATOM     11  C   UNL A   1      31.825  24.148  26.171  1.00  0.00     0.227 C 
ATOM     12  C   UNL A   1      32.881  23.498  24.200  1.00  0.00     0.131 C 
ATOM     13  O   UNL A   1      31.413  24.083  27.314  1.00  0.00    -0.275 OA
ATOM     14  C   UNL A   1      31.889  25.398  25.282  1.00  0.00     0.101 C 
ATOM     15  C   UNL A   1      30.709  26.309  25.619  1.00  0.00     0.041 C 
ATOM     16  C   UNL A   1      30.725  24.654  23.099  1.00  0.00     0.047 C 
ATOM     17  C   UNL A   1      29.613  26.326  24.622  1.00  0.00    -0.030 C 
ATOM     18  C   UNL A   1      29.618  25.589  23.509  1.00  0.00    -0.030 C 
BRANCH  12  19
ATOM     19  C   UNL A   1      34.425  23.605  24.241  1.00  0.00    -0.024 A 
ATOM     20  C   UNL A   1      35.260  22.943  23.324  1.00  0.00     0.006 A 
ATOM     21  C   UNL A   1      35.058  24.267  25.308  1.00  0.00     0.006 A 
ATOM     22  C   UNL A   1      36.623  22.768  23.571  1.00  0.00     0.000 A 
ATOM     23  C   UNL A   1      36.421  24.078  25.570  1.00  0.00     0.000 A 
ATOM     24  C   UNL A   1      37.195  23.297  24.718  1.00  0.00     0.000 A 
ENDBRANCH  12  19
ENDBRANCH   5   8
ENDBRANCH   3   4
ENDBRANCH   2   3
ENDBRANCH   1   2
BRANCH   1  25
ATOM     25  C   UNL A   1      33.470  28.573  27.310  1.00  0.00     0.116 C 
BRANCH  25  26
ATOM     26  N   UNL A   1      33.433  29.974  27.711  1.00  0.00    -0.352 N 
ATOM     27  C   UNL A   1      34.494  30.736  28.171  1.00  0.00     0.251 C 
ATOM     28  H   UNL A   1      32.562  30.427  27.648  1.00  0.00     0.163 HD
ATOM     29  O   UNL A   1      34.332  31.908  28.492  1.00  0.00    -0.269 OA
BRANCH  27  30
ATOM     30  C   UNL A   1      35.816  30.086  28.323  1.00  0.00     0.039 A 
ATOM     31  C   UNL A   1      36.698  30.082  27.241  1.00  0.00     0.014 A 
ATOM     32  C   UNL A   1      36.227  29.612  29.572  1.00  0.00     0.014 A 
ATOM     33  C   UNL A   1      38.026  29.700  27.444  1.00  0.00     0.010 A 
ATOM     34  C   UNL A   1      37.572  29.329  29.791  1.00  0.00     0.010 A 
ATOM     35  C   UNL A   1      38.490  29.378  28.732  1.00  0.00    -0.014 A 
BRANCH  35  36
ATOM     36  C   UNL A   1      39.937  29.132  28.978  1.00  0.00     0.031 A 
ATOM     37  C   UNL A   1      40.559  27.802  28.643  1.00  0.00     0.074 A 
ATOM     38  C   UNL A   1      40.687  30.100  29.545  1.00  0.00     0.049 A 
ATOM     39  N   UNL A   1      41.811  27.435  28.735  1.00  0.00    -0.248 NA
ATOM     40  C   UNL A   1      39.657  26.741  28.168  1.00  0.00     0.031 C 
ATOM     41  C   UNL A   1      40.190  31.404  29.993  1.00  0.00     0.029 A 
ATOM     42  N   UNL A   1      42.028  30.145  29.833  1.00  0.00    -0.354 N 
ATOM     43  C   UNL A   1      41.847  26.104  28.336  1.00  0.00     0.074 A 
ATOM     44  C   UNL A   1      40.482  25.709  28.065  1.00  0.00     0.031 C 
ATOM     45  C   UNL A   1      41.219  32.138  30.447  1.00  0.00     0.029 A 
ATOM     46  C   UNL A   1      42.443  31.348  30.358  1.00  0.00     0.049 A 
ATOM     47  H   UNL A   1      42.638  29.387  29.677  1.00  0.00     0.167 HD
ATOM     48  C   UNL A   1      42.918  25.290  28.181  1.00  0.00     0.031 A 
ATOM     49  C   UNL A   1      43.670  31.774  30.717  1.00  0.00     0.031 A 
ATOM     50  C   UNL A   1      44.275  25.686  28.453  1.00  0.00     0.049 A 
ATOM     51  C   UNL A   1      44.846  30.859  30.524  1.00  0.00     0.074 A 
ATOM     52  C   UNL A   1      45.437  24.958  28.264  1.00  0.00     0.029 A 
ATOM     53  N   UNL A   1      44.653  26.911  28.981  1.00  0.00    -0.354 N 
ATOM     54  N   UNL A   1      44.870  29.637  30.046  1.00  0.00    -0.248 NA
ATOM     55  C   UNL A   1      46.164  31.386  30.901  1.00  0.00     0.031 C 
ATOM     56  C   UNL A   1      46.511  25.719  28.740  1.00  0.00     0.029 A 
ATOM     57  C   UNL A   1      46.027  26.948  29.157  1.00  0.00     0.049 A 
ATOM     58  H   UNL A   1      44.036  27.647  29.198  1.00  0.00     0.167 HD
ATOM     59  C   UNL A   1      46.208  29.256  30.049  1.00  0.00     0.074 A 
ATOM     60  C   UNL A   1      46.962  30.389  30.546  1.00  0.00     0.031 C 
ATOM     61  C   UNL A   1      46.762  28.074  29.677  1.00  0.00     0.031 A 
BRANCH  48  62
ATOM     62  C   UNL A   1      42.661  23.885  27.699  1.00  0.00    -0.014 A 
ATOM     63  C   UNL A   1      42.381  22.843  28.603  1.00  0.00     0.010 A 
ATOM     64  C   UNL A   1      42.664  23.608  26.319  1.00  0.00     0.010 A 
ATOM     65  C   UNL A   1      42.154  21.544  28.140  1.00  0.00     0.020 A 
ATOM     66  C   UNL A   1      42.404  22.316  25.851  1.00  0.00     0.020 A 
ATOM     67  C   UNL A   1      42.168  21.289  26.766  1.00  0.00     0.054 A 
BRANCH  67  68
ATOM     68  S   UNL A   1      41.844  19.598  26.194  1.00  0.00     0.124 S 
ATOM     69  O   UNL A   1      42.277  18.805  27.343  1.00  0.00    -0.237 OA
ATOM     70  O   UNL A   1      40.405  19.613  25.950  1.00  0.00    -0.237 OA
ATOM     71  O   UNL A   1      42.676  19.470  25.001  1.00  0.00    -0.744 OA
ENDBRANCH  67  68
ENDBRANCH  48  62
BRANCH  49  72
ATOM     72  C   UNL A   1      43.848  33.147  31.273  1.00  0.00    -0.014 A 
ATOM     73  C   UNL A   1      43.806  33.374  32.660  1.00  0.00     0.010 A 
ATOM     74  C   UNL A   1      44.074  34.236  30.410  1.00  0.00     0.010 A 
ATOM     75  C   UNL A   1      43.973  34.664  33.173  1.00  0.00     0.020 A 
ATOM     76  C   UNL A   1      44.273  35.522  30.922  1.00  0.00     0.020 A 
ATOM     77  C   UNL A   1      44.210  35.729  32.300  1.00  0.00     0.054 A 
BRANCH  77  78
ATOM     78  S   UNL A   1      44.486  37.384  32.992  1.00  0.00     0.124 S 
ATOM     79  O   UNL A   1      43.275  37.590  33.781  1.00  0.00    -0.237 OA
ATOM     80  O   UNL A   1      45.718  37.204  33.756  1.00  0.00    -0.237 OA
ATOM     81  O   UNL A   1      44.615  38.232  31.808  1.00  0.00    -0.744 OA
ENDBRANCH  77  78
ENDBRANCH  49  72
BRANCH  61  82
ATOM     82  C   UNL A   1      48.261  27.957  29.784  1.00  0.00    -0.014 A 
ATOM     83  C   UNL A   1      48.879  27.562  30.984  1.00  0.00     0.010 A 
ATOM     84  C   UNL A   1      49.063  28.234  28.661  1.00  0.00     0.010 A 
ATOM     85  C   UNL A   1      50.273  27.504  31.076  1.00  0.00     0.020 A 
ATOM     86  C   UNL A   1      50.454  28.142  28.738  1.00  0.00     0.020 A 
ATOM     87  C   UNL A   1      51.051  27.802  29.953  1.00  0.00     0.054 A 
BRANCH  87  88
ATOM     88  S   UNL A   1      52.857  27.721  30.099  1.00  0.00     0.124 S 
ATOM     89  O   UNL A   1      53.126  26.327  29.754  1.00  0.00    -0.237 OA
ATOM     90  O   UNL A   1      53.303  28.708  29.118  1.00  0.00    -0.237 OA
ATOM     91  O   UNL A   1      53.109  28.078  31.493  1.00  0.00    -0.744 OA
ENDBRANCH  87  88
ENDBRANCH  61  82
ENDBRANCH  35  36
ENDBRANCH  27  30
ENDBRANCH  25  26
ENDBRANCH   1  25
TORSDOF 15
ENDMDL
MODEL 3
REMARK VINA RESULT:     -11.7      4.445     10.165
REMARK SMILES CN1C(=O)[C@@H]2CC=CC[C@]2(C(=O)NCCCCNC(=O)c2ccc(-c3c4nc(c(-c5ccc(S(=O)(=O)[O-])cc5)c5ccc([nH]5)c(-c5ccc(S(=O)(=O)[O-])cc5)c5nc(c(-c6ccc(S(=O)(=O)[O-])cc6)c6ccc3[nH]6)C=C5)C=C4)cc2)[C@H]1c1ccccc1
REMARK SMILES IDX 16 1 15 2 14 3 13 4 11 5 12 6 10 8 1 9 2 10 3 11 81 12 4 13
REMARK SMILES IDX 5 14 6 15 9 16 7 17 8 18 82 19 83 20 87 21 84 22 86 23 85 24
REMARK SMILES IDX 17 25 18 26 19 27 20 29 21 30 22 31 80 32 23 33 79 34 24 35
REMARK SMILES IDX 25 36 26 37 73 38 27 39 78 40 72 41 74 42 28 43 77 44 71 45
REMARK SMILES IDX 70 46 29 48 59 49 40 50 58 51 41 52 44 53 57 54 75 55 42 56
REMARK SMILES IDX 43 57 56 59 76 60 45 61 30 62 31 63 39 64 32 65 38 66 33 67
REMARK SMILES IDX 34 68 35 69 36 70 37 71 60 72 61 73 69 74 62 75 68 76 63 77
REMARK SMILES IDX 64 78 65 79 66 80 67 81 46 82 47 83 55 84 48 85 54 86 49 87
REMARK SMILES IDX 50 88 51 89 52 90 53 91
REMARK H PARENT 13 7 18 28 74 47 44 58
REMARK Flexibility Score: inf
ROOT
ATOM      1  C   UNL A   1      37.494  23.449  26.153  1.00  0.00     0.023 C 
ENDROOT
BRANCH   1   2
ATOM      2  C   UNL A   1      36.241  24.234  25.775  1.00  0.00     0.023 C 
BRANCH   2   3
ATOM      3  C   UNL A   1      34.910  23.497  25.867  1.00  0.00     0.116 C 
BRANCH   3   4
ATOM      4  N   UNL A   1      33.736  24.120  26.483  1.00  0.00    -0.356 N 
ATOM      5  C   UNL A   1      32.441  24.296  25.989  1.00  0.00     0.229 C 
ATOM      6  O   UNL A   1      31.517  24.358  26.804  1.00  0.00    -0.274 OA
ATOM      7  H   UNL A   1      33.883  24.470  27.390  1.00  0.00     0.163 HD
BRANCH   5   8
ATOM      8  C   UNL A   1      32.191  24.564  24.480  1.00  0.00     0.089 C 
ATOM      9  C   UNL A   1      31.241  27.493  22.311  1.00  0.00     0.147 C 
ATOM     10  N   UNL A   1      31.915  26.392  22.964  1.00  0.00    -0.337 N 
ATOM     11  C   UNL A   1      32.968  25.680  22.445  1.00  0.00     0.227 C 
ATOM     12  C   UNL A   1      31.623  26.023  24.315  1.00  0.00     0.131 C 
ATOM     13  O   UNL A   1      33.467  25.876  21.353  1.00  0.00    -0.275 OA
ATOM     14  C   UNL A   1      33.423  24.660  23.498  1.00  0.00     0.101 C 
ATOM     15  C   UNL A   1      33.981  23.427  22.787  1.00  0.00     0.041 C 
ATOM     16  C   UNL A   1      31.256  23.376  24.078  1.00  0.00     0.047 C 
ATOM     17  C   UNL A   1      33.105  22.232  22.803  1.00  0.00    -0.030 C 
ATOM     18  C   UNL A   1      31.896  22.212  23.369  1.00  0.00    -0.030 C 
BRANCH  12  19
ATOM     19  C   UNL A   1      32.164  27.088  25.300  1.00  0.00    -0.024 A 
ATOM     20  C   UNL A   1      33.512  27.487  25.326  1.00  0.00     0.006 A 
ATOM     21  C   UNL A   1      31.335  27.595  26.316  1.00  0.00     0.006 A 
ATOM     22  C   UNL A   1      34.049  28.174  26.417  1.00  0.00     0.000 A 
ATOM     23  C   UNL A   1      31.873  28.267  27.420  1.00  0.00     0.000 A 
ATOM     24  C   UNL A   1      33.239  28.524  27.486  1.00  0.00     0.000 A 
ENDBRANCH  12  19
ENDBRANCH   5   8
ENDBRANCH   3   4
ENDBRANCH   2   3
ENDBRANCH   1   2
BRANCH   1  25
ATOM     25  C   UNL A   1      38.663  24.227  26.751  1.00  0.00     0.116 C 
BRANCH  25  26
ATOM     26  N   UNL A   1      39.674  24.693  25.809  1.00  0.00    -0.352 N 
ATOM     27  C   UNL A   1      40.684  25.606  26.057  1.00  0.00     0.251 C 
ATOM     28  H   UNL A   1      39.633  24.319  24.900  1.00  0.00     0.163 HD
ATOM     29  O   UNL A   1      41.470  25.929  25.173  1.00  0.00    -0.269 OA
BRANCH  27  30
ATOM     30  C   UNL A   1      40.760  26.229  27.399  1.00  0.00     0.039 A 
ATOM     31  C   UNL A   1      41.727  27.205  27.640  1.00  0.00     0.014 A 
ATOM     32  C   UNL A   1      39.787  25.945  28.361  1.00  0.00     0.014 A 
ATOM     33  C   UNL A   1      41.650  27.970  28.807  1.00  0.00     0.010 A 
ATOM     34  C   UNL A   1      39.655  26.774  29.472  1.00  0.00     0.010 A 
ATOM     35  C   UNL A   1      40.579  27.802  29.704  1.00  0.00    -0.014 A 
BRANCH  35  36
ATOM     36  C   UNL A   1      40.405  28.725  30.858  1.00  0.00     0.031 A 
ATOM     37  C   UNL A   1      41.258  28.583  32.091  1.00  0.00     0.074 A 
ATOM     38  C   UNL A   1      39.445  29.671  30.812  1.00  0.00     0.049 A 
ATOM     39  N   UNL A   1      41.283  29.333  33.163  1.00  0.00    -0.248 NA
ATOM     40  C   UNL A   1      42.183  27.440  32.139  1.00  0.00     0.031 C 
ATOM     41  C   UNL A   1      38.496  29.862  29.710  1.00  0.00     0.029 A 
ATOM     42  N   UNL A   1      39.111  30.658  31.706  1.00  0.00    -0.354 N 
ATOM     43  C   UNL A   1      42.218  28.752  34.011  1.00  0.00     0.074 A 
ATOM     44  C   UNL A   1      42.689  27.551  33.359  1.00  0.00     0.031 C 
ATOM     45  C   UNL A   1      37.727  30.932  29.970  1.00  0.00     0.029 A 
ATOM     46  C   UNL A   1      38.099  31.483  31.268  1.00  0.00     0.049 A 
ATOM     47  H   UNL A   1      39.555  30.766  32.579  1.00  0.00     0.167 HD
ATOM     48  C   UNL A   1      42.667  29.190  35.212  1.00  0.00     0.031 A 
ATOM     49  C   UNL A   1      37.540  32.567  31.841  1.00  0.00     0.031 A 
ATOM     50  C   UNL A   1      42.195  30.386  35.860  1.00  0.00     0.049 A 
ATOM     51  C   UNL A   1      38.063  33.044  33.168  1.00  0.00     0.074 A 
ATOM     52  C   UNL A   1      42.632  30.953  37.044  1.00  0.00     0.029 A 
ATOM     53  N   UNL A   1      41.172  31.194  35.384  1.00  0.00    -0.354 N 
ATOM     54  N   UNL A   1      39.022  32.537  33.906  1.00  0.00    -0.248 NA
ATOM     55  C   UNL A   1      37.441  34.249  33.730  1.00  0.00     0.031 C 
ATOM     56  C   UNL A   1      41.829  32.065  37.318  1.00  0.00     0.029 A 
ATOM     57  C   UNL A   1      40.941  32.235  36.270  1.00  0.00     0.049 A 
ATOM     58  H   UNL A   1      40.683  31.049  34.543  1.00  0.00     0.167 HD
ATOM     59  C   UNL A   1      39.130  33.373  35.013  1.00  0.00     0.074 A 
ATOM     60  C   UNL A   1      38.160  34.433  34.828  1.00  0.00     0.031 C 
ATOM     61  C   UNL A   1      39.954  33.270  36.086  1.00  0.00     0.031 A 
BRANCH  48  62
ATOM     62  C   UNL A   1      43.721  28.364  35.905  1.00  0.00    -0.014 A 
ATOM     63  C   UNL A   1      43.370  27.320  36.781  1.00  0.00     0.010 A 
ATOM     64  C   UNL A   1      45.082  28.612  35.650  1.00  0.00     0.010 A 
ATOM     65  C   UNL A   1      44.359  26.570  37.422  1.00  0.00     0.020 A 
ATOM     66  C   UNL A   1      46.074  27.842  36.265  1.00  0.00     0.020 A 
ATOM     67  C   UNL A   1      45.706  26.837  37.161  1.00  0.00     0.054 A 
BRANCH  67  68
ATOM     68  S   UNL A   1      46.967  25.829  37.989  1.00  0.00     0.124 S 
ATOM     69  O   UNL A   1      47.221  24.790  36.994  1.00  0.00    -0.237 OA
ATOM     70  O   UNL A   1      48.055  26.783  38.192  1.00  0.00    -0.237 OA
ATOM     71  O   UNL A   1      46.303  25.376  39.208  1.00  0.00    -0.744 OA
ENDBRANCH  67  68
ENDBRANCH  48  62
BRANCH  49  72
ATOM     72  C   UNL A   1      36.438  33.291  31.146  1.00  0.00    -0.014 A 
ATOM     73  C   UNL A   1      35.142  33.326  31.691  1.00  0.00     0.010 A 
ATOM     74  C   UNL A   1      36.686  33.964  29.935  1.00  0.00     0.010 A 
ATOM     75  C   UNL A   1      34.113  34.006  31.032  1.00  0.00     0.020 A 
ATOM     76  C   UNL A   1      35.668  34.671  29.289  1.00  0.00     0.020 A 
ATOM     77  C   UNL A   1      34.384  34.679  29.837  1.00  0.00     0.054 A 
BRANCH  77  78
ATOM     78  S   UNL A   1      33.048  35.608  29.032  1.00  0.00     0.124 S 
ATOM     79  O   UNL A   1      33.788  36.624  28.291  1.00  0.00    -0.237 OA
ATOM     80  O   UNL A   1      32.396  34.581  28.224  1.00  0.00    -0.237 OA
ATOM     81  O   UNL A   1      32.253  36.104  30.154  1.00  0.00    -0.744 OA
ENDBRANCH  77  78
ENDBRANCH  49  72
BRANCH  61  82
ATOM     82  C   UNL A   1      39.847  34.346  37.137  1.00  0.00    -0.014 A 
ATOM     83  C   UNL A   1      39.145  34.128  38.336  1.00  0.00     0.010 A 
ATOM     84  C   UNL A   1      40.472  35.589  36.926  1.00  0.00     0.010 A 
ATOM     85  C   UNL A   1      39.018  35.154  39.277  1.00  0.00     0.020 A 
ATOM     86  C   UNL A   1      40.379  36.604  37.881  1.00  0.00     0.020 A 
ATOM     87  C   UNL A   1      39.631  36.388  39.040  1.00  0.00     0.054 A 
BRANCH  87  88
ATOM     88  S   UNL A   1      39.450  37.702  40.276  1.00  0.00     0.124 S 
ATOM     89  O   UNL A   1      38.532  38.621  39.609  1.00  0.00    -0.237 OA
ATOM     90  O   UNL A   1      38.900  36.988  41.425  1.00  0.00    -0.237 OA
ATOM     91  O   UNL A   1      40.813  38.200  40.453  1.00  0.00    -0.744 OA
ENDBRANCH  87  88
ENDBRANCH  61  82
ENDBRANCH  35  36
ENDBRANCH  27  30
ENDBRANCH  25  26
ENDBRANCH   1  25
TORSDOF 15
ENDMDL
