MODEL 1
REMARK VINA RESULT:     -10.9      0.000      0.000
REMARK SMILES O=C(C[C@H](NS(=O)(=O)c1cccs1)c1ccccc1Cl)NCCCCNC(=O)c1ccc(-c2c3nc(c(-c4ccc(S(=O)(=O)[O-])cc4)c4ccc([nH]4)c(-c4ccc(S(=O)(=O)[O-])cc4)c4nc(c(-c5ccc(S(=O)(=O)[O-])cc5)c5ccc2[nH]5)C=C4)C=C3)cc1
REMARK SMILES IDX 23 1 22 2 21 3 1 4 2 5 3 7 4 8 14 9 15 10 19 11 16 12 18 13
REMARK SMILES IDX 20 14 17 15 5 16 6 18 7 19 8 20 9 21 10 22 13 23 11 24 12 25
REMARK SMILES IDX 24 26 25 27 26 28 27 29 28 31 29 32 30 33 88 34 31 35 87 36
REMARK SMILES IDX 32 37 33 38 34 39 81 40 35 41 86 42 80 43 82 44 36 45 85 46
REMARK SMILES IDX 79 47 78 48 37 50 67 51 48 52 66 53 49 54 52 55 65 56 83 57
REMARK SMILES IDX 50 58 51 59 64 61 84 62 53 63 38 64 39 65 47 66 40 67 46 68
REMARK SMILES IDX 41 69 42 70 43 71 44 72 45 73 68 74 69 75 77 76 70 77 76 78
REMARK SMILES IDX 71 79 72 80 73 81 74 82 75 83 54 84 55 85 63 86 56 87 62 88
REMARK SMILES IDX 57 89 58 90 59 91 60 92 61 93
REMARK H PARENT 21 6 5 17 26 30 82 49 52 60
REMARK Flexibility Score: inf
ROOT
ATOM      1  C   UNL A   1      31.863  27.126  25.705  1.00  0.00     0.023 C 
ENDROOT
BRANCH   1   2
ATOM      2  C   UNL A   1      30.934  25.991  26.113  1.00  0.00     0.116 C 
BRANCH   2   3
ATOM      3  N   UNL A   1      31.325  24.711  25.557  1.00  0.00    -0.356 N 
ATOM      4  O   UNL A   1      31.308  23.575  27.543  1.00  0.00    -0.275 OA
ATOM      5  C   UNL A   1      31.327  23.565  26.315  1.00  0.00     0.221 C 
ATOM      6  H   UNL A   1      31.596  24.662  24.613  1.00  0.00     0.163 HD
BRANCH   5   7
ATOM      7  C   UNL A   1      31.379  22.263  25.536  1.00  0.00     0.125 C 
BRANCH   7   8
ATOM      8  C   UNL A   1      32.537  22.069  24.519  1.00  0.00     0.111 C 
BRANCH   8   9
ATOM      9  C   UNL A   1      32.888  20.627  24.140  1.00  0.00    -0.011 A 
ATOM     10  C   UNL A   1      32.118  19.927  23.184  1.00  0.00     0.007 A 
ATOM     11  C   UNL A   1      33.943  19.926  24.756  1.00  0.00     0.045 A 
ATOM     12  C   UNL A   1      32.326  18.569  22.932  1.00  0.00     0.000 A 
ATOM     13  C   UNL A   1      34.126  18.556  24.526  1.00  0.00     0.021 A 
ATOM     14  Cl  UNL A   1      35.064  20.703  25.818  1.00  0.00    -0.084 Cl
ATOM     15  C   UNL A   1      33.308  17.875  23.627  1.00  0.00     0.002 A 
ENDBRANCH   8   9
BRANCH   8  16
ATOM     16  N   UNL A   1      32.232  22.886  23.307  1.00  0.00    -0.202 NA
ATOM     17  H   UNL A   1      31.397  23.436  23.515  1.00  0.00     0.142 HD
BRANCH  16  18
ATOM     18  S   UNL A   1      33.409  23.952  22.756  1.00  0.00     0.250 S 
ATOM     19  O   UNL A   1      33.869  23.439  21.488  1.00  0.00    -0.206 OA
ATOM     20  O   UNL A   1      32.870  25.289  22.885  1.00  0.00    -0.206 OA
BRANCH  18  21
ATOM     21  C   UNL A   1      34.819  23.919  23.828  1.00  0.00     0.134 A 
ATOM     22  C   UNL A   1      35.036  24.473  25.075  1.00  0.00     0.033 A 
ATOM     23  S   UNL A   1      36.196  23.073  23.270  1.00  0.00    -0.131 S 
ATOM     24  C   UNL A   1      36.324  24.158  25.593  1.00  0.00     0.013 A 
ATOM     25  C   UNL A   1      37.053  23.384  24.718  1.00  0.00     0.066 A 
ENDBRANCH  18  21
ENDBRANCH  16  18
ENDBRANCH   8  16
ENDBRANCH   7   8
ENDBRANCH   5   7
ENDBRANCH   2   3
ENDBRANCH   1   2
BRANCH   1  26
ATOM     26  C   UNL A   1      32.858  27.561  26.783  1.00  0.00     0.023 C 
BRANCH  26  27
ATOM     27  C   UNL A   1      33.905  28.579  26.341  1.00  0.00     0.116 C 
BRANCH  27  28
ATOM     28  N   UNL A   1      33.734  29.877  26.974  1.00  0.00    -0.352 N 
ATOM     29  C   UNL A   1      34.553  30.531  27.864  1.00  0.00     0.251 C 
ATOM     30  H   UNL A   1      32.910  30.358  26.731  1.00  0.00     0.163 HD
ATOM     31  O   UNL A   1      34.158  31.551  28.420  1.00  0.00    -0.269 OA
BRANCH  29  32
ATOM     32  C   UNL A   1      35.900  29.995  28.171  1.00  0.00     0.039 A 
ATOM     33  C   UNL A   1      36.901  30.085  27.201  1.00  0.00     0.014 A 
ATOM     34  C   UNL A   1      36.177  29.405  29.407  1.00  0.00     0.014 A 
ATOM     35  C   UNL A   1      38.196  29.651  27.497  1.00  0.00     0.010 A 
ATOM     36  C   UNL A   1      37.485  29.043  29.727  1.00  0.00     0.010 A 
ATOM     37  C   UNL A   1      38.510  29.163  28.776  1.00  0.00    -0.014 A 
BRANCH  37  38
ATOM     38  C   UNL A   1      39.904  28.790  29.140  1.00  0.00     0.031 A 
ATOM     39  C   UNL A   1      40.803  29.781  29.833  1.00  0.00     0.074 A 
ATOM     40  C   UNL A   1      40.384  27.577  28.794  1.00  0.00     0.049 A 
ATOM     41  N   UNL A   1      42.058  29.651  30.183  1.00  0.00    -0.248 NA
ATOM     42  C   UNL A   1      40.225  31.096  30.154  1.00  0.00     0.031 C 
ATOM     43  C   UNL A   1      39.629  26.536  28.091  1.00  0.00     0.029 A 
ATOM     44  N   UNL A   1      41.622  27.014  28.983  1.00  0.00    -0.354 N 
ATOM     45  C   UNL A   1      42.423  30.868  30.748  1.00  0.00     0.074 A 
ATOM     46  C   UNL A   1      41.273  31.739  30.650  1.00  0.00     0.031 C 
ATOM     47  C   UNL A   1      40.408  25.454  27.938  1.00  0.00     0.029 A 
ATOM     48  C   UNL A   1      41.731  25.736  28.484  1.00  0.00     0.049 A 
ATOM     49  H   UNL A   1      42.363  27.481  29.432  1.00  0.00     0.167 HD
ATOM     50  C   UNL A   1      43.603  31.223  31.312  1.00  0.00     0.031 A 
ATOM     51  C   UNL A   1      42.778  24.888  28.461  1.00  0.00     0.031 A 
ATOM     52  C   UNL A   1      44.745  30.352  31.414  1.00  0.00     0.049 A 
ATOM     53  C   UNL A   1      44.086  25.317  29.071  1.00  0.00     0.074 A 
ATOM     54  C   UNL A   1      45.963  30.602  32.022  1.00  0.00     0.029 A 
ATOM     55  N   UNL A   1      44.814  29.069  30.893  1.00  0.00    -0.354 N 
ATOM     56  N   UNL A   1      44.386  26.447  29.665  1.00  0.00    -0.248 NA
ATOM     57  C   UNL A   1      45.192  24.351  29.016  1.00  0.00     0.031 C 
ATOM     58  C   UNL A   1      46.792  29.497  31.809  1.00  0.00     0.029 A 
ATOM     59  C   UNL A   1      46.066  28.528  31.136  1.00  0.00     0.049 A 
ATOM     60  H   UNL A   1      44.082  28.610  30.420  1.00  0.00     0.167 HD
ATOM     61  C   UNL A   1      45.707  26.314  30.083  1.00  0.00     0.074 A 
ATOM     62  C   UNL A   1      46.140  24.990  29.687  1.00  0.00     0.031 C 
ATOM     63  C   UNL A   1      46.488  27.207  30.738  1.00  0.00     0.031 A 
BRANCH  50  64
ATOM     64  C   UNL A   1      43.728  32.625  31.853  1.00  0.00    -0.014 A 
ATOM     65  C   UNL A   1      44.039  33.709  31.011  1.00  0.00     0.010 A 
ATOM     66  C   UNL A   1      43.475  32.871  33.215  1.00  0.00     0.010 A 
ATOM     67  C   UNL A   1      44.135  35.004  31.530  1.00  0.00     0.020 A 
ATOM     68  C   UNL A   1      43.539  34.169  33.731  1.00  0.00     0.020 A 
ATOM     69  C   UNL A   1      43.885  35.225  32.887  1.00  0.00     0.054 A 
BRANCH  69  70
ATOM     70  S   UNL A   1      43.991  36.919  33.525  1.00  0.00     0.124 S 
ATOM     71  O   UNL A   1      44.995  36.782  34.577  1.00  0.00    -0.237 OA
ATOM     72  O   UNL A   1      44.415  37.677  32.350  1.00  0.00    -0.237 OA
ATOM     73  O   UNL A   1      42.637  37.202  33.991  1.00  0.00    -0.744 OA
ENDBRANCH  69  70
ENDBRANCH  50  64
BRANCH  51  74
ATOM     74  C   UNL A   1      42.632  23.537  27.848  1.00  0.00    -0.014 A 
ATOM     75  C   UNL A   1      41.985  22.501  28.545  1.00  0.00     0.010 A 
ATOM     76  C   UNL A   1      43.141  23.279  26.561  1.00  0.00     0.010 A 
ATOM     77  C   UNL A   1      41.871  21.228  27.979  1.00  0.00     0.020 A 
ATOM     78  C   UNL A   1      42.999  22.016  25.978  1.00  0.00     0.020 A 
ATOM     79  C   UNL A   1      42.376  20.995  26.697  1.00  0.00     0.054 A 
BRANCH  79  80
ATOM     80  S   UNL A   1      42.178  19.345  25.966  1.00  0.00     0.124 S 
ATOM     81  O   UNL A   1      42.725  18.483  27.008  1.00  0.00    -0.237 OA
ATOM     82  O   UNL A   1      40.732  19.262  25.769  1.00  0.00    -0.237 OA
ATOM     83  O   UNL A   1      42.964  19.420  24.736  1.00  0.00    -0.744 OA
ENDBRANCH  79  80
ENDBRANCH  51  74
BRANCH  63  84
ATOM     84  C   UNL A   1      47.883  26.774  31.112  1.00  0.00    -0.014 A 
ATOM     85  C   UNL A   1      48.976  27.000  30.257  1.00  0.00     0.010 A 
ATOM     86  C   UNL A   1      48.107  26.179  32.368  1.00  0.00     0.010 A 
ATOM     87  C   UNL A   1      50.263  26.608  30.638  1.00  0.00     0.020 A 
ATOM     88  C   UNL A   1      49.397  25.817  32.765  1.00  0.00     0.020 A 
ATOM     89  C   UNL A   1      50.465  26.021  31.891  1.00  0.00     0.054 A 
BRANCH  89  90
ATOM     90  S   UNL A   1      52.151  25.565  32.378  1.00  0.00     0.124 S 
ATOM     91  O   UNL A   1      52.114  24.108  32.275  1.00  0.00    -0.237 OA
ATOM     92  O   UNL A   1      52.968  26.245  31.377  1.00  0.00    -0.237 OA
ATOM     93  O   UNL A   1      52.274  26.090  33.736  1.00  0.00    -0.744 OA
ENDBRANCH  89  90
ENDBRANCH  63  84
ENDBRANCH  37  38
ENDBRANCH  29  32
ENDBRANCH  27  28
ENDBRANCH  26  27
ENDBRANCH   1  26
TORSDOF 19
ENDMDL
MODEL 2
REMARK VINA RESULT:     -10.7      0.629      8.136
REMARK SMILES O=C(C[C@H](NS(=O)(=O)c1cccs1)c1ccccc1Cl)NCCCCNC(=O)c1ccc(-c2c3nc(c(-c4ccc(S(=O)(=O)[O-])cc4)c4ccc([nH]4)c(-c4ccc(S(=O)(=O)[O-])cc4)c4nc(c(-c5ccc(S(=O)(=O)[O-])cc5)c5ccc2[nH]5)C=C4)C=C3)cc1
REMARK SMILES IDX 23 1 22 2 21 3 1 4 2 5 3 7 4 8 14 9 15 10 19 11 16 12 18 13
REMARK SMILES IDX 20 14 17 15 5 16 6 18 7 19 8 20 9 21 10 22 13 23 11 24 12 25
REMARK SMILES IDX 24 26 25 27 26 28 27 29 28 31 29 32 30 33 88 34 31 35 87 36
REMARK SMILES IDX 32 37 33 38 34 39 81 40 35 41 86 42 80 43 82 44 36 45 85 46
REMARK SMILES IDX 79 47 78 48 37 50 67 51 48 52 66 53 49 54 52 55 65 56 83 57
REMARK SMILES IDX 50 58 51 59 64 61 84 62 53 63 38 64 39 65 47 66 40 67 46 68
REMARK SMILES IDX 41 69 42 70 43 71 44 72 45 73 68 74 69 75 77 76 70 77 76 78
REMARK SMILES IDX 71 79 72 80 73 81 74 82 75 83 54 84 55 85 63 86 56 87 62 88
REMARK SMILES IDX 57 89 58 90 59 91 60 92 61 93
REMARK H PARENT 21 6 5 17 26 30 82 49 52 60
REMARK Flexibility Score: inf
ROOT
ATOM      1  C   UNL A   1      31.615  27.294  25.775  1.00  0.00     0.023 C 
ENDROOT
BRANCH   1   2
ATOM      2  C   UNL A   1      30.542  26.220  25.881  1.00  0.00     0.116 C 
BRANCH   2   3
ATOM      3  N   UNL A   1      30.963  24.944  25.337  1.00  0.00    -0.356 N 
ATOM      4  O   UNL A   1      30.541  23.728  27.228  1.00  0.00    -0.275 OA
ATOM      5  C   UNL A   1      30.776  23.768  26.023  1.00  0.00     0.221 C 
ATOM      6  H   UNL A   1      31.394  24.919  24.453  1.00  0.00     0.163 HD
BRANCH   5   7
ATOM      7  C   UNL A   1      30.901  22.500  25.199  1.00  0.00     0.125 C 
BRANCH   7   8
ATOM      8  C   UNL A   1      32.173  22.323  24.324  1.00  0.00     0.111 C 
BRANCH   8   9
ATOM      9  C   UNL A   1      32.619  20.886  24.038  1.00  0.00    -0.011 A 
ATOM     10  C   UNL A   1      32.062  20.161  22.961  1.00  0.00     0.007 A 
ATOM     11  C   UNL A   1      33.549  20.213  24.855  1.00  0.00     0.045 A 
ATOM     12  C   UNL A   1      32.342  18.805  22.771  1.00  0.00     0.000 A 
ATOM     13  C   UNL A   1      33.801  18.846  24.682  1.00  0.00     0.021 A 
ATOM     14  Cl  UNL A   1      34.428  21.023  26.103  1.00  0.00    -0.084 Cl
ATOM     15  C   UNL A   1      33.185  18.140  23.651  1.00  0.00     0.002 A 
ENDBRANCH   8   9
BRANCH   8  16
ATOM     16  N   UNL A   1      31.974  23.089  23.058  1.00  0.00    -0.202 NA
ATOM     17  H   UNL A   1      31.130  23.651  23.173  1.00  0.00     0.142 HD
BRANCH  16  18
ATOM     18  S   UNL A   1      33.202  24.123  22.560  1.00  0.00     0.250 S 
ATOM     19  O   UNL A   1      33.518  23.764  21.199  1.00  0.00    -0.206 OA
ATOM     20  O   UNL A   1      32.800  25.467  22.917  1.00  0.00    -0.206 OA
BRANCH  18  21
ATOM     21  C   UNL A   1      34.677  23.822  23.493  1.00  0.00     0.134 A 
ATOM     22  C   UNL A   1      35.769  23.012  23.245  1.00  0.00     0.033 A 
ATOM     23  S   UNL A   1      34.833  24.645  24.984  1.00  0.00    -0.131 S 
ATOM     24  C   UNL A   1      36.758  23.107  24.265  1.00  0.00     0.013 A 
ATOM     25  C   UNL A   1      36.383  23.978  25.264  1.00  0.00     0.066 A 
ENDBRANCH  18  21
ENDBRANCH  16  18
ENDBRANCH   8  16
ENDBRANCH   7   8
ENDBRANCH   5   7
ENDBRANCH   2   3
ENDBRANCH   1   2
BRANCH   1  26
ATOM     26  C   UNL A   1      32.502  27.441  27.013  1.00  0.00     0.023 C 
BRANCH  26  27
ATOM     27  C   UNL A   1      33.760  28.284  26.826  1.00  0.00     0.116 C 
BRANCH  27  28
ATOM     28  N   UNL A   1      33.594  29.656  27.278  1.00  0.00    -0.352 N 
ATOM     29  C   UNL A   1      34.460  30.455  27.986  1.00  0.00     0.251 C 
ATOM     30  H   UNL A   1      32.734  30.074  27.042  1.00  0.00     0.163 HD
ATOM     31  O   UNL A   1      34.074  31.536  28.422  1.00  0.00    -0.269 OA
BRANCH  29  32
ATOM     32  C   UNL A   1      35.848  30.006  28.245  1.00  0.00     0.039 A 
ATOM     33  C   UNL A   1      36.789  30.092  27.216  1.00  0.00     0.014 A 
ATOM     34  C   UNL A   1      36.221  29.499  29.493  1.00  0.00     0.014 A 
ATOM     35  C   UNL A   1      38.120  29.740  27.462  1.00  0.00     0.010 A 
ATOM     36  C   UNL A   1      37.562  29.222  29.757  1.00  0.00     0.010 A 
ATOM     37  C   UNL A   1      38.527  29.340  28.745  1.00  0.00    -0.014 A 
BRANCH  37  38
ATOM     38  C   UNL A   1      39.956  29.059  29.049  1.00  0.00     0.031 A 
ATOM     39  C   UNL A   1      40.563  27.725  28.700  1.00  0.00     0.074 A 
ATOM     40  C   UNL A   1      40.697  29.983  29.696  1.00  0.00     0.049 A 
ATOM     41  N   UNL A   1      41.774  27.284  28.930  1.00  0.00    -0.248 NA
ATOM     42  C   UNL A   1      39.690  26.751  28.023  1.00  0.00     0.031 C 
ATOM     43  C   UNL A   1      40.222  31.303  30.122  1.00  0.00     0.029 A 
ATOM     44  N   UNL A   1      42.005  29.955  30.112  1.00  0.00    -0.354 N 
ATOM     45  C   UNL A   1      41.803  25.982  28.444  1.00  0.00     0.074 A 
ATOM     46  C   UNL A   1      40.476  25.687  27.950  1.00  0.00     0.031 C 
ATOM     47  C   UNL A   1      41.231  31.967  30.707  1.00  0.00     0.029 A 
ATOM     48  C   UNL A   1      42.410  31.107  30.746  1.00  0.00     0.049 A 
ATOM     49  H   UNL A   1      42.598  29.182  29.971  1.00  0.00     0.167 HD
ATOM     50  C   UNL A   1      42.844  25.115  28.398  1.00  0.00     0.031 A 
ATOM     51  C   UNL A   1      43.593  31.436  31.302  1.00  0.00     0.031 A 
ATOM     52  C   UNL A   1      44.166  25.413  28.885  1.00  0.00     0.049 A 
ATOM     53  C   UNL A   1      44.725  30.445  31.262  1.00  0.00     0.074 A 
ATOM     54  C   UNL A   1      45.300  24.621  28.827  1.00  0.00     0.029 A 
ATOM     55  N   UNL A   1      44.531  26.588  29.523  1.00  0.00    -0.354 N 
ATOM     56  N   UNL A   1      44.751  29.245  30.732  1.00  0.00    -0.248 NA
ATOM     57  C   UNL A   1      45.990  30.857  31.885  1.00  0.00     0.031 C 
ATOM     58  C   UNL A   1      46.334  25.290  29.490  1.00  0.00     0.029 A 
ATOM     59  C   UNL A   1      45.865  26.529  29.894  1.00  0.00     0.049 A 
ATOM     60  H   UNL A   1      43.932  27.352  29.688  1.00  0.00     0.167 HD
ATOM     61  C   UNL A   1      46.045  28.774  30.929  1.00  0.00     0.074 A 
ATOM     62  C   UNL A   1      46.774  29.822  31.613  1.00  0.00     0.031 C 
ATOM     63  C   UNL A   1      46.582  27.580  30.574  1.00  0.00     0.031 A 
BRANCH  50  64
ATOM     64  C   UNL A   1      42.594  23.748  27.812  1.00  0.00    -0.014 A 
ATOM     65  C   UNL A   1      42.926  23.454  26.476  1.00  0.00     0.010 A 
ATOM     66  C   UNL A   1      42.069  22.727  28.624  1.00  0.00     0.010 A 
ATOM     67  C   UNL A   1      42.700  22.177  25.955  1.00  0.00     0.020 A 
ATOM     68  C   UNL A   1      41.871  21.439  28.116  1.00  0.00     0.020 A 
ATOM     69  C   UNL A   1      42.172  21.178  26.779  1.00  0.00     0.054 A 
BRANCH  69  70
ATOM     70  S   UNL A   1      41.915  19.523  26.082  1.00  0.00     0.124 S 
ATOM     71  O   UNL A   1      42.358  18.664  27.177  1.00  0.00    -0.237 OA
ATOM     72  O   UNL A   1      40.480  19.509  25.814  1.00  0.00    -0.237 OA
ATOM     73  O   UNL A   1      42.768  19.508  24.896  1.00  0.00    -0.744 OA
ENDBRANCH  69  70
ENDBRANCH  50  64
BRANCH  51  74
ATOM     74  C   UNL A   1      43.774  32.771  31.939  1.00  0.00    -0.014 A 
ATOM     75  C   UNL A   1      44.156  33.884  31.169  1.00  0.00     0.010 A 
ATOM     76  C   UNL A   1      43.566  32.937  33.321  1.00  0.00     0.010 A 
ATOM     77  C   UNL A   1      44.350  35.131  31.772  1.00  0.00     0.020 A 
ATOM     78  C   UNL A   1      43.727  34.189  33.922  1.00  0.00     0.020 A 
ATOM     79  C   UNL A   1      44.131  35.276  33.145  1.00  0.00     0.054 A 
BRANCH  79  80
ATOM     80  S   UNL A   1      44.348  36.913  33.897  1.00  0.00     0.124 S 
ATOM     81  O   UNL A   1      43.380  37.718  33.158  1.00  0.00    -0.237 OA
ATOM     82  O   UNL A   1      44.022  36.659  35.299  1.00  0.00    -0.237 OA
ATOM     83  O   UNL A   1      45.752  37.225  33.637  1.00  0.00    -0.744 OA
ENDBRANCH  79  80
ENDBRANCH  51  74
BRANCH  63  84
ATOM     84  C   UNL A   1      48.041  27.352  30.876  1.00  0.00    -0.014 A 
ATOM     85  C   UNL A   1      48.456  26.722  32.063  1.00  0.00     0.010 A 
ATOM     86  C   UNL A   1      49.010  27.728  29.926  1.00  0.00     0.010 A 
ATOM     87  C   UNL A   1      49.815  26.503  32.308  1.00  0.00     0.020 A 
ATOM     88  C   UNL A   1      50.365  27.479  30.153  1.00  0.00     0.020 A 
ATOM     89  C   UNL A   1      50.761  26.881  31.350  1.00  0.00     0.054 A 
BRANCH  89  90
ATOM     90  S   UNL A   1      52.513  26.543  31.673  1.00  0.00     0.124 S 
ATOM     91  O   UNL A   1      52.776  27.386  32.837  1.00  0.00    -0.237 OA
ATOM     92  O   UNL A   1      52.519  25.104  31.925  1.00  0.00    -0.237 OA
ATOM     93  O   UNL A   1      53.180  26.957  30.440  1.00  0.00    -0.744 OA
ENDBRANCH  89  90
ENDBRANCH  63  84
ENDBRANCH  37  38
ENDBRANCH  29  32
ENDBRANCH  27  28
ENDBRANCH  26  27
ENDBRANCH   1  26
TORSDOF 19
ENDMDL
MODEL 3
REMARK VINA RESULT:     -10.4      2.306      3.029
REMARK SMILES O=C(C[C@H](NS(=O)(=O)c1cccs1)c1ccccc1Cl)NCCCCNC(=O)c1ccc(-c2c3nc(c(-c4ccc(S(=O)(=O)[O-])cc4)c4ccc([nH]4)c(-c4ccc(S(=O)(=O)[O-])cc4)c4nc(c(-c5ccc(S(=O)(=O)[O-])cc5)c5ccc2[nH]5)C=C4)C=C3)cc1
REMARK SMILES IDX 23 1 22 2 21 3 1 4 2 5 3 7 4 8 14 9 15 10 19 11 16 12 18 13
REMARK SMILES IDX 20 14 17 15 5 16 6 18 7 19 8 20 9 21 10 22 13 23 11 24 12 25
REMARK SMILES IDX 24 26 25 27 26 28 27 29 28 31 29 32 30 33 88 34 31 35 87 36
REMARK SMILES IDX 32 37 33 38 34 39 81 40 35 41 86 42 80 43 82 44 36 45 85 46
REMARK SMILES IDX 79 47 78 48 37 50 67 51 48 52 66 53 49 54 52 55 65 56 83 57
REMARK SMILES IDX 50 58 51 59 64 61 84 62 53 63 38 64 39 65 47 66 40 67 46 68
REMARK SMILES IDX 41 69 42 70 43 71 44 72 45 73 68 74 69 75 77 76 70 77 76 78
REMARK SMILES IDX 71 79 72 80 73 81 74 82 75 83 54 84 55 85 63 86 56 87 62 88
REMARK SMILES IDX 57 89 58 90 59 91 60 92 61 93
REMARK H PARENT 21 6 5 17 26 30 82 49 52 60
REMARK Flexibility Score: inf
ROOT
ATOM      1  C   UNL A   1      33.105  26.532  26.154  1.00  0.00     0.023 C 
ENDROOT
BRANCH   1   2
ATOM      2  C   UNL A   1      31.939  25.623  26.517  1.00  0.00     0.116 C 
BRANCH   2   3
ATOM      3  N   UNL A   1      32.149  24.246  26.118  1.00  0.00    -0.356 N 
ATOM      4  O   UNL A   1      30.374  23.389  27.279  1.00  0.00    -0.275 OA
ATOM      5  C   UNL A   1      31.240  23.260  26.418  1.00  0.00     0.221 C 
ATOM      6  H   UNL A   1      32.963  24.011  25.619  1.00  0.00     0.163 HD
BRANCH   5   7
ATOM      7  C   UNL A   1      31.383  21.972  25.627  1.00  0.00     0.125 C 
BRANCH   7   8
ATOM      8  C   UNL A   1      32.544  21.875  24.599  1.00  0.00     0.111 C 
BRANCH   8   9
ATOM      9  C   UNL A   1      33.051  20.469  24.263  1.00  0.00    -0.011 A 
ATOM     10  C   UNL A   1      32.261  19.584  23.496  1.00  0.00     0.007 A 
ATOM     11  C   UNL A   1      34.284  19.983  24.740  1.00  0.00     0.045 A 
ATOM     12  C   UNL A   1      32.634  18.252  23.302  1.00  0.00     0.000 A 
ATOM     13  C   UNL A   1      34.639  18.638  24.573  1.00  0.00     0.021 A 
ATOM     14  Cl  UNL A   1      35.422  21.002  25.548  1.00  0.00    -0.084 Cl
ATOM     15  C   UNL A   1      33.807  17.770  23.869  1.00  0.00     0.002 A 
ENDBRANCH   8   9
BRANCH   8  16
ATOM     16  N   UNL A   1      32.136  22.611  23.366  1.00  0.00    -0.202 NA
ATOM     17  H   UNL A   1      31.246  23.069  23.568  1.00  0.00     0.142 HD
BRANCH  16  18
ATOM     18  S   UNL A   1      33.178  23.784  22.765  1.00  0.00     0.250 S 
ATOM     19  O   UNL A   1      34.252  23.912  23.720  1.00  0.00    -0.206 OA
ATOM     20  O   UNL A   1      33.430  23.461  21.376  1.00  0.00    -0.206 OA
BRANCH  18  21
ATOM     21  C   UNL A   1      32.373  25.362  22.731  1.00  0.00     0.134 A 
ATOM     22  C   UNL A   1      31.057  25.725  22.944  1.00  0.00     0.033 A 
ATOM     23  S   UNL A   1      33.346  26.720  22.363  1.00  0.00    -0.131 S 
ATOM     24  C   UNL A   1      30.860  27.132  22.852  1.00  0.00     0.013 A 
ATOM     25  C   UNL A   1      32.030  27.796  22.558  1.00  0.00     0.066 A 
ENDBRANCH  18  21
ENDBRANCH  16  18
ENDBRANCH   8  16
ENDBRANCH   7   8
ENDBRANCH   5   7
ENDBRANCH   2   3
ENDBRANCH   1   2
BRANCH   1  26
ATOM     26  C   UNL A   1      32.876  28.018  26.439  1.00  0.00     0.023 C 
BRANCH  26  27
ATOM     27  C   UNL A   1      34.077  28.928  26.197  1.00  0.00     0.116 C 
BRANCH  27  28
ATOM     28  N   UNL A   1      33.854  30.290  26.653  1.00  0.00    -0.352 N 
ATOM     29  C   UNL A   1      34.537  31.020  27.598  1.00  0.00     0.251 C 
ATOM     30  H   UNL A   1      33.103  30.759  26.223  1.00  0.00     0.163 HD
ATOM     31  O   UNL A   1      34.095  32.103  27.968  1.00  0.00    -0.269 OA
BRANCH  29  32
ATOM     32  C   UNL A   1      35.790  30.492  28.185  1.00  0.00     0.039 A 
ATOM     33  C   UNL A   1      37.012  30.872  27.625  1.00  0.00     0.014 A 
ATOM     34  C   UNL A   1      35.764  29.624  29.280  1.00  0.00     0.014 A 
ATOM     35  C   UNL A   1      38.207  30.442  28.209  1.00  0.00     0.010 A 
ATOM     36  C   UNL A   1      36.956  29.259  29.906  1.00  0.00     0.010 A 
ATOM     37  C   UNL A   1      38.191  29.665  29.379  1.00  0.00    -0.014 A 
BRANCH  37  38
ATOM     38  C   UNL A   1      39.452  29.282  30.070  1.00  0.00     0.031 A 
ATOM     39  C   UNL A   1      39.916  30.039  31.287  1.00  0.00     0.074 A 
ATOM     40  C   UNL A   1      40.215  28.289  29.567  1.00  0.00     0.049 A 
ATOM     41  N   UNL A   1      41.009  29.880  31.990  1.00  0.00    -0.248 NA
ATOM     42  C   UNL A   1      39.050  31.131  31.764  1.00  0.00     0.031 C 
ATOM     43  C   UNL A   1      39.899  27.498  28.375  1.00  0.00     0.029 A 
ATOM     44  N   UNL A   1      41.416  27.776  29.993  1.00  0.00    -0.354 N 
ATOM     45  C   UNL A   1      40.971  30.858  32.978  1.00  0.00     0.074 A 
ATOM     46  C   UNL A   1      39.772  31.636  32.754  1.00  0.00     0.031 C 
ATOM     47  C   UNL A   1      40.862  26.582  28.185  1.00  0.00     0.029 A 
ATOM     48  C   UNL A   1      41.889  26.749  29.208  1.00  0.00     0.049 A 
ATOM     49  H   UNL A   1      41.895  28.113  30.784  1.00  0.00     0.167 HD
ATOM     50  C   UNL A   1      41.845  31.079  33.989  1.00  0.00     0.031 A 
ATOM     51  C   UNL A   1      43.023  26.027  29.295  1.00  0.00     0.031 A 
ATOM     52  C   UNL A   1      43.035  30.299  34.214  1.00  0.00     0.049 A 
ATOM     53  C   UNL A   1      43.992  26.310  30.413  1.00  0.00     0.074 A 
ATOM     54  C   UNL A   1      43.950  30.409  35.246  1.00  0.00     0.029 A 
ATOM     55  N   UNL A   1      43.478  29.273  33.394  1.00  0.00    -0.354 N 
ATOM     56  N   UNL A   1      43.899  27.193  31.379  1.00  0.00    -0.248 NA
ATOM     57  C   UNL A   1      45.211  25.492  30.457  1.00  0.00     0.031 C 
ATOM     58  C   UNL A   1      44.982  29.495  35.014  1.00  0.00     0.029 A 
ATOM     59  C   UNL A   1      44.672  28.764  33.879  1.00  0.00     0.049 A 
ATOM     60  H   UNL A   1      43.014  28.953  32.587  1.00  0.00     0.167 HD
ATOM     61  C   UNL A   1      45.034  27.012  32.164  1.00  0.00     0.074 A 
ATOM     62  C   UNL A   1      45.788  25.928  31.568  1.00  0.00     0.031 C 
ATOM     63  C   UNL A   1      45.415  27.683  33.279  1.00  0.00     0.031 A 
BRANCH  50  64
ATOM     64  C   UNL A   1      41.557  32.224  34.929  1.00  0.00    -0.014 A 
ATOM     65  C   UNL A   1      40.733  32.054  36.057  1.00  0.00     0.010 A 
ATOM     66  C   UNL A   1      42.165  33.474  34.710  1.00  0.00     0.010 A 
ATOM     67  C   UNL A   1      40.490  33.123  36.924  1.00  0.00     0.020 A 
ATOM     68  C   UNL A   1      41.950  34.537  35.593  1.00  0.00     0.020 A 
ATOM     69  C   UNL A   1      41.100  34.358  36.685  1.00  0.00     0.054 A 
BRANCH  69  70
ATOM     70  S   UNL A   1      40.787  35.719  37.842  1.00  0.00     0.124 S 
ATOM     71  O   UNL A   1      42.113  36.319  37.966  1.00  0.00    -0.237 OA
ATOM     72  O   UNL A   1      39.799  36.524  37.129  1.00  0.00    -0.237 OA
ATOM     73  O   UNL A   1      40.293  35.050  39.042  1.00  0.00    -0.744 OA
ENDBRANCH  69  70
ENDBRANCH  50  64
BRANCH  51  74
ATOM     74  C   UNL A   1      43.304  24.954  28.300  1.00  0.00    -0.014 A 
ATOM     75  C   UNL A   1      42.726  23.680  28.440  1.00  0.00     0.010 A 
ATOM     76  C   UNL A   1      44.155  25.200  27.206  1.00  0.00     0.010 A 
ATOM     77  C   UNL A   1      43.010  22.667  27.519  1.00  0.00     0.020 A 
ATOM     78  C   UNL A   1      44.415  24.199  26.265  1.00  0.00     0.020 A 
ATOM     79  C   UNL A   1      43.850  22.934  26.435  1.00  0.00     0.054 A 
BRANCH  79  80
ATOM     80  S   UNL A   1      44.170  21.615  25.230  1.00  0.00     0.124 S 
ATOM     81  O   UNL A   1      43.998  22.315  23.961  1.00  0.00    -0.237 OA
ATOM     82  O   UNL A   1      45.538  21.219  25.556  1.00  0.00    -0.237 OA
ATOM     83  O   UNL A   1      43.149  20.616  25.539  1.00  0.00    -0.744 OA
ENDBRANCH  79  80
ENDBRANCH  51  74
BRANCH  63  84
ATOM     84  C   UNL A   1      46.684  27.241  33.961  1.00  0.00    -0.014 A 
ATOM     85  C   UNL A   1      46.674  26.252  34.961  1.00  0.00     0.010 A 
ATOM     86  C   UNL A   1      47.915  27.788  33.552  1.00  0.00     0.010 A 
ATOM     87  C   UNL A   1      47.869  25.844  35.562  1.00  0.00     0.020 A 
ATOM     88  C   UNL A   1      49.113  27.358  34.127  1.00  0.00     0.020 A 
ATOM     89  C   UNL A   1      49.082  26.398  35.139  1.00  0.00     0.054 A 
BRANCH  89  90
ATOM     90  S   UNL A   1      50.620  25.817  35.903  1.00  0.00     0.124 S 
ATOM     91  O   UNL A   1      50.541  24.375  35.687  1.00  0.00    -0.237 OA
ATOM     92  O   UNL A   1      51.644  26.513  35.129  1.00  0.00    -0.237 OA
ATOM     93  O   UNL A   1      50.500  26.246  37.295  1.00  0.00    -0.744 OA
ENDBRANCH  89  90
ENDBRANCH  63  84
ENDBRANCH  37  38
ENDBRANCH  29  32
ENDBRANCH  27  28
ENDBRANCH  26  27
ENDBRANCH   1  26
TORSDOF 19
ENDMDL
