MODEL 1
REMARK VINA RESULT:     -11.2      0.000      0.000
REMARK SMILES CCOc1ccc(N2C[C@H](C(=O)NCCCCNC(=O)c3ccc(-c4c5nc(c(-c6ccc(S(=O)(=O)[O-])cc6)c6ccc([nH]6)c(-c6ccc(S(=O)(=O)[O-])cc6)c6nc(c(-c7ccc(S(=O)(=O)[O-])cc7)c7ccc4[nH]7)C=C6)C=C5)cc3)CC2=O)cc1C(F)(F)F
REMARK SMILES IDX 15 1 14 2 13 3 11 4 12 5 10 7 8 8 9 9 82 10 81 11 83 12 7 13
REMARK SMILES IDX 4 14 5 15 85 16 6 17 84 18 3 19 2 20 1 21 86 22 87 23 88 24
REMARK SMILES IDX 89 25 16 26 17 27 18 28 19 29 20 31 21 32 22 33 80 34 23 35
REMARK SMILES IDX 79 36 24 37 25 38 26 39 73 40 27 41 78 42 72 43 74 44 28 45
REMARK SMILES IDX 77 46 71 47 70 48 29 50 59 51 40 52 58 53 41 54 44 55 57 56
REMARK SMILES IDX 75 57 42 58 43 59 56 61 76 62 45 63 30 64 31 65 39 66 32 67
REMARK SMILES IDX 38 68 33 69 34 70 35 71 36 72 37 73 60 74 61 75 69 76 62 77
REMARK SMILES IDX 68 78 63 79 64 80 65 81 66 82 67 83 46 84 47 85 55 86 48 87
REMARK SMILES IDX 54 88 49 89 50 90 51 91 52 92 53 93
REMARK H PARENT 13 6 18 30 74 49 44 60
REMARK Flexibility Score: inf
ROOT
ATOM      1  C   UNL A   1      31.589  26.828  26.974  1.00  0.00     0.023 C 
ENDROOT
BRANCH   1   2
ATOM      2  C   UNL A   1      30.862  26.065  25.873  1.00  0.00     0.116 C 
BRANCH   2   3
ATOM      3  N   UNL A   1      30.602  26.881  24.699  1.00  0.00    -0.356 N 
ATOM      4  C   UNL A   1      31.279  27.164  23.566  1.00  0.00     0.225 C 
ATOM      5  O   UNL A   1      30.667  27.846  22.732  1.00  0.00    -0.275 OA
ATOM      6  H   UNL A   1      29.728  27.332  24.739  1.00  0.00     0.163 HD
BRANCH   4   7
ATOM      7  C   UNL A   1      32.731  26.825  23.263  1.00  0.00     0.107 C 
ATOM      8  N   UNL A   1      33.161  24.520  23.054  1.00  0.00    -0.312 N 
ATOM      9  C   UNL A   1      33.130  25.579  24.037  1.00  0.00     0.139 C 
ATOM     10  C   UNL A   1      33.122  25.048  21.756  1.00  0.00     0.227 C 
ATOM     11  C   UNL A   1      33.208  26.551  21.860  1.00  0.00     0.116 C 
ATOM     12  O   UNL A   1      33.068  24.461  20.685  1.00  0.00    -0.274 OA
BRANCH   8  13
ATOM     13  C   UNL A   1      33.338  23.154  23.403  1.00  0.00     0.044 A 
ATOM     14  C   UNL A   1      33.669  20.466  24.218  1.00  0.00     0.131 A 
ATOM     15  C   UNL A   1      32.492  20.872  23.587  1.00  0.00     0.049 A 
ATOM     16  C   UNL A   1      34.711  21.370  24.408  1.00  0.00     0.100 A 
ATOM     17  C   UNL A   1      32.324  22.207  23.198  1.00  0.00     0.030 A 
ATOM     18  C   UNL A   1      34.523  22.710  24.006  1.00  0.00     0.043 A 
BRANCH  14  19
ATOM     19  O   UNL A   1      33.835  19.152  24.547  1.00  0.00    -0.493 OA
BRANCH  19  20
ATOM     20  C   UNL A   1      33.014  18.267  23.775  1.00  0.00     0.226 C 
ATOM     21  C   UNL A   1      33.865  17.120  23.258  1.00  0.00     0.049 C 
ENDBRANCH  19  20
ENDBRANCH  14  19
BRANCH  16  22
ATOM     22  C   UNL A   1      35.996  20.999  25.097  1.00  0.00     0.420 C 
ATOM     23  F   UNL A   1      37.025  21.843  24.797  1.00  0.00    -0.166 F 
ATOM     24  F   UNL A   1      35.871  21.058  26.456  1.00  0.00    -0.166 F 
ATOM     25  F   UNL A   1      36.465  19.751  24.823  1.00  0.00    -0.166 F 
ENDBRANCH  16  22
ENDBRANCH   8  13
ENDBRANCH   4   7
ENDBRANCH   2   3
ENDBRANCH   1   2
BRANCH   1  26
ATOM     26  C   UNL A   1      32.010  28.253  26.612  1.00  0.00     0.023 C 
BRANCH  26  27
ATOM     27  C   UNL A   1      33.307  28.746  27.245  1.00  0.00     0.116 C 
BRANCH  27  28
ATOM     28  N   UNL A   1      33.296  30.164  27.577  1.00  0.00    -0.352 N 
ATOM     29  C   UNL A   1      34.306  30.932  28.111  1.00  0.00     0.251 C 
ATOM     30  H   UNL A   1      32.452  30.637  27.394  1.00  0.00     0.163 HD
ATOM     31  O   UNL A   1      34.100  32.104  28.406  1.00  0.00    -0.269 OA
BRANCH  29  32
ATOM     32  C   UNL A   1      35.627  30.320  28.365  1.00  0.00     0.039 A 
ATOM     33  C   UNL A   1      36.576  30.315  27.340  1.00  0.00     0.014 A 
ATOM     34  C   UNL A   1      35.943  29.805  29.624  1.00  0.00     0.014 A 
ATOM     35  C   UNL A   1      37.872  29.864  27.603  1.00  0.00     0.010 A 
ATOM     36  C   UNL A   1      37.253  29.425  29.903  1.00  0.00     0.010 A 
ATOM     37  C   UNL A   1      38.233  29.457  28.898  1.00  0.00    -0.014 A 
BRANCH  37  38
ATOM     38  C   UNL A   1      39.628  29.067  29.227  1.00  0.00     0.031 A 
ATOM     39  C   UNL A   1      40.551  30.059  29.882  1.00  0.00     0.074 A 
ATOM     40  C   UNL A   1      40.084  27.848  28.877  1.00  0.00     0.049 A 
ATOM     41  N   UNL A   1      41.820  29.936  30.173  1.00  0.00    -0.248 NA
ATOM     42  C   UNL A   1      39.979  31.370  30.230  1.00  0.00     0.031 C 
ATOM     43  C   UNL A   1      39.300  26.807  28.205  1.00  0.00     0.029 A 
ATOM     44  N   UNL A   1      41.323  27.277  29.032  1.00  0.00    -0.354 N 
ATOM     45  C   UNL A   1      42.201  31.154  30.724  1.00  0.00     0.074 A 
ATOM     46  C   UNL A   1      41.045  32.021  30.675  1.00  0.00     0.031 C 
ATOM     47  C   UNL A   1      40.068  25.719  28.035  1.00  0.00     0.029 A 
ATOM     48  C   UNL A   1      41.407  25.994  28.544  1.00  0.00     0.049 A 
ATOM     49  H   UNL A   1      42.081  27.743  29.454  1.00  0.00     0.167 HD
ATOM     50  C   UNL A   1      43.399  31.515  31.245  1.00  0.00     0.031 A 
ATOM     51  C   UNL A   1      42.446  25.137  28.505  1.00  0.00     0.031 A 
ATOM     52  C   UNL A   1      44.545  30.647  31.305  1.00  0.00     0.049 A 
ATOM     53  C   UNL A   1      43.771  25.566  29.075  1.00  0.00     0.074 A 
ATOM     54  C   UNL A   1      45.792  30.904  31.850  1.00  0.00     0.029 A 
ATOM     55  N   UNL A   1      44.585  29.354  30.807  1.00  0.00    -0.354 N 
ATOM     56  N   UNL A   1      44.097  26.706  29.636  1.00  0.00    -0.248 NA
ATOM     57  C   UNL A   1      44.866  24.588  29.016  1.00  0.00     0.031 C 
ATOM     58  C   UNL A   1      46.598  29.781  31.644  1.00  0.00     0.029 A 
ATOM     59  C   UNL A   1      45.838  28.804  31.018  1.00  0.00     0.049 A 
ATOM     60  H   UNL A   1      43.833  28.894  30.368  1.00  0.00     0.167 HD
ATOM     61  C   UNL A   1      45.425  26.570  30.024  1.00  0.00     0.074 A 
ATOM     62  C   UNL A   1      45.838  25.235  29.646  1.00  0.00     0.031 C 
ATOM     63  C   UNL A   1      46.230  27.471  30.642  1.00  0.00     0.031 A 
BRANCH  50  64
ATOM     64  C   UNL A   1      43.524  32.910  31.797  1.00  0.00    -0.014 A 
ATOM     65  C   UNL A   1      43.380  33.157  33.175  1.00  0.00     0.010 A 
ATOM     66  C   UNL A   1      43.816  33.984  30.936  1.00  0.00     0.010 A 
ATOM     67  C   UNL A   1      43.483  34.457  33.675  1.00  0.00     0.020 A 
ATOM     68  C   UNL A   1      43.948  35.282  31.438  1.00  0.00     0.020 A 
ATOM     69  C   UNL A   1      43.762  35.512  32.802  1.00  0.00     0.054 A 
BRANCH  69  70
ATOM     70  S   UNL A   1      43.907  37.187  33.483  1.00  0.00     0.124 S 
ATOM     71  O   UNL A   1      42.641  37.331  34.198  1.00  0.00    -0.237 OA
ATOM     72  O   UNL A   1      45.095  37.089  34.326  1.00  0.00    -0.237 OA
ATOM     73  O   UNL A   1      44.054  38.032  32.299  1.00  0.00    -0.744 OA
ENDBRANCH  69  70
ENDBRANCH  50  64
BRANCH  51  74
ATOM     74  C   UNL A   1      42.275  23.777  27.923  1.00  0.00    -0.014 A 
ATOM     75  C   UNL A   1      42.417  23.573  26.539  1.00  0.00     0.010 A 
ATOM     76  C   UNL A   1      41.965  22.679  28.746  1.00  0.00     0.010 A 
ATOM     77  C   UNL A   1      42.225  22.305  25.985  1.00  0.00     0.020 A 
ATOM     78  C   UNL A   1      41.798  21.403  28.199  1.00  0.00     0.020 A 
ATOM     79  C   UNL A   1      41.914  21.227  26.819  1.00  0.00     0.054 A 
BRANCH  79  80
ATOM     80  S   UNL A   1      41.702  19.583  26.082  1.00  0.00     0.124 S 
ATOM     81  O   UNL A   1      40.282  19.583  25.746  1.00  0.00    -0.237 OA
ATOM     82  O   UNL A   1      42.621  19.622  24.948  1.00  0.00    -0.237 OA
ATOM     83  O   UNL A   1      42.091  18.675  27.159  1.00  0.00    -0.744 OA
ENDBRANCH  79  80
ENDBRANCH  51  74
BRANCH  63  84
ATOM     84  C   UNL A   1      47.626  27.028  30.988  1.00  0.00    -0.014 A 
ATOM     85  C   UNL A   1      47.907  26.381  32.204  1.00  0.00     0.010 A 
ATOM     86  C   UNL A   1      48.661  27.210  30.052  1.00  0.00     0.010 A 
ATOM     87  C   UNL A   1      49.205  25.951  32.492  1.00  0.00     0.020 A 
ATOM     88  C   UNL A   1      49.954  26.757  30.325  1.00  0.00     0.020 A 
ATOM     89  C   UNL A   1      50.221  26.143  31.550  1.00  0.00     0.054 A 
BRANCH  89  90
ATOM     90  S   UNL A   1      51.886  25.532  31.926  1.00  0.00     0.124 S 
ATOM     91  O   UNL A   1      52.221  26.286  33.131  1.00  0.00    -0.237 OA
ATOM     92  O   UNL A   1      51.668  24.101  32.119  1.00  0.00    -0.237 OA
ATOM     93  O   UNL A   1      52.660  25.882  30.736  1.00  0.00    -0.744 OA
ENDBRANCH  89  90
ENDBRANCH  63  84
ENDBRANCH  37  38
ENDBRANCH  29  32
ENDBRANCH  27  28
ENDBRANCH  26  27
ENDBRANCH   1  26
TORSDOF 18
ENDMDL
MODEL 2
REMARK VINA RESULT:     -11.1      3.145      4.315
REMARK SMILES CCOc1ccc(N2C[C@H](C(=O)NCCCCNC(=O)c3ccc(-c4c5nc(c(-c6ccc(S(=O)(=O)[O-])cc6)c6ccc([nH]6)c(-c6ccc(S(=O)(=O)[O-])cc6)c6nc(c(-c7ccc(S(=O)(=O)[O-])cc7)c7ccc4[nH]7)C=C6)C=C5)cc3)CC2=O)cc1C(F)(F)F
REMARK SMILES IDX 15 1 14 2 13 3 11 4 12 5 10 7 8 8 9 9 82 10 81 11 83 12 7 13
REMARK SMILES IDX 4 14 5 15 85 16 6 17 84 18 3 19 2 20 1 21 86 22 87 23 88 24
REMARK SMILES IDX 89 25 16 26 17 27 18 28 19 29 20 31 21 32 22 33 80 34 23 35
REMARK SMILES IDX 79 36 24 37 25 38 26 39 73 40 27 41 78 42 72 43 74 44 28 45
REMARK SMILES IDX 77 46 71 47 70 48 29 50 59 51 40 52 58 53 41 54 44 55 57 56
REMARK SMILES IDX 75 57 42 58 43 59 56 61 76 62 45 63 30 64 31 65 39 66 32 67
REMARK SMILES IDX 38 68 33 69 34 70 35 71 36 72 37 73 60 74 61 75 69 76 62 77
REMARK SMILES IDX 68 78 63 79 64 80 65 81 66 82 67 83 46 84 47 85 55 86 48 87
REMARK SMILES IDX 54 88 49 89 50 90 51 91 52 92 53 93
REMARK H PARENT 13 6 18 30 74 49 44 60
REMARK Flexibility Score: inf
ROOT
ATOM      1  C   UNL A   1      34.275  32.285  28.298  1.00  0.00     0.023 C 
ENDROOT
BRANCH   1   2
ATOM      2  C   UNL A   1      34.197  31.051  27.405  1.00  0.00     0.116 C 
BRANCH   2   3
ATOM      3  N   UNL A   1      33.035  30.226  27.685  1.00  0.00    -0.356 N 
ATOM      4  C   UNL A   1      32.327  29.309  26.991  1.00  0.00     0.225 C 
ATOM      5  O   UNL A   1      31.431  28.732  27.624  1.00  0.00    -0.275 OA
ATOM      6  H   UNL A   1      32.680  30.369  28.592  1.00  0.00     0.163 HD
BRANCH   4   7
ATOM      7  C   UNL A   1      32.450  28.994  25.508  1.00  0.00     0.107 C 
ATOM      8  N   UNL A   1      32.779  26.714  25.028  1.00  0.00    -0.312 N 
ATOM      9  C   UNL A   1      33.514  27.927  25.305  1.00  0.00     0.139 C 
ATOM     10  C   UNL A   1      31.436  27.000  24.749  1.00  0.00     0.227 C 
ATOM     11  C   UNL A   1      31.279  28.501  24.699  1.00  0.00     0.116 C 
ATOM     12  O   UNL A   1      30.510  26.232  24.535  1.00  0.00    -0.274 OA
BRANCH   8  13
ATOM     13  C   UNL A   1      33.406  25.441  24.935  1.00  0.00     0.044 A 
ATOM     14  C   UNL A   1      34.541  22.859  24.723  1.00  0.00     0.131 A 
ATOM     15  C   UNL A   1      34.705  23.788  23.695  1.00  0.00     0.049 A 
ATOM     16  C   UNL A   1      33.857  23.213  25.885  1.00  0.00     0.100 A 
ATOM     17  C   UNL A   1      34.129  25.062  23.795  1.00  0.00     0.030 A 
ATOM     18  C   UNL A   1      33.288  24.501  25.967  1.00  0.00     0.043 A 
BRANCH  14  19
ATOM     19  O   UNL A   1      35.148  21.641  24.631  1.00  0.00    -0.493 OA
BRANCH  19  20
ATOM     20  C   UNL A   1      36.573  21.727  24.511  1.00  0.00     0.226 C 
ATOM     21  C   UNL A   1      37.187  20.392  24.899  1.00  0.00     0.049 C 
ENDBRANCH  19  20
ENDBRANCH  14  19
BRANCH  16  22
ATOM     22  C   UNL A   1      33.631  22.252  27.020  1.00  0.00     0.420 C 
ATOM     23  F   UNL A   1      32.836  22.765  28.003  1.00  0.00    -0.166 F 
ATOM     24  F   UNL A   1      32.992  21.120  26.600  1.00  0.00    -0.166 F 
ATOM     25  F   UNL A   1      34.756  21.826  27.657  1.00  0.00    -0.166 F 
ENDBRANCH  16  22
ENDBRANCH   8  13
ENDBRANCH   4   7
ENDBRANCH   2   3
ENDBRANCH   1   2
BRANCH   1  26
ATOM     26  C   UNL A   1      35.657  32.933  28.394  1.00  0.00     0.023 C 
BRANCH  26  27
ATOM     27  C   UNL A   1      36.317  32.895  29.768  1.00  0.00     0.116 C 
BRANCH  27  28
ATOM     28  N   UNL A   1      35.880  31.781  30.599  1.00  0.00    -0.352 N 
ATOM     29  C   UNL A   1      36.549  30.618  30.901  1.00  0.00     0.251 C 
ATOM     30  H   UNL A   1      34.984  31.874  30.998  1.00  0.00     0.163 HD
ATOM     31  O   UNL A   1      35.997  29.740  31.557  1.00  0.00    -0.269 OA
BRANCH  29  32
ATOM     32  C   UNL A   1      37.922  30.416  30.393  1.00  0.00     0.039 A 
ATOM     33  C   UNL A   1      38.984  30.415  31.301  1.00  0.00     0.014 A 
ATOM     34  C   UNL A   1      38.152  30.176  29.036  1.00  0.00     0.014 A 
ATOM     35  C   UNL A   1      40.269  30.092  30.859  1.00  0.00     0.010 A 
ATOM     36  C   UNL A   1      39.418  29.784  28.612  1.00  0.00     0.010 A 
ATOM     37  C   UNL A   1      40.488  29.731  29.519  1.00  0.00    -0.014 A 
BRANCH  37  38
ATOM     38  C   UNL A   1      41.825  29.289  29.044  1.00  0.00     0.031 A 
ATOM     39  C   UNL A   1      42.958  30.276  28.964  1.00  0.00     0.074 A 
ATOM     40  C   UNL A   1      42.001  28.021  28.623  1.00  0.00     0.049 A 
ATOM     41  N   UNL A   1      44.170  30.104  28.503  1.00  0.00    -0.248 NA
ATOM     42  C   UNL A   1      42.685  31.642  29.440  1.00  0.00     0.031 C 
ATOM     43  C   UNL A   1      40.973  26.976  28.616  1.00  0.00     0.029 A 
ATOM     44  N   UNL A   1      43.110  27.394  28.112  1.00  0.00    -0.354 N 
ATOM     45  C   UNL A   1      44.797  31.339  28.619  1.00  0.00     0.074 A 
ATOM     46  C   UNL A   1      43.816  32.264  29.141  1.00  0.00     0.031 C 
ATOM     47  C   UNL A   1      41.509  25.834  28.154  1.00  0.00     0.029 A 
ATOM     48  C   UNL A   1      42.902  26.072  27.792  1.00  0.00     0.049 A 
ATOM     49  H   UNL A   1      43.975  27.848  27.985  1.00  0.00     0.167 HD
ATOM     50  C   UNL A   1      46.080  31.670  28.338  1.00  0.00     0.031 A 
ATOM     51  C   UNL A   1      43.736  25.157  27.263  1.00  0.00     0.031 A 
ATOM     52  C   UNL A   1      47.059  30.746  27.830  1.00  0.00     0.049 A 
ATOM     53  C   UNL A   1      45.151  25.553  26.943  1.00  0.00     0.074 A 
ATOM     54  C   UNL A   1      48.396  30.973  27.551  1.00  0.00     0.029 A 
ATOM     55  N   UNL A   1      46.808  29.416  27.529  1.00  0.00    -0.354 N 
ATOM     56  N   UNL A   1      45.739  26.714  27.106  1.00  0.00    -0.248 NA
ATOM     57  C   UNL A   1      46.021  24.511  26.378  1.00  0.00     0.031 C 
ATOM     58  C   UNL A   1      48.942  29.792  27.042  1.00  0.00     0.029 A 
ATOM     59  C   UNL A   1      47.961  28.814  27.053  1.00  0.00     0.049 A 
ATOM     60  H   UNL A   1      45.939  28.966  27.636  1.00  0.00     0.167 HD
ATOM     61  C   UNL A   1      47.054  26.533  26.693  1.00  0.00     0.074 A 
ATOM     62  C   UNL A   1      47.179  25.150  26.284  1.00  0.00     0.031 C 
ATOM     63  C   UNL A   1      48.069  27.433  26.657  1.00  0.00     0.031 A 
BRANCH  50  64
ATOM     64  C   UNL A   1      46.498  33.097  28.581  1.00  0.00    -0.014 A 
ATOM     65  C   UNL A   1      46.082  34.128  27.718  1.00  0.00     0.010 A 
ATOM     66  C   UNL A   1      47.289  33.418  29.699  1.00  0.00     0.010 A 
ATOM     67  C   UNL A   1      46.487  35.445  27.943  1.00  0.00     0.020 A 
ATOM     68  C   UNL A   1      47.671  34.740  29.943  1.00  0.00     0.020 A 
ATOM     69  C   UNL A   1      47.283  35.742  29.053  1.00  0.00     0.054 A 
BRANCH  69  70
ATOM     70  S   UNL A   1      47.778  37.465  29.328  1.00  0.00     0.124 S 
ATOM     71  O   UNL A   1      48.184  37.879  27.988  1.00  0.00    -0.237 OA
ATOM     72  O   UNL A   1      46.550  38.076  29.829  1.00  0.00    -0.237 OA
ATOM     73  O   UNL A   1      48.862  37.363  30.304  1.00  0.00    -0.744 OA
ENDBRANCH  69  70
ENDBRANCH  50  64
BRANCH  51  74
ATOM     74  C   UNL A   1      43.264  23.765  27.017  1.00  0.00    -0.014 A 
ATOM     75  C   UNL A   1      43.175  22.847  28.078  1.00  0.00     0.010 A 
ATOM     76  C   UNL A   1      42.906  23.349  25.721  1.00  0.00     0.010 A 
ATOM     77  C   UNL A   1      42.764  21.531  27.845  1.00  0.00     0.020 A 
ATOM     78  C   UNL A   1      42.468  22.041  25.489  1.00  0.00     0.020 A 
ATOM     79  C   UNL A   1      42.415  21.136  26.551  1.00  0.00     0.054 A 
BRANCH  79  80
ATOM     80  S   UNL A   1      41.852  19.433  26.277  1.00  0.00     0.124 S 
ATOM     81  O   UNL A   1      42.640  19.038  25.113  1.00  0.00    -0.237 OA
ATOM     82  O   UNL A   1      42.205  18.776  27.533  1.00  0.00    -0.237 OA
ATOM     83  O   UNL A   1      40.418  19.582  26.042  1.00  0.00    -0.744 OA
ENDBRANCH  79  80
ENDBRANCH  51  74
BRANCH  63  84
ATOM     84  C   UNL A   1      49.416  26.939  26.202  1.00  0.00    -0.014 A 
ATOM     85  C   UNL A   1      49.890  27.201  24.905  1.00  0.00     0.010 A 
ATOM     86  C   UNL A   1      50.244  26.253  27.110  1.00  0.00     0.010 A 
ATOM     87  C   UNL A   1      51.156  26.758  24.514  1.00  0.00     0.020 A 
ATOM     88  C   UNL A   1      51.521  25.833  26.731  1.00  0.00     0.020 A 
ATOM     89  C   UNL A   1      51.964  26.076  25.429  1.00  0.00     0.054 A 
BRANCH  89  90
ATOM     90  S   UNL A   1      53.622  25.556  24.912  1.00  0.00     0.124 S 
ATOM     91  O   UNL A   1      53.668  24.176  25.386  1.00  0.00    -0.237 OA
ATOM     92  O   UNL A   1      53.574  25.723  23.462  1.00  0.00    -0.237 OA
ATOM     93  O   UNL A   1      54.509  26.485  25.610  1.00  0.00    -0.744 OA
ENDBRANCH  89  90
ENDBRANCH  63  84
ENDBRANCH  37  38
ENDBRANCH  29  32
ENDBRANCH  27  28
ENDBRANCH  26  27
ENDBRANCH   1  26
TORSDOF 18
ENDMDL
MODEL 3
REMARK VINA RESULT:     -11.1      2.639      4.548
REMARK SMILES CCOc1ccc(N2C[C@H](C(=O)NCCCCNC(=O)c3ccc(-c4c5nc(c(-c6ccc(S(=O)(=O)[O-])cc6)c6ccc([nH]6)c(-c6ccc(S(=O)(=O)[O-])cc6)c6nc(c(-c7ccc(S(=O)(=O)[O-])cc7)c7ccc4[nH]7)C=C6)C=C5)cc3)CC2=O)cc1C(F)(F)F
REMARK SMILES IDX 15 1 14 2 13 3 11 4 12 5 10 7 8 8 9 9 82 10 81 11 83 12 7 13
REMARK SMILES IDX 4 14 5 15 85 16 6 17 84 18 3 19 2 20 1 21 86 22 87 23 88 24
REMARK SMILES IDX 89 25 16 26 17 27 18 28 19 29 20 31 21 32 22 33 80 34 23 35
REMARK SMILES IDX 79 36 24 37 25 38 26 39 73 40 27 41 78 42 72 43 74 44 28 45
REMARK SMILES IDX 77 46 71 47 70 48 29 50 59 51 40 52 58 53 41 54 44 55 57 56
REMARK SMILES IDX 75 57 42 58 43 59 56 61 76 62 45 63 30 64 31 65 39 66 32 67
REMARK SMILES IDX 38 68 33 69 34 70 35 71 36 72 37 73 60 74 61 75 69 76 62 77
REMARK SMILES IDX 68 78 63 79 64 80 65 81 66 82 67 83 46 84 47 85 55 86 48 87
REMARK SMILES IDX 54 88 49 89 50 90 51 91 52 92 53 93
REMARK H PARENT 13 6 18 30 74 49 44 60
REMARK Flexibility Score: inf
ROOT
ATOM      1  C   UNL A   1      33.232  26.525  26.092  1.00  0.00     0.023 C 
ENDROOT
BRANCH   1   2
ATOM      2  C   UNL A   1      34.031  25.631  25.149  1.00  0.00     0.116 C 
BRANCH   2   3
ATOM      3  N   UNL A   1      33.639  24.235  25.229  1.00  0.00    -0.356 N 
ATOM      4  C   UNL A   1      33.009  23.373  24.402  1.00  0.00     0.225 C 
ATOM      5  O   UNL A   1      32.943  22.201  24.800  1.00  0.00    -0.275 OA
ATOM      6  H   UNL A   1      33.892  23.820  26.085  1.00  0.00     0.163 HD
BRANCH   4   7
ATOM      7  C   UNL A   1      32.294  23.713  23.104  1.00  0.00     0.107 C 
ATOM      8  N   UNL A   1      31.807  26.000  22.839  1.00  0.00    -0.312 N 
ATOM      9  C   UNL A   1      31.244  24.779  23.370  1.00  0.00     0.139 C 
ATOM     10  C   UNL A   1      32.919  25.723  22.032  1.00  0.00     0.227 C 
ATOM     11  C   UNL A   1      33.036  24.225  21.896  1.00  0.00     0.116 C 
ATOM     12  O   UNL A   1      33.681  26.499  21.473  1.00  0.00    -0.274 OA
BRANCH   8  13
ATOM     13  C   UNL A   1      31.202  27.272  23.032  1.00  0.00     0.044 A 
ATOM     14  C   UNL A   1      29.963  29.765  23.530  1.00  0.00     0.131 A 
ATOM     15  C   UNL A   1      31.352  29.644  23.585  1.00  0.00     0.049 A 
ATOM     16  C   UNL A   1      29.177  28.669  23.180  1.00  0.00     0.100 A 
ATOM     17  C   UNL A   1      31.963  28.405  23.353  1.00  0.00     0.030 A 
ATOM     18  C   UNL A   1      29.812  27.431  22.947  1.00  0.00     0.043 A 
BRANCH  14  19
ATOM     19  O   UNL A   1      29.388  30.989  23.712  1.00  0.00    -0.493 OA
BRANCH  19  20
ATOM     20  C   UNL A   1      29.168  31.698  22.486  1.00  0.00     0.226 C 
ATOM     21  C   UNL A   1      28.757  33.126  22.803  1.00  0.00     0.049 C 
ENDBRANCH  19  20
ENDBRANCH  14  19
BRANCH  16  22
ATOM     22  C   UNL A   1      27.675  28.730  23.121  1.00  0.00     0.420 C 
ATOM     23  F   UNL A   1      27.201  29.016  21.874  1.00  0.00    -0.166 F 
ATOM     24  F   UNL A   1      27.110  27.530  23.450  1.00  0.00    -0.166 F 
ATOM     25  F   UNL A   1      27.096  29.648  23.943  1.00  0.00    -0.166 F 
ENDBRANCH  16  22
ENDBRANCH   8  13
ENDBRANCH   4   7
ENDBRANCH   2   3
ENDBRANCH   1   2
BRANCH   1  26
ATOM     26  C   UNL A   1      33.846  27.898  26.365  1.00  0.00     0.023 C 
BRANCH  26  27
ATOM     27  C   UNL A   1      33.490  28.533  27.705  1.00  0.00     0.116 C 
BRANCH  27  28
ATOM     28  N   UNL A   1      33.576  29.986  27.708  1.00  0.00    -0.352 N 
ATOM     29  C   UNL A   1      34.668  30.785  27.963  1.00  0.00     0.251 C 
ATOM     30  H   UNL A   1      32.740  30.462  27.498  1.00  0.00     0.163 HD
ATOM     31  O   UNL A   1      34.545  32.005  28.003  1.00  0.00    -0.269 OA
BRANCH  29  32
ATOM     32  C   UNL A   1      35.980  30.158  28.231  1.00  0.00     0.039 A 
ATOM     33  C   UNL A   1      36.928  30.114  27.207  1.00  0.00     0.014 A 
ATOM     34  C   UNL A   1      36.288  29.666  29.502  1.00  0.00     0.014 A 
ATOM     35  C   UNL A   1      38.217  29.649  27.480  1.00  0.00     0.010 A 
ATOM     36  C   UNL A   1      37.591  29.273  29.789  1.00  0.00     0.010 A 
ATOM     37  C   UNL A   1      38.571  29.266  28.784  1.00  0.00    -0.014 A 
BRANCH  37  38
ATOM     38  C   UNL A   1      39.960  28.862  29.122  1.00  0.00     0.031 A 
ATOM     39  C   UNL A   1      40.884  29.839  29.797  1.00  0.00     0.074 A 
ATOM     40  C   UNL A   1      40.410  27.642  28.763  1.00  0.00     0.049 A 
ATOM     41  N   UNL A   1      42.150  29.702  30.099  1.00  0.00    -0.248 NA
ATOM     42  C   UNL A   1      40.319  31.150  30.155  1.00  0.00     0.031 C 
ATOM     43  C   UNL A   1      39.625  26.616  28.071  1.00  0.00     0.029 A 
ATOM     44  N   UNL A   1      41.643  27.060  28.923  1.00  0.00    -0.354 N 
ATOM     45  C   UNL A   1      42.535  30.911  30.667  1.00  0.00     0.074 A 
ATOM     46  C   UNL A   1      41.385  31.788  30.617  1.00  0.00     0.031 C 
ATOM     47  C   UNL A   1      40.386  25.523  27.896  1.00  0.00     0.029 A 
ATOM     48  C   UNL A   1      41.722  25.782  28.421  1.00  0.00     0.049 A 
ATOM     49  H   UNL A   1      42.401  27.516  29.357  1.00  0.00     0.167 HD
ATOM     50  C   UNL A   1      43.730  31.256  31.204  1.00  0.00     0.031 A 
ATOM     51  C   UNL A   1      42.755  24.918  28.383  1.00  0.00     0.031 A 
ATOM     52  C   UNL A   1      44.869  30.380  31.265  1.00  0.00     0.049 A 
ATOM     53  C   UNL A   1      44.077  25.331  28.970  1.00  0.00     0.074 A 
ATOM     54  C   UNL A   1      46.112  30.621  31.824  1.00  0.00     0.029 A 
ATOM     55  N   UNL A   1      44.903  29.092  30.753  1.00  0.00    -0.354 N 
ATOM     56  N   UNL A   1      44.406  26.461  29.547  1.00  0.00    -0.248 NA
ATOM     57  C   UNL A   1      45.165  24.344  28.910  1.00  0.00     0.031 C 
ATOM     58  C   UNL A   1      46.911  29.493  31.613  1.00  0.00     0.029 A 
ATOM     59  C   UNL A   1      46.150  28.530  30.970  1.00  0.00     0.049 A 
ATOM     60  H   UNL A   1      44.153  28.643  30.301  1.00  0.00     0.167 HD
ATOM     61  C   UNL A   1      45.729  26.311  29.946  1.00  0.00     0.074 A 
ATOM     62  C   UNL A   1      46.136  24.977  29.556  1.00  0.00     0.031 C 
ATOM     63  C   UNL A   1      46.536  27.198  30.582  1.00  0.00     0.031 A 
BRANCH  50  64
ATOM     64  C   UNL A   1      43.860  32.645  31.773  1.00  0.00    -0.014 A 
ATOM     65  C   UNL A   1      43.426  32.933  33.080  1.00  0.00     0.010 A 
ATOM     66  C   UNL A   1      44.448  33.667  31.006  1.00  0.00     0.010 A 
ATOM     67  C   UNL A   1      43.537  34.227  33.593  1.00  0.00     0.020 A 
ATOM     68  C   UNL A   1      44.587  34.956  31.527  1.00  0.00     0.020 A 
ATOM     69  C   UNL A   1      44.114  35.232  32.811  1.00  0.00     0.054 A 
BRANCH  69  70
ATOM     70  S   UNL A   1      44.260  36.899  33.511  1.00  0.00     0.124 S 
ATOM     71  O   UNL A   1      43.475  37.691  32.568  1.00  0.00    -0.237 OA
ATOM     72  O   UNL A   1      43.674  36.742  34.840  1.00  0.00    -0.237 OA
ATOM     73  O   UNL A   1      45.699  37.156  33.496  1.00  0.00    -0.744 OA
ENDBRANCH  69  70
ENDBRANCH  50  64
BRANCH  51  74
ATOM     74  C   UNL A   1      42.579  23.566  27.783  1.00  0.00    -0.014 A 
ATOM     75  C   UNL A   1      42.113  22.496  28.567  1.00  0.00     0.010 A 
ATOM     76  C   UNL A   1      42.882  23.338  26.428  1.00  0.00     0.010 A 
ATOM     77  C   UNL A   1      41.979  21.218  28.017  1.00  0.00     0.020 A 
ATOM     78  C   UNL A   1      42.723  22.068  25.866  1.00  0.00     0.020 A 
ATOM     79  C   UNL A   1      42.287  21.012  26.669  1.00  0.00     0.054 A 
BRANCH  79  80
ATOM     80  S   UNL A   1      42.073  19.353  25.967  1.00  0.00     0.124 S 
ATOM     81  O   UNL A   1      42.882  19.432  24.754  1.00  0.00    -0.237 OA
ATOM     82  O   UNL A   1      42.598  18.491  27.022  1.00  0.00    -0.237 OA
ATOM     83  O   UNL A   1      40.631  19.256  25.752  1.00  0.00    -0.744 OA
ENDBRANCH  79  80
ENDBRANCH  51  74
BRANCH  63  84
ATOM     84  C   UNL A   1      47.924  26.740  30.936  1.00  0.00    -0.014 A 
ATOM     85  C   UNL A   1      49.022  27.025  30.105  1.00  0.00     0.010 A 
ATOM     86  C   UNL A   1      48.141  26.064  32.152  1.00  0.00     0.010 A 
ATOM     87  C   UNL A   1      50.308  26.616  30.470  1.00  0.00     0.020 A 
ATOM     88  C   UNL A   1      49.428  25.678  32.532  1.00  0.00     0.020 A 
ATOM     89  C   UNL A   1      50.502  25.944  31.681  1.00  0.00     0.054 A 
BRANCH  89  90
ATOM     90  S   UNL A   1      52.186  25.466  32.154  1.00  0.00     0.124 S 
ATOM     91  O   UNL A   1      52.024  24.051  32.469  1.00  0.00    -0.237 OA
ATOM     92  O   UNL A   1      52.955  25.759  30.946  1.00  0.00    -0.237 OA
ATOM     93  O   UNL A   1      52.483  26.330  33.296  1.00  0.00    -0.744 OA
ENDBRANCH  89  90
ENDBRANCH  63  84
ENDBRANCH  37  38
ENDBRANCH  29  32
ENDBRANCH  27  28
ENDBRANCH  26  27
ENDBRANCH   1  26
TORSDOF 18
ENDMDL
