MODEL 1
REMARK VINA RESULT:     -12.8      0.000      0.000
REMARK SMILES O=C(NCCCCNC(=O)C1(n2ccnc2)CCN(C(=O)[C@@H]2CC(=O)N(C3CC3)C2)CC1)c1ccc(-c2c3nc(c(-c4ccc(S(=O)(=O)[O-])cc4)c4ccc([nH]4)c(-c4ccc(S(=O)(=O)[O-])cc4)c4nc(c(-c5ccc(S(=O)(=O)[O-])cc5)c5ccc2[nH]5)C=C4)C=C3)cc1
REMARK SMILES IDX 5 1 4 2 3 3 1 4 2 5 33 7 34 8 92 9 35 10 91 11 36 12 37 13
REMARK SMILES IDX 38 14 85 15 39 16 90 17 84 18 86 19 40 20 89 21 83 22 82 23
REMARK SMILES IDX 41 25 71 26 52 27 70 28 53 29 56 30 69 31 87 32 54 33 55 34
REMARK SMILES IDX 68 36 88 37 57 38 42 39 43 40 51 41 44 42 50 43 45 44 46 45
REMARK SMILES IDX 47 46 48 47 49 48 72 49 73 50 81 51 74 52 80 53 75 54 76 55
REMARK SMILES IDX 77 56 78 57 79 58 58 59 59 60 67 61 60 62 66 63 61 64 62 65
REMARK SMILES IDX 63 66 64 67 65 68 6 69 7 70 8 71 9 72 10 74 11 75 17 76
REMARK SMILES IDX 32 77 18 78 31 79 19 80 20 81 21 82 12 83 13 84 16 85 14 86
REMARK SMILES IDX 15 87 22 88 23 89 30 90 24 91 26 92 25 93 27 94 28 95 29 96
REMARK H PARENT 3 6 86 24 56 35 8 73
REMARK Flexibility Score: inf
ROOT
ATOM      1  C   UNL A   1      39.662  21.125  26.176  1.00  0.00     0.023 C 
ENDROOT
BRANCH   1   2
ATOM      2  C   UNL A   1      41.027  21.705  26.555  1.00  0.00     0.116 C 
BRANCH   2   3
ATOM      3  N   UNL A   1      41.901  22.054  25.454  1.00  0.00    -0.352 N 
ATOM      4  O   UNL A   1      43.545  22.932  24.267  1.00  0.00    -0.269 OA
ATOM      5  C   UNL A   1      42.772  23.081  25.216  1.00  0.00     0.251 C 
ATOM      6  H   UNL A   1      41.857  21.408  24.710  1.00  0.00     0.163 HD
BRANCH   5   7
ATOM      7  C   UNL A   1      42.774  24.373  25.950  1.00  0.00     0.039 A 
ATOM      8  C   UNL A   1      43.523  24.646  27.093  1.00  0.00     0.014 A 
ATOM      9  C   UNL A   1      41.874  25.349  25.487  1.00  0.00     0.014 A 
ATOM     10  C   UNL A   1      43.255  25.771  27.860  1.00  0.00     0.010 A 
ATOM     11  C   UNL A   1      41.639  26.505  26.219  1.00  0.00     0.010 A 
ATOM     12  C   UNL A   1      42.283  26.677  27.440  1.00  0.00    -0.014 A 
BRANCH  12  13
ATOM     13  C   UNL A   1      42.064  27.861  28.259  1.00  0.00     0.031 A 
ATOM     14  C   UNL A   1      43.148  28.882  28.183  1.00  0.00     0.074 A 
ATOM     15  C   UNL A   1      40.915  28.088  28.923  1.00  0.00     0.049 A 
ATOM     16  N   UNL A   1      43.899  29.336  29.133  1.00  0.00    -0.248 NA
ATOM     17  C   UNL A   1      43.514  29.371  26.844  1.00  0.00     0.031 C 
ATOM     18  C   UNL A   1      39.670  27.318  28.853  1.00  0.00     0.029 A 
ATOM     19  N   UNL A   1      40.578  29.149  29.705  1.00  0.00    -0.354 N 
ATOM     20  C   UNL A   1      44.705  30.312  28.550  1.00  0.00     0.074 A 
ATOM     21  C   UNL A   1      44.532  30.183  27.125  1.00  0.00     0.031 C 
ATOM     22  C   UNL A   1      38.659  28.068  29.346  1.00  0.00     0.029 A 
ATOM     23  C   UNL A   1      39.209  29.301  29.886  1.00  0.00     0.049 A 
ATOM     24  H   UNL A   1      41.243  29.754  30.106  1.00  0.00     0.167 HD
ATOM     25  C   UNL A   1      45.292  31.306  29.274  1.00  0.00     0.031 A 
ATOM     26  C   UNL A   1      38.572  30.402  30.356  1.00  0.00     0.031 A 
ATOM     27  C   UNL A   1      45.319  31.013  30.680  1.00  0.00     0.049 A 
ATOM     28  C   UNL A   1      39.572  31.216  31.091  1.00  0.00     0.074 A 
ATOM     29  C   UNL A   1      45.888  30.028  31.462  1.00  0.00     0.029 A 
ATOM     30  N   UNL A   1      44.375  31.623  31.471  1.00  0.00    -0.354 N 
ATOM     31  N   UNL A   1      40.147  30.822  32.193  1.00  0.00    -0.248 NA
ATOM     32  C   UNL A   1      40.268  32.272  30.371  1.00  0.00     0.031 C 
ATOM     33  C   UNL A   1      44.932  29.778  32.490  1.00  0.00     0.029 A 
ATOM     34  C   UNL A   1      43.864  30.660  32.302  1.00  0.00     0.049 A 
ATOM     35  H   UNL A   1      44.115  32.573  31.447  1.00  0.00     0.167 HD
ATOM     36  C   UNL A   1      41.459  31.260  32.089  1.00  0.00     0.074 A 
ATOM     37  C   UNL A   1      41.448  32.230  30.997  1.00  0.00     0.031 C 
ATOM     38  C   UNL A   1      42.478  30.597  32.713  1.00  0.00     0.031 A 
BRANCH  25  39
ATOM     39  C   UNL A   1      45.477  32.711  28.748  1.00  0.00    -0.014 A 
ATOM     40  C   UNL A   1      46.716  33.357  28.942  1.00  0.00     0.010 A 
ATOM     41  C   UNL A   1      44.393  33.518  28.342  1.00  0.00     0.010 A 
ATOM     42  C   UNL A   1      46.836  34.748  28.824  1.00  0.00     0.020 A 
ATOM     43  C   UNL A   1      44.514  34.898  28.177  1.00  0.00     0.020 A 
ATOM     44  C   UNL A   1      45.725  35.510  28.462  1.00  0.00     0.054 A 
BRANCH  44  45
ATOM     45  S   UNL A   1      45.848  37.315  28.459  1.00  0.00     0.124 S 
ATOM     46  O   UNL A   1      44.505  37.706  28.046  1.00  0.00    -0.237 OA
ATOM     47  O   UNL A   1      46.196  37.605  29.848  1.00  0.00    -0.237 OA
ATOM     48  O   UNL A   1      46.907  37.583  27.488  1.00  0.00    -0.744 OA
ENDBRANCH  44  45
ENDBRANCH  25  39
BRANCH  26  49
ATOM     49  C   UNL A   1      37.271  30.948  29.892  1.00  0.00    -0.014 A 
ATOM     50  C   UNL A   1      36.354  31.524  30.789  1.00  0.00     0.010 A 
ATOM     51  C   UNL A   1      37.048  31.145  28.512  1.00  0.00     0.010 A 
ATOM     52  C   UNL A   1      35.282  32.308  30.324  1.00  0.00     0.020 A 
ATOM     53  C   UNL A   1      35.981  31.918  28.042  1.00  0.00     0.020 A 
ATOM     54  C   UNL A   1      35.113  32.514  28.952  1.00  0.00     0.054 A 
BRANCH  54  55
ATOM     55  S   UNL A   1      33.832  33.661  28.364  1.00  0.00     0.124 S 
ATOM     56  O   UNL A   1      34.595  34.571  27.515  1.00  0.00    -0.237 OA
ATOM     57  O   UNL A   1      32.905  32.774  27.668  1.00  0.00    -0.237 OA
ATOM     58  O   UNL A   1      33.310  34.254  29.595  1.00  0.00    -0.744 OA
ENDBRANCH  54  55
ENDBRANCH  26  49
BRANCH  38  59
ATOM     59  C   UNL A   1      42.127  29.527  33.721  1.00  0.00    -0.014 A 
ATOM     60  C   UNL A   1      41.853  28.190  33.367  1.00  0.00     0.010 A 
ATOM     61  C   UNL A   1      42.237  29.848  35.085  1.00  0.00     0.010 A 
ATOM     62  C   UNL A   1      41.671  27.209  34.353  1.00  0.00     0.020 A 
ATOM     63  C   UNL A   1      42.074  28.873  36.072  1.00  0.00     0.020 A 
ATOM     64  C   UNL A   1      41.784  27.558  35.702  1.00  0.00     0.054 A 
BRANCH  64  65
ATOM     65  S   UNL A   1      41.607  26.273  36.972  1.00  0.00     0.124 S 
ATOM     66  O   UNL A   1      41.470  25.056  36.176  1.00  0.00    -0.237 OA
ATOM     67  O   UNL A   1      42.850  26.392  37.730  1.00  0.00    -0.237 OA
ATOM     68  O   UNL A   1      40.405  26.670  37.705  1.00  0.00    -0.744 OA
ENDBRANCH  64  65
ENDBRANCH  38  59
ENDBRANCH  12  13
ENDBRANCH   5   7
ENDBRANCH   2   3
ENDBRANCH   1   2
BRANCH   1  69
ATOM     69  C   UNL A   1      38.605  22.133  25.739  1.00  0.00     0.023 C 
BRANCH  69  70
ATOM     70  C   UNL A   1      37.264  21.543  25.354  1.00  0.00     0.116 C 
BRANCH  70  71
ATOM     71  N   UNL A   1      36.250  21.723  26.368  1.00  0.00    -0.354 N 
ATOM     72  C   UNL A   1      34.898  21.654  26.269  1.00  0.00     0.246 C 
ATOM     73  H   UNL A   1      36.592  21.926  27.268  1.00  0.00     0.163 HD
ATOM     74  O   UNL A   1      34.303  21.496  27.342  1.00  0.00    -0.272 OA
BRANCH  72  75
ATOM     75  C   UNL A   1      34.123  21.767  24.921  1.00  0.00     0.127 C 
ATOM     76  C   UNL A   1      34.936  22.513  23.810  1.00  0.00     0.061 C 
ATOM     77  C   UNL A   1      32.843  22.607  25.217  1.00  0.00     0.061 C 
ATOM     78  C   UNL A   1      35.054  24.036  24.001  1.00  0.00     0.122 C 
ATOM     79  C   UNL A   1      33.159  24.073  25.473  1.00  0.00     0.122 C 
ATOM     80  N   UNL A   1      33.742  24.620  24.272  1.00  0.00    -0.342 N 
ATOM     81  C   UNL A   1      33.158  25.482  23.360  1.00  0.00     0.227 C 
ATOM     82  O   UNL A   1      33.786  25.844  22.357  1.00  0.00    -0.274 OA
BRANCH  75  83
ATOM     83  N   UNL A   1      33.695  20.408  24.495  1.00  0.00    -0.322 N 
ATOM     84  C   UNL A   1      34.337  19.212  24.698  1.00  0.00     0.108 A 
ATOM     85  C   UNL A   1      32.531  20.101  23.829  1.00  0.00     0.200 A 
ATOM     86  C   UNL A   1      33.460  18.240  24.277  1.00  0.00     0.130 A 
ATOM     87  N   UNL A   1      32.357  18.805  23.706  1.00  0.00    -0.245 NA
ENDBRANCH  75  83
BRANCH  81  88
ATOM     88  C   UNL A   1      31.705  25.974  23.475  1.00  0.00     0.107 C 
ATOM     89  C   UNL A   1      31.060  26.614  22.254  1.00  0.00     0.115 C 
ATOM     90  C   UNL A   1      31.477  26.948  24.611  1.00  0.00     0.133 C 
ATOM     91  C   UNL A   1      30.858  28.061  22.641  1.00  0.00     0.223 C 
ATOM     92  N   UNL A   1      31.236  28.219  23.974  1.00  0.00    -0.339 N 
ATOM     93  O   UNL A   1      30.490  28.931  21.856  1.00  0.00    -0.275 OA
BRANCH  92  94
ATOM     94  C   UNL A   1      31.550  29.448  24.647  1.00  0.00     0.085 C 
ATOM     95  C   UNL A   1      31.642  29.525  26.153  1.00  0.00     0.027 C 
ATOM     96  C   UNL A   1      32.863  29.741  25.309  1.00  0.00     0.027 C 
ENDBRANCH  92  94
ENDBRANCH  81  88
ENDBRANCH  72  75
ENDBRANCH  70  71
ENDBRANCH  69  70
ENDBRANCH   1  69
TORSDOF 17
ENDMDL
MODEL 2
REMARK VINA RESULT:     -12.2      2.537      9.423
REMARK SMILES O=C(NCCCCNC(=O)C1(n2ccnc2)CCN(C(=O)[C@@H]2CC(=O)N(C3CC3)C2)CC1)c1ccc(-c2c3nc(c(-c4ccc(S(=O)(=O)[O-])cc4)c4ccc([nH]4)c(-c4ccc(S(=O)(=O)[O-])cc4)c4nc(c(-c5ccc(S(=O)(=O)[O-])cc5)c5ccc2[nH]5)C=C4)C=C3)cc1
REMARK SMILES IDX 5 1 4 2 3 3 1 4 2 5 33 7 34 8 92 9 35 10 91 11 36 12 37 13
REMARK SMILES IDX 38 14 85 15 39 16 90 17 84 18 86 19 40 20 89 21 83 22 82 23
REMARK SMILES IDX 41 25 71 26 52 27 70 28 53 29 56 30 69 31 87 32 54 33 55 34
REMARK SMILES IDX 68 36 88 37 57 38 42 39 43 40 51 41 44 42 50 43 45 44 46 45
REMARK SMILES IDX 47 46 48 47 49 48 72 49 73 50 81 51 74 52 80 53 75 54 76 55
REMARK SMILES IDX 77 56 78 57 79 58 58 59 59 60 67 61 60 62 66 63 61 64 62 65
REMARK SMILES IDX 63 66 64 67 65 68 6 69 7 70 8 71 9 72 10 74 11 75 17 76
REMARK SMILES IDX 32 77 18 78 31 79 19 80 20 81 21 82 12 83 13 84 16 85 14 86
REMARK SMILES IDX 15 87 22 88 23 89 30 90 24 91 26 92 25 93 27 94 28 95 29 96
REMARK H PARENT 3 6 86 24 56 35 8 73
REMARK Flexibility Score: inf
ROOT
ATOM      1  C   UNL A   1      32.933  28.803  26.951  1.00  0.00     0.023 C 
ENDROOT
BRANCH   1   2
ATOM      2  C   UNL A   1      33.188  30.256  26.539  1.00  0.00     0.116 C 
BRANCH   2   3
ATOM      3  N   UNL A   1      33.299  31.215  27.619  1.00  0.00    -0.352 N 
ATOM      4  O   UNL A   1      34.093  32.740  29.007  1.00  0.00    -0.269 OA
ATOM      5  C   UNL A   1      34.349  31.755  28.310  1.00  0.00     0.251 C 
ATOM      6  H   UNL A   1      32.425  31.552  27.924  1.00  0.00     0.163 HD
BRANCH   5   7
ATOM      7  C   UNL A   1      35.719  31.182  28.348  1.00  0.00     0.039 A 
ATOM      8  C   UNL A   1      36.023  29.823  28.305  1.00  0.00     0.014 A 
ATOM      9  C   UNL A   1      36.768  32.101  28.529  1.00  0.00     0.014 A 
ATOM     10  C   UNL A   1      37.297  29.375  28.621  1.00  0.00     0.010 A 
ATOM     11  C   UNL A   1      38.060  31.663  28.792  1.00  0.00     0.010 A 
ATOM     12  C   UNL A   1      38.303  30.297  28.904  1.00  0.00    -0.014 A 
BRANCH  12  13
ATOM     13  C   UNL A   1      39.633  29.780  29.192  1.00  0.00     0.031 A 
ATOM     14  C   UNL A   1      39.988  29.740  30.639  1.00  0.00     0.074 A 
ATOM     15  C   UNL A   1      40.430  29.247  28.246  1.00  0.00     0.049 A 
ATOM     16  N   UNL A   1      40.955  30.342  31.251  1.00  0.00    -0.248 NA
ATOM     17  C   UNL A   1      39.067  29.021  31.534  1.00  0.00     0.031 C 
ATOM     18  C   UNL A   1      40.098  28.961  26.848  1.00  0.00     0.029 A 
ATOM     19  N   UNL A   1      41.678  28.721  28.380  1.00  0.00    -0.354 N 
ATOM     20  C   UNL A   1      40.884  29.927  32.579  1.00  0.00     0.074 A 
ATOM     21  C   UNL A   1      39.623  29.243  32.724  1.00  0.00     0.031 C 
ATOM     22  C   UNL A   1      41.006  28.094  26.347  1.00  0.00     0.029 A 
ATOM     23  C   UNL A   1      42.048  27.880  27.339  1.00  0.00     0.049 A 
ATOM     24  H   UNL A   1      42.265  28.920  29.145  1.00  0.00     0.167 HD
ATOM     25  C   UNL A   1      41.954  29.975  33.421  1.00  0.00     0.031 A 
ATOM     26  C   UNL A   1      43.081  27.002  27.336  1.00  0.00     0.031 A 
ATOM     27  C   UNL A   1      42.995  30.836  32.930  1.00  0.00     0.049 A 
ATOM     28  C   UNL A   1      44.026  27.422  28.400  1.00  0.00     0.074 A 
ATOM     29  C   UNL A   1      43.093  32.180  32.634  1.00  0.00     0.029 A 
ATOM     30  N   UNL A   1      44.078  30.239  32.330  1.00  0.00    -0.354 N 
ATOM     31  N   UNL A   1      44.701  28.537  28.360  1.00  0.00    -0.248 NA
ATOM     32  C   UNL A   1      43.891  26.825  29.720  1.00  0.00     0.031 C 
ATOM     33  C   UNL A   1      43.933  32.242  31.483  1.00  0.00     0.029 A 
ATOM     34  C   UNL A   1      44.337  30.939  31.180  1.00  0.00     0.049 A 
ATOM     35  H   UNL A   1      44.575  29.457  32.662  1.00  0.00     0.167 HD
ATOM     36  C   UNL A   1      44.708  28.999  29.669  1.00  0.00     0.074 A 
ATOM     37  C   UNL A   1      44.283  27.856  30.474  1.00  0.00     0.031 C 
ATOM     38  C   UNL A   1      44.792  30.334  29.948  1.00  0.00     0.031 A 
BRANCH  25  39
ATOM     39  C   UNL A   1      42.217  28.934  34.485  1.00  0.00    -0.014 A 
ATOM     40  C   UNL A   1      42.642  29.353  35.763  1.00  0.00     0.010 A 
ATOM     41  C   UNL A   1      42.347  27.561  34.187  1.00  0.00     0.010 A 
ATOM     42  C   UNL A   1      43.249  28.460  36.655  1.00  0.00     0.020 A 
ATOM     43  C   UNL A   1      42.908  26.655  35.086  1.00  0.00     0.020 A 
ATOM     44  C   UNL A   1      43.397  27.119  36.299  1.00  0.00     0.054 A 
BRANCH  44  45
ATOM     45  S   UNL A   1      44.315  26.005  37.389  1.00  0.00     0.124 S 
ATOM     46  O   UNL A   1      43.922  24.696  36.879  1.00  0.00    -0.237 OA
ATOM     47  O   UNL A   1      45.700  26.396  37.137  1.00  0.00    -0.237 OA
ATOM     48  O   UNL A   1      43.811  26.339  38.720  1.00  0.00    -0.744 OA
ENDBRANCH  44  45
ENDBRANCH  25  39
BRANCH  26  49
ATOM     49  C   UNL A   1      43.100  25.647  26.728  1.00  0.00    -0.014 A 
ATOM     50  C   UNL A   1      43.302  25.463  25.349  1.00  0.00     0.010 A 
ATOM     51  C   UNL A   1      43.188  24.509  27.559  1.00  0.00     0.010 A 
ATOM     52  C   UNL A   1      43.627  24.196  24.828  1.00  0.00     0.020 A 
ATOM     53  C   UNL A   1      43.504  23.246  27.048  1.00  0.00     0.020 A 
ATOM     54  C   UNL A   1      43.744  23.099  25.685  1.00  0.00     0.054 A 
BRANCH  54  55
ATOM     55  S   UNL A   1      44.327  21.506  25.034  1.00  0.00     0.124 S 
ATOM     56  O   UNL A   1      44.446  21.779  23.605  1.00  0.00    -0.237 OA
ATOM     57  O   UNL A   1      45.585  21.312  25.748  1.00  0.00    -0.237 OA
ATOM     58  O   UNL A   1      43.261  20.573  25.400  1.00  0.00    -0.744 OA
ENDBRANCH  54  55
ENDBRANCH  26  49
BRANCH  38  59
ATOM     59  C   UNL A   1      45.130  31.283  28.821  1.00  0.00    -0.014 A 
ATOM     60  C   UNL A   1      44.193  31.704  27.856  1.00  0.00     0.010 A 
ATOM     61  C   UNL A   1      46.396  31.894  28.834  1.00  0.00     0.010 A 
ATOM     62  C   UNL A   1      44.523  32.692  26.916  1.00  0.00     0.020 A 
ATOM     63  C   UNL A   1      46.726  32.891  27.913  1.00  0.00     0.020 A 
ATOM     64  C   UNL A   1      45.790  33.281  26.953  1.00  0.00     0.054 A 
BRANCH  64  65
ATOM     65  S   UNL A   1      46.192  34.602  25.774  1.00  0.00     0.124 S 
ATOM     66  O   UNL A   1      45.916  35.811  26.545  1.00  0.00    -0.237 OA
ATOM     67  O   UNL A   1      47.601  34.354  25.476  1.00  0.00    -0.237 OA
ATOM     68  O   UNL A   1      45.281  34.360  24.655  1.00  0.00    -0.744 OA
ENDBRANCH  64  65
ENDBRANCH  38  59
ENDBRANCH  12  13
ENDBRANCH   5   7
ENDBRANCH   2   3
ENDBRANCH   1   2
BRANCH   1  69
ATOM     69  C   UNL A   1      31.482  28.435  27.239  1.00  0.00     0.023 C 
BRANCH  69  70
ATOM     70  C   UNL A   1      31.086  27.019  26.874  1.00  0.00     0.116 C 
BRANCH  70  71
ATOM     71  N   UNL A   1      30.178  26.953  25.751  1.00  0.00    -0.354 N 
ATOM     72  C   UNL A   1      30.268  26.239  24.600  1.00  0.00     0.246 C 
ATOM     73  H   UNL A   1      29.371  27.511  25.833  1.00  0.00     0.163 HD
ATOM     74  O   UNL A   1      29.201  26.097  23.990  1.00  0.00    -0.272 OA
BRANCH  72  75
ATOM     75  C   UNL A   1      31.599  25.635  24.059  1.00  0.00     0.127 C 
ATOM     76  C   UNL A   1      31.379  24.639  22.871  1.00  0.00     0.061 C 
ATOM     77  C   UNL A   1      32.231  24.833  25.239  1.00  0.00     0.061 C 
ATOM     78  C   UNL A   1      30.787  23.275  23.265  1.00  0.00     0.122 C 
ATOM     79  C   UNL A   1      31.460  23.559  25.551  1.00  0.00     0.122 C 
ATOM     80  N   UNL A   1      31.524  22.703  24.390  1.00  0.00    -0.342 N 
ATOM     81  C   UNL A   1      32.269  21.549  24.226  1.00  0.00     0.227 C 
ATOM     82  O   UNL A   1      32.234  20.936  23.151  1.00  0.00    -0.274 OA
BRANCH  75  83
ATOM     83  N   UNL A   1      32.525  26.744  23.708  1.00  0.00    -0.322 N 
ATOM     84  C   UNL A   1      33.816  26.940  24.131  1.00  0.00     0.108 A 
ATOM     85  C   UNL A   1      32.250  27.783  22.848  1.00  0.00     0.200 A 
ATOM     86  C   UNL A   1      34.295  27.996  23.393  1.00  0.00     0.130 A 
ATOM     87  N   UNL A   1      33.303  28.535  22.627  1.00  0.00    -0.245 NA
ENDBRANCH  75  83
BRANCH  81  88
ATOM     88  C   UNL A   1      33.228  21.003  25.297  1.00  0.00     0.107 C 
ATOM     89  C   UNL A   1      34.672  21.482  25.287  1.00  0.00     0.115 C 
ATOM     90  C   UNL A   1      33.302  19.491  25.337  1.00  0.00     0.133 C 
ATOM     91  C   UNL A   1      35.480  20.258  24.920  1.00  0.00     0.223 C 
ATOM     92  N   UNL A   1      34.616  19.166  24.839  1.00  0.00    -0.339 N 
ATOM     93  O   UNL A   1      36.682  20.285  24.672  1.00  0.00    -0.275 OA
BRANCH  92  94
ATOM     94  C   UNL A   1      34.864  17.911  24.186  1.00  0.00     0.085 C 
ATOM     95  C   UNL A   1      34.401  16.603  24.785  1.00  0.00     0.027 C 
ATOM     96  C   UNL A   1      33.815  17.093  23.494  1.00  0.00     0.027 C 
ENDBRANCH  92  94
ENDBRANCH  81  88
ENDBRANCH  72  75
ENDBRANCH  70  71
ENDBRANCH  69  70
ENDBRANCH   1  69
TORSDOF 17
ENDMDL
MODEL 3
REMARK VINA RESULT:     -12.2      2.509      9.294
REMARK SMILES O=C(NCCCCNC(=O)C1(n2ccnc2)CCN(C(=O)[C@@H]2CC(=O)N(C3CC3)C2)CC1)c1ccc(-c2c3nc(c(-c4ccc(S(=O)(=O)[O-])cc4)c4ccc([nH]4)c(-c4ccc(S(=O)(=O)[O-])cc4)c4nc(c(-c5ccc(S(=O)(=O)[O-])cc5)c5ccc2[nH]5)C=C4)C=C3)cc1
REMARK SMILES IDX 5 1 4 2 3 3 1 4 2 5 33 7 34 8 92 9 35 10 91 11 36 12 37 13
REMARK SMILES IDX 38 14 85 15 39 16 90 17 84 18 86 19 40 20 89 21 83 22 82 23
REMARK SMILES IDX 41 25 71 26 52 27 70 28 53 29 56 30 69 31 87 32 54 33 55 34
REMARK SMILES IDX 68 36 88 37 57 38 42 39 43 40 51 41 44 42 50 43 45 44 46 45
REMARK SMILES IDX 47 46 48 47 49 48 72 49 73 50 81 51 74 52 80 53 75 54 76 55
REMARK SMILES IDX 77 56 78 57 79 58 58 59 59 60 67 61 60 62 66 63 61 64 62 65
REMARK SMILES IDX 63 66 64 67 65 68 6 69 7 70 8 71 9 72 10 74 11 75 17 76
REMARK SMILES IDX 32 77 18 78 31 79 19 80 20 81 21 82 12 83 13 84 16 85 14 86
REMARK SMILES IDX 15 87 22 88 23 89 30 90 24 91 26 92 25 93 27 94 28 95 29 96
REMARK H PARENT 3 6 86 24 56 35 8 73
REMARK Flexibility Score: inf
ROOT
ATOM      1  C   UNL A   1      33.941  31.405  27.403  1.00  0.00     0.023 C 
ENDROOT
BRANCH   1   2
ATOM      2  C   UNL A   1      33.958  32.906  27.703  1.00  0.00     0.116 C 
BRANCH   2   3
ATOM      3  N   UNL A   1      33.644  33.289  29.064  1.00  0.00    -0.352 N 
ATOM      4  O   UNL A   1      33.833  33.992  31.151  1.00  0.00    -0.269 OA
ATOM      5  C   UNL A   1      34.372  33.392  30.218  1.00  0.00     0.251 C 
ATOM      6  H   UNL A   1      32.696  33.527  29.187  1.00  0.00     0.163 HD
BRANCH   5   7
ATOM      7  C   UNL A   1      35.695  32.754  30.440  1.00  0.00     0.039 A 
ATOM      8  C   UNL A   1      36.928  33.373  30.246  1.00  0.00     0.014 A 
ATOM      9  C   UNL A   1      35.674  31.392  30.789  1.00  0.00     0.014 A 
ATOM     10  C   UNL A   1      38.096  32.624  30.212  1.00  0.00     0.010 A 
ATOM     11  C   UNL A   1      36.845  30.645  30.812  1.00  0.00     0.010 A 
ATOM     12  C   UNL A   1      38.044  31.254  30.456  1.00  0.00    -0.014 A 
BRANCH  12  13
ATOM     13  C   UNL A   1      39.300  30.518  30.448  1.00  0.00     0.031 A 
ATOM     14  C   UNL A   1      39.951  30.378  31.781  1.00  0.00     0.074 A 
ATOM     15  C   UNL A   1      39.771  29.889  29.354  1.00  0.00     0.049 A 
ATOM     16  N   UNL A   1      41.115  30.795  32.160  1.00  0.00    -0.248 NA
ATOM     17  C   UNL A   1      39.142  29.794  32.863  1.00  0.00     0.031 C 
ATOM     18  C   UNL A   1      39.099  29.701  28.066  1.00  0.00     0.029 A 
ATOM     19  N   UNL A   1      40.913  29.162  29.214  1.00  0.00    -0.354 N 
ATOM     20  C   UNL A   1      41.268  30.360  33.475  1.00  0.00     0.074 A 
ATOM     21  C   UNL A   1      39.974  29.888  33.899  1.00  0.00     0.031 C 
ATOM     22  C   UNL A   1      39.719  28.712  27.384  1.00  0.00     0.029 A 
ATOM     23  C   UNL A   1      40.902  28.302  28.124  1.00  0.00     0.049 A 
ATOM     24  H   UNL A   1      41.678  29.239  29.830  1.00  0.00     0.167 HD
ATOM     25  C   UNL A   1      42.489  30.208  34.059  1.00  0.00     0.031 A 
ATOM     26  C   UNL A   1      41.749  27.266  27.900  1.00  0.00     0.031 A 
ATOM     27  C   UNL A   1      43.525  30.900  33.344  1.00  0.00     0.049 A 
ATOM     28  C   UNL A   1      42.960  27.495  28.727  1.00  0.00     0.074 A 
ATOM     29  C   UNL A   1      43.778  32.218  33.023  1.00  0.00     0.029 A 
ATOM     30  N   UNL A   1      44.337  30.151  32.525  1.00  0.00    -0.354 N 
ATOM     31  N   UNL A   1      43.785  28.485  28.530  1.00  0.00    -0.248 NA
ATOM     32  C   UNL A   1      43.019  26.891  30.049  1.00  0.00     0.031 C 
ATOM     33  C   UNL A   1      44.345  32.175  31.715  1.00  0.00     0.029 A 
ATOM     34  C   UNL A   1      44.451  30.833  31.341  1.00  0.00     0.049 A 
ATOM     35  H   UNL A   1      44.757  29.289  32.746  1.00  0.00     0.167 HD
ATOM     36  C   UNL A   1      44.155  28.902  29.801  1.00  0.00     0.074 A 
ATOM     37  C   UNL A   1      43.732  27.822  30.689  1.00  0.00     0.031 C 
ATOM     38  C   UNL A   1      44.518  30.196  30.044  1.00  0.00     0.031 A 
BRANCH  25  39
ATOM     39  C   UNL A   1      42.801  29.108  35.048  1.00  0.00    -0.014 A 
ATOM     40  C   UNL A   1      43.545  29.418  36.206  1.00  0.00     0.010 A 
ATOM     41  C   UNL A   1      42.649  27.741  34.734  1.00  0.00     0.010 A 
ATOM     42  C   UNL A   1      44.177  28.416  36.953  1.00  0.00     0.020 A 
ATOM     43  C   UNL A   1      43.236  26.732  35.498  1.00  0.00     0.020 A 
ATOM     44  C   UNL A   1      44.034  27.079  36.579  1.00  0.00     0.054 A 
BRANCH  44  45
ATOM     45  S   UNL A   1      44.973  25.805  37.455  1.00  0.00     0.124 S 
ATOM     46  O   UNL A   1      45.067  26.373  38.796  1.00  0.00    -0.237 OA
ATOM     47  O   UNL A   1      44.110  24.635  37.319  1.00  0.00    -0.237 OA
ATOM     48  O   UNL A   1      46.230  25.736  36.713  1.00  0.00    -0.744 OA
ENDBRANCH  44  45
ENDBRANCH  25  39
BRANCH  26  49
ATOM     49  C   UNL A   1      41.409  25.944  27.315  1.00  0.00    -0.014 A 
ATOM     50  C   UNL A   1      42.334  25.227  26.535  1.00  0.00     0.010 A 
ATOM     51  C   UNL A   1      40.254  25.261  27.753  1.00  0.00     0.010 A 
ATOM     52  C   UNL A   1      42.132  23.864  26.247  1.00  0.00     0.020 A 
ATOM     53  C   UNL A   1      40.044  23.909  27.465  1.00  0.00     0.020 A 
ATOM     54  C   UNL A   1      40.996  23.209  26.730  1.00  0.00     0.054 A 
BRANCH  54  55
ATOM     55  S   UNL A   1      40.824  21.415  26.499  1.00  0.00     0.124 S 
ATOM     56  O   UNL A   1      41.996  21.092  25.692  1.00  0.00    -0.237 OA
ATOM     57  O   UNL A   1      40.843  20.914  27.870  1.00  0.00    -0.237 OA
ATOM     58  O   UNL A   1      39.541  21.278  25.811  1.00  0.00    -0.744 OA
ENDBRANCH  54  55
ENDBRANCH  26  49
BRANCH  38  59
ATOM     59  C   UNL A   1      44.755  31.109  28.862  1.00  0.00    -0.014 A 
ATOM     60  C   UNL A   1      43.719  31.793  28.192  1.00  0.00     0.010 A 
ATOM     61  C   UNL A   1      46.085  31.411  28.521  1.00  0.00     0.010 A 
ATOM     62  C   UNL A   1      44.009  32.734  27.193  1.00  0.00     0.020 A 
ATOM     63  C   UNL A   1      46.380  32.360  27.539  1.00  0.00     0.020 A 
ATOM     64  C   UNL A   1      45.341  33.013  26.874  1.00  0.00     0.054 A 
BRANCH  64  65
ATOM     65  S   UNL A   1      45.711  34.275  25.623  1.00  0.00     0.124 S 
ATOM     66  O   UNL A   1      44.904  33.841  24.486  1.00  0.00    -0.237 OA
ATOM     67  O   UNL A   1      45.274  35.510  26.269  1.00  0.00    -0.237 OA
ATOM     68  O   UNL A   1      47.157  34.164  25.433  1.00  0.00    -0.744 OA
ENDBRANCH  64  65
ENDBRANCH  38  59
ENDBRANCH  12  13
ENDBRANCH   5   7
ENDBRANCH   2   3
ENDBRANCH   1   2
BRANCH   1  69
ATOM     69  C   UNL A   1      32.578  30.724  27.473  1.00  0.00     0.023 C 
BRANCH  69  70
ATOM     70  C   UNL A   1      32.100  30.094  26.180  1.00  0.00     0.116 C 
BRANCH  70  71
ATOM     71  N   UNL A   1      33.169  29.834  25.244  1.00  0.00    -0.354 N 
ATOM     72  C   UNL A   1      33.230  28.949  24.216  1.00  0.00     0.246 C 
ATOM     73  H   UNL A   1      33.977  30.382  25.370  1.00  0.00     0.163 HD
ATOM     74  O   UNL A   1      34.105  29.185  23.375  1.00  0.00    -0.272 OA
BRANCH  72  75
ATOM     75  C   UNL A   1      32.285  27.717  24.080  1.00  0.00     0.127 C 
ATOM     76  C   UNL A   1      31.975  27.030  25.452  1.00  0.00     0.061 C 
ATOM     77  C   UNL A   1      33.038  26.680  23.190  1.00  0.00     0.061 C 
ATOM     78  C   UNL A   1      33.137  26.217  26.051  1.00  0.00     0.122 C 
ATOM     79  C   UNL A   1      34.215  26.043  23.914  1.00  0.00     0.122 C 
ATOM     80  N   UNL A   1      33.700  25.315  25.049  1.00  0.00    -0.342 N 
ATOM     81  C   UNL A   1      33.584  23.944  25.197  1.00  0.00     0.227 C 
ATOM     82  O   UNL A   1      33.094  23.471  26.230  1.00  0.00    -0.274 OA
BRANCH  75  83
ATOM     83  N   UNL A   1      31.051  28.131  23.361  1.00  0.00    -0.322 N 
ATOM     84  C   UNL A   1      29.774  27.653  23.519  1.00  0.00     0.108 A 
ATOM     85  C   UNL A   1      30.967  29.116  22.403  1.00  0.00     0.200 A 
ATOM     86  C   UNL A   1      28.971  28.473  22.761  1.00  0.00     0.130 A 
ATOM     87  N   UNL A   1      29.727  29.353  22.043  1.00  0.00    -0.245 NA
ENDBRANCH  75  83
BRANCH  81  88
ATOM     88  C   UNL A   1      33.966  22.940  24.096  1.00  0.00     0.107 C 
ATOM     89  C   UNL A   1      33.101  22.875  22.845  1.00  0.00     0.115 C 
ATOM     90  C   UNL A   1      34.081  21.512  24.584  1.00  0.00     0.133 C 
ATOM     91  C   UNL A   1      32.444  21.515  22.904  1.00  0.00     0.223 C 
ATOM     92  N   UNL A   1      32.956  20.823  24.002  1.00  0.00    -0.339 N 
ATOM     93  O   UNL A   1      31.558  21.153  22.135  1.00  0.00    -0.275 OA
BRANCH  92  94
ATOM     94  C   UNL A   1      32.385  19.675  24.647  1.00  0.00     0.085 C 
ATOM     95  C   UNL A   1      32.437  18.304  24.014  1.00  0.00     0.027 C 
ATOM     96  C   UNL A   1      33.181  18.578  25.287  1.00  0.00     0.027 C 
ENDBRANCH  92  94
ENDBRANCH  81  88
ENDBRANCH  72  75
ENDBRANCH  70  71
ENDBRANCH  69  70
ENDBRANCH   1  69
TORSDOF 17
ENDMDL
