MODEL 1
REMARK VINA RESULT:     -10.4      0.000      0.000
REMARK SMILES COc1ccc(CCNC(=O)c2cccnc2C(=O)NCCCCNC(=O)c2ccc(-c3c4nc(c(-c5ccc(S(=O)(=O)[O-])cc5)c5ccc([nH]5)c(-c5ccc(S(=O)(=O)[O-])cc5)c5nc(c(-c6ccc(S(=O)(=O)[O-])cc6)c6ccc3[nH]6)C=C5)C=C4)cc2)cc1OC
REMARK SMILES IDX 21 1 20 2 18 3 19 4 17 6 12 7 13 8 14 9 16 10 15 11 10 12
REMARK SMILES IDX 9 13 11 15 8 16 7 17 6 18 3 19 4 20 89 21 5 22 88 23 2 24
REMARK SMILES IDX 1 25 90 26 91 27 22 28 23 29 24 30 25 31 26 32 27 34 28 35
REMARK SMILES IDX 29 36 87 37 30 38 86 39 31 40 32 41 33 42 80 43 34 44 85 45
REMARK SMILES IDX 79 46 81 47 35 48 84 49 78 50 77 51 36 53 66 54 47 55 65 56
REMARK SMILES IDX 48 57 51 58 64 59 82 60 49 61 50 62 63 64 83 65 52 66 37 67
REMARK SMILES IDX 38 68 46 69 39 70 45 71 40 72 41 73 42 74 43 75 44 76 67 77
REMARK SMILES IDX 68 78 76 79 69 80 75 81 70 82 71 83 72 84 73 85 74 86 53 87
REMARK SMILES IDX 54 88 62 89 55 90 61 91 56 92 57 93 58 94 59 95 60 96
REMARK H PARENT 20 5 9 14 25 33 81 52 51 63
REMARK Flexibility Score: inf
ROOT
ATOM      1  C   UNL A   1      36.297  23.390  25.567  1.00  0.00     0.116 C 
ENDROOT
BRANCH   1   2
ATOM      2  N   UNL A   1      35.652  22.106  25.621  1.00  0.00    -0.351 N 
ATOM      3  C   UNL A   1      34.378  21.622  25.574  1.00  0.00     0.270 C 
ATOM      4  O   UNL A   1      34.358  20.383  25.668  1.00  0.00    -0.267 OA
ATOM      5  H   UNL A   1      36.308  21.379  25.719  1.00  0.00     0.163 HD
BRANCH   3   6
ATOM      6  C   UNL A   1      33.042  22.332  25.420  1.00  0.00     0.140 A 
ATOM      7  C   UNL A   1      32.241  22.636  24.321  1.00  0.00     0.071 A 
ATOM      8  C   UNL A   1      31.029  23.335  24.542  1.00  0.00     0.018 A 
ATOM      9  C   UNL A   1      30.661  23.761  25.810  1.00  0.00     0.021 A 
ATOM     10  N   UNL A   1      32.652  22.772  26.670  1.00  0.00    -0.250 NA
ATOM     11  C   UNL A   1      31.508  23.456  26.844  1.00  0.00     0.112 A 
BRANCH   7  12
ATOM     12  C   UNL A   1      32.400  22.213  22.930  1.00  0.00     0.253 C 
ATOM     13  N   UNL A   1      32.752  23.105  21.943  1.00  0.00    -0.352 N 
ATOM     14  H   UNL A   1      32.905  22.701  21.058  1.00  0.00     0.163 HD
ATOM     15  O   UNL A   1      32.040  21.081  22.621  1.00  0.00    -0.269 OA
BRANCH  13  16
ATOM     16  C   UNL A   1      32.935  24.550  21.993  1.00  0.00     0.121 C 
BRANCH  16  17
ATOM     17  C   UNL A   1      33.888  25.024  23.094  1.00  0.00     0.057 C 
BRANCH  17  18
ATOM     18  C   UNL A   1      33.365  26.106  24.012  1.00  0.00    -0.042 A 
ATOM     19  C   UNL A   1      32.181  27.960  25.787  1.00  0.00     0.160 A 
ATOM     20  C   UNL A   1      33.141  27.051  26.241  1.00  0.00     0.051 A 
ATOM     21  C   UNL A   1      31.852  27.995  24.426  1.00  0.00     0.160 A 
ATOM     22  C   UNL A   1      33.710  26.127  25.364  1.00  0.00     0.008 A 
ATOM     23  C   UNL A   1      32.459  27.073  23.552  1.00  0.00     0.054 A 
BRANCH  19  24
ATOM     24  O   UNL A   1      31.624  28.845  26.673  1.00  0.00    -0.493 OA
ATOM     25  C   UNL A   1      32.575  29.791  27.170  1.00  0.00     0.278 C 
ENDBRANCH  19  24
BRANCH  21  26
ATOM     26  O   UNL A   1      30.966  28.829  23.793  1.00  0.00    -0.493 OA
ATOM     27  C   UNL A   1      29.873  28.235  23.105  1.00  0.00     0.278 C 
ENDBRANCH  21  26
ENDBRANCH  17  18
ENDBRANCH  16  17
ENDBRANCH  13  16
ENDBRANCH   7  12
ENDBRANCH   3   6
ENDBRANCH   1   2
BRANCH   1  28
ATOM     28  C   UNL A   1      37.806  23.220  25.444  1.00  0.00     0.023 C 
BRANCH  28  29
ATOM     29  C   UNL A   1      38.259  21.762  25.355  1.00  0.00     0.023 C 
BRANCH  29  30
ATOM     30  C   UNL A   1      39.238  21.353  26.448  1.00  0.00     0.116 C 
BRANCH  30  31
ATOM     31  N   UNL A   1      39.965  20.124  26.157  1.00  0.00    -0.352 N 
ATOM     32  C   UNL A   1      41.329  19.941  26.071  1.00  0.00     0.251 C 
ATOM     33  H   UNL A   1      39.413  19.324  26.001  1.00  0.00     0.163 HD
ATOM     34  O   UNL A   1      41.795  18.869  25.724  1.00  0.00    -0.269 OA
BRANCH  32  35
ATOM     35  C   UNL A   1      42.210  21.095  26.354  1.00  0.00     0.039 A 
ATOM     36  C   UNL A   1      42.595  21.926  25.301  1.00  0.00     0.014 A 
ATOM     37  C   UNL A   1      42.565  21.402  27.669  1.00  0.00     0.014 A 
ATOM     38  C   UNL A   1      43.255  23.123  25.582  1.00  0.00     0.010 A 
ATOM     39  C   UNL A   1      43.139  22.635  27.952  1.00  0.00     0.010 A 
ATOM     40  C   UNL A   1      43.482  23.512  26.913  1.00  0.00    -0.014 A 
BRANCH  40  41
ATOM     41  C   UNL A   1      44.056  24.840  27.248  1.00  0.00     0.031 A 
ATOM     42  C   UNL A   1      43.167  25.934  27.771  1.00  0.00     0.074 A 
ATOM     43  C   UNL A   1      45.355  25.091  26.984  1.00  0.00     0.049 A 
ATOM     44  N   UNL A   1      43.460  27.182  28.028  1.00  0.00    -0.248 NA
ATOM     45  C   UNL A   1      41.753  25.589  27.999  1.00  0.00     0.031 C 
ATOM     46  C   UNL A   1      46.307  24.136  26.408  1.00  0.00     0.029 A 
ATOM     47  N   UNL A   1      46.097  26.232  27.155  1.00  0.00    -0.354 N 
ATOM     48  C   UNL A   1      42.264  27.779  28.412  1.00  0.00     0.074 A 
ATOM     49  C   UNL A   1      41.235  26.768  28.309  1.00  0.00     0.031 C 
ATOM     50  C   UNL A   1      47.510  24.724  26.300  1.00  0.00     0.029 A 
ATOM     51  C   UNL A   1      47.410  26.104  26.761  1.00  0.00     0.049 A 
ATOM     52  H   UNL A   1      45.726  27.066  27.525  1.00  0.00     0.167 HD
ATOM     53  C   UNL A   1      42.046  29.046  28.832  1.00  0.00     0.031 A 
ATOM     54  C   UNL A   1      48.418  26.997  26.766  1.00  0.00     0.031 A 
ATOM     55  C   UNL A   1      43.078  30.038  28.967  1.00  0.00     0.049 A 
ATOM     56  C   UNL A   1      48.163  28.385  27.283  1.00  0.00     0.074 A 
ATOM     57  C   UNL A   1      42.975  31.325  29.464  1.00  0.00     0.029 A 
ATOM     58  N   UNL A   1      44.404  29.851  28.609  1.00  0.00    -0.354 N 
ATOM     59  N   UNL A   1      47.041  28.907  27.719  1.00  0.00    -0.248 NA
ATOM     60  C   UNL A   1      49.311  29.301  27.322  1.00  0.00     0.031 C 
ATOM     61  C   UNL A   1      44.234  31.930  29.370  1.00  0.00     0.029 A 
ATOM     62  C   UNL A   1      45.128  31.004  28.859  1.00  0.00     0.049 A 
ATOM     63  H   UNL A   1      44.776  29.021  28.231  1.00  0.00     0.167 HD
ATOM     64  C   UNL A   1      47.353  30.206  28.105  1.00  0.00     0.074 A 
ATOM     65  C   UNL A   1      48.771  30.384  27.865  1.00  0.00     0.031 C 
ATOM     66  C   UNL A   1      46.539  31.162  28.614  1.00  0.00     0.031 A 
BRANCH  53  67
ATOM     67  C   UNL A   1      40.630  29.426  29.177  1.00  0.00    -0.014 A 
ATOM     68  C   UNL A   1      39.685  29.694  28.171  1.00  0.00     0.010 A 
ATOM     69  C   UNL A   1      40.236  29.501  30.525  1.00  0.00     0.010 A 
ATOM     70  C   UNL A   1      38.385  30.081  28.506  1.00  0.00     0.020 A 
ATOM     71  C   UNL A   1      38.928  29.860  30.864  1.00  0.00     0.020 A 
ATOM     72  C   UNL A   1      38.017  30.169  29.852  1.00  0.00     0.054 A 
BRANCH  72  73
ATOM     73  S   UNL A   1      36.322  30.666  30.260  1.00  0.00     0.124 S 
ATOM     74  O   UNL A   1      36.093  29.950  31.514  1.00  0.00    -0.237 OA
ATOM     75  O   UNL A   1      36.430  32.118  30.378  1.00  0.00    -0.237 OA
ATOM     76  O   UNL A   1      35.539  30.194  29.121  1.00  0.00    -0.744 OA
ENDBRANCH  72  73
ENDBRANCH  53  67
BRANCH  54  77
ATOM     77  C   UNL A   1      49.768  26.592  26.291  1.00  0.00    -0.014 A 
ATOM     78  C   UNL A   1      50.164  26.853  24.967  1.00  0.00     0.010 A 
ATOM     79  C   UNL A   1      50.676  25.968  27.166  1.00  0.00     0.010 A 
ATOM     80  C   UNL A   1      51.437  26.486  24.522  1.00  0.00     0.020 A 
ATOM     81  C   UNL A   1      51.958  25.621  26.731  1.00  0.00     0.020 A 
ATOM     82  C   UNL A   1      52.328  25.874  25.408  1.00  0.00     0.054 A 
BRANCH  82  83
ATOM     83  S   UNL A   1      53.999  25.467  24.829  1.00  0.00     0.124 S 
ATOM     84  O   UNL A   1      53.983  24.009  24.860  1.00  0.00    -0.237 OA
ATOM     85  O   UNL A   1      54.030  26.074  23.500  1.00  0.00    -0.237 OA
ATOM     86  O   UNL A   1      54.866  26.107  25.817  1.00  0.00    -0.744 OA
ENDBRANCH  82  83
ENDBRANCH  54  77
BRANCH  66  87
ATOM     87  C   UNL A   1      47.165  32.482  28.974  1.00  0.00    -0.014 A 
ATOM     88  C   UNL A   1      47.731  32.695  30.243  1.00  0.00     0.010 A 
ATOM     89  C   UNL A   1      47.239  33.499  28.007  1.00  0.00     0.010 A 
ATOM     90  C   UNL A   1      48.341  33.915  30.546  1.00  0.00     0.020 A 
ATOM     91  C   UNL A   1      47.868  34.713  28.298  1.00  0.00     0.020 A 
ATOM     92  C   UNL A   1      48.404  34.917  29.572  1.00  0.00     0.054 A 
BRANCH  92  93
ATOM     93  S   UNL A   1      49.243  36.474  29.971  1.00  0.00     0.124 S 
ATOM     94  O   UNL A   1      50.602  36.021  30.254  1.00  0.00    -0.237 OA
ATOM     95  O   UNL A   1      49.082  37.251  28.744  1.00  0.00    -0.237 OA
ATOM     96  O   UNL A   1      48.502  36.981  31.124  1.00  0.00    -0.744 OA
ENDBRANCH  92  93
ENDBRANCH  66  87
ENDBRANCH  40  41
ENDBRANCH  32  35
ENDBRANCH  30  31
ENDBRANCH  29  30
ENDBRANCH  28  29
ENDBRANCH   1  28
TORSDOF 20
ENDMDL
MODEL 2
REMARK VINA RESULT:      -9.6      2.433      9.071
REMARK SMILES COc1ccc(CCNC(=O)c2cccnc2C(=O)NCCCCNC(=O)c2ccc(-c3c4nc(c(-c5ccc(S(=O)(=O)[O-])cc5)c5ccc([nH]5)c(-c5ccc(S(=O)(=O)[O-])cc5)c5nc(c(-c6ccc(S(=O)(=O)[O-])cc6)c6ccc3[nH]6)C=C5)C=C4)cc2)cc1OC
REMARK SMILES IDX 21 1 20 2 18 3 19 4 17 6 12 7 13 8 14 9 16 10 15 11 10 12
REMARK SMILES IDX 9 13 11 15 8 16 7 17 6 18 3 19 4 20 89 21 5 22 88 23 2 24
REMARK SMILES IDX 1 25 90 26 91 27 22 28 23 29 24 30 25 31 26 32 27 34 28 35
REMARK SMILES IDX 29 36 87 37 30 38 86 39 31 40 32 41 33 42 80 43 34 44 85 45
REMARK SMILES IDX 79 46 81 47 35 48 84 49 78 50 77 51 36 53 66 54 47 55 65 56
REMARK SMILES IDX 48 57 51 58 64 59 82 60 49 61 50 62 63 64 83 65 52 66 37 67
REMARK SMILES IDX 38 68 46 69 39 70 45 71 40 72 41 73 42 74 43 75 44 76 67 77
REMARK SMILES IDX 68 78 76 79 69 80 75 81 70 82 71 83 72 84 73 85 74 86 53 87
REMARK SMILES IDX 54 88 62 89 55 90 61 91 56 92 57 93 58 94 59 95 60 96
REMARK H PARENT 20 5 9 14 25 33 81 52 51 63
REMARK Flexibility Score: inf
ROOT
ATOM      1  C   UNL A   1      35.242  23.913  23.411  1.00  0.00     0.116 C 
ENDROOT
BRANCH   1   2
ATOM      2  N   UNL A   1      34.681  24.465  24.614  1.00  0.00    -0.351 N 
ATOM      3  C   UNL A   1      33.757  25.412  24.948  1.00  0.00     0.270 C 
ATOM      4  O   UNL A   1      33.634  25.514  26.180  1.00  0.00    -0.267 OA
ATOM      5  H   UNL A   1      35.068  24.045  25.416  1.00  0.00     0.163 HD
BRANCH   3   6
ATOM      6  C   UNL A   1      32.889  26.311  24.082  1.00  0.00     0.140 A 
ATOM      7  C   UNL A   1      31.644  26.147  23.479  1.00  0.00     0.071 A 
ATOM      8  C   UNL A   1      31.118  27.216  22.712  1.00  0.00     0.018 A 
ATOM      9  C   UNL A   1      31.840  28.385  22.513  1.00  0.00     0.021 A 
ATOM     10  N   UNL A   1      33.586  27.484  23.863  1.00  0.00    -0.250 NA
ATOM     11  C   UNL A   1      33.071  28.471  23.108  1.00  0.00     0.112 A 
BRANCH   7  12
ATOM     12  C   UNL A   1      30.695  25.044  23.629  1.00  0.00     0.253 C 
ATOM     13  N   UNL A   1      31.017  23.762  23.244  1.00  0.00    -0.352 N 
ATOM     14  H   UNL A   1      30.334  23.085  23.458  1.00  0.00     0.163 HD
ATOM     15  O   UNL A   1      29.538  25.310  23.938  1.00  0.00    -0.269 OA
BRANCH  13  16
ATOM     16  C   UNL A   1      32.200  23.243  22.572  1.00  0.00     0.121 C 
BRANCH  16  17
ATOM     17  C   UNL A   1      32.080  21.783  22.127  1.00  0.00     0.057 C 
BRANCH  17  18
ATOM     18  C   UNL A   1      32.414  20.736  23.167  1.00  0.00    -0.042 A 
ATOM     19  C   UNL A   1      32.781  18.801  25.194  1.00  0.00     0.160 A 
ATOM     20  C   UNL A   1      32.399  18.419  23.904  1.00  0.00     0.051 A 
ATOM     21  C   UNL A   1      33.047  20.149  25.466  1.00  0.00     0.160 A 
ATOM     22  C   UNL A   1      32.204  19.380  22.911  1.00  0.00     0.008 A 
ATOM     23  C   UNL A   1      32.871  21.100  24.442  1.00  0.00     0.054 A 
BRANCH  19  24
ATOM     24  O   UNL A   1      32.947  17.839  26.156  1.00  0.00    -0.493 OA
ATOM     25  C   UNL A   1      33.090  16.529  25.598  1.00  0.00     0.278 C 
ENDBRANCH  19  24
BRANCH  21  26
ATOM     26  O   UNL A   1      33.458  20.707  26.649  1.00  0.00    -0.493 OA
ATOM     27  C   UNL A   1      33.142  22.073  26.882  1.00  0.00     0.278 C 
ENDBRANCH  21  26
ENDBRANCH  17  18
ENDBRANCH  16  17
ENDBRANCH  13  16
ENDBRANCH   7  12
ENDBRANCH   3   6
ENDBRANCH   1   2
BRANCH   1  28
ATOM     28  C   UNL A   1      36.500  23.115  23.731  1.00  0.00     0.023 C 
BRANCH  28  29
ATOM     29  C   UNL A   1      36.373  22.231  24.973  1.00  0.00     0.023 C 
BRANCH  29  30
ATOM     30  C   UNL A   1      37.384  22.555  26.065  1.00  0.00     0.116 C 
BRANCH  30  31
ATOM     31  N   UNL A   1      38.560  21.695  26.051  1.00  0.00    -0.352 N 
ATOM     32  C   UNL A   1      39.856  22.019  26.396  1.00  0.00     0.251 C 
ATOM     33  H   UNL A   1      38.412  20.767  25.759  1.00  0.00     0.163 HD
ATOM     34  O   UNL A   1      40.762  21.216  26.244  1.00  0.00    -0.269 OA
BRANCH  32  35
ATOM     35  C   UNL A   1      40.127  23.382  26.899  1.00  0.00     0.039 A 
ATOM     36  C   UNL A   1      40.771  23.533  28.128  1.00  0.00     0.014 A 
ATOM     37  C   UNL A   1      39.834  24.496  26.109  1.00  0.00     0.014 A 
ATOM     38  C   UNL A   1      41.211  24.799  28.519  1.00  0.00     0.010 A 
ATOM     39  C   UNL A   1      40.352  25.737  26.456  1.00  0.00     0.010 A 
ATOM     40  C   UNL A   1      41.054  25.900  27.660  1.00  0.00    -0.014 A 
BRANCH  40  41
ATOM     41  C   UNL A   1      41.632  27.229  27.985  1.00  0.00     0.031 A 
ATOM     42  C   UNL A   1      43.109  27.463  27.835  1.00  0.00     0.074 A 
ATOM     43  C   UNL A   1      40.844  28.189  28.510  1.00  0.00     0.049 A 
ATOM     44  N   UNL A   1      43.814  28.516  28.158  1.00  0.00    -0.248 NA
ATOM     45  C   UNL A   1      43.907  26.352  27.287  1.00  0.00     0.031 C 
ATOM     46  C   UNL A   1      39.407  28.061  28.773  1.00  0.00     0.029 A 
ATOM     47  N   UNL A   1      41.143  29.460  28.930  1.00  0.00    -0.354 N 
ATOM     48  C   UNL A   1      45.136  28.184  27.886  1.00  0.00     0.074 A 
ATOM     49  C   UNL A   1      45.141  26.815  27.417  1.00  0.00     0.031 C 
ATOM     50  C   UNL A   1      38.948  29.216  29.283  1.00  0.00     0.029 A 
ATOM     51  C   UNL A   1      40.059  30.152  29.420  1.00  0.00     0.049 A 
ATOM     52  H   UNL A   1      42.049  29.843  28.887  1.00  0.00     0.167 HD
ATOM     53  C   UNL A   1      46.244  28.953  27.996  1.00  0.00     0.031 A 
ATOM     54  C   UNL A   1      39.969  31.397  29.926  1.00  0.00     0.031 A 
ATOM     55  C   UNL A   1      46.231  30.325  28.429  1.00  0.00     0.049 A 
ATOM     56  C   UNL A   1      41.204  32.250  29.994  1.00  0.00     0.074 A 
ATOM     57  C   UNL A   1      47.287  31.217  28.494  1.00  0.00     0.029 A 
ATOM     58  N   UNL A   1      45.103  31.004  28.864  1.00  0.00    -0.354 N 
ATOM     59  N   UNL A   1      42.434  31.944  29.654  1.00  0.00    -0.248 NA
ATOM     60  C   UNL A   1      41.038  33.620  30.498  1.00  0.00     0.031 C 
ATOM     61  C   UNL A   1      46.804  32.426  29.006  1.00  0.00     0.029 A 
ATOM     62  C   UNL A   1      45.440  32.300  29.215  1.00  0.00     0.049 A 
ATOM     63  H   UNL A   1      44.198  30.621  28.917  1.00  0.00     0.167 HD
ATOM     64  C   UNL A   1      43.185  33.091  29.884  1.00  0.00     0.074 A 
ATOM     65  C   UNL A   1      42.269  34.100  30.376  1.00  0.00     0.031 C 
ATOM     66  C   UNL A   1      44.514  33.291  29.702  1.00  0.00     0.031 A 
BRANCH  53  67
ATOM     67  C   UNL A   1      47.563  28.322  27.639  1.00  0.00    -0.014 A 
ATOM     68  C   UNL A   1      48.033  28.322  26.313  1.00  0.00     0.010 A 
ATOM     69  C   UNL A   1      48.351  27.733  28.644  1.00  0.00     0.010 A 
ATOM     70  C   UNL A   1      49.241  27.700  25.991  1.00  0.00     0.020 A 
ATOM     71  C   UNL A   1      49.575  27.134  28.330  1.00  0.00     0.020 A 
ATOM     72  C   UNL A   1      50.000  27.103  27.001  1.00  0.00     0.054 A 
BRANCH  72  73
ATOM     73  S   UNL A   1      51.569  26.308  26.556  1.00  0.00     0.124 S 
ATOM     74  O   UNL A   1      52.525  27.056  27.371  1.00  0.00    -0.237 OA
ATOM     75  O   UNL A   1      51.353  24.921  26.957  1.00  0.00    -0.237 OA
ATOM     76  O   UNL A   1      51.672  26.528  25.116  1.00  0.00    -0.744 OA
ENDBRANCH  72  73
ENDBRANCH  53  67
BRANCH  54  77
ATOM     77  C   UNL A   1      38.651  31.918  30.381  1.00  0.00    -0.014 A 
ATOM     78  C   UNL A   1      38.436  32.220  31.736  1.00  0.00     0.010 A 
ATOM     79  C   UNL A   1      37.614  32.140  29.457  1.00  0.00     0.010 A 
ATOM     80  C   UNL A   1      37.204  32.723  32.164  1.00  0.00     0.020 A 
ATOM     81  C   UNL A   1      36.389  32.665  29.877  1.00  0.00     0.020 A 
ATOM     82  C   UNL A   1      36.188  32.945  31.230  1.00  0.00     0.054 A 
BRANCH  82  83
ATOM     83  S   UNL A   1      34.619  33.662  31.796  1.00  0.00     0.124 S 
ATOM     84  O   UNL A   1      35.075  34.747  32.658  1.00  0.00    -0.237 OA
ATOM     85  O   UNL A   1      33.988  34.069  30.543  1.00  0.00    -0.237 OA
ATOM     86  O   UNL A   1      33.965  32.548  32.480  1.00  0.00    -0.744 OA
ENDBRANCH  82  83
ENDBRANCH  54  77
BRANCH  66  87
ATOM     87  C   UNL A   1      45.055  34.660  30.008  1.00  0.00    -0.014 A 
ATOM     88  C   UNL A   1      45.605  34.959  31.266  1.00  0.00     0.010 A 
ATOM     89  C   UNL A   1      45.068  35.640  29.000  1.00  0.00     0.010 A 
ATOM     90  C   UNL A   1      46.137  36.226  31.520  1.00  0.00     0.020 A 
ATOM     91  C   UNL A   1      45.619  36.901  29.242  1.00  0.00     0.020 A 
ATOM     92  C   UNL A   1      46.139  37.190  30.506  1.00  0.00     0.054 A 
BRANCH  92  93
ATOM     93  S   UNL A   1      46.879  38.811  30.841  1.00  0.00     0.124 S 
ATOM     94  O   UNL A   1      48.306  38.523  30.719  1.00  0.00    -0.237 OA
ATOM     95  O   UNL A   1      46.314  39.648  29.786  1.00  0.00    -0.237 OA
ATOM     96  O   UNL A   1      46.421  39.127  32.192  1.00  0.00    -0.744 OA
ENDBRANCH  92  93
ENDBRANCH  66  87
ENDBRANCH  40  41
ENDBRANCH  32  35
ENDBRANCH  30  31
ENDBRANCH  29  30
ENDBRANCH  28  29
ENDBRANCH   1  28
TORSDOF 20
ENDMDL
MODEL 3
REMARK VINA RESULT:      -9.3      5.710     11.111
REMARK SMILES COc1ccc(CCNC(=O)c2cccnc2C(=O)NCCCCNC(=O)c2ccc(-c3c4nc(c(-c5ccc(S(=O)(=O)[O-])cc5)c5ccc([nH]5)c(-c5ccc(S(=O)(=O)[O-])cc5)c5nc(c(-c6ccc(S(=O)(=O)[O-])cc6)c6ccc3[nH]6)C=C5)C=C4)cc2)cc1OC
REMARK SMILES IDX 21 1 20 2 18 3 19 4 17 6 12 7 13 8 14 9 16 10 15 11 10 12
REMARK SMILES IDX 9 13 11 15 8 16 7 17 6 18 3 19 4 20 89 21 5 22 88 23 2 24
REMARK SMILES IDX 1 25 90 26 91 27 22 28 23 29 24 30 25 31 26 32 27 34 28 35
REMARK SMILES IDX 29 36 87 37 30 38 86 39 31 40 32 41 33 42 80 43 34 44 85 45
REMARK SMILES IDX 79 46 81 47 35 48 84 49 78 50 77 51 36 53 66 54 47 55 65 56
REMARK SMILES IDX 48 57 51 58 64 59 82 60 49 61 50 62 63 64 83 65 52 66 37 67
REMARK SMILES IDX 38 68 46 69 39 70 45 71 40 72 41 73 42 74 43 75 44 76 67 77
REMARK SMILES IDX 68 78 76 79 69 80 75 81 70 82 71 83 72 84 73 85 74 86 53 87
REMARK SMILES IDX 54 88 62 89 55 90 61 91 56 92 57 93 58 94 59 95 60 96
REMARK H PARENT 20 5 9 14 25 33 81 52 51 63
REMARK Flexibility Score: inf
ROOT
ATOM      1  C   UNL A   1      47.387  25.435  27.709  1.00  0.00     0.116 C 
ENDROOT
BRANCH   1   2
ATOM      2  N   UNL A   1      47.090  24.296  26.883  1.00  0.00    -0.351 N 
ATOM      3  C   UNL A   1      46.068  23.404  26.733  1.00  0.00     0.270 C 
ATOM      4  O   UNL A   1      46.315  22.574  25.842  1.00  0.00    -0.267 OA
ATOM      5  H   UNL A   1      47.824  24.109  26.253  1.00  0.00     0.163 HD
BRANCH   3   6
ATOM      6  C   UNL A   1      44.733  23.284  27.450  1.00  0.00     0.140 A 
ATOM      7  C   UNL A   1      43.408  23.340  27.021  1.00  0.00     0.071 A 
ATOM      8  C   UNL A   1      42.380  23.193  27.984  1.00  0.00     0.018 A 
ATOM      9  C   UNL A   1      42.669  23.051  29.334  1.00  0.00     0.021 A 
ATOM     10  N   UNL A   1      44.990  23.145  28.800  1.00  0.00    -0.250 NA
ATOM     11  C   UNL A   1      43.991  23.035  29.693  1.00  0.00     0.112 A 
BRANCH   7  12
ATOM     12  C   UNL A   1      42.893  23.398  25.653  1.00  0.00     0.253 C 
ATOM     13  N   UNL A   1      43.041  24.524  24.876  1.00  0.00    -0.352 N 
ATOM     14  H   UNL A   1      42.725  24.428  23.948  1.00  0.00     0.163 HD
ATOM     15  O   UNL A   1      42.166  22.488  25.266  1.00  0.00    -0.269 OA
BRANCH  13  16
ATOM     16  C   UNL A   1      43.590  25.834  25.201  1.00  0.00     0.121 C 
BRANCH  16  17
ATOM     17  C   UNL A   1      42.634  27.000  24.929  1.00  0.00     0.057 C 
BRANCH  17  18
ATOM     18  C   UNL A   1      41.796  27.466  26.098  1.00  0.00    -0.042 A 
ATOM     19  C   UNL A   1      40.415  28.529  28.324  1.00  0.00     0.160 A 
ATOM     20  C   UNL A   1      40.134  28.977  27.029  1.00  0.00     0.051 A 
ATOM     21  C   UNL A   1      41.345  27.497  28.512  1.00  0.00     0.160 A 
ATOM     22  C   UNL A   1      40.830  28.460  25.936  1.00  0.00     0.008 A 
ATOM     23  C   UNL A   1      42.015  26.969  27.392  1.00  0.00     0.054 A 
BRANCH  19  24
ATOM     24  O   UNL A   1      39.731  29.067  29.383  1.00  0.00    -0.493 OA
ATOM     25  C   UNL A   1      38.583  28.292  29.738  1.00  0.00     0.278 C 
ENDBRANCH  19  24
BRANCH  21  26
ATOM     26  O   UNL A   1      41.726  26.909  29.691  1.00  0.00    -0.493 OA
ATOM     27  C   UNL A   1      43.107  26.627  29.873  1.00  0.00     0.278 C 
ENDBRANCH  21  26
ENDBRANCH  17  18
ENDBRANCH  16  17
ENDBRANCH  13  16
ENDBRANCH   7  12
ENDBRANCH   3   6
ENDBRANCH   1   2
BRANCH   1  28
ATOM     28  C   UNL A   1      48.809  25.342  28.247  1.00  0.00     0.023 C 
BRANCH  28  29
ATOM     29  C   UNL A   1      49.888  25.474  27.171  1.00  0.00     0.023 C 
BRANCH  29  30
ATOM     30  C   UNL A   1      50.972  26.490  27.507  1.00  0.00     0.116 C 
BRANCH  30  31
ATOM     31  N   UNL A   1      51.373  27.317  26.377  1.00  0.00    -0.352 N 
ATOM     32  C   UNL A   1      50.831  28.516  25.964  1.00  0.00     0.251 C 
ATOM     33  H   UNL A   1      52.125  26.978  25.840  1.00  0.00     0.163 HD
ATOM     34  O   UNL A   1      51.210  29.053  24.937  1.00  0.00    -0.269 OA
BRANCH  32  35
ATOM     35  C   UNL A   1      49.737  29.104  26.767  1.00  0.00     0.039 A 
ATOM     36  C   UNL A   1      48.416  28.800  26.436  1.00  0.00     0.014 A 
ATOM     37  C   UNL A   1      50.029  29.869  27.899  1.00  0.00     0.014 A 
ATOM     38  C   UNL A   1      47.389  29.182  27.301  1.00  0.00     0.010 A 
ATOM     39  C   UNL A   1      49.016  30.167  28.802  1.00  0.00     0.010 A 
ATOM     40  C   UNL A   1      47.687  29.819  28.517  1.00  0.00    -0.014 A 
BRANCH  40  41
ATOM     41  C   UNL A   1      46.632  30.114  29.519  1.00  0.00     0.031 A 
ATOM     42  C   UNL A   1      46.277  29.090  30.561  1.00  0.00     0.074 A 
ATOM     43  C   UNL A   1      45.926  31.260  29.427  1.00  0.00     0.049 A 
ATOM     44  N   UNL A   1      45.324  29.121  31.456  1.00  0.00    -0.248 NA
ATOM     45  C   UNL A   1      47.072  27.850  30.573  1.00  0.00     0.031 C 
ATOM     46  C   UNL A   1      46.124  32.303  28.417  1.00  0.00     0.029 A 
ATOM     47  N   UNL A   1      44.888  31.733  30.189  1.00  0.00    -0.354 N 
ATOM     48  C   UNL A   1      45.383  27.896  32.112  1.00  0.00     0.074 A 
ATOM     49  C   UNL A   1      46.433  27.127  31.480  1.00  0.00     0.031 C 
ATOM     50  C   UNL A   1      45.256  33.303  28.640  1.00  0.00     0.029 A 
ATOM     51  C   UNL A   1      44.414  32.959  29.781  1.00  0.00     0.049 A 
ATOM     52  H   UNL A   1      44.515  31.242  30.957  1.00  0.00     0.167 HD
ATOM     53  C   UNL A   1      44.644  27.458  33.158  1.00  0.00     0.031 A 
ATOM     54  C   UNL A   1      43.414  33.718  30.266  1.00  0.00     0.031 A 
ATOM     55  C   UNL A   1      43.626  28.239  33.806  1.00  0.00     0.049 A 
ATOM     56  C   UNL A   1      42.639  33.233  31.459  1.00  0.00     0.074 A 
ATOM     57  C   UNL A   1      42.879  27.920  34.927  1.00  0.00     0.029 A 
ATOM     58  N   UNL A   1      43.215  29.497  33.395  1.00  0.00    -0.354 N 
ATOM     59  N   UNL A   1      42.765  32.105  32.117  1.00  0.00    -0.248 NA
ATOM     60  C   UNL A   1      41.599  34.128  31.985  1.00  0.00     0.031 C 
ATOM     61  C   UNL A   1      41.989  28.971  35.170  1.00  0.00     0.029 A 
ATOM     62  C   UNL A   1      42.214  29.963  34.230  1.00  0.00     0.049 A 
ATOM     63  H   UNL A   1      43.580  29.987  32.623  1.00  0.00     0.167 HD
ATOM     64  C   UNL A   1      41.834  32.163  33.148  1.00  0.00     0.074 A 
ATOM     65  C   UNL A   1      41.164  33.444  33.036  1.00  0.00     0.031 C 
ATOM     66  C   UNL A   1      41.560  31.241  34.103  1.00  0.00     0.031 A 
BRANCH  53  67
ATOM     67  C   UNL A   1      44.919  26.067  33.664  1.00  0.00    -0.014 A 
ATOM     68  C   UNL A   1      44.281  24.949  33.096  1.00  0.00     0.010 A 
ATOM     69  C   UNL A   1      45.838  25.872  34.709  1.00  0.00     0.010 A 
ATOM     70  C   UNL A   1      44.518  23.667  33.600  1.00  0.00     0.020 A 
ATOM     71  C   UNL A   1      46.100  24.588  35.197  1.00  0.00     0.020 A 
ATOM     72  C   UNL A   1      45.420  23.497  34.653  1.00  0.00     0.054 A 
BRANCH  72  73
ATOM     73  S   UNL A   1      45.715  21.822  35.283  1.00  0.00     0.124 S 
ATOM     74  O   UNL A   1      47.043  21.529  34.747  1.00  0.00    -0.237 OA
ATOM     75  O   UNL A   1      45.651  22.006  36.731  1.00  0.00    -0.237 OA
ATOM     76  O   UNL A   1      44.624  21.039  34.709  1.00  0.00    -0.744 OA
ENDBRANCH  72  73
ENDBRANCH  53  67
BRANCH  54  77
ATOM     77  C   UNL A   1      43.110  35.033  29.638  1.00  0.00    -0.014 A 
ATOM     78  C   UNL A   1      43.785  36.193  30.057  1.00  0.00     0.010 A 
ATOM     79  C   UNL A   1      42.165  35.127  28.601  1.00  0.00     0.010 A 
ATOM     80  C   UNL A   1      43.512  37.426  29.459  1.00  0.00     0.020 A 
ATOM     81  C   UNL A   1      41.906  36.355  27.985  1.00  0.00     0.020 A 
ATOM     82  C   UNL A   1      42.575  37.499  28.424  1.00  0.00     0.054 A 
BRANCH  82  83
ATOM     83  S   UNL A   1      42.285  39.099  27.616  1.00  0.00     0.124 S 
ATOM     84  O   UNL A   1      41.518  38.708  26.438  1.00  0.00    -0.237 OA
ATOM     85  O   UNL A   1      41.546  39.839  28.636  1.00  0.00    -0.237 OA
ATOM     86  O   UNL A   1      43.634  39.595  27.352  1.00  0.00    -0.744 OA
ENDBRANCH  82  83
ENDBRANCH  54  77
BRANCH  66  87
ATOM     87  C   UNL A   1      40.510  31.591  35.122  1.00  0.00    -0.014 A 
ATOM     88  C   UNL A   1      39.192  31.119  34.997  1.00  0.00     0.010 A 
ATOM     89  C   UNL A   1      40.867  32.352  36.248  1.00  0.00     0.010 A 
ATOM     90  C   UNL A   1      38.240  31.424  35.974  1.00  0.00     0.020 A 
ATOM     91  C   UNL A   1      39.923  32.640  37.238  1.00  0.00     0.020 A 
ATOM     92  C   UNL A   1      38.612  32.184  37.087  1.00  0.00     0.054 A 
BRANCH  92  93
ATOM     93  S   UNL A   1      37.372  32.527  38.366  1.00  0.00     0.124 S 
ATOM     94  O   UNL A   1      36.338  33.224  37.606  1.00  0.00    -0.237 OA
ATOM     95  O   UNL A   1      37.015  31.190  38.835  1.00  0.00    -0.237 OA
ATOM     96  O   UNL A   1      38.094  33.349  39.335  1.00  0.00    -0.744 OA
ENDBRANCH  92  93
ENDBRANCH  66  87
ENDBRANCH  40  41
ENDBRANCH  32  35
ENDBRANCH  30  31
ENDBRANCH  29  30
ENDBRANCH  28  29
ENDBRANCH   1  28
TORSDOF 20
ENDMDL
