MODEL 1
REMARK VINA RESULT:      -9.1      0.000      0.000
REMARK SMILES CC1(C)CC[C@@]2(C(=O)NCCCCNC(=O)c3ccc(-c4c5nc(c(-c6ccc(S(=O)(=O)[O-])cc6)c6ccc([nH]6)c(-c6ccc(S(=O)(=O)[O-])cc6)c6nc(c(-c7ccc(S(=O)(=O)[O-])cc7)c7ccc4[nH]7)C=C6)C=C5)cc3)CC[C@@]3(C)C(=CC[C@H]4[C@@]5(C)CC[C@H](O)C(C)(C)[C@@H]5CC[C@]43C)[C@@H]2C1
REMARK SMILES IDX 12 1 11 2 10 3 9 4 7 5 8 6 6 8 1 9 2 10 3 11 4 12 100 13
REMARK SMILES IDX 5 14 99 15 81 16 77 17 79 18 82 19 78 20 80 21 97 22 83 23
REMARK SMILES IDX 84 24 96 25 98 26 85 27 95 28 86 29 87 30 94 31 88 32 91 33
REMARK SMILES IDX 89 34 92 35 93 36 90 37 13 39 14 40 15 41 16 43 17 44 18 45
REMARK SMILES IDX 76 46 19 47 75 48 20 49 21 50 22 51 69 52 23 53 74 54 68 55
REMARK SMILES IDX 70 56 24 57 73 58 67 59 66 60 25 62 55 63 36 64 54 65 37 66
REMARK SMILES IDX 40 67 53 68 71 69 38 70 39 71 52 73 72 74 41 75 26 76 27 77
REMARK SMILES IDX 35 78 28 79 34 80 29 81 30 82 31 83 32 84 33 85 56 86 57 87
REMARK SMILES IDX 65 88 58 89 64 90 59 91 60 92 61 93 62 94 63 95 42 96 43 97
REMARK SMILES IDX 51 98 44 99 50 100 45 101 46 102 47 103 48 104 49 105
REMARK H PARENT 9 7 90 38 14 42 70 61 40 72
REMARK Flexibility Score: inf
ROOT
ATOM      1  C   UNL A   1      47.268  25.337  33.740  1.00  0.00     0.023 C 
ENDROOT
BRANCH   1   2
ATOM      2  C   UNL A   1      46.413  25.867  32.576  1.00  0.00     0.023 C 
BRANCH   2   3
ATOM      3  C   UNL A   1      46.634  25.401  31.126  1.00  0.00     0.116 C 
BRANCH   3   4
ATOM      4  N   UNL A   1      46.234  26.128  29.942  1.00  0.00    -0.356 N 
ATOM      5  C   UNL A   1      46.454  25.780  28.605  1.00  0.00     0.226 C 
ATOM      6  O   UNL A   1      47.540  25.350  28.214  1.00  0.00    -0.274 OA
ATOM      7  H   UNL A   1      45.747  26.970  30.095  1.00  0.00     0.163 HD
BRANCH   5   8
ATOM      8  C   UNL A   1      45.183  25.749  27.669  1.00  0.00     0.056 C 
ATOM      9  C   UNL A   1      42.541  23.087  29.230  1.00  0.00     0.011 C 
ATOM     10  C   UNL A   1      43.789  23.908  29.607  1.00  0.00    -0.035 C 
ATOM     11  C   UNL A   1      44.142  23.413  31.046  1.00  0.00     0.011 C 
ATOM     12  C   UNL A   1      44.919  23.444  28.668  1.00  0.00     0.007 C 
ATOM     13  C   UNL A   1      43.448  25.489  29.547  1.00  0.00     0.015 C 
ATOM     14  C   UNL A   1      44.957  24.248  27.386  1.00  0.00     0.018 C 
ATOM     15  C   UNL A   1      43.946  26.402  28.318  1.00  0.00     0.031 C 
ATOM     16  C   UNL A   1      44.342  27.948  28.506  1.00  0.00    -0.064 C 
ATOM     17  C   UNL A   1      45.348  26.392  26.274  1.00  0.00     0.018 C 
ATOM     18  C   UNL A   1      44.958  28.763  27.300  1.00  0.00    -0.006 C 
ATOM     19  C   UNL A   1      44.280  28.545  29.708  1.00  0.00    -0.027 C 
ATOM     20  C   UNL A   1      45.735  27.855  26.320  1.00  0.00     0.013 C 
ATOM     21  C   UNL A   1      43.667  29.239  26.539  1.00  0.00     0.017 C 
ATOM     22  C   UNL A   1      45.915  30.092  27.723  1.00  0.00    -0.020 C 
ATOM     23  C   UNL A   1      45.255  29.602  30.158  1.00  0.00     0.032 C 
ATOM     24  C   UNL A   1      46.429  29.994  29.201  1.00  0.00     0.006 C 
ATOM     25  C   UNL A   1      47.118  30.474  26.754  1.00  0.00     0.008 C 
ATOM     26  C   UNL A   1      45.016  31.392  27.710  1.00  0.00     0.012 C 
ATOM     27  C   UNL A   1      47.968  29.536  29.538  1.00  0.00    -0.025 C 
ATOM     28  C   UNL A   1      48.530  30.689  27.386  1.00  0.00     0.005 C 
ATOM     29  C   UNL A   1      48.409  30.494  30.682  1.00  0.00     0.012 C 
ATOM     30  C   UNL A   1      48.144  28.125  30.049  1.00  0.00     0.010 C 
ATOM     31  C   UNL A   1      48.892  29.511  28.277  1.00  0.00     0.003 C 
ATOM     32  C   UNL A   1      49.540  27.595  30.378  1.00  0.00     0.033 C 
ATOM     33  C   UNL A   1      50.428  29.113  28.545  1.00  0.00    -0.006 C 
ATOM     34  C   UNL A   1      50.455  27.683  29.173  1.00  0.00     0.120 C 
ATOM     35  C   UNL A   1      51.226  30.065  29.459  1.00  0.00     0.014 C 
ATOM     36  C   UNL A   1      51.218  29.017  27.221  1.00  0.00     0.014 C 
BRANCH  34  37
ATOM     37  O   UNL A   1      51.772  27.285  29.559  1.00  0.00    -0.393 OA
ATOM     38  H   UNL A   1      51.765  26.350  29.818  1.00  0.00     0.210 HD
ENDBRANCH  34  37
ENDBRANCH   5   8
ENDBRANCH   3   4
ENDBRANCH   2   3
ENDBRANCH   1   2
BRANCH   1  39
ATOM     39  C   UNL A   1      48.426  26.224  34.160  1.00  0.00     0.116 C 
BRANCH  39  40
ATOM     40  N   UNL A   1      48.601  26.168  35.598  1.00  0.00    -0.352 N 
ATOM     41  C   UNL A   1      47.943  26.937  36.539  1.00  0.00     0.251 C 
ATOM     42  H   UNL A   1      49.254  25.514  35.940  1.00  0.00     0.163 HD
ATOM     43  O   UNL A   1      48.467  27.163  37.620  1.00  0.00    -0.269 OA
BRANCH  41  44
ATOM     44  C   UNL A   1      46.612  27.504  36.207  1.00  0.00     0.039 A 
ATOM     45  C   UNL A   1      45.445  26.869  36.640  1.00  0.00     0.014 A 
ATOM     46  C   UNL A   1      46.531  28.672  35.448  1.00  0.00     0.014 A 
ATOM     47  C   UNL A   1      44.197  27.432  36.340  1.00  0.00     0.010 A 
ATOM     48  C   UNL A   1      45.301  29.283  35.242  1.00  0.00     0.010 A 
ATOM     49  C   UNL A   1      44.117  28.657  35.660  1.00  0.00    -0.014 A 
BRANCH  49  50
ATOM     50  C   UNL A   1      42.820  29.302  35.322  1.00  0.00     0.031 A 
ATOM     51  C   UNL A   1      42.107  28.913  34.051  1.00  0.00     0.074 A 
ATOM     52  C   UNL A   1      42.347  30.308  36.083  1.00  0.00     0.049 A 
ATOM     53  N   UNL A   1      41.053  29.452  33.494  1.00  0.00    -0.248 NA
ATOM     54  C   UNL A   1      42.689  27.802  33.277  1.00  0.00     0.031 C 
ATOM     55  C   UNL A   1      42.979  30.816  37.303  1.00  0.00     0.029 A 
ATOM     56  N   UNL A   1      41.239  31.103  35.930  1.00  0.00    -0.354 N 
ATOM     57  C   UNL A   1      40.879  28.780  32.288  1.00  0.00     0.074 A 
ATOM     58  C   UNL A   1      41.967  27.836  32.169  1.00  0.00     0.031 C 
ATOM     59  C   UNL A   1      42.241  31.824  37.794  1.00  0.00     0.029 A 
ATOM     60  C   UNL A   1      41.112  32.068  36.902  1.00  0.00     0.049 A 
ATOM     61  H   UNL A   1      40.595  30.992  35.193  1.00  0.00     0.167 HD
ATOM     62  C   UNL A   1      39.893  28.921  31.370  1.00  0.00     0.031 A 
ATOM     63  C   UNL A   1      40.205  33.052  37.048  1.00  0.00     0.031 A 
ATOM     64  C   UNL A   1      38.800  29.843  31.517  1.00  0.00     0.049 A 
ATOM     65  C   UNL A   1      39.101  33.181  36.035  1.00  0.00     0.074 A 
ATOM     66  C   UNL A   1      37.691  30.001  30.707  1.00  0.00     0.029 A 
ATOM     67  N   UNL A   1      38.685  30.774  32.541  1.00  0.00    -0.354 N 
ATOM     68  N   UNL A   1      38.891  32.466  34.954  1.00  0.00    -0.248 NA
ATOM     69  C   UNL A   1      38.113  34.244  36.257  1.00  0.00     0.031 C 
ATOM     70  C   UNL A   1      36.941  31.073  31.203  1.00  0.00     0.029 A 
ATOM     71  C   UNL A   1      37.548  31.540  32.358  1.00  0.00     0.049 A 
ATOM     72  H   UNL A   1      39.319  30.873  33.287  1.00  0.00     0.167 HD
ATOM     73  C   UNL A   1      37.744  32.989  34.370  1.00  0.00     0.074 A 
ATOM     74  C   UNL A   1      37.291  34.063  35.232  1.00  0.00     0.031 C 
ATOM     75  C   UNL A   1      37.127  32.618  33.219  1.00  0.00     0.031 A 
BRANCH  62  76
ATOM     76  C   UNL A   1      39.971  28.075  30.123  1.00  0.00    -0.014 A 
ATOM     77  C   UNL A   1      39.396  26.791  30.068  1.00  0.00     0.010 A 
ATOM     78  C   UNL A   1      40.636  28.571  28.987  1.00  0.00     0.010 A 
ATOM     79  C   UNL A   1      39.546  25.994  28.928  1.00  0.00     0.020 A 
ATOM     80  C   UNL A   1      40.758  27.791  27.832  1.00  0.00     0.020 A 
ATOM     81  C   UNL A   1      40.235  26.497  27.821  1.00  0.00     0.054 A 
BRANCH  81  82
ATOM     82  S   UNL A   1      40.428  25.435  26.363  1.00  0.00     0.124 S 
ATOM     83  O   UNL A   1      39.078  24.902  26.199  1.00  0.00    -0.237 OA
ATOM     84  O   UNL A   1      40.860  26.377  25.335  1.00  0.00    -0.237 OA
ATOM     85  O   UNL A   1      41.435  24.460  26.775  1.00  0.00    -0.744 OA
ENDBRANCH  81  82
ENDBRANCH  62  76
BRANCH  63  86
ATOM     86  C   UNL A   1      40.319  33.985  38.204  1.00  0.00    -0.014 A 
ATOM     87  C   UNL A   1      39.712  33.679  39.435  1.00  0.00     0.010 A 
ATOM     88  C   UNL A   1      41.101  35.151  38.100  1.00  0.00     0.010 A 
ATOM     89  C   UNL A   1      39.896  34.513  40.542  1.00  0.00     0.020 A 
ATOM     90  C   UNL A   1      41.309  35.972  39.212  1.00  0.00     0.020 A 
ATOM     91  C   UNL A   1      40.705  35.647  40.427  1.00  0.00     0.054 A 
BRANCH  91  92
ATOM     92  S   UNL A   1      41.012  36.655  41.905  1.00  0.00     0.124 S 
ATOM     93  O   UNL A   1      41.628  35.690  42.810  1.00  0.00    -0.237 OA
ATOM     94  O   UNL A   1      41.897  37.698  41.393  1.00  0.00    -0.237 OA
ATOM     95  O   UNL A   1      39.678  37.112  42.290  1.00  0.00    -0.744 OA
ENDBRANCH  91  92
ENDBRANCH  63  86
BRANCH  75  96
ATOM     96  C   UNL A   1      35.898  33.387  32.813  1.00  0.00    -0.014 A 
ATOM     97  C   UNL A   1      34.713  33.296  33.563  1.00  0.00     0.010 A 
ATOM     98  C   UNL A   1      35.960  34.280  31.728  1.00  0.00     0.010 A 
ATOM     99  C   UNL A   1      33.605  34.076  33.225  1.00  0.00     0.020 A 
ATOM    100  C   UNL A   1      34.864  35.084  31.406  1.00  0.00     0.020 A 
ATOM    101  C   UNL A   1      33.690  34.970  32.154  1.00  0.00     0.054 A 
BRANCH 101 102
ATOM    102  S   UNL A   1      32.262  36.025  31.788  1.00  0.00     0.124 S 
ATOM    103  O   UNL A   1      32.251  36.026  30.327  1.00  0.00    -0.237 OA
ATOM    104  O   UNL A   1      31.161  35.305  32.424  1.00  0.00    -0.237 OA
ATOM    105  O   UNL A   1      32.604  37.303  32.409  1.00  0.00    -0.744 OA
ENDBRANCH 101 102
ENDBRANCH  75  96
ENDBRANCH  49  50
ENDBRANCH  41  44
ENDBRANCH  39  40
ENDBRANCH   1  39
TORSDOF 15
ENDMDL
MODEL 2
REMARK VINA RESULT:      -9.0      2.870      5.260
REMARK SMILES CC1(C)CC[C@@]2(C(=O)NCCCCNC(=O)c3ccc(-c4c5nc(c(-c6ccc(S(=O)(=O)[O-])cc6)c6ccc([nH]6)c(-c6ccc(S(=O)(=O)[O-])cc6)c6nc(c(-c7ccc(S(=O)(=O)[O-])cc7)c7ccc4[nH]7)C=C6)C=C5)cc3)CC[C@@]3(C)C(=CC[C@H]4[C@@]5(C)CC[C@H](O)C(C)(C)[C@@H]5CC[C@]43C)[C@@H]2C1
REMARK SMILES IDX 12 1 11 2 10 3 9 4 7 5 8 6 6 8 1 9 2 10 3 11 4 12 100 13
REMARK SMILES IDX 5 14 99 15 81 16 77 17 79 18 82 19 78 20 80 21 97 22 83 23
REMARK SMILES IDX 84 24 96 25 98 26 85 27 95 28 86 29 87 30 94 31 88 32 91 33
REMARK SMILES IDX 89 34 92 35 93 36 90 37 13 39 14 40 15 41 16 43 17 44 18 45
REMARK SMILES IDX 76 46 19 47 75 48 20 49 21 50 22 51 69 52 23 53 74 54 68 55
REMARK SMILES IDX 70 56 24 57 73 58 67 59 66 60 25 62 55 63 36 64 54 65 37 66
REMARK SMILES IDX 40 67 53 68 71 69 38 70 39 71 52 73 72 74 41 75 26 76 27 77
REMARK SMILES IDX 35 78 28 79 34 80 29 81 30 82 31 83 32 84 33 85 56 86 57 87
REMARK SMILES IDX 65 88 58 89 64 90 59 91 60 92 61 93 62 94 63 95 42 96 43 97
REMARK SMILES IDX 51 98 44 99 50 100 45 101 46 102 47 103 48 104 49 105
REMARK H PARENT 9 7 90 38 14 42 70 61 40 72
REMARK Flexibility Score: inf
ROOT
ATOM      1  C   UNL A   1      50.057  25.911  38.187  1.00  0.00     0.023 C 
ENDROOT
BRANCH   1   2
ATOM      2  C   UNL A   1      49.433  24.537  38.489  1.00  0.00     0.023 C 
BRANCH   2   3
ATOM      3  C   UNL A   1      49.327  23.438  37.417  1.00  0.00     0.116 C 
BRANCH   3   4
ATOM      4  N   UNL A   1      48.190  23.218  36.552  1.00  0.00    -0.356 N 
ATOM      5  C   UNL A   1      48.025  22.218  35.587  1.00  0.00     0.226 C 
ATOM      6  O   UNL A   1      48.927  21.911  34.807  1.00  0.00    -0.274 OA
ATOM      7  H   UNL A   1      47.440  23.847  36.655  1.00  0.00     0.163 HD
BRANCH   5   8
ATOM      8  C   UNL A   1      46.711  21.350  35.694  1.00  0.00     0.056 C 
ATOM      9  C   UNL A   1      46.749  19.454  39.286  1.00  0.00     0.011 C 
ATOM     10  C   UNL A   1      47.407  20.628  38.536  1.00  0.00    -0.035 C 
ATOM     11  C   UNL A   1      48.509  21.130  39.523  1.00  0.00     0.011 C 
ATOM     12  C   UNL A   1      48.122  20.021  37.314  1.00  0.00     0.007 C 
ATOM     13  C   UNL A   1      46.298  21.756  38.197  1.00  0.00     0.015 C 
ATOM     14  C   UNL A   1      47.215  19.949  36.105  1.00  0.00     0.018 C 
ATOM     15  C   UNL A   1      45.700  21.916  36.710  1.00  0.00     0.031 C 
ATOM     16  C   UNL A   1      45.262  23.342  36.113  1.00  0.00    -0.064 C 
ATOM     17  C   UNL A   1      45.938  21.119  34.376  1.00  0.00     0.018 C 
ATOM     18  C   UNL A   1      44.813  23.466  34.602  1.00  0.00    -0.006 C 
ATOM     19  C   UNL A   1      45.386  24.470  36.833  1.00  0.00    -0.027 C 
ATOM     20  C   UNL A   1      45.480  22.398  33.706  1.00  0.00     0.013 C 
ATOM     21  C   UNL A   1      43.289  23.091  34.686  1.00  0.00     0.017 C 
ATOM     22  C   UNL A   1      45.006  24.994  33.902  1.00  0.00    -0.020 C 
ATOM     23  C   UNL A   1      45.744  25.802  36.227  1.00  0.00     0.032 C 
ATOM     24  C   UNL A   1      46.036  25.873  34.691  1.00  0.00     0.006 C 
ATOM     25  C   UNL A   1      45.320  25.057  32.343  1.00  0.00     0.008 C 
ATOM     26  C   UNL A   1      43.643  25.786  34.027  1.00  0.00     0.012 C 
ATOM     27  C   UNL A   1      47.568  26.088  34.143  1.00  0.00    -0.025 C 
ATOM     28  C   UNL A   1      46.521  25.937  31.872  1.00  0.00     0.005 C 
ATOM     29  C   UNL A   1      47.856  27.596  34.399  1.00  0.00     0.012 C 
ATOM     30  C   UNL A   1      48.645  25.304  34.856  1.00  0.00     0.010 C 
ATOM     31  C   UNL A   1      47.769  25.596  32.673  1.00  0.00     0.003 C 
ATOM     32  C   UNL A   1      50.103  25.421  34.412  1.00  0.00     0.033 C 
ATOM     33  C   UNL A   1      49.238  25.819  32.057  1.00  0.00    -0.006 C 
ATOM     34  C   UNL A   1      50.260  25.048  32.952  1.00  0.00     0.120 C 
ATOM     35  C   UNL A   1      49.706  27.284  31.930  1.00  0.00     0.014 C 
ATOM     36  C   UNL A   1      49.351  25.203  30.645  1.00  0.00     0.014 C 
BRANCH  34  37
ATOM     37  O   UNL A   1      51.613  25.282  32.555  1.00  0.00    -0.393 OA
ATOM     38  H   UNL A   1      52.191  25.242  33.334  1.00  0.00     0.210 HD
ENDBRANCH  34  37
ENDBRANCH   5   8
ENDBRANCH   3   4
ENDBRANCH   2   3
ENDBRANCH   1   2
BRANCH   1  39
ATOM     39  C   UNL A   1      49.073  27.030  37.899  1.00  0.00     0.116 C 
BRANCH  39  40
ATOM     40  N   UNL A   1      49.589  28.289  38.400  1.00  0.00    -0.352 N 
ATOM     41  C   UNL A   1      49.271  29.552  37.940  1.00  0.00     0.251 C 
ATOM     42  H   UNL A   1      50.232  28.238  39.144  1.00  0.00     0.163 HD
ATOM     43  O   UNL A   1      50.066  30.471  38.073  1.00  0.00    -0.269 OA
BRANCH  41  44
ATOM     44  C   UNL A   1      47.969  29.768  37.262  1.00  0.00     0.039 A 
ATOM     45  C   UNL A   1      46.828  29.078  37.684  1.00  0.00     0.014 A 
ATOM     46  C   UNL A   1      47.890  30.656  36.189  1.00  0.00     0.014 A 
ATOM     47  C   UNL A   1      45.601  29.314  37.050  1.00  0.00     0.010 A 
ATOM     48  C   UNL A   1      46.655  30.965  35.632  1.00  0.00     0.010 A 
ATOM     49  C   UNL A   1      45.501  30.278  36.035  1.00  0.00    -0.014 A 
BRANCH  49  50
ATOM     50  C   UNL A   1      44.222  30.572  35.333  1.00  0.00     0.031 A 
ATOM     51  C   UNL A   1      43.953  29.943  33.989  1.00  0.00     0.074 A 
ATOM     52  C   UNL A   1      43.369  31.482  35.839  1.00  0.00     0.049 A 
ATOM     53  N   UNL A   1      42.982  30.178  33.144  1.00  0.00    -0.248 NA
ATOM     54  C   UNL A   1      44.936  28.956  33.509  1.00  0.00     0.031 C 
ATOM     55  C   UNL A   1      43.549  32.204  37.101  1.00  0.00     0.029 A 
ATOM     56  N   UNL A   1      42.190  31.979  35.340  1.00  0.00    -0.354 N 
ATOM     57  C   UNL A   1      43.266  29.408  32.020  1.00  0.00     0.074 A 
ATOM     58  C   UNL A   1      44.525  28.745  32.269  1.00  0.00     0.031 C 
ATOM     59  C   UNL A   1      42.512  33.036  37.284  1.00  0.00     0.029 A 
ATOM     60  C   UNL A   1      41.618  32.946  36.134  1.00  0.00     0.049 A 
ATOM     61  H   UNL A   1      41.791  31.671  34.495  1.00  0.00     0.167 HD
ATOM     62  C   UNL A   1      42.535  29.251  30.890  1.00  0.00     0.031 A 
ATOM     63  C   UNL A   1      40.513  33.693  35.948  1.00  0.00     0.031 A 
ATOM     64  C   UNL A   1      41.268  29.893  30.671  1.00  0.00     0.049 A 
ATOM     65  C   UNL A   1      39.698  33.490  34.701  1.00  0.00     0.074 A 
ATOM     66  C   UNL A   1      40.390  29.729  29.615  1.00  0.00     0.029 A 
ATOM     67  N   UNL A   1      40.702  30.833  31.522  1.00  0.00    -0.354 N 
ATOM     68  N   UNL A   1      39.926  32.677  33.696  1.00  0.00    -0.248 NA
ATOM     69  C   UNL A   1      38.480  34.298  34.561  1.00  0.00     0.031 C 
ATOM     70  C   UNL A   1      39.327  30.621  29.792  1.00  0.00     0.029 A 
ATOM     71  C   UNL A   1      39.510  31.293  30.991  1.00  0.00     0.049 A 
ATOM     72  H   UNL A   1      41.091  31.128  32.376  1.00  0.00     0.167 HD
ATOM     73  C   UNL A   1      38.877  32.873  32.805  1.00  0.00     0.074 A 
ATOM     74  C   UNL A   1      38.001  33.861  33.404  1.00  0.00     0.031 C 
ATOM     75  C   UNL A   1      38.663  32.292  31.597  1.00  0.00     0.031 A 
BRANCH  62  76
ATOM     76  C   UNL A   1      43.104  28.369  29.806  1.00  0.00    -0.014 A 
ATOM     77  C   UNL A   1      42.895  26.977  29.804  1.00  0.00     0.010 A 
ATOM     78  C   UNL A   1      43.866  28.943  28.773  1.00  0.00     0.010 A 
ATOM     79  C   UNL A   1      43.495  26.170  28.832  1.00  0.00     0.020 A 
ATOM     80  C   UNL A   1      44.439  28.144  27.777  1.00  0.00     0.020 A 
ATOM     81  C   UNL A   1      44.272  26.759  27.830  1.00  0.00     0.054 A 
BRANCH  81  82
ATOM     82  S   UNL A   1      45.051  25.687  26.593  1.00  0.00     0.124 S 
ATOM     83  O   UNL A   1      44.912  26.483  25.375  1.00  0.00    -0.237 OA
ATOM     84  O   UNL A   1      46.413  25.548  27.100  1.00  0.00    -0.237 OA
ATOM     85  O   UNL A   1      44.246  24.468  26.633  1.00  0.00    -0.744 OA
ENDBRANCH  81  82
ENDBRANCH  62  76
BRANCH  63  86
ATOM     86  C   UNL A   1      40.129  34.698  36.978  1.00  0.00    -0.014 A 
ATOM     87  C   UNL A   1      39.222  34.367  38.000  1.00  0.00     0.010 A 
ATOM     88  C   UNL A   1      40.730  35.971  36.986  1.00  0.00     0.010 A 
ATOM     89  C   UNL A   1      38.933  35.284  39.016  1.00  0.00     0.020 A 
ATOM     90  C   UNL A   1      40.465  36.880  38.014  1.00  0.00     0.020 A 
ATOM     91  C   UNL A   1      39.567  36.530  39.024  1.00  0.00     0.054 A 
BRANCH  91  92
ATOM     92  S   UNL A   1      39.254  37.661  40.409  1.00  0.00     0.124 S 
ATOM     93  O   UNL A   1      40.537  38.343  40.542  1.00  0.00    -0.237 OA
ATOM     94  O   UNL A   1      38.153  38.477  39.902  1.00  0.00    -0.237 OA
ATOM     95  O   UNL A   1      38.902  36.766  41.509  1.00  0.00    -0.744 OA
ENDBRANCH  91  92
ENDBRANCH  63  86
BRANCH  75  96
ATOM     96  C   UNL A   1      37.440  32.719  30.830  1.00  0.00    -0.014 A 
ATOM     97  C   UNL A   1      36.174  32.200  31.151  1.00  0.00     0.010 A 
ATOM     98  C   UNL A   1      37.547  33.716  29.844  1.00  0.00     0.010 A 
ATOM     99  C   UNL A   1      35.035  32.663  30.488  1.00  0.00     0.020 A 
ATOM    100  C   UNL A   1      36.407  34.203  29.201  1.00  0.00     0.020 A 
ATOM    101  C   UNL A   1      35.157  33.667  29.522  1.00  0.00     0.054 A 
BRANCH 101 102
ATOM    102  S   UNL A   1      33.654  34.302  28.735  1.00  0.00     0.124 S 
ATOM    103  O   UNL A   1      34.160  35.458  28.000  1.00  0.00    -0.237 OA
ATOM    104  O   UNL A   1      33.223  33.174  27.912  1.00  0.00    -0.237 OA
ATOM    105  O   UNL A   1      32.777  34.615  29.861  1.00  0.00    -0.744 OA
ENDBRANCH 101 102
ENDBRANCH  75  96
ENDBRANCH  49  50
ENDBRANCH  41  44
ENDBRANCH  39  40
ENDBRANCH   1  39
TORSDOF 15
ENDMDL
MODEL 3
REMARK VINA RESULT:      -9.0      3.127      5.852
REMARK SMILES CC1(C)CC[C@@]2(C(=O)NCCCCNC(=O)c3ccc(-c4c5nc(c(-c6ccc(S(=O)(=O)[O-])cc6)c6ccc([nH]6)c(-c6ccc(S(=O)(=O)[O-])cc6)c6nc(c(-c7ccc(S(=O)(=O)[O-])cc7)c7ccc4[nH]7)C=C6)C=C5)cc3)CC[C@@]3(C)C(=CC[C@H]4[C@@]5(C)CC[C@H](O)C(C)(C)[C@@H]5CC[C@]43C)[C@@H]2C1
REMARK SMILES IDX 12 1 11 2 10 3 9 4 7 5 8 6 6 8 1 9 2 10 3 11 4 12 100 13
REMARK SMILES IDX 5 14 99 15 81 16 77 17 79 18 82 19 78 20 80 21 97 22 83 23
REMARK SMILES IDX 84 24 96 25 98 26 85 27 95 28 86 29 87 30 94 31 88 32 91 33
REMARK SMILES IDX 89 34 92 35 93 36 90 37 13 39 14 40 15 41 16 43 17 44 18 45
REMARK SMILES IDX 76 46 19 47 75 48 20 49 21 50 22 51 69 52 23 53 74 54 68 55
REMARK SMILES IDX 70 56 24 57 73 58 67 59 66 60 25 62 55 63 36 64 54 65 37 66
REMARK SMILES IDX 40 67 53 68 71 69 38 70 39 71 52 73 72 74 41 75 26 76 27 77
REMARK SMILES IDX 35 78 28 79 34 80 29 81 30 82 31 83 32 84 33 85 56 86 57 87
REMARK SMILES IDX 65 88 58 89 64 90 59 91 60 92 61 93 62 94 63 95 42 96 43 97
REMARK SMILES IDX 51 98 44 99 50 100 45 101 46 102 47 103 48 104 49 105
REMARK H PARENT 9 7 90 38 14 42 70 61 40 72
REMARK Flexibility Score: inf
ROOT
ATOM      1  C   UNL A   1      50.147  28.311  35.570  1.00  0.00     0.023 C 
ENDROOT
BRANCH   1   2
ATOM      2  C   UNL A   1      50.457  26.810  35.431  1.00  0.00     0.023 C 
BRANCH   2   3
ATOM      3  C   UNL A   1      49.744  25.925  34.393  1.00  0.00     0.116 C 
BRANCH   3   4
ATOM      4  N   UNL A   1      48.442  25.320  34.561  1.00  0.00    -0.356 N 
ATOM      5  C   UNL A   1      48.121  23.958  34.558  1.00  0.00     0.226 C 
ATOM      6  O   UNL A   1      48.593  23.180  33.730  1.00  0.00    -0.274 OA
ATOM      7  H   UNL A   1      47.689  25.941  34.695  1.00  0.00     0.163 HD
BRANCH   5   8
ATOM      8  C   UNL A   1      47.303  23.427  35.800  1.00  0.00     0.056 C 
ATOM      9  C   UNL A   1      43.379  23.302  34.756  1.00  0.00     0.011 C 
ATOM     10  C   UNL A   1      44.788  23.388  34.139  1.00  0.00    -0.035 C 
ATOM     11  C   UNL A   1      44.515  23.593  32.614  1.00  0.00     0.011 C 
ATOM     12  C   UNL A   1      45.424  24.685  34.675  1.00  0.00     0.007 C 
ATOM     13  C   UNL A   1      45.612  22.032  34.457  1.00  0.00     0.015 C 
ATOM     14  C   UNL A   1      46.166  24.458  35.973  1.00  0.00     0.018 C 
ATOM     15  C   UNL A   1      46.756  22.001  35.591  1.00  0.00     0.031 C 
ATOM     16  C   UNL A   1      48.060  21.069  35.466  1.00  0.00    -0.064 C 
ATOM     17  C   UNL A   1      48.045  23.427  37.155  1.00  0.00     0.018 C 
ATOM     18  C   UNL A   1      49.219  21.178  36.534  1.00  0.00    -0.006 C 
ATOM     19  C   UNL A   1      48.254  20.278  34.397  1.00  0.00    -0.027 C 
ATOM     20  C   UNL A   1      49.306  22.588  37.159  1.00  0.00     0.013 C 
ATOM     21  C   UNL A   1      48.705  20.218  37.668  1.00  0.00     0.017 C 
ATOM     22  C   UNL A   1      50.752  20.696  36.006  1.00  0.00    -0.020 C 
ATOM     23  C   UNL A   1      49.613  19.999  33.810  1.00  0.00     0.032 C 
ATOM     24  C   UNL A   1      50.860  20.702  34.442  1.00  0.00     0.006 C 
ATOM     25  C   UNL A   1      52.015  21.428  36.640  1.00  0.00     0.008 C 
ATOM     26  C   UNL A   1      50.976  19.183  36.405  1.00  0.00     0.012 C 
ATOM     27  C   UNL A   1      51.624  21.917  33.646  1.00  0.00    -0.025 C 
ATOM     28  C   UNL A   1      53.100  21.993  35.668  1.00  0.00     0.005 C 
ATOM     29  C   UNL A   1      52.435  21.193  32.533  1.00  0.00     0.012 C 
ATOM     30  C   UNL A   1      50.733  22.926  32.960  1.00  0.00     0.010 C 
ATOM     31  C   UNL A   1      52.450  22.848  34.593  1.00  0.00     0.003 C 
ATOM     32  C   UNL A   1      51.345  24.105  32.204  1.00  0.00     0.033 C 
ATOM     33  C   UNL A   1      53.261  24.035  33.871  1.00  0.00    -0.006 C 
ATOM     34  C   UNL A   1      52.233  24.933  33.112  1.00  0.00     0.120 C 
ATOM     35  C   UNL A   1      54.359  23.600  32.878  1.00  0.00     0.014 C 
ATOM     36  C   UNL A   1      53.950  24.950  34.907  1.00  0.00     0.014 C 
BRANCH  34  37
ATOM     37  O   UNL A   1      52.869  25.951  32.337  1.00  0.00    -0.393 OA
ATOM     38  H   UNL A   1      52.634  26.823  32.692  1.00  0.00     0.210 HD
ENDBRANCH  34  37
ENDBRANCH   5   8
ENDBRANCH   3   4
ENDBRANCH   2   3
ENDBRANCH   1   2
BRANCH   1  39
ATOM     39  C   UNL A   1      49.391  28.711  36.824  1.00  0.00     0.116 C 
BRANCH  39  40
ATOM     40  N   UNL A   1      48.989  27.529  37.562  1.00  0.00    -0.352 N 
ATOM     41  C   UNL A   1      47.715  27.224  38.000  1.00  0.00     0.251 C 
ATOM     42  H   UNL A   1      49.697  26.877  37.771  1.00  0.00     0.163 HD
ATOM     43  O   UNL A   1      47.558  26.503  38.975  1.00  0.00    -0.269 OA
BRANCH  41  44
ATOM     44  C   UNL A   1      46.548  27.803  37.290  1.00  0.00     0.039 A 
ATOM     45  C   UNL A   1      46.735  28.720  36.251  1.00  0.00     0.014 A 
ATOM     46  C   UNL A   1      45.257  27.437  37.673  1.00  0.00     0.014 A 
ATOM     47  C   UNL A   1      45.624  29.237  35.574  1.00  0.00     0.010 A 
ATOM     48  C   UNL A   1      44.164  27.870  36.933  1.00  0.00     0.010 A 
ATOM     49  C   UNL A   1      44.329  28.797  35.894  1.00  0.00    -0.014 A 
BRANCH  49  50
ATOM     50  C   UNL A   1      43.115  29.308  35.202  1.00  0.00     0.031 A 
ATOM     51  C   UNL A   1      42.794  28.820  33.812  1.00  0.00     0.074 A 
ATOM     52  C   UNL A   1      42.378  30.284  35.766  1.00  0.00     0.049 A 
ATOM     53  N   UNL A   1      41.880  29.243  32.976  1.00  0.00    -0.248 NA
ATOM     54  C   UNL A   1      43.649  27.750  33.270  1.00  0.00     0.031 C 
ATOM     55  C   UNL A   1      42.624  30.881  37.080  1.00  0.00     0.029 A 
ATOM     56  N   UNL A   1      41.285  30.967  35.293  1.00  0.00    -0.354 N 
ATOM     57  C   UNL A   1      42.085  28.526  31.801  1.00  0.00     0.074 A 
ATOM     58  C   UNL A   1      43.241  27.686  32.013  1.00  0.00     0.031 C 
ATOM     59  C   UNL A   1      41.702  31.827  37.314  1.00  0.00     0.029 A 
ATOM     60  C   UNL A   1      40.829  31.940  36.150  1.00  0.00     0.049 A 
ATOM     61  H   UNL A   1      40.867  30.777  34.422  1.00  0.00     0.167 HD
ATOM     62  C   UNL A   1      41.363  28.550  30.654  1.00  0.00     0.031 A 
ATOM     63  C   UNL A   1      39.835  32.839  36.009  1.00  0.00     0.031 A 
ATOM     64  C   UNL A   1      40.196  29.369  30.469  1.00  0.00     0.049 A 
ATOM     65  C   UNL A   1      39.027  32.837  34.742  1.00  0.00     0.074 A 
ATOM     66  C   UNL A   1      39.327  29.400  29.394  1.00  0.00     0.029 A 
ATOM     67  N   UNL A   1      39.740  30.311  31.382  1.00  0.00    -0.354 N 
ATOM     68  N   UNL A   1      39.167  32.077  33.680  1.00  0.00    -0.248 NA
ATOM     69  C   UNL A   1      37.928  33.807  34.649  1.00  0.00     0.031 C 
ATOM     70  C   UNL A   1      38.386  30.409  29.626  1.00  0.00     0.029 A 
ATOM     71  C   UNL A   1      38.630  30.961  30.874  1.00  0.00     0.049 A 
ATOM     72  H   UNL A   1      40.147  30.488  32.260  1.00  0.00     0.167 HD
ATOM     73  C   UNL A   1      38.172  32.474  32.795  1.00  0.00     0.074 A 
ATOM     74  C   UNL A   1      37.421  33.522  33.457  1.00  0.00     0.031 C 
ATOM     75  C   UNL A   1      37.909  32.017  31.544  1.00  0.00     0.031 A 
BRANCH  62  76
ATOM     76  C   UNL A   1      41.835  27.683  29.513  1.00  0.00    -0.014 A 
ATOM     77  C   UNL A   1      42.820  28.125  28.611  1.00  0.00     0.010 A 
ATOM     78  C   UNL A   1      41.279  26.402  29.338  1.00  0.00     0.010 A 
ATOM     79  C   UNL A   1      43.187  27.335  27.517  1.00  0.00     0.020 A 
ATOM     80  C   UNL A   1      41.669  25.593  28.266  1.00  0.00     0.020 A 
ATOM     81  C   UNL A   1      42.602  26.077  27.346  1.00  0.00     0.054 A 
BRANCH  81  82
ATOM     82  S   UNL A   1      43.086  25.081  25.910  1.00  0.00     0.124 S 
ATOM     83  O   UNL A   1      42.245  23.897  26.069  1.00  0.00    -0.237 OA
ATOM     84  O   UNL A   1      42.741  25.949  24.788  1.00  0.00    -0.237 OA
ATOM     85  O   UNL A   1      44.516  24.859  26.107  1.00  0.00    -0.744 OA
ENDBRANCH  81  82
ENDBRANCH  62  76
BRANCH  63  86
ATOM     86  C   UNL A   1      39.564  33.807  37.108  1.00  0.00    -0.014 A 
ATOM     87  C   UNL A   1      38.846  33.414  38.250  1.00  0.00     0.010 A 
ATOM     88  C   UNL A   1      40.093  35.111  37.050  1.00  0.00     0.010 A 
ATOM     89  C   UNL A   1      38.671  34.300  39.317  1.00  0.00     0.020 A 
ATOM     90  C   UNL A   1      39.944  35.990  38.126  1.00  0.00     0.020 A 
ATOM     91  C   UNL A   1      39.233  35.579  39.254  1.00  0.00     0.054 A 
BRANCH  91  92
ATOM     92  S   UNL A   1      39.081  36.673  40.695  1.00  0.00     0.124 S 
ATOM     93  O   UNL A   1      40.431  36.640  41.247  1.00  0.00    -0.237 OA
ATOM     94  O   UNL A   1      38.677  37.937  40.085  1.00  0.00    -0.237 OA
ATOM     95  O   UNL A   1      38.055  36.025  41.509  1.00  0.00    -0.744 OA
ENDBRANCH  91  92
ENDBRANCH  63  86
BRANCH  75  96
ATOM     96  C   UNL A   1      36.769  32.656  30.798  1.00  0.00    -0.014 A 
ATOM     97  C   UNL A   1      35.436  32.366  31.137  1.00  0.00     0.010 A 
ATOM     98  C   UNL A   1      37.034  33.625  29.813  1.00  0.00     0.010 A 
ATOM     99  C   UNL A   1      34.387  33.026  30.494  1.00  0.00     0.020 A 
ATOM    100  C   UNL A   1      35.988  34.309  29.190  1.00  0.00     0.020 A 
ATOM    101  C   UNL A   1      34.669  33.998  29.529  1.00  0.00     0.054 A 
BRANCH 101 102
ATOM    102  S   UNL A   1      33.289  34.893  28.768  1.00  0.00     0.124 S 
ATOM    103  O   UNL A   1      32.769  33.905  27.826  1.00  0.00    -0.237 OA
ATOM    104  O   UNL A   1      32.427  35.185  29.911  1.00  0.00    -0.237 OA
ATOM    105  O   UNL A   1      33.924  36.060  28.159  1.00  0.00    -0.744 OA
ENDBRANCH 101 102
ENDBRANCH  75  96
ENDBRANCH  49  50
ENDBRANCH  41  44
ENDBRANCH  39  40
ENDBRANCH   1  39
TORSDOF 15
ENDMDL
