MODEL 1
REMARK VINA RESULT:     -11.7      0.000      0.000
REMARK SMILES Cc1cc(C)c2c(c1)C=C(C(=O)NCCCCNC(=O)c1ccc(-c3c4nc(c(-c5ccc(S(=O)(=O)[O-])cc5)c5ccc([nH]5)c(-c5ccc(S(=O)(=O)[O-])cc5)c5nc(c(-c6ccc(S(=O)(=O)[O-])cc6)c6ccc3[nH]6)C=C5)C=C4)cc1)[C@@H](C(F)(F)F)O2
REMARK SMILES IDX 16 1 15 2 14 3 13 4 11 5 12 6 10 8 1 9 2 10 3 11 8 12 4 13
REMARK SMILES IDX 7 14 5 15 6 16 9 17 86 18 81 19 82 20 83 21 84 22 85 23
REMARK SMILES IDX 17 24 18 25 19 26 20 28 21 29 22 30 80 31 23 32 79 33 24 34
REMARK SMILES IDX 25 35 26 36 73 37 27 38 78 39 72 40 74 41 28 42 77 43 71 44
REMARK SMILES IDX 70 45 29 47 59 48 40 49 58 50 41 51 44 52 57 53 75 54 42 55
REMARK SMILES IDX 43 56 56 58 76 59 45 60 30 61 31 62 39 63 32 64 38 65 33 66
REMARK SMILES IDX 34 67 35 68 36 69 37 70 60 71 61 72 69 73 62 74 68 75 63 76
REMARK SMILES IDX 64 77 65 78 66 79 67 80 46 81 47 82 55 83 48 84 54 85 49 86
REMARK SMILES IDX 50 87 51 88 52 89 53 90
REMARK H PARENT 13 7 18 27 74 46 44 57
REMARK Flexibility Score: inf
ROOT
ATOM      1  C   UNL A   1      35.731  23.702  25.815  1.00  0.00     0.023 C 
ENDROOT
BRANCH   1   2
ATOM      2  C   UNL A   1      34.922  22.403  25.760  1.00  0.00     0.023 C 
BRANCH   2   3
ATOM      3  C   UNL A   1      33.580  22.536  25.049  1.00  0.00     0.116 C 
BRANCH   3   4
ATOM      4  N   UNL A   1      33.740  22.849  23.640  1.00  0.00    -0.352 N 
ATOM      5  C   UNL A   1      33.495  23.904  22.830  1.00  0.00     0.251 C 
ATOM      6  O   UNL A   1      33.793  23.737  21.642  1.00  0.00    -0.270 OA
ATOM      7  H   UNL A   1      34.128  22.094  23.144  1.00  0.00     0.163 HD
BRANCH   5   8
ATOM      8  C   UNL A   1      32.910  25.209  23.264  1.00  0.00     0.067 C 
ATOM      9  C   UNL A   1      34.146  29.934  27.055  1.00  0.00     0.044 C 
ATOM     10  C   UNL A   1      33.390  29.176  26.004  1.00  0.00    -0.050 A 
ATOM     11  C   UNL A   1      32.225  29.707  25.434  1.00  0.00     0.010 A 
ATOM     12  C   UNL A   1      33.861  27.930  25.568  1.00  0.00     0.015 A 
ATOM     13  C   UNL A   1      31.529  29.008  24.439  1.00  0.00    -0.008 A 
ATOM     14  C   UNL A   1      33.176  27.220  24.577  1.00  0.00     0.018 A 
ATOM     15  C   UNL A   1      30.285  29.585  23.830  1.00  0.00     0.048 C 
ATOM     16  C   UNL A   1      32.015  27.760  24.023  1.00  0.00     0.130 A 
ATOM     17  C   UNL A   1      33.682  25.944  24.084  1.00  0.00     0.025 C 
ATOM     18  O   UNL A   1      31.333  27.130  23.019  1.00  0.00    -0.475 OA
ATOM     19  C   UNL A   1      31.543  25.698  22.882  1.00  0.00     0.314 C 
BRANCH  19  20
ATOM     20  C   UNL A   1      30.415  24.953  23.617  1.00  0.00     0.429 C 
ATOM     21  F   UNL A   1      30.806  24.627  24.875  1.00  0.00    -0.167 F 
ATOM     22  F   UNL A   1      29.295  25.701  23.749  1.00  0.00    -0.167 F 
ATOM     23  F   UNL A   1      30.053  23.808  22.997  1.00  0.00    -0.167 F 
ENDBRANCH  19  20
ENDBRANCH   5   8
ENDBRANCH   3   4
ENDBRANCH   2   3
ENDBRANCH   1   2
BRANCH   1  24
ATOM     24  C   UNL A   1      37.027  23.704  25.005  1.00  0.00     0.116 C 
BRANCH  24  25
ATOM     25  N   UNL A   1      37.979  22.687  25.428  1.00  0.00    -0.352 N 
ATOM     26  C   UNL A   1      39.087  22.841  26.228  1.00  0.00     0.251 C 
ATOM     27  H   UNL A   1      37.810  21.774  25.101  1.00  0.00     0.163 HD
ATOM     28  O   UNL A   1      39.847  21.899  26.426  1.00  0.00    -0.269 OA
BRANCH  26  29
ATOM     29  C   UNL A   1      39.364  24.167  26.810  1.00  0.00     0.039 A 
ATOM     30  C   UNL A   1      38.949  24.428  28.117  1.00  0.00     0.014 A 
ATOM     31  C   UNL A   1      40.081  25.120  26.082  1.00  0.00     0.014 A 
ATOM     32  C   UNL A   1      39.311  25.632  28.721  1.00  0.00     0.010 A 
ATOM     33  C   UNL A   1      40.490  26.294  26.706  1.00  0.00     0.010 A 
ATOM     34  C   UNL A   1      40.110  26.559  28.031  1.00  0.00    -0.014 A 
BRANCH  34  35
ATOM     35  C   UNL A   1      40.541  27.823  28.671  1.00  0.00     0.031 A 
ATOM     36  C   UNL A   1      41.938  27.946  29.208  1.00  0.00     0.074 A 
ATOM     37  C   UNL A   1      39.664  28.837  28.809  1.00  0.00     0.049 A 
ATOM     38  N   UNL A   1      42.487  28.942  29.851  1.00  0.00    -0.248 NA
ATOM     39  C   UNL A   1      42.827  26.789  29.015  1.00  0.00     0.031 C 
ATOM     40  C   UNL A   1      38.272  28.825  28.351  1.00  0.00     0.029 A 
ATOM     41  N   UNL A   1      39.816  30.076  29.376  1.00  0.00    -0.354 N 
ATOM     42  C   UNL A   1      43.781  28.530  30.148  1.00  0.00     0.074 A 
ATOM     43  C   UNL A   1      43.918  27.176  29.660  1.00  0.00     0.031 C 
ATOM     44  C   UNL A   1      37.710  30.014  28.626  1.00  0.00     0.029 A 
ATOM     45  C   UNL A   1      38.686  30.856  29.309  1.00  0.00     0.049 A 
ATOM     46  H   UNL A   1      40.655  30.379  29.793  1.00  0.00     0.167 HD
ATOM     47  C   UNL A   1      44.773  29.225  30.752  1.00  0.00     0.031 A 
ATOM     48  C   UNL A   1      38.464  32.110  29.747  1.00  0.00     0.031 A 
ATOM     49  C   UNL A   1      44.639  30.576  31.223  1.00  0.00     0.049 A 
ATOM     50  C   UNL A   1      39.576  32.854  30.434  1.00  0.00     0.074 A 
ATOM     51  C   UNL A   1      45.596  31.380  31.816  1.00  0.00     0.029 A 
ATOM     52  N   UNL A   1      43.474  31.325  31.151  1.00  0.00    -0.354 N 
ATOM     53  N   UNL A   1      40.801  32.458  30.679  1.00  0.00    -0.248 NA
ATOM     54  C   UNL A   1      39.274  34.215  30.900  1.00  0.00     0.031 C 
ATOM     55  C   UNL A   1      45.000  32.605  32.135  1.00  0.00     0.029 A 
ATOM     56  C   UNL A   1      43.684  32.577  31.702  1.00  0.00     0.049 A 
ATOM     57  H   UNL A   1      42.625  31.012  30.764  1.00  0.00     0.167 HD
ATOM     58  C   UNL A   1      41.422  33.525  31.317  1.00  0.00     0.074 A 
ATOM     59  C   UNL A   1      40.443  34.589  31.404  1.00  0.00     0.031 C 
ATOM     60  C   UNL A   1      42.689  33.616  31.791  1.00  0.00     0.031 A 
BRANCH  47  61
ATOM     61  C   UNL A   1      46.093  28.526  30.926  1.00  0.00    -0.014 A 
ATOM     62  C   UNL A   1      47.094  28.624  29.941  1.00  0.00     0.010 A 
ATOM     63  C   UNL A   1      46.346  27.779  32.090  1.00  0.00     0.010 A 
ATOM     64  C   UNL A   1      48.308  27.954  30.099  1.00  0.00     0.020 A 
ATOM     65  C   UNL A   1      47.571  27.127  32.263  1.00  0.00     0.020 A 
ATOM     66  C   UNL A   1      48.538  27.205  31.256  1.00  0.00     0.054 A 
BRANCH  66  67
ATOM     67  S   UNL A   1      50.130  26.357  31.441  1.00  0.00     0.124 S 
ATOM     68  O   UNL A   1      51.075  27.413  31.088  1.00  0.00    -0.237 OA
ATOM     69  O   UNL A   1      50.124  25.965  32.848  1.00  0.00    -0.237 OA
ATOM     70  O   UNL A   1      50.046  25.252  30.490  1.00  0.00    -0.744 OA
ENDBRANCH  66  67
ENDBRANCH  47  61
BRANCH  48  71
ATOM     71  C   UNL A   1      37.139  32.749  29.527  1.00  0.00    -0.014 A 
ATOM     72  C   UNL A   1      36.162  32.714  30.537  1.00  0.00     0.010 A 
ATOM     73  C   UNL A   1      36.857  33.418  28.322  1.00  0.00     0.010 A 
ATOM     74  C   UNL A   1      34.922  33.330  30.344  1.00  0.00     0.020 A 
ATOM     75  C   UNL A   1      35.625  34.053  28.134  1.00  0.00     0.020 A 
ATOM     76  C   UNL A   1      34.663  34.000  29.145  1.00  0.00     0.054 A 
BRANCH  76  77
ATOM     77  S   UNL A   1      33.072  34.849  28.945  1.00  0.00     0.124 S 
ATOM     78  O   UNL A   1      32.397  34.003  27.966  1.00  0.00    -0.237 OA
ATOM     79  O   UNL A   1      32.523  34.813  30.298  1.00  0.00    -0.237 OA
ATOM     80  O   UNL A   1      33.452  36.178  28.471  1.00  0.00    -0.744 OA
ENDBRANCH  76  77
ENDBRANCH  48  71
BRANCH  60  81
ATOM     81  C   UNL A   1      43.090  34.910  32.442  1.00  0.00    -0.014 A 
ATOM     82  C   UNL A   1      43.651  35.952  31.684  1.00  0.00     0.010 A 
ATOM     83  C   UNL A   1      42.841  35.109  33.811  1.00  0.00     0.010 A 
ATOM     84  C   UNL A   1      43.980  37.167  32.291  1.00  0.00     0.020 A 
ATOM     85  C   UNL A   1      43.149  36.331  34.417  1.00  0.00     0.020 A 
ATOM     86  C   UNL A   1      43.727  37.348  33.654  1.00  0.00     0.054 A 
BRANCH  86  87
ATOM     87  S   UNL A   1      44.114  38.952  34.407  1.00  0.00     0.124 S 
ATOM     88  O   UNL A   1      43.023  39.789  33.913  1.00  0.00    -0.237 OA
ATOM     89  O   UNL A   1      44.078  38.654  35.837  1.00  0.00    -0.237 OA
ATOM     90  O   UNL A   1      45.436  39.274  33.877  1.00  0.00    -0.744 OA
ENDBRANCH  86  87
ENDBRANCH  60  81
ENDBRANCH  34  35
ENDBRANCH  26  29
ENDBRANCH  24  25
ENDBRANCH   1  24
TORSDOF 15
ENDMDL
MODEL 2
REMARK VINA RESULT:     -11.5      2.523      9.144
REMARK SMILES Cc1cc(C)c2c(c1)C=C(C(=O)NCCCCNC(=O)c1ccc(-c3c4nc(c(-c5ccc(S(=O)(=O)[O-])cc5)c5ccc([nH]5)c(-c5ccc(S(=O)(=O)[O-])cc5)c5nc(c(-c6ccc(S(=O)(=O)[O-])cc6)c6ccc3[nH]6)C=C5)C=C4)cc1)[C@@H](C(F)(F)F)O2
REMARK SMILES IDX 16 1 15 2 14 3 13 4 11 5 12 6 10 8 1 9 2 10 3 11 8 12 4 13
REMARK SMILES IDX 7 14 5 15 6 16 9 17 86 18 81 19 82 20 83 21 84 22 85 23
REMARK SMILES IDX 17 24 18 25 19 26 20 28 21 29 22 30 80 31 23 32 79 33 24 34
REMARK SMILES IDX 25 35 26 36 73 37 27 38 78 39 72 40 74 41 28 42 77 43 71 44
REMARK SMILES IDX 70 45 29 47 59 48 40 49 58 50 41 51 44 52 57 53 75 54 42 55
REMARK SMILES IDX 43 56 56 58 76 59 45 60 30 61 31 62 39 63 32 64 38 65 33 66
REMARK SMILES IDX 34 67 35 68 36 69 37 70 60 71 61 72 69 73 62 74 68 75 63 76
REMARK SMILES IDX 64 77 65 78 66 79 67 80 46 81 47 82 55 83 48 84 54 85 49 86
REMARK SMILES IDX 50 87 51 88 52 89 53 90
REMARK H PARENT 13 7 18 27 74 46 44 57
REMARK Flexibility Score: inf
ROOT
ATOM      1  C   UNL A   1      34.066  28.171  25.561  1.00  0.00     0.023 C 
ENDROOT
BRANCH   1   2
ATOM      2  C   UNL A   1      33.233  28.734  24.406  1.00  0.00     0.023 C 
BRANCH   2   3
ATOM      3  C   UNL A   1      33.861  28.533  23.031  1.00  0.00     0.116 C 
BRANCH   3   4
ATOM      4  N   UNL A   1      33.060  27.661  22.190  1.00  0.00    -0.352 N 
ATOM      5  C   UNL A   1      32.663  26.368  22.205  1.00  0.00     0.251 C 
ATOM      6  O   UNL A   1      31.958  26.022  21.251  1.00  0.00    -0.270 OA
ATOM      7  H   UNL A   1      32.715  28.137  21.401  1.00  0.00     0.163 HD
BRANCH   5   8
ATOM      8  C   UNL A   1      33.010  25.371  23.262  1.00  0.00     0.067 C 
ATOM      9  C   UNL A   1      37.330  21.142  24.558  1.00  0.00     0.044 C 
ATOM     10  C   UNL A   1      36.116  21.987  24.805  1.00  0.00    -0.050 A 
ATOM     11  C   UNL A   1      35.388  21.867  25.998  1.00  0.00     0.010 A 
ATOM     12  C   UNL A   1      35.710  22.923  23.845  1.00  0.00     0.015 A 
ATOM     13  C   UNL A   1      34.265  22.669  26.237  1.00  0.00    -0.008 A 
ATOM     14  C   UNL A   1      34.590  23.730  24.070  1.00  0.00     0.018 A 
ATOM     15  C   UNL A   1      33.494  22.538  27.518  1.00  0.00     0.048 C 
ATOM     16  C   UNL A   1      33.874  23.595  25.259  1.00  0.00     0.130 A 
ATOM     17  C   UNL A   1      34.187  24.739  23.098  1.00  0.00     0.025 C 
ATOM     18  O   UNL A   1      32.799  24.390  25.549  1.00  0.00    -0.475 OA
ATOM     19  C   UNL A   1      32.128  25.021  24.425  1.00  0.00     0.314 C 
BRANCH  19  20
ATOM     20  C   UNL A   1      30.917  24.162  24.019  1.00  0.00     0.429 C 
ATOM     21  F   UNL A   1      31.256  23.308  23.020  1.00  0.00    -0.167 F 
ATOM     22  F   UNL A   1      30.456  23.395  25.035  1.00  0.00    -0.167 F 
ATOM     23  F   UNL A   1      29.874  24.901  23.579  1.00  0.00    -0.167 F 
ENDBRANCH  19  20
ENDBRANCH   5   8
ENDBRANCH   3   4
ENDBRANCH   2   3
ENDBRANCH   1   2
BRANCH   1  24
ATOM     24  C   UNL A   1      33.489  28.395  26.958  1.00  0.00     0.116 C 
BRANCH  24  25
ATOM     25  N   UNL A   1      33.353  29.801  27.313  1.00  0.00    -0.352 N 
ATOM     26  C   UNL A   1      34.280  30.618  27.915  1.00  0.00     0.251 C 
ATOM     27  H   UNL A   1      32.489  30.219  27.094  1.00  0.00     0.163 HD
ATOM     28  O   UNL A   1      33.985  31.765  28.232  1.00  0.00    -0.269 OA
BRANCH  26  29
ATOM     29  C   UNL A   1      35.620  30.077  28.208  1.00  0.00     0.039 A 
ATOM     30  C   UNL A   1      36.591  30.104  27.205  1.00  0.00     0.014 A 
ATOM     31  C   UNL A   1      35.924  29.602  29.487  1.00  0.00     0.014 A 
ATOM     32  C   UNL A   1      37.894  29.709  27.505  1.00  0.00     0.010 A 
ATOM     33  C   UNL A   1      37.237  29.265  29.798  1.00  0.00     0.010 A 
ATOM     34  C   UNL A   1      38.232  29.316  28.811  1.00  0.00    -0.014 A 
BRANCH  34  35
ATOM     35  C   UNL A   1      39.620  28.935  29.159  1.00  0.00     0.031 A 
ATOM     36  C   UNL A   1      40.505  29.918  29.872  1.00  0.00     0.074 A 
ATOM     37  C   UNL A   1      40.096  27.728  28.793  1.00  0.00     0.049 A 
ATOM     38  N   UNL A   1      41.761  29.798  30.212  1.00  0.00    -0.248 NA
ATOM     39  C   UNL A   1      39.904  31.212  30.231  1.00  0.00     0.031 C 
ATOM     40  C   UNL A   1      39.340  26.700  28.074  1.00  0.00     0.029 A 
ATOM     41  N   UNL A   1      41.331  27.163  28.978  1.00  0.00    -0.354 N 
ATOM     42  C   UNL A   1      42.104  31.002  30.814  1.00  0.00     0.074 A 
ATOM     43  C   UNL A   1      40.939  31.857  30.748  1.00  0.00     0.031 C 
ATOM     44  C   UNL A   1      40.119  25.618  27.909  1.00  0.00     0.029 A 
ATOM     45  C   UNL A   1      41.436  25.888  28.477  1.00  0.00     0.049 A 
ATOM     46  H   UNL A   1      42.075  27.628  29.427  1.00  0.00     0.167 HD
ATOM     47  C   UNL A   1      43.276  31.356  31.392  1.00  0.00     0.031 A 
ATOM     48  C   UNL A   1      42.475  25.031  28.478  1.00  0.00     0.031 A 
ATOM     49  C   UNL A   1      44.427  30.500  31.469  1.00  0.00     0.049 A 
ATOM     50  C   UNL A   1      43.773  25.456  29.107  1.00  0.00     0.074 A 
ATOM     51  C   UNL A   1      45.650  30.753  32.065  1.00  0.00     0.029 A 
ATOM     52  N   UNL A   1      44.497  29.222  30.935  1.00  0.00    -0.354 N 
ATOM     53  N   UNL A   1      44.069  26.588  29.699  1.00  0.00    -0.248 NA
ATOM     54  C   UNL A   1      44.876  24.485  29.071  1.00  0.00     0.031 C 
ATOM     55  C   UNL A   1      46.472  29.640  31.861  1.00  0.00     0.029 A 
ATOM     56  C   UNL A   1      45.747  28.679  31.176  1.00  0.00     0.049 A 
ATOM     57  H   UNL A   1      43.766  28.769  30.458  1.00  0.00     0.167 HD
ATOM     58  C   UNL A   1      45.388  26.463  30.117  1.00  0.00     0.074 A 
ATOM     59  C   UNL A   1      45.827  25.138  29.726  1.00  0.00     0.031 C 
ATOM     60  C   UNL A   1      46.167  27.363  30.765  1.00  0.00     0.031 A 
BRANCH  47  61
ATOM     61  C   UNL A   1      43.357  32.733  31.992  1.00  0.00    -0.014 A 
ATOM     62  C   UNL A   1      42.926  32.969  33.311  1.00  0.00     0.010 A 
ATOM     63  C   UNL A   1      43.884  33.798  31.240  1.00  0.00     0.010 A 
ATOM     64  C   UNL A   1      42.984  34.255  33.852  1.00  0.00     0.020 A 
ATOM     65  C   UNL A   1      43.966  35.082  31.788  1.00  0.00     0.020 A 
ATOM     66  C   UNL A   1      43.498  35.304  33.086  1.00  0.00     0.054 A 
BRANCH  66  67
ATOM     67  S   UNL A   1      43.574  36.961  33.821  1.00  0.00     0.124 S 
ATOM     68  O   UNL A   1      43.527  37.817  32.638  1.00  0.00    -0.237 OA
ATOM     69  O   UNL A   1      42.382  36.991  34.665  1.00  0.00    -0.237 OA
ATOM     70  O   UNL A   1      44.843  36.962  34.542  1.00  0.00    -0.744 OA
ENDBRANCH  66  67
ENDBRANCH  47  61
BRANCH  48  71
ATOM     71  C   UNL A   1      42.321  23.677  27.884  1.00  0.00    -0.014 A 
ATOM     72  C   UNL A   1      42.710  23.442  26.553  1.00  0.00     0.010 A 
ATOM     73  C   UNL A   1      41.814  22.611  28.648  1.00  0.00     0.010 A 
ATOM     74  C   UNL A   1      42.587  22.167  25.994  1.00  0.00     0.020 A 
ATOM     75  C   UNL A   1      41.709  21.330  28.099  1.00  0.00     0.020 A 
ATOM     76  C   UNL A   1      42.091  21.117  26.772  1.00  0.00     0.054 A 
BRANCH  76  77
ATOM     77  S   UNL A   1      42.004  19.457  26.046  1.00  0.00     0.124 S 
ATOM     78  O   UNL A   1      42.491  18.621  27.138  1.00  0.00    -0.237 OA
ATOM     79  O   UNL A   1      40.584  19.324  25.730  1.00  0.00    -0.237 OA
ATOM     80  O   UNL A   1      42.886  19.546  24.883  1.00  0.00    -0.744 OA
ENDBRANCH  76  77
ENDBRANCH  48  71
BRANCH  60  81
ATOM     81  C   UNL A   1      47.573  26.946  31.095  1.00  0.00    -0.014 A 
ATOM     82  C   UNL A   1      47.874  26.348  32.331  1.00  0.00     0.010 A 
ATOM     83  C   UNL A   1      48.589  27.093  30.134  1.00  0.00     0.010 A 
ATOM     84  C   UNL A   1      49.175  25.925  32.610  1.00  0.00     0.020 A 
ATOM     85  C   UNL A   1      49.887  26.650  30.402  1.00  0.00     0.020 A 
ATOM     86  C   UNL A   1      50.174  26.079  31.643  1.00  0.00     0.054 A 
BRANCH  86  87
ATOM     87  S   UNL A   1      51.844  25.473  32.010  1.00  0.00     0.124 S 
ATOM     88  O   UNL A   1      52.599  25.948  30.853  1.00  0.00    -0.237 OA
ATOM     89  O   UNL A   1      52.155  26.131  33.276  1.00  0.00    -0.237 OA
ATOM     90  O   UNL A   1      51.676  24.024  32.093  1.00  0.00    -0.744 OA
ENDBRANCH  86  87
ENDBRANCH  60  81
ENDBRANCH  34  35
ENDBRANCH  26  29
ENDBRANCH  24  25
ENDBRANCH   1  24
TORSDOF 15
ENDMDL
MODEL 3
REMARK VINA RESULT:     -11.4      2.729      9.364
REMARK SMILES Cc1cc(C)c2c(c1)C=C(C(=O)NCCCCNC(=O)c1ccc(-c3c4nc(c(-c5ccc(S(=O)(=O)[O-])cc5)c5ccc([nH]5)c(-c5ccc(S(=O)(=O)[O-])cc5)c5nc(c(-c6ccc(S(=O)(=O)[O-])cc6)c6ccc3[nH]6)C=C5)C=C4)cc1)[C@@H](C(F)(F)F)O2
REMARK SMILES IDX 16 1 15 2 14 3 13 4 11 5 12 6 10 8 1 9 2 10 3 11 8 12 4 13
REMARK SMILES IDX 7 14 5 15 6 16 9 17 86 18 81 19 82 20 83 21 84 22 85 23
REMARK SMILES IDX 17 24 18 25 19 26 20 28 21 29 22 30 80 31 23 32 79 33 24 34
REMARK SMILES IDX 25 35 26 36 73 37 27 38 78 39 72 40 74 41 28 42 77 43 71 44
REMARK SMILES IDX 70 45 29 47 59 48 40 49 58 50 41 51 44 52 57 53 75 54 42 55
REMARK SMILES IDX 43 56 56 58 76 59 45 60 30 61 31 62 39 63 32 64 38 65 33 66
REMARK SMILES IDX 34 67 35 68 36 69 37 70 60 71 61 72 69 73 62 74 68 75 63 76
REMARK SMILES IDX 64 77 65 78 66 79 67 80 46 81 47 82 55 83 48 84 54 85 49 86
REMARK SMILES IDX 50 87 51 88 52 89 53 90
REMARK H PARENT 13 7 18 27 74 46 44 57
REMARK Flexibility Score: inf
ROOT
ATOM      1  C   UNL A   1      32.260  27.561  27.001  1.00  0.00     0.023 C 
ENDROOT
BRANCH   1   2
ATOM      2  C   UNL A   1      31.525  27.510  25.659  1.00  0.00     0.023 C 
BRANCH   2   3
ATOM      3  C   UNL A   1      31.431  26.113  25.054  1.00  0.00     0.116 C 
BRANCH   3   4
ATOM      4  N   UNL A   1      31.938  26.074  23.694  1.00  0.00    -0.352 N 
ATOM      5  C   UNL A   1      32.770  25.287  22.974  1.00  0.00     0.251 C 
ATOM      6  O   UNL A   1      32.933  25.631  21.798  1.00  0.00    -0.270 OA
ATOM      7  H   UNL A   1      31.583  26.816  23.154  1.00  0.00     0.163 HD
BRANCH   5   8
ATOM      8  C   UNL A   1      33.477  24.077  23.490  1.00  0.00     0.067 C 
ATOM      9  C   UNL A   1      32.389  18.116  24.720  1.00  0.00     0.044 C 
ATOM     10  C   UNL A   1      33.212  19.362  24.576  1.00  0.00    -0.050 A 
ATOM     11  C   UNL A   1      34.583  19.354  24.865  1.00  0.00     0.010 A 
ATOM     12  C   UNL A   1      32.611  20.546  24.126  1.00  0.00     0.015 A 
ATOM     13  C   UNL A   1      35.355  20.513  24.712  1.00  0.00    -0.008 A 
ATOM     14  C   UNL A   1      33.369  21.710  23.970  1.00  0.00     0.018 A 
ATOM     15  C   UNL A   1      36.824  20.496  25.020  1.00  0.00     0.048 C 
ATOM     16  C   UNL A   1      34.732  21.688  24.267  1.00  0.00     0.130 A 
ATOM     17  C   UNL A   1      32.765  22.935  23.460  1.00  0.00     0.025 C 
ATOM     18  O   UNL A   1      35.529  22.785  24.088  1.00  0.00    -0.475 OA
ATOM     19  C   UNL A   1      34.866  24.078  24.057  1.00  0.00     0.314 C 
BRANCH  19  20
ATOM     20  C   UNL A   1      34.938  24.711  25.459  1.00  0.00     0.429 C 
ATOM     21  F   UNL A   1      33.936  24.239  26.243  1.00  0.00    -0.167 F 
ATOM     22  F   UNL A   1      36.093  24.424  26.102  1.00  0.00    -0.167 F 
ATOM     23  F   UNL A   1      34.827  26.058  25.431  1.00  0.00    -0.167 F 
ENDBRANCH  19  20
ENDBRANCH   5   8
ENDBRANCH   3   4
ENDBRANCH   2   3
ENDBRANCH   1   2
BRANCH   1  24
ATOM     24  C   UNL A   1      33.568  28.352  27.002  1.00  0.00     0.116 C 
BRANCH  24  25
ATOM     25  N   UNL A   1      33.411  29.737  27.426  1.00  0.00    -0.352 N 
ATOM     26  C   UNL A   1      34.337  30.548  28.037  1.00  0.00     0.251 C 
ATOM     27  H   UNL A   1      32.531  30.143  27.253  1.00  0.00     0.163 HD
ATOM     28  O   UNL A   1      34.026  31.672  28.415  1.00  0.00    -0.269 OA
BRANCH  26  29
ATOM     29  C   UNL A   1      35.698  30.028  28.265  1.00  0.00     0.039 A 
ATOM     30  C   UNL A   1      36.628  30.099  27.226  1.00  0.00     0.014 A 
ATOM     31  C   UNL A   1      36.060  29.526  29.518  1.00  0.00     0.014 A 
ATOM     32  C   UNL A   1      37.950  29.724  27.465  1.00  0.00     0.010 A 
ATOM     33  C   UNL A   1      37.391  29.208  29.770  1.00  0.00     0.010 A 
ATOM     34  C   UNL A   1      38.346  29.305  28.746  1.00  0.00    -0.014 A 
BRANCH  34  35
ATOM     35  C   UNL A   1      39.754  28.944  29.031  1.00  0.00     0.031 A 
ATOM     36  C   UNL A   1      40.664  29.950  29.674  1.00  0.00     0.074 A 
ATOM     37  C   UNL A   1      40.221  27.733  28.669  1.00  0.00     0.049 A 
ATOM     38  N   UNL A   1      41.938  29.849  29.952  1.00  0.00    -0.248 NA
ATOM     39  C   UNL A   1      40.070  31.247  30.035  1.00  0.00     0.031 C 
ATOM     40  C   UNL A   1      39.439  26.682  28.013  1.00  0.00     0.029 A 
ATOM     41  N   UNL A   1      41.470  27.182  28.802  1.00  0.00    -0.354 N 
ATOM     42  C   UNL A   1      42.299  31.069  30.508  1.00  0.00     0.074 A 
ATOM     43  C   UNL A   1      41.125  31.913  30.483  1.00  0.00     0.031 C 
ATOM     44  C   UNL A   1      40.219  25.603  27.833  1.00  0.00     0.029 A 
ATOM     45  C   UNL A   1      41.560  25.897  28.326  1.00  0.00     0.049 A 
ATOM     46  H   UNL A   1      42.231  27.664  29.201  1.00  0.00     0.167 HD
ATOM     47  C   UNL A   1      43.496  31.447  31.016  1.00  0.00     0.031 A 
ATOM     48  C   UNL A   1      42.607  25.049  28.293  1.00  0.00     0.031 A 
ATOM     49  C   UNL A   1      44.658  30.603  31.053  1.00  0.00     0.049 A 
ATOM     50  C   UNL A   1      43.932  25.499  28.844  1.00  0.00     0.074 A 
ATOM     51  C   UNL A   1      45.907  30.879  31.579  1.00  0.00     0.029 A 
ATOM     52  N   UNL A   1      44.712  29.313  30.546  1.00  0.00    -0.354 N 
ATOM     53  N   UNL A   1      44.246  26.647  29.394  1.00  0.00    -0.248 NA
ATOM     54  C   UNL A   1      45.040  24.538  28.773  1.00  0.00     0.031 C 
ATOM     55  C   UNL A   1      46.729  29.769  31.359  1.00  0.00     0.029 A 
ATOM     56  C   UNL A   1      45.978  28.786  30.734  1.00  0.00     0.049 A 
ATOM     57  H   UNL A   1      43.962  28.843  30.118  1.00  0.00     0.167 HD
ATOM     58  C   UNL A   1      45.586  26.543  29.746  1.00  0.00     0.074 A 
ATOM     59  C   UNL A   1      46.018  25.213  29.363  1.00  0.00     0.031 C 
ATOM     60  C   UNL A   1      46.389  27.465  30.332  1.00  0.00     0.031 A 
BRANCH  47  61
ATOM     61  C   UNL A   1      43.594  32.838  31.579  1.00  0.00    -0.014 A 
ATOM     62  C   UNL A   1      43.330  33.084  32.940  1.00  0.00     0.010 A 
ATOM     63  C   UNL A   1      43.973  33.908  30.749  1.00  0.00     0.010 A 
ATOM     64  C   UNL A   1      43.401  34.381  33.450  1.00  0.00     0.020 A 
ATOM     65  C   UNL A   1      44.069  35.205  31.262  1.00  0.00     0.020 A 
ATOM     66  C   UNL A   1      43.765  35.435  32.607  1.00  0.00     0.054 A 
BRANCH  66  67
ATOM     67  S   UNL A   1      43.864  37.108  33.301  1.00  0.00     0.124 S 
ATOM     68  O   UNL A   1      45.128  37.056  34.031  1.00  0.00    -0.237 OA
ATOM     69  O   UNL A   1      43.863  37.950  32.108  1.00  0.00    -0.237 OA
ATOM     70  O   UNL A   1      42.668  37.210  34.132  1.00  0.00    -0.744 OA
ENDBRANCH  66  67
ENDBRANCH  47  61
BRANCH  48  71
ATOM     71  C   UNL A   1      42.435  23.680  27.738  1.00  0.00    -0.014 A 
ATOM     72  C   UNL A   1      42.763  23.417  26.396  1.00  0.00     0.010 A 
ATOM     73  C   UNL A   1      41.973  22.630  28.551  1.00  0.00     0.010 A 
ATOM     74  C   UNL A   1      42.624  22.128  25.874  1.00  0.00     0.020 A 
ATOM     75  C   UNL A   1      41.853  21.335  28.036  1.00  0.00     0.020 A 
ATOM     76  C   UNL A   1      42.173  21.093  26.699  1.00  0.00     0.054 A 
BRANCH  76  77
ATOM     77  S   UNL A   1      42.065  19.416  26.016  1.00  0.00     0.124 S 
ATOM     78  O   UNL A   1      42.897  19.519  24.822  1.00  0.00    -0.237 OA
ATOM     79  O   UNL A   1      42.609  18.599  27.098  1.00  0.00    -0.237 OA
ATOM     80  O   UNL A   1      40.635  19.238  25.772  1.00  0.00    -0.744 OA
ENDBRANCH  76  77
ENDBRANCH  48  71
BRANCH  60  81
ATOM     81  C   UNL A   1      47.814  27.067  30.598  1.00  0.00    -0.014 A 
ATOM     82  C   UNL A   1      48.828  27.361  29.670  1.00  0.00     0.010 A 
ATOM     83  C   UNL A   1      48.152  26.453  31.817  1.00  0.00     0.010 A 
ATOM     84  C   UNL A   1      50.155  27.026  29.947  1.00  0.00     0.020 A 
ATOM     85  C   UNL A   1      49.482  26.137  32.107  1.00  0.00     0.020 A 
ATOM     86  C   UNL A   1      50.473  26.415  31.164  1.00  0.00     0.054 A 
BRANCH  86  87
ATOM     87  S   UNL A   1      52.211  26.038  31.522  1.00  0.00     0.124 S 
ATOM     88  O   UNL A   1      52.813  26.092  30.192  1.00  0.00    -0.237 OA
ATOM     89  O   UNL A   1      52.595  27.117  32.428  1.00  0.00    -0.237 OA
ATOM     90  O   UNL A   1      52.160  24.711  32.130  1.00  0.00    -0.744 OA
ENDBRANCH  86  87
ENDBRANCH  60  81
ENDBRANCH  34  35
ENDBRANCH  26  29
ENDBRANCH  24  25
ENDBRANCH   1  24
TORSDOF 15
ENDMDL
