MODEL 1
REMARK VINA RESULT:     -10.7      0.000      0.000
REMARK SMILES CC[NH2+][C@@]1(C(=O)NCCCCNC(=O)c2ccc(-c3c4nc(c(-c5ccc(S(=O)(=O)[O-])cc5)c5ccc([nH]5)c(-c5ccc(S(=O)(=O)[O-])cc5)c5nc(c(-c6ccc(S(=O)(=O)[O-])cc6)c6ccc3[nH]6)C=C5)C=C4)cc2)CCC[C@@H]([N@@H+](C)C2CCCC2)C1
REMARK SMILES IDX 10 1 9 2 8 3 7 4 5 5 6 6 4 8 75 9 86 10 76 11 78 12 77 13
REMARK SMILES IDX 3 14 2 17 1 18 79 19 80 20 81 22 82 23 85 24 83 25 84 26
REMARK SMILES IDX 11 27 12 28 13 29 14 31 15 32 16 33 74 34 17 35 73 36 18 37
REMARK SMILES IDX 19 38 20 39 67 40 21 41 72 42 66 43 68 44 22 45 71 46 65 47
REMARK SMILES IDX 64 48 23 50 53 51 34 52 52 53 35 54 38 55 51 56 69 57 36 58
REMARK SMILES IDX 37 59 50 61 70 62 39 63 24 64 25 65 33 66 26 67 32 68 27 69
REMARK SMILES IDX 28 70 29 71 30 72 31 73 54 74 55 75 63 76 56 77 62 78 57 79
REMARK SMILES IDX 58 80 59 81 60 82 61 83 40 84 41 85 49 86 42 87 48 88 43 89
REMARK SMILES IDX 44 90 45 91 46 92 47 93
REMARK H PARENT 7 7 3 15 3 16 79 21 12 30 68 49 38 60
REMARK Flexibility Score: inf
ROOT
ATOM      1  C   UNL A   1      36.237  23.700  24.891  1.00  0.00     0.023 C 
ENDROOT
BRANCH   1   2
ATOM      2  C   UNL A   1      35.062  24.648  25.085  1.00  0.00     0.023 C 
BRANCH   2   3
ATOM      3  C   UNL A   1      33.965  24.559  24.019  1.00  0.00     0.116 C 
BRANCH   3   4
ATOM      4  N   UNL A   1      34.004  25.676  23.100  1.00  0.00    -0.351 N 
ATOM      5  C   UNL A   1      33.551  26.951  23.066  1.00  0.00     0.281 C 
ATOM      6  O   UNL A   1      33.805  27.499  21.979  1.00  0.00    -0.268 OA
ATOM      7  H   UNL A   1      34.493  25.445  22.277  1.00  0.00     0.163 HD
BRANCH   5   8
ATOM      8  C   UNL A   1      32.751  27.736  24.210  1.00  0.00     0.181 C 
ATOM      9  C   UNL A   1      32.306  26.931  25.441  1.00  0.00     0.079 C 
ATOM     10  C   UNL A   1      31.570  28.541  23.632  1.00  0.00     0.144 C 
ATOM     11  C   UNL A   1      30.927  26.279  25.443  1.00  0.00     0.013 C 
ATOM     12  C   UNL A   1      30.317  27.725  23.331  1.00  0.00     0.190 C 
ATOM     13  C   UNL A   1      29.863  26.806  24.481  1.00  0.00     0.065 C 
BRANCH   8  14
ATOM     14  N   UNL A   1      33.687  28.827  24.694  1.00  0.00    -0.334 N 
ATOM     15  H   UNL A   1      34.633  28.443  24.696  1.00  0.00     0.347 HD
ATOM     16  H   UNL A   1      33.545  29.606  24.052  1.00  0.00     0.347 HD
BRANCH  14  17
ATOM     17  C   UNL A   1      33.427  29.372  26.023  1.00  0.00     0.257 C 
ATOM     18  C   UNL A   1      34.686  29.219  26.868  1.00  0.00     0.071 C 
ENDBRANCH  14  17
ENDBRANCH   8  14
BRANCH  12  19
ATOM     19  N   UNL A   1      29.237  28.514  22.688  1.00  0.00    -0.332 N 
ATOM     20  C   UNL A   1      27.910  28.140  23.187  1.00  0.00     0.333 C 
ATOM     21  H   UNL A   1      29.365  28.218  21.720  1.00  0.00     0.348 HD
BRANCH  19  22
ATOM     22  C   UNL A   1      29.367  29.968  22.541  1.00  0.00     0.184 C 
ATOM     23  C   UNL A   1      28.782  30.674  21.313  1.00  0.00     0.065 C 
ATOM     24  C   UNL A   1      28.853  30.790  23.746  1.00  0.00     0.065 C 
ATOM     25  C   UNL A   1      28.790  32.137  21.729  1.00  0.00     0.006 C 
ATOM     26  C   UNL A   1      28.267  32.075  23.156  1.00  0.00     0.006 C 
ENDBRANCH  19  22
ENDBRANCH  12  19
ENDBRANCH   5   8
ENDBRANCH   3   4
ENDBRANCH   2   3
ENDBRANCH   1   2
BRANCH   1  27
ATOM     27  C   UNL A   1      36.758  23.052  26.165  1.00  0.00     0.116 C 
BRANCH  27  28
ATOM     28  N   UNL A   1      38.043  22.379  26.025  1.00  0.00    -0.352 N 
ATOM     29  C   UNL A   1      39.287  22.888  26.340  1.00  0.00     0.251 C 
ATOM     30  H   UNL A   1      38.023  21.462  25.668  1.00  0.00     0.163 HD
ATOM     31  O   UNL A   1      40.307  22.240  26.140  1.00  0.00    -0.269 OA
BRANCH  29  32
ATOM     32  C   UNL A   1      39.354  24.266  26.869  1.00  0.00     0.039 A 
ATOM     33  C   UNL A   1      38.925  24.512  28.174  1.00  0.00     0.014 A 
ATOM     34  C   UNL A   1      39.993  25.262  26.127  1.00  0.00     0.014 A 
ATOM     35  C   UNL A   1      39.234  25.735  28.775  1.00  0.00     0.010 A 
ATOM     36  C   UNL A   1      40.373  26.441  26.756  1.00  0.00     0.010 A 
ATOM     37  C   UNL A   1      40.009  26.684  28.091  1.00  0.00    -0.014 A 
BRANCH  37  38
ATOM     38  C   UNL A   1      40.475  27.932  28.751  1.00  0.00     0.031 A 
ATOM     39  C   UNL A   1      41.864  28.001  29.327  1.00  0.00     0.074 A 
ATOM     40  C   UNL A   1      39.620  28.962  28.924  1.00  0.00     0.049 A 
ATOM     41  N   UNL A   1      42.419  28.955  30.026  1.00  0.00    -0.248 NA
ATOM     42  C   UNL A   1      42.728  26.825  29.124  1.00  0.00     0.031 C 
ATOM     43  C   UNL A   1      38.222  28.996  28.479  1.00  0.00     0.029 A 
ATOM     44  N   UNL A   1      39.797  30.178  29.535  1.00  0.00    -0.354 N 
ATOM     45  C   UNL A   1      43.676  28.479  30.382  1.00  0.00     0.074 A 
ATOM     46  C   UNL A   1      43.787  27.137  29.854  1.00  0.00     0.031 C 
ATOM     47  C   UNL A   1      37.682  30.181  28.808  1.00  0.00     0.029 A 
ATOM     48  C   UNL A   1      38.678  30.978  29.515  1.00  0.00     0.049 A 
ATOM     49  H   UNL A   1      40.647  30.452  29.949  1.00  0.00     0.167 HD
ATOM     50  C   UNL A   1      44.657  29.109  31.068  1.00  0.00     0.031 A 
ATOM     51  C   UNL A   1      38.476  32.215  30.012  1.00  0.00     0.031 A 
ATOM     52  C   UNL A   1      44.570  30.463  31.540  1.00  0.00     0.049 A 
ATOM     53  C   UNL A   1      39.606  32.917  30.715  1.00  0.00     0.074 A 
ATOM     54  C   UNL A   1      45.549  31.225  32.153  1.00  0.00     0.029 A 
ATOM     55  N   UNL A   1      43.440  31.260  31.444  1.00  0.00    -0.354 N 
ATOM     56  N   UNL A   1      40.819  32.482  30.959  1.00  0.00    -0.248 NA
ATOM     57  C   UNL A   1      39.345  34.281  31.197  1.00  0.00     0.031 C 
ATOM     58  C   UNL A   1      45.001  32.475  32.457  1.00  0.00     0.029 A 
ATOM     59  C   UNL A   1      43.694  32.503  31.997  1.00  0.00     0.049 A 
ATOM     60  H   UNL A   1      42.586  30.984  31.041  1.00  0.00     0.167 HD
ATOM     61  C   UNL A   1      41.473  33.529  31.598  1.00  0.00     0.074 A 
ATOM     62  C   UNL A   1      40.527  34.622  31.692  1.00  0.00     0.031 C 
ATOM     63  C   UNL A   1      42.744  33.582  32.066  1.00  0.00     0.031 A 
BRANCH  50  64
ATOM     64  C   UNL A   1      45.920  28.339  31.341  1.00  0.00    -0.014 A 
ATOM     65  C   UNL A   1      47.030  28.438  30.482  1.00  0.00     0.010 A 
ATOM     66  C   UNL A   1      46.013  27.539  32.494  1.00  0.00     0.010 A 
ATOM     67  C   UNL A   1      48.197  27.720  30.751  1.00  0.00     0.020 A 
ATOM     68  C   UNL A   1      47.189  26.840  32.779  1.00  0.00     0.020 A 
ATOM     69  C   UNL A   1      48.268  26.922  31.897  1.00  0.00     0.054 A 
BRANCH  69  70
ATOM     70  S   UNL A   1      49.806  26.023  32.240  1.00  0.00     0.124 S 
ATOM     71  O   UNL A   1      49.695  24.883  31.333  1.00  0.00    -0.237 OA
ATOM     72  O   UNL A   1      50.834  27.002  31.893  1.00  0.00    -0.237 OA
ATOM     73  O   UNL A   1      49.710  25.703  33.662  1.00  0.00    -0.744 OA
ENDBRANCH  69  70
ENDBRANCH  50  64
BRANCH  51  74
ATOM     74  C   UNL A   1      37.159  32.888  29.846  1.00  0.00    -0.014 A 
ATOM     75  C   UNL A   1      36.873  33.607  28.671  1.00  0.00     0.010 A 
ATOM     76  C   UNL A   1      36.193  32.835  30.866  1.00  0.00     0.010 A 
ATOM     77  C   UNL A   1      35.660  34.287  28.532  1.00  0.00     0.020 A 
ATOM     78  C   UNL A   1      34.969  33.494  30.722  1.00  0.00     0.020 A 
ATOM     79  C   UNL A   1      34.717  34.231  29.562  1.00  0.00     0.054 A 
BRANCH  79  80
ATOM     80  S   UNL A   1      33.137  35.100  29.356  1.00  0.00     0.124 S 
ATOM     81  O   UNL A   1      32.565  35.010  30.694  1.00  0.00    -0.237 OA
ATOM     82  O   UNL A   1      33.559  36.434  28.935  1.00  0.00    -0.237 OA
ATOM     83  O   UNL A   1      32.454  34.318  28.327  1.00  0.00    -0.744 OA
ENDBRANCH  79  80
ENDBRANCH  51  74
BRANCH  63  84
ATOM     84  C   UNL A   1      43.202  34.874  32.684  1.00  0.00    -0.014 A 
ATOM     85  C   UNL A   1      43.759  35.896  31.897  1.00  0.00     0.010 A 
ATOM     86  C   UNL A   1      43.013  35.088  34.061  1.00  0.00     0.010 A 
ATOM     87  C   UNL A   1      44.142  37.105  32.483  1.00  0.00     0.020 A 
ATOM     88  C   UNL A   1      43.375  36.303  34.646  1.00  0.00     0.020 A 
ATOM     89  C   UNL A   1      43.948  37.300  33.855  1.00  0.00     0.054 A 
BRANCH  89  90
ATOM     90  S   UNL A   1      44.404  38.897  34.586  1.00  0.00     0.124 S 
ATOM     91  O   UNL A   1      45.799  39.031  34.176  1.00  0.00    -0.237 OA
ATOM     92  O   UNL A   1      43.469  39.822  33.950  1.00  0.00    -0.237 OA
ATOM     93  O   UNL A   1      44.190  38.693  36.017  1.00  0.00    -0.744 OA
ENDBRANCH  89  90
ENDBRANCH  63  84
ENDBRANCH  37  38
ENDBRANCH  29  32
ENDBRANCH  27  28
ENDBRANCH   1  27
TORSDOF 18
ENDMDL
MODEL 2
REMARK VINA RESULT:     -10.6      4.235      6.050
REMARK SMILES CC[NH2+][C@@]1(C(=O)NCCCCNC(=O)c2ccc(-c3c4nc(c(-c5ccc(S(=O)(=O)[O-])cc5)c5ccc([nH]5)c(-c5ccc(S(=O)(=O)[O-])cc5)c5nc(c(-c6ccc(S(=O)(=O)[O-])cc6)c6ccc3[nH]6)C=C5)C=C4)cc2)CCC[C@@H]([N@@H+](C)C2CCCC2)C1
REMARK SMILES IDX 10 1 9 2 8 3 7 4 5 5 6 6 4 8 75 9 86 10 76 11 78 12 77 13
REMARK SMILES IDX 3 14 2 17 1 18 79 19 80 20 81 22 82 23 85 24 83 25 84 26
REMARK SMILES IDX 11 27 12 28 13 29 14 31 15 32 16 33 74 34 17 35 73 36 18 37
REMARK SMILES IDX 19 38 20 39 67 40 21 41 72 42 66 43 68 44 22 45 71 46 65 47
REMARK SMILES IDX 64 48 23 50 53 51 34 52 52 53 35 54 38 55 51 56 69 57 36 58
REMARK SMILES IDX 37 59 50 61 70 62 39 63 24 64 25 65 33 66 26 67 32 68 27 69
REMARK SMILES IDX 28 70 29 71 30 72 31 73 54 74 55 75 63 76 56 77 62 78 57 79
REMARK SMILES IDX 58 80 59 81 60 82 61 83 40 84 41 85 49 86 42 87 48 88 43 89
REMARK SMILES IDX 44 90 45 91 46 92 47 93
REMARK H PARENT 7 7 3 15 3 16 79 21 12 30 68 49 38 60
REMARK Flexibility Score: inf
ROOT
ATOM      1  C   UNL A   1      37.979  21.634  25.115  1.00  0.00     0.023 C 
ENDROOT
BRANCH   1   2
ATOM      2  C   UNL A   1      37.476  20.314  24.547  1.00  0.00     0.023 C 
BRANCH   2   3
ATOM      3  C   UNL A   1      36.091  19.876  25.034  1.00  0.00     0.116 C 
BRANCH   3   4
ATOM      4  N   UNL A   1      35.448  20.894  25.837  1.00  0.00    -0.351 N 
ATOM      5  C   UNL A   1      34.196  21.375  26.016  1.00  0.00     0.281 C 
ATOM      6  O   UNL A   1      34.182  22.334  26.808  1.00  0.00    -0.268 OA
ATOM      7  H   UNL A   1      36.099  21.362  26.409  1.00  0.00     0.163 HD
BRANCH   5   8
ATOM      8  C   UNL A   1      32.845  20.868  25.322  1.00  0.00     0.181 C 
ATOM      9  C   UNL A   1      32.835  20.762  23.789  1.00  0.00     0.079 C 
ATOM     10  C   UNL A   1      31.616  21.655  25.819  1.00  0.00     0.144 C 
ATOM     11  C   UNL A   1      32.371  21.958  22.964  1.00  0.00     0.013 C 
ATOM     12  C   UNL A   1      31.421  23.023  25.175  1.00  0.00     0.190 C 
ATOM     13  C   UNL A   1      31.503  23.022  23.636  1.00  0.00     0.065 C 
BRANCH   8  14
ATOM     14  N   UNL A   1      32.592  19.479  25.876  1.00  0.00    -0.334 N 
ATOM     15  H   UNL A   1      33.313  19.289  26.573  1.00  0.00     0.347 HD
ATOM     16  H   UNL A   1      31.641  19.506  26.243  1.00  0.00     0.347 HD
BRANCH  14  17
ATOM     17  C   UNL A   1      32.602  18.378  24.917  1.00  0.00     0.257 C 
ATOM     18  C   UNL A   1      32.778  17.070  25.677  1.00  0.00     0.071 C 
ENDBRANCH  14  17
ENDBRANCH   8  14
BRANCH  12  19
ATOM     19  N   UNL A   1      30.286  23.790  25.746  1.00  0.00    -0.332 N 
ATOM     20  C   UNL A   1      29.705  23.126  26.917  1.00  0.00     0.333 C 
ATOM     21  H   UNL A   1      29.647  23.764  24.952  1.00  0.00     0.348 HD
BRANCH  19  22
ATOM     22  C   UNL A   1      30.397  25.240  25.951  1.00  0.00     0.184 C 
ATOM     23  C   UNL A   1      31.756  25.871  26.271  1.00  0.00     0.065 C 
ATOM     24  C   UNL A   1      29.826  26.102  24.802  1.00  0.00     0.065 C 
ATOM     25  C   UNL A   1      31.507  27.351  26.027  1.00  0.00     0.006 C 
ATOM     26  C   UNL A   1      30.721  27.342  24.725  1.00  0.00     0.006 C 
ENDBRANCH  19  22
ENDBRANCH  12  19
ENDBRANCH   5   8
ENDBRANCH   3   4
ENDBRANCH   2   3
ENDBRANCH   1   2
BRANCH   1  27
ATOM     27  C   UNL A   1      39.182  21.520  26.039  1.00  0.00     0.116 C 
BRANCH  27  28
ATOM     28  N   UNL A   1      39.865  20.233  25.996  1.00  0.00    -0.352 N 
ATOM     29  C   UNL A   1      41.216  20.002  26.161  1.00  0.00     0.251 C 
ATOM     30  H   UNL A   1      39.303  19.442  25.832  1.00  0.00     0.163 HD
ATOM     31  O   UNL A   1      41.684  18.875  26.061  1.00  0.00    -0.269 OA
BRANCH  29  32
ATOM     32  C   UNL A   1      42.090  21.169  26.399  1.00  0.00     0.039 A 
ATOM     33  C   UNL A   1      42.481  21.955  25.315  1.00  0.00     0.014 A 
ATOM     34  C   UNL A   1      42.375  21.566  27.708  1.00  0.00     0.014 A 
ATOM     35  C   UNL A   1      43.069  23.200  25.550  1.00  0.00     0.010 A 
ATOM     36  C   UNL A   1      42.880  22.839  27.939  1.00  0.00     0.010 A 
ATOM     37  C   UNL A   1      43.220  23.675  26.862  1.00  0.00    -0.014 A 
BRANCH  37  38
ATOM     38  C   UNL A   1      43.709  25.051  27.142  1.00  0.00     0.031 A 
ATOM     39  C   UNL A   1      45.158  25.390  26.917  1.00  0.00     0.074 A 
ATOM     40  C   UNL A   1      42.879  25.962  27.692  1.00  0.00     0.049 A 
ATOM     41  N   UNL A   1      45.798  26.495  27.193  1.00  0.00    -0.248 NA
ATOM     42  C   UNL A   1      46.008  24.333  26.341  1.00  0.00     0.031 C 
ATOM     43  C   UNL A   1      41.469  25.739  28.029  1.00  0.00     0.029 A 
ATOM     44  N   UNL A   1      43.106  27.259  28.078  1.00  0.00    -0.354 N 
ATOM     45  C   UNL A   1      47.127  26.253  26.869  1.00  0.00     0.074 A 
ATOM     46  C   UNL A   1      47.210  24.884  26.409  1.00  0.00     0.031 C 
ATOM     47  C   UNL A   1      40.954  26.867  28.545  1.00  0.00     0.029 A 
ATOM     48  C   UNL A   1      41.999  27.883  28.608  1.00  0.00     0.049 A 
ATOM     49  H   UNL A   1      43.980  27.703  27.984  1.00  0.00     0.167 HD
ATOM     50  C   UNL A   1      48.182  27.099  26.927  1.00  0.00     0.031 A 
ATOM     51  C   UNL A   1      41.844  29.132  29.090  1.00  0.00     0.031 A 
ATOM     52  C   UNL A   1      48.089  28.476  27.325  1.00  0.00     0.049 A 
ATOM     53  C   UNL A   1      43.019  30.072  29.084  1.00  0.00     0.074 A 
ATOM     54  C   UNL A   1      49.080  29.443  27.317  1.00  0.00     0.029 A 
ATOM     55  N   UNL A   1      46.936  29.086  27.795  1.00  0.00    -0.354 N 
ATOM     56  N   UNL A   1      44.248  29.849  28.684  1.00  0.00    -0.248 NA
ATOM     57  C   UNL A   1      42.783  31.436  29.580  1.00  0.00     0.031 C 
ATOM     58  C   UNL A   1      48.533  30.630  27.813  1.00  0.00     0.029 A 
ATOM     59  C   UNL A   1      47.194  30.412  28.092  1.00  0.00     0.049 A 
ATOM     60  H   UNL A   1      46.064  28.641  27.900  1.00  0.00     0.167 HD
ATOM     61  C   UNL A   1      44.924  31.053  28.855  1.00  0.00     0.074 A 
ATOM     62  C   UNL A   1      43.965  32.003  29.382  1.00  0.00     0.031 C 
ATOM     63  C   UNL A   1      46.222  31.345  28.600  1.00  0.00     0.031 A 
BRANCH  50  64
ATOM     64  C   UNL A   1      49.530  26.559  26.539  1.00  0.00    -0.014 A 
ATOM     65  C   UNL A   1      50.330  25.867  27.466  1.00  0.00     0.010 A 
ATOM     66  C   UNL A   1      49.986  26.708  25.216  1.00  0.00     0.010 A 
ATOM     67  C   UNL A   1      51.578  25.368  27.089  1.00  0.00     0.020 A 
ATOM     68  C   UNL A   1      51.224  26.187  24.829  1.00  0.00     0.020 A 
ATOM     69  C   UNL A   1      52.019  25.534  25.773  1.00  0.00     0.054 A 
BRANCH  69  70
ATOM     70  S   UNL A   1      53.631  24.849  25.300  1.00  0.00     0.124 S 
ATOM     71  O   UNL A   1      54.419  25.078  26.508  1.00  0.00    -0.237 OA
ATOM     72  O   UNL A   1      53.315  23.452  25.013  1.00  0.00    -0.237 OA
ATOM     73  O   UNL A   1      54.019  25.648  24.140  1.00  0.00    -0.744 OA
ENDBRANCH  69  70
ENDBRANCH  50  64
BRANCH  51  74
ATOM     74  C   UNL A   1      40.522  29.584  29.601  1.00  0.00    -0.014 A 
ATOM     75  C   UNL A   1      39.590  30.176  28.730  1.00  0.00     0.010 A 
ATOM     76  C   UNL A   1      40.194  29.446  30.961  1.00  0.00     0.010 A 
ATOM     77  C   UNL A   1      38.368  30.653  29.215  1.00  0.00     0.020 A 
ATOM     78  C   UNL A   1      38.963  29.899  31.446  1.00  0.00     0.020 A 
ATOM     79  C   UNL A   1      38.065  30.516  30.572  1.00  0.00     0.054 A 
BRANCH  79  80
ATOM     80  S   UNL A   1      36.465  31.118  31.180  1.00  0.00     0.124 S 
ATOM     81  O   UNL A   1      36.762  32.514  31.483  1.00  0.00    -0.237 OA
ATOM     82  O   UNL A   1      35.583  30.892  30.037  1.00  0.00    -0.237 OA
ATOM     83  O   UNL A   1      36.201  30.267  32.337  1.00  0.00    -0.744 OA
ENDBRANCH  79  80
ENDBRANCH  51  74
BRANCH  63  84
ATOM     84  C   UNL A   1      46.675  32.757  28.844  1.00  0.00    -0.014 A 
ATOM     85  C   UNL A   1      47.294  33.122  30.051  1.00  0.00     0.010 A 
ATOM     86  C   UNL A   1      46.533  33.716  27.825  1.00  0.00     0.010 A 
ATOM     87  C   UNL A   1      47.744  34.430  30.245  1.00  0.00     0.020 A 
ATOM     88  C   UNL A   1      47.000  35.019  28.006  1.00  0.00     0.020 A 
ATOM     89  C   UNL A   1      47.593  35.371  29.221  1.00  0.00     0.054 A 
BRANCH  89  90
ATOM     90  S   UNL A   1      48.232  37.051  29.472  1.00  0.00     0.124 S 
ATOM     91  O   UNL A   1      47.004  37.841  29.498  1.00  0.00    -0.237 OA
ATOM     92  O   UNL A   1      48.937  36.941  30.747  1.00  0.00    -0.237 OA
ATOM     93  O   UNL A   1      49.091  37.269  28.310  1.00  0.00    -0.744 OA
ENDBRANCH  89  90
ENDBRANCH  63  84
ENDBRANCH  37  38
ENDBRANCH  29  32
ENDBRANCH  27  28
ENDBRANCH   1  27
TORSDOF 18
ENDMDL
MODEL 3
REMARK VINA RESULT:     -10.2      2.923      9.631
REMARK SMILES CC[NH2+][C@@]1(C(=O)NCCCCNC(=O)c2ccc(-c3c4nc(c(-c5ccc(S(=O)(=O)[O-])cc5)c5ccc([nH]5)c(-c5ccc(S(=O)(=O)[O-])cc5)c5nc(c(-c6ccc(S(=O)(=O)[O-])cc6)c6ccc3[nH]6)C=C5)C=C4)cc2)CCC[C@@H]([N@@H+](C)C2CCCC2)C1
REMARK SMILES IDX 10 1 9 2 8 3 7 4 5 5 6 6 4 8 75 9 86 10 76 11 78 12 77 13
REMARK SMILES IDX 3 14 2 17 1 18 79 19 80 20 81 22 82 23 85 24 83 25 84 26
REMARK SMILES IDX 11 27 12 28 13 29 14 31 15 32 16 33 74 34 17 35 73 36 18 37
REMARK SMILES IDX 19 38 20 39 67 40 21 41 72 42 66 43 68 44 22 45 71 46 65 47
REMARK SMILES IDX 64 48 23 50 53 51 34 52 52 53 35 54 38 55 51 56 69 57 36 58
REMARK SMILES IDX 37 59 50 61 70 62 39 63 24 64 25 65 33 66 26 67 32 68 27 69
REMARK SMILES IDX 28 70 29 71 30 72 31 73 54 74 55 75 63 76 56 77 62 78 57 79
REMARK SMILES IDX 58 80 59 81 60 82 61 83 40 84 41 85 49 86 42 87 48 88 43 89
REMARK SMILES IDX 44 90 45 91 46 92 47 93
REMARK H PARENT 7 7 3 15 3 16 79 21 12 30 68 49 38 60
REMARK Flexibility Score: inf
ROOT
ATOM      1  C   UNL A   1      33.453  28.185  27.035  1.00  0.00     0.023 C 
ENDROOT
BRANCH   1   2
ATOM      2  C   UNL A   1      32.225  27.546  26.401  1.00  0.00     0.023 C 
BRANCH   2   3
ATOM      3  C   UNL A   1      32.344  27.239  24.905  1.00  0.00     0.116 C 
BRANCH   3   4
ATOM      4  N   UNL A   1      31.338  26.301  24.458  1.00  0.00    -0.351 N 
ATOM      5  C   UNL A   1      31.302  25.126  23.787  1.00  0.00     0.281 C 
ATOM      6  O   UNL A   1      30.134  24.742  23.596  1.00  0.00    -0.268 OA
ATOM      7  H   UNL A   1      30.433  26.599  24.711  1.00  0.00     0.163 HD
BRANCH   5   8
ATOM      8  C   UNL A   1      32.542  24.276  23.238  1.00  0.00     0.181 C 
ATOM      9  C   UNL A   1      32.230  22.964  22.501  1.00  0.00     0.079 C 
ATOM     10  C   UNL A   1      33.605  24.044  24.331  1.00  0.00     0.144 C 
ATOM     11  C   UNL A   1      32.168  21.663  23.293  1.00  0.00     0.013 C 
ATOM     12  C   UNL A   1      33.287  22.923  25.315  1.00  0.00     0.190 C 
ATOM     13  C   UNL A   1      32.859  21.597  24.655  1.00  0.00     0.065 C 
BRANCH   8  14
ATOM     14  N   UNL A   1      33.266  25.185  22.264  1.00  0.00    -0.334 N 
ATOM     15  H   UNL A   1      33.796  25.863  22.811  1.00  0.00     0.347 HD
ATOM     16  H   UNL A   1      33.834  24.564  21.688  1.00  0.00     0.347 HD
BRANCH  14  17
ATOM     17  C   UNL A   1      32.435  25.929  21.321  1.00  0.00     0.257 C 
ATOM     18  C   UNL A   1      32.644  25.352  19.926  1.00  0.00     0.071 C 
ENDBRANCH  14  17
ENDBRANCH   8  14
BRANCH  12  19
ATOM     19  N   UNL A   1      34.283  22.792  26.407  1.00  0.00    -0.332 N 
ATOM     20  C   UNL A   1      33.738  22.083  27.569  1.00  0.00     0.333 C 
ATOM     21  H   UNL A   1      34.437  23.779  26.615  1.00  0.00     0.348 HD
BRANCH  19  22
ATOM     22  C   UNL A   1      35.657  22.366  26.112  1.00  0.00     0.184 C 
ATOM     23  C   UNL A   1      35.946  21.490  24.889  1.00  0.00     0.065 C 
ATOM     24  C   UNL A   1      36.687  23.516  26.023  1.00  0.00     0.065 C 
ATOM     25  C   UNL A   1      37.455  21.604  24.741  1.00  0.00     0.006 C 
ATOM     26  C   UNL A   1      37.695  23.091  24.951  1.00  0.00     0.006 C 
ENDBRANCH  19  22
ENDBRANCH  12  19
ENDBRANCH   5   8
ENDBRANCH   3   4
ENDBRANCH   2   3
ENDBRANCH   1   2
BRANCH   1  27
ATOM     27  C   UNL A   1      33.842  29.539  26.459  1.00  0.00     0.116 C 
BRANCH  27  28
ATOM     28  N   UNL A   1      33.716  30.656  27.388  1.00  0.00    -0.352 N 
ATOM     29  C   UNL A   1      34.636  31.057  28.336  1.00  0.00     0.251 C 
ATOM     30  H   UNL A   1      32.886  31.181  27.334  1.00  0.00     0.163 HD
ATOM     31  O   UNL A   1      34.401  31.990  29.094  1.00  0.00    -0.269 OA
BRANCH  29  32
ATOM     32  C   UNL A   1      35.889  30.283  28.451  1.00  0.00     0.039 A 
ATOM     33  C   UNL A   1      36.823  30.347  27.416  1.00  0.00     0.014 A 
ATOM     34  C   UNL A   1      36.197  29.637  29.651  1.00  0.00     0.014 A 
ATOM     35  C   UNL A   1      38.112  29.852  27.625  1.00  0.00     0.010 A 
ATOM     36  C   UNL A   1      37.503  29.224  29.886  1.00  0.00     0.010 A 
ATOM     37  C   UNL A   1      38.477  29.339  28.881  1.00  0.00    -0.014 A 
BRANCH  37  38
ATOM     38  C   UNL A   1      39.876  28.937  29.180  1.00  0.00     0.031 A 
ATOM     39  C   UNL A   1      40.828  29.932  29.788  1.00  0.00     0.074 A 
ATOM     40  C   UNL A   1      40.319  27.716  28.813  1.00  0.00     0.049 A 
ATOM     41  N   UNL A   1      42.106  29.808  30.030  1.00  0.00    -0.248 NA
ATOM     42  C   UNL A   1      40.277  31.254  30.134  1.00  0.00     0.031 C 
ATOM     43  C   UNL A   1      39.519  26.682  28.147  1.00  0.00     0.029 A 
ATOM     44  N   UNL A   1      41.559  27.140  28.935  1.00  0.00    -0.354 N 
ATOM     45  C   UNL A   1      42.521  31.043  30.512  1.00  0.00     0.074 A 
ATOM     46  C   UNL A   1      41.367  31.915  30.494  1.00  0.00     0.031 C 
ATOM     47  C   UNL A   1      40.281  25.594  27.947  1.00  0.00     0.029 A 
ATOM     48  C   UNL A   1      41.629  25.860  28.436  1.00  0.00     0.049 A 
ATOM     49  H   UNL A   1      42.327  27.601  29.343  1.00  0.00     0.167 HD
ATOM     50  C   UNL A   1      43.746  31.415  30.950  1.00  0.00     0.031 A 
ATOM     51  C   UNL A   1      42.663  24.998  28.378  1.00  0.00     0.031 A 
ATOM     52  C   UNL A   1      44.877  30.532  31.025  1.00  0.00     0.049 A 
ATOM     53  C   UNL A   1      43.999  25.415  28.931  1.00  0.00     0.074 A 
ATOM     54  C   UNL A   1      46.131  30.784  31.552  1.00  0.00     0.029 A 
ATOM     55  N   UNL A   1      44.888  29.224  30.567  1.00  0.00    -0.354 N 
ATOM     56  N   UNL A   1      44.344  26.560  29.469  1.00  0.00    -0.248 NA
ATOM     57  C   UNL A   1      45.080  24.420  28.883  1.00  0.00     0.031 C 
ATOM     58  C   UNL A   1      46.913  29.637  31.383  1.00  0.00     0.029 A 
ATOM     59  C   UNL A   1      46.132  28.660  30.788  1.00  0.00     0.049 A 
ATOM     60  H   UNL A   1      44.125  28.765  30.148  1.00  0.00     0.167 HD
ATOM     61  C   UNL A   1      45.674  26.412  29.847  1.00  0.00     0.074 A 
ATOM     62  C   UNL A   1      46.067  25.065  29.489  1.00  0.00     0.031 C 
ATOM     63  C   UNL A   1      46.497  27.312  30.438  1.00  0.00     0.031 A 
BRANCH  50  64
ATOM     64  C   UNL A   1      43.923  32.840  31.395  1.00  0.00    -0.014 A 
ATOM     65  C   UNL A   1      43.743  33.208  32.741  1.00  0.00     0.010 A 
ATOM     66  C   UNL A   1      44.317  33.817  30.463  1.00  0.00     0.010 A 
ATOM     67  C   UNL A   1      43.916  34.536  33.139  1.00  0.00     0.020 A 
ATOM     68  C   UNL A   1      44.516  35.141  30.864  1.00  0.00     0.020 A 
ATOM     69  C   UNL A   1      44.297  35.495  32.196  1.00  0.00     0.054 A 
BRANCH  69  70
ATOM     70  S   UNL A   1      44.545  37.206  32.746  1.00  0.00     0.124 S 
ATOM     71  O   UNL A   1      43.328  37.452  33.516  1.00  0.00    -0.237 OA
ATOM     72  O   UNL A   1      45.776  37.118  33.528  1.00  0.00    -0.237 OA
ATOM     73  O   UNL A   1      44.657  37.957  31.498  1.00  0.00    -0.744 OA
ENDBRANCH  69  70
ENDBRANCH  50  64
BRANCH  51  74
ATOM     74  C   UNL A   1      42.481  23.640  27.795  1.00  0.00    -0.014 A 
ATOM     75  C   UNL A   1      42.108  22.561  28.616  1.00  0.00     0.010 A 
ATOM     76  C   UNL A   1      42.699  23.413  26.425  1.00  0.00     0.010 A 
ATOM     77  C   UNL A   1      41.989  21.272  28.085  1.00  0.00     0.020 A 
ATOM     78  C   UNL A   1      42.558  22.131  25.885  1.00  0.00     0.020 A 
ATOM     79  C   UNL A   1      42.221  21.066  26.723  1.00  0.00     0.054 A 
BRANCH  79  80
ATOM     80  S   UNL A   1      42.039  19.392  26.045  1.00  0.00     0.124 S 
ATOM     81  O   UNL A   1      40.598  19.308  25.830  1.00  0.00    -0.237 OA
ATOM     82  O   UNL A   1      42.858  19.445  24.836  1.00  0.00    -0.237 OA
ATOM     83  O   UNL A   1      42.565  18.538  27.108  1.00  0.00    -0.744 OA
ENDBRANCH  79  80
ENDBRANCH  51  74
BRANCH  63  84
ATOM     84  C   UNL A   1      47.891  26.859  30.774  1.00  0.00    -0.014 A 
ATOM     85  C   UNL A   1      48.961  27.093  29.895  1.00  0.00     0.010 A 
ATOM     86  C   UNL A   1      48.139  26.248  32.017  1.00  0.00     0.010 A 
ATOM     87  C   UNL A   1      50.256  26.700  30.242  1.00  0.00     0.020 A 
ATOM     88  C   UNL A   1      49.435  25.874  32.377  1.00  0.00     0.020 A 
ATOM     89  C   UNL A   1      50.485  26.092  31.482  1.00  0.00     0.054 A 
BRANCH  89  90
ATOM     90  S   UNL A   1      52.181  25.637  31.936  1.00  0.00     0.124 S 
ATOM     91  O   UNL A   1      52.452  26.549  33.044  1.00  0.00    -0.237 OA
ATOM     92  O   UNL A   1      52.052  24.227  32.298  1.00  0.00    -0.237 OA
ATOM     93  O   UNL A   1      52.944  25.892  30.717  1.00  0.00    -0.744 OA
ENDBRANCH  89  90
ENDBRANCH  63  84
ENDBRANCH  37  38
ENDBRANCH  29  32
ENDBRANCH  27  28
ENDBRANCH   1  27
TORSDOF 18
ENDMDL
