MODEL 1
REMARK VINA RESULT:     -11.3      0.000      0.000
REMARK SMILES Cc1cc(C(=O)N[C@H](CC(C)C)C(=O)NCCCCNC(=O)c2ccc(-c3c4nc(c(-c5ccc(S(=O)(=O)[O-])cc5)c5ccc([nH]5)c(-c5ccc(S(=O)(=O)[O-])cc5)c5nc(c(-c6ccc(S(=O)(=O)[O-])cc6)c6ccc3[nH]6)C=C5)C=C4)cc2)sc1Br
REMARK SMILES IDX 18 1 17 2 16 3 15 4 13 5 14 6 8 8 7 9 5 10 6 11 4 13 1 14
REMARK SMILES IDX 2 15 3 16 84 17 83 18 85 19 9 20 10 21 11 22 12 23 19 24
REMARK SMILES IDX 20 25 21 26 22 28 23 29 24 30 82 31 25 32 81 33 26 34 27 35
REMARK SMILES IDX 28 36 75 37 29 38 80 39 74 40 76 41 30 42 79 43 73 44 72 45
REMARK SMILES IDX 31 47 61 48 42 49 60 50 43 51 46 52 59 53 77 54 44 55 45 56
REMARK SMILES IDX 58 58 78 59 47 60 32 61 33 62 41 63 34 64 40 65 35 66 36 67
REMARK SMILES IDX 37 68 38 69 39 70 62 71 63 72 71 73 64 74 70 75 65 76 66 77
REMARK SMILES IDX 67 78 68 79 69 80 48 81 49 82 57 83 50 84 56 85 51 86 52 87
REMARK SMILES IDX 53 88 54 89 55 90
REMARK H PARENT 15 7 7 12 20 27 76 46 46 57
REMARK Flexibility Score: inf
ROOT
ATOM      1  C   UNL A   1      31.617  31.547  26.651  1.00  0.00     0.023 C 
ENDROOT
BRANCH   1   2
ATOM      2  C   UNL A   1      31.862  30.048  26.455  1.00  0.00     0.023 C 
BRANCH   2   3
ATOM      3  C   UNL A   1      32.782  29.658  25.288  1.00  0.00     0.116 C 
BRANCH   3   4
ATOM      4  N   UNL A   1      33.588  28.503  25.629  1.00  0.00    -0.354 N 
ATOM      5  C   UNL A   1      33.404  27.169  25.431  1.00  0.00     0.242 C 
ATOM      6  O   UNL A   1      34.166  26.414  26.047  1.00  0.00    -0.273 OA
ATOM      7  H   UNL A   1      34.429  28.726  26.091  1.00  0.00     0.163 HD
BRANCH   5   8
ATOM      8  C   UNL A   1      32.300  26.565  24.525  1.00  0.00     0.171 C 
BRANCH   8   9
ATOM      9  N   UNL A   1      32.735  26.443  23.147  1.00  0.00    -0.340 N 
ATOM     10  C   UNL A   1      33.207  25.375  22.414  1.00  0.00     0.262 C 
ATOM     11  O   UNL A   1      33.448  25.658  21.236  1.00  0.00    -0.268 OA
ATOM     12  H   UNL A   1      32.681  27.283  22.637  1.00  0.00     0.164 HD
BRANCH  10  13
ATOM     13  C   UNL A   1      33.368  24.029  22.962  1.00  0.00     0.093 A 
ATOM     14  C   UNL A   1      32.463  20.434  23.705  1.00  0.00     0.046 C 
ATOM     15  C   UNL A   1      33.153  21.758  23.629  1.00  0.00    -0.025 A 
ATOM     16  C   UNL A   1      32.534  22.927  23.054  1.00  0.00     0.030 A 
ATOM     17  C   UNL A   1      34.415  22.077  24.075  1.00  0.00     0.074 A 
ATOM     18  S   UNL A   1      34.873  23.669  23.733  1.00  0.00    -0.123 S 
ATOM     19  Br  UNL A   1      35.570  20.899  24.977  1.00  0.00    -0.039 Br
ENDBRANCH  10  13
ENDBRANCH   8   9
BRANCH   8  20
ATOM     20  C   UNL A   1      30.863  27.084  24.754  1.00  0.00     0.038 C 
BRANCH  20  21
ATOM     21  C   UNL A   1      29.864  27.239  23.595  1.00  0.00    -0.015 C 
ATOM     22  C   UNL A   1      28.484  26.638  23.852  1.00  0.00     0.007 C 
ATOM     23  C   UNL A   1      29.709  28.726  23.246  1.00  0.00     0.007 C 
ENDBRANCH  20  21
ENDBRANCH   8  20
ENDBRANCH   5   8
ENDBRANCH   3   4
ENDBRANCH   2   3
ENDBRANCH   1   2
BRANCH   1  24
ATOM     24  C   UNL A   1      32.807  32.310  27.220  1.00  0.00     0.116 C 
BRANCH  24  25
ATOM     25  N   UNL A   1      32.476  33.687  27.576  1.00  0.00    -0.352 N 
ATOM     26  C   UNL A   1      33.046  34.468  28.563  1.00  0.00     0.251 C 
ATOM     27  H   UNL A   1      31.759  34.109  27.049  1.00  0.00     0.163 HD
ATOM     28  O   UNL A   1      32.466  35.443  29.008  1.00  0.00    -0.269 OA
BRANCH  26  29
ATOM     29  C   UNL A   1      34.378  34.087  29.066  1.00  0.00     0.039 A 
ATOM     30  C   UNL A   1      34.499  33.201  30.137  1.00  0.00     0.014 A 
ATOM     31  C   UNL A   1      35.503  34.569  28.396  1.00  0.00     0.014 A 
ATOM     32  C   UNL A   1      35.762  32.716  30.466  1.00  0.00     0.010 A 
ATOM     33  C   UNL A   1      36.740  34.021  28.665  1.00  0.00     0.010 A 
ATOM     34  C   UNL A   1      36.880  33.099  29.704  1.00  0.00    -0.014 A 
BRANCH  34  35
ATOM     35  C   UNL A   1      38.148  32.381  29.874  1.00  0.00     0.031 A 
ATOM     36  C   UNL A   1      38.110  30.952  29.440  1.00  0.00     0.074 A 
ATOM     37  C   UNL A   1      39.327  32.980  30.147  1.00  0.00     0.049 A 
ATOM     38  N   UNL A   1      38.245  29.890  30.165  1.00  0.00    -0.248 NA
ATOM     39  C   UNL A   1      37.741  30.670  28.040  1.00  0.00     0.031 C 
ATOM     40  C   UNL A   1      39.586  34.420  30.252  1.00  0.00     0.029 A 
ATOM     41  N   UNL A   1      40.576  32.440  30.250  1.00  0.00    -0.354 N 
ATOM     42  C   UNL A   1      38.215  28.816  29.277  1.00  0.00     0.074 A 
ATOM     43  C   UNL A   1      37.707  29.337  28.034  1.00  0.00     0.031 C 
ATOM     44  C   UNL A   1      40.913  34.647  30.146  1.00  0.00     0.029 A 
ATOM     45  C   UNL A   1      41.604  33.372  30.142  1.00  0.00     0.049 A 
ATOM     46  H   UNL A   1      40.734  31.478  30.388  1.00  0.00     0.167 HD
ATOM     47  C   UNL A   1      38.870  27.650  29.542  1.00  0.00     0.031 A 
ATOM     48  C   UNL A   1      42.931  33.122  30.019  1.00  0.00     0.031 A 
ATOM     49  C   UNL A   1      39.271  27.572  30.922  1.00  0.00     0.049 A 
ATOM     50  C   UNL A   1      43.170  31.744  30.500  1.00  0.00     0.074 A 
ATOM     51  C   UNL A   1      38.631  27.550  32.142  1.00  0.00     0.029 A 
ATOM     52  N   UNL A   1      40.585  27.881  31.170  1.00  0.00    -0.354 N 
ATOM     53  N   UNL A   1      43.010  31.373  31.738  1.00  0.00    -0.248 NA
ATOM     54  C   UNL A   1      43.250  30.662  29.531  1.00  0.00     0.031 C 
ATOM     55  C   UNL A   1      39.507  28.231  33.037  1.00  0.00     0.029 A 
ATOM     56  C   UNL A   1      40.666  28.582  32.342  1.00  0.00     0.049 A 
ATOM     57  H   UNL A   1      41.348  27.637  30.597  1.00  0.00     0.167 HD
ATOM     58  C   UNL A   1      42.539  30.074  31.658  1.00  0.00     0.074 A 
ATOM     59  C   UNL A   1      42.853  29.646  30.300  1.00  0.00     0.031 C 
ATOM     60  C   UNL A   1      41.686  29.580  32.604  1.00  0.00     0.031 A 
BRANCH  47  61
ATOM     61  C   UNL A   1      39.565  26.814  28.480  1.00  0.00    -0.014 A 
ATOM     62  C   UNL A   1      39.256  25.438  28.390  1.00  0.00     0.010 A 
ATOM     63  C   UNL A   1      40.710  27.249  27.783  1.00  0.00     0.010 A 
ATOM     64  C   UNL A   1      40.097  24.540  27.714  1.00  0.00     0.020 A 
ATOM     65  C   UNL A   1      41.529  26.372  27.068  1.00  0.00     0.020 A 
ATOM     66  C   UNL A   1      41.238  25.015  27.069  1.00  0.00     0.054 A 
BRANCH  66  67
ATOM     67  S   UNL A   1      42.372  23.845  26.283  1.00  0.00     0.124 S 
ATOM     68  O   UNL A   1      43.396  23.686  27.309  1.00  0.00    -0.237 OA
ATOM     69  O   UNL A   1      41.512  22.687  26.057  1.00  0.00    -0.237 OA
ATOM     70  O   UNL A   1      42.796  24.543  25.072  1.00  0.00    -0.744 OA
ENDBRANCH  66  67
ENDBRANCH  47  61
BRANCH  48  71
ATOM     71  C   UNL A   1      43.961  33.898  29.283  1.00  0.00    -0.014 A 
ATOM     72  C   UNL A   1      45.299  33.913  29.719  1.00  0.00     0.010 A 
ATOM     73  C   UNL A   1      43.688  34.386  27.988  1.00  0.00     0.010 A 
ATOM     74  C   UNL A   1      46.335  34.322  28.862  1.00  0.00     0.020 A 
ATOM     75  C   UNL A   1      44.713  34.806  27.132  1.00  0.00     0.020 A 
ATOM     76  C   UNL A   1      46.036  34.742  27.564  1.00  0.00     0.054 A 
BRANCH  76  77
ATOM     77  S   UNL A   1      47.393  35.068  26.397  1.00  0.00     0.124 S 
ATOM     78  O   UNL A   1      46.952  34.357  25.201  1.00  0.00    -0.237 OA
ATOM     79  O   UNL A   1      47.388  36.526  26.304  1.00  0.00    -0.237 OA
ATOM     80  O   UNL A   1      48.563  34.499  27.063  1.00  0.00    -0.744 OA
ENDBRANCH  76  77
ENDBRANCH  48  71
BRANCH  60  81
ATOM     81  C   UNL A   1      41.663  30.239  33.962  1.00  0.00    -0.014 A 
ATOM     82  C   UNL A   1      42.497  29.890  35.041  1.00  0.00     0.010 A 
ATOM     83  C   UNL A   1      40.790  31.330  34.117  1.00  0.00     0.010 A 
ATOM     84  C   UNL A   1      42.420  30.587  36.257  1.00  0.00     0.020 A 
ATOM     85  C   UNL A   1      40.725  32.043  35.314  1.00  0.00     0.020 A 
ATOM     86  C   UNL A   1      41.527  31.657  36.386  1.00  0.00     0.054 A 
BRANCH  86  87
ATOM     87  S   UNL A   1      41.424  32.555  37.958  1.00  0.00     0.124 S 
ATOM     88  O   UNL A   1      42.065  33.828  37.640  1.00  0.00    -0.237 OA
ATOM     89  O   UNL A   1      39.985  32.619  38.202  1.00  0.00    -0.237 OA
ATOM     90  O   UNL A   1      42.165  31.708  38.893  1.00  0.00    -0.744 OA
ENDBRANCH  86  87
ENDBRANCH  60  81
ENDBRANCH  34  35
ENDBRANCH  26  29
ENDBRANCH  24  25
ENDBRANCH   1  24
TORSDOF 18
ENDMDL
MODEL 2
REMARK VINA RESULT:     -11.2      3.425      8.692
REMARK SMILES Cc1cc(C(=O)N[C@H](CC(C)C)C(=O)NCCCCNC(=O)c2ccc(-c3c4nc(c(-c5ccc(S(=O)(=O)[O-])cc5)c5ccc([nH]5)c(-c5ccc(S(=O)(=O)[O-])cc5)c5nc(c(-c6ccc(S(=O)(=O)[O-])cc6)c6ccc3[nH]6)C=C5)C=C4)cc2)sc1Br
REMARK SMILES IDX 18 1 17 2 16 3 15 4 13 5 14 6 8 8 7 9 5 10 6 11 4 13 1 14
REMARK SMILES IDX 2 15 3 16 84 17 83 18 85 19 9 20 10 21 11 22 12 23 19 24
REMARK SMILES IDX 20 25 21 26 22 28 23 29 24 30 82 31 25 32 81 33 26 34 27 35
REMARK SMILES IDX 28 36 75 37 29 38 80 39 74 40 76 41 30 42 79 43 73 44 72 45
REMARK SMILES IDX 31 47 61 48 42 49 60 50 43 51 46 52 59 53 77 54 44 55 45 56
REMARK SMILES IDX 58 58 78 59 47 60 32 61 33 62 41 63 34 64 40 65 35 66 36 67
REMARK SMILES IDX 37 68 38 69 39 70 62 71 63 72 71 73 64 74 70 75 65 76 66 77
REMARK SMILES IDX 67 78 68 79 69 80 48 81 49 82 57 83 50 84 56 85 51 86 52 87
REMARK SMILES IDX 53 88 54 89 55 90
REMARK H PARENT 15 7 7 12 20 27 76 46 46 57
REMARK Flexibility Score: inf
ROOT
ATOM      1  C   UNL A   1      38.266  21.097  25.404  1.00  0.00     0.023 C 
ENDROOT
BRANCH   1   2
ATOM      2  C   UNL A   1      37.362  22.136  24.736  1.00  0.00     0.023 C 
BRANCH   2   3
ATOM      3  C   UNL A   1      36.510  23.000  25.680  1.00  0.00     0.116 C 
BRANCH   3   4
ATOM      4  N   UNL A   1      35.717  22.171  26.565  1.00  0.00    -0.354 N 
ATOM      5  C   UNL A   1      34.377  22.093  26.787  1.00  0.00     0.242 C 
ATOM      6  O   UNL A   1      34.024  21.445  27.780  1.00  0.00    -0.273 OA
ATOM      7  H   UNL A   1      36.249  21.545  27.108  1.00  0.00     0.163 HD
BRANCH   5   8
ATOM      8  C   UNL A   1      33.304  22.782  25.905  1.00  0.00     0.171 C 
BRANCH   8   9
ATOM      9  N   UNL A   1      32.026  22.880  26.583  1.00  0.00    -0.340 N 
ATOM     10  C   UNL A   1      31.024  23.826  26.545  1.00  0.00     0.262 C 
ATOM     11  O   UNL A   1      30.052  23.541  27.251  1.00  0.00    -0.268 OA
ATOM     12  H   UNL A   1      31.836  22.125  27.186  1.00  0.00     0.164 HD
BRANCH  10  13
ATOM     13  C   UNL A   1      31.086  25.032  25.719  1.00  0.00     0.093 A 
ATOM     14  C   UNL A   1      30.699  27.157  22.616  1.00  0.00     0.046 C 
ATOM     15  C   UNL A   1      30.993  26.668  23.997  1.00  0.00    -0.025 A 
ATOM     16  C   UNL A   1      30.893  25.278  24.369  1.00  0.00     0.030 A 
ATOM     17  C   UNL A   1      31.396  27.408  25.085  1.00  0.00     0.074 A 
ATOM     18  S   UNL A   1      31.550  26.500  26.504  1.00  0.00    -0.123 S 
ATOM     19  Br  UNL A   1      31.751  29.255  25.061  1.00  0.00    -0.039 Br
ENDBRANCH  10  13
ENDBRANCH   8   9
BRANCH   8  20
ATOM     20  C   UNL A   1      33.268  22.369  24.417  1.00  0.00     0.038 C 
BRANCH  20  21
ATOM     21  C   UNL A   1      32.327  21.267  23.905  1.00  0.00    -0.015 C 
ATOM     22  C   UNL A   1      32.082  21.279  22.398  1.00  0.00     0.007 C 
ATOM     23  C   UNL A   1      32.875  19.892  24.314  1.00  0.00     0.007 C 
ENDBRANCH  20  21
ENDBRANCH   8  20
ENDBRANCH   5   8
ENDBRANCH   3   4
ENDBRANCH   2   3
ENDBRANCH   1   2
BRANCH   1  24
ATOM     24  C   UNL A   1      39.451  21.685  26.159  1.00  0.00     0.116 C 
BRANCH  24  25
ATOM     25  N   UNL A   1      40.618  20.807  26.150  1.00  0.00    -0.352 N 
ATOM     26  C   UNL A   1      41.951  21.170  26.181  1.00  0.00     0.251 C 
ATOM     27  H   UNL A   1      40.432  19.841  26.116  1.00  0.00     0.163 HD
ATOM     28  O   UNL A   1      42.821  20.401  25.808  1.00  0.00    -0.269 OA
BRANCH  26  29
ATOM     29  C   UNL A   1      42.293  22.516  26.674  1.00  0.00     0.039 A 
ATOM     30  C   UNL A   1      42.124  23.631  25.853  1.00  0.00     0.014 A 
ATOM     31  C   UNL A   1      42.710  22.650  27.999  1.00  0.00     0.014 A 
ATOM     32  C   UNL A   1      42.275  24.899  26.407  1.00  0.00     0.010 A 
ATOM     33  C   UNL A   1      42.773  23.905  28.567  1.00  0.00     0.010 A 
ATOM     34  C   UNL A   1      42.564  25.036  27.776  1.00  0.00    -0.014 A 
BRANCH  34  35
ATOM     35  C   UNL A   1      42.449  26.355  28.408  1.00  0.00     0.031 A 
ATOM     36  C   UNL A   1      43.558  27.299  28.073  1.00  0.00     0.074 A 
ATOM     37  C   UNL A   1      41.336  26.803  29.028  1.00  0.00     0.049 A 
ATOM     38  N   UNL A   1      44.450  27.800  28.862  1.00  0.00    -0.248 NA
ATOM     39  C   UNL A   1      43.779  27.618  26.650  1.00  0.00     0.031 C 
ATOM     40  C   UNL A   1      40.042  26.120  29.129  1.00  0.00     0.029 A 
ATOM     41  N   UNL A   1      41.078  28.024  29.580  1.00  0.00    -0.354 N 
ATOM     42  C   UNL A   1      45.197  28.681  28.082  1.00  0.00     0.074 A 
ATOM     43  C   UNL A   1      44.874  28.377  26.712  1.00  0.00     0.031 C 
ATOM     44  C   UNL A   1      39.087  27.013  29.465  1.00  0.00     0.029 A 
ATOM     45  C   UNL A   1      39.723  28.281  29.772  1.00  0.00     0.049 A 
ATOM     46  H   UNL A   1      41.785  28.665  29.821  1.00  0.00     0.167 HD
ATOM     47  C   UNL A   1      45.807  29.775  28.622  1.00  0.00     0.031 A 
ATOM     48  C   UNL A   1      39.150  29.459  30.121  1.00  0.00     0.031 A 
ATOM     49  C   UNL A   1      45.855  29.697  30.059  1.00  0.00     0.049 A 
ATOM     50  C   UNL A   1      40.201  30.299  30.735  1.00  0.00     0.074 A 
ATOM     51  C   UNL A   1      46.425  28.855  30.988  1.00  0.00     0.029 A 
ATOM     52  N   UNL A   1      44.895  30.423  30.718  1.00  0.00    -0.354 N 
ATOM     53  N   UNL A   1      40.783  30.016  31.865  1.00  0.00    -0.248 NA
ATOM     54  C   UNL A   1      40.879  31.292  29.917  1.00  0.00     0.031 C 
ATOM     55  C   UNL A   1      45.515  28.836  32.085  1.00  0.00     0.029 A 
ATOM     56  C   UNL A   1      44.464  29.712  31.804  1.00  0.00     0.049 A 
ATOM     57  H   UNL A   1      44.569  31.314  30.453  1.00  0.00     0.167 HD
ATOM     58  C   UNL A   1      42.088  30.450  31.708  1.00  0.00     0.074 A 
ATOM     59  C   UNL A   1      42.045  31.354  30.565  1.00  0.00     0.031 C 
ATOM     60  C   UNL A   1      43.118  29.810  32.336  1.00  0.00     0.031 A 
BRANCH  47  61
ATOM     61  C   UNL A   1      45.923  31.113  27.910  1.00  0.00    -0.014 A 
ATOM     62  C   UNL A   1      47.160  31.794  27.941  1.00  0.00     0.010 A 
ATOM     63  C   UNL A   1      44.805  31.857  27.480  1.00  0.00     0.010 A 
ATOM     64  C   UNL A   1      47.252  33.162  27.645  1.00  0.00     0.020 A 
ATOM     65  C   UNL A   1      44.893  33.208  27.138  1.00  0.00     0.020 A 
ATOM     66  C   UNL A   1      46.111  33.863  27.258  1.00  0.00     0.054 A 
BRANCH  66  67
ATOM     67  S   UNL A   1      46.212  35.647  26.972  1.00  0.00     0.124 S 
ATOM     68  O   UNL A   1      44.806  36.009  26.840  1.00  0.00    -0.237 OA
ATOM     69  O   UNL A   1      46.878  36.116  28.184  1.00  0.00    -0.237 OA
ATOM     70  O   UNL A   1      47.007  35.751  25.751  1.00  0.00    -0.744 OA
ENDBRANCH  66  67
ENDBRANCH  47  61
BRANCH  48  71
ATOM     71  C   UNL A   1      37.823  30.001  29.732  1.00  0.00    -0.014 A 
ATOM     72  C   UNL A   1      36.959  30.550  30.698  1.00  0.00     0.010 A 
ATOM     73  C   UNL A   1      37.528  30.244  28.375  1.00  0.00     0.010 A 
ATOM     74  C   UNL A   1      35.890  31.381  30.324  1.00  0.00     0.020 A 
ATOM     75  C   UNL A   1      36.458  31.061  27.993  1.00  0.00     0.020 A 
ATOM     76  C   UNL A   1      35.662  31.652  28.972  1.00  0.00     0.054 A 
BRANCH  76  77
ATOM     77  S   UNL A   1      34.412  32.889  28.509  1.00  0.00     0.124 S 
ATOM     78  O   UNL A   1      34.018  33.434  29.804  1.00  0.00    -0.237 OA
ATOM     79  O   UNL A   1      35.166  33.794  27.644  1.00  0.00    -0.237 OA
ATOM     80  O   UNL A   1      33.386  32.102  27.827  1.00  0.00    -0.744 OA
ENDBRANCH  76  77
ENDBRANCH  48  71
BRANCH  60  81
ATOM     81  C   UNL A   1      42.808  28.989  33.565  1.00  0.00    -0.014 A 
ATOM     82  C   UNL A   1      42.737  29.496  34.876  1.00  0.00     0.010 A 
ATOM     83  C   UNL A   1      42.497  27.634  33.353  1.00  0.00     0.010 A 
ATOM     84  C   UNL A   1      42.409  28.653  35.950  1.00  0.00     0.020 A 
ATOM     85  C   UNL A   1      42.147  26.796  34.412  1.00  0.00     0.020 A 
ATOM     86  C   UNL A   1      42.123  27.305  35.709  1.00  0.00     0.054 A 
BRANCH  86  87
ATOM     87  S   UNL A   1      41.704  26.215  37.097  1.00  0.00     0.124 S 
ATOM     88  O   UNL A   1      40.463  26.799  37.597  1.00  0.00    -0.237 OA
ATOM     89  O   UNL A   1      41.571  24.908  36.455  1.00  0.00    -0.237 OA
ATOM     90  O   UNL A   1      42.852  26.338  37.996  1.00  0.00    -0.744 OA
ENDBRANCH  86  87
ENDBRANCH  60  81
ENDBRANCH  34  35
ENDBRANCH  26  29
ENDBRANCH  24  25
ENDBRANCH   1  24
TORSDOF 18
ENDMDL
MODEL 3
REMARK VINA RESULT:     -11.1      4.310      9.839
REMARK SMILES Cc1cc(C(=O)N[C@H](CC(C)C)C(=O)NCCCCNC(=O)c2ccc(-c3c4nc(c(-c5ccc(S(=O)(=O)[O-])cc5)c5ccc([nH]5)c(-c5ccc(S(=O)(=O)[O-])cc5)c5nc(c(-c6ccc(S(=O)(=O)[O-])cc6)c6ccc3[nH]6)C=C5)C=C4)cc2)sc1Br
REMARK SMILES IDX 18 1 17 2 16 3 15 4 13 5 14 6 8 8 7 9 5 10 6 11 4 13 1 14
REMARK SMILES IDX 2 15 3 16 84 17 83 18 85 19 9 20 10 21 11 22 12 23 19 24
REMARK SMILES IDX 20 25 21 26 22 28 23 29 24 30 82 31 25 32 81 33 26 34 27 35
REMARK SMILES IDX 28 36 75 37 29 38 80 39 74 40 76 41 30 42 79 43 73 44 72 45
REMARK SMILES IDX 31 47 61 48 42 49 60 50 43 51 46 52 59 53 77 54 44 55 45 56
REMARK SMILES IDX 58 58 78 59 47 60 32 61 33 62 41 63 34 64 40 65 35 66 36 67
REMARK SMILES IDX 37 68 38 69 39 70 62 71 63 72 71 73 64 74 70 75 65 76 66 77
REMARK SMILES IDX 67 78 68 79 69 80 48 81 49 82 57 83 50 84 56 85 51 86 52 87
REMARK SMILES IDX 53 88 54 89 55 90
REMARK H PARENT 15 7 7 12 20 27 76 46 46 57
REMARK Flexibility Score: inf
ROOT
ATOM      1  C   UNL A   1      37.585  20.161  25.046  1.00  0.00     0.023 C 
ENDROOT
BRANCH   1   2
ATOM      2  C   UNL A   1      36.798  21.286  24.368  1.00  0.00     0.023 C 
BRANCH   2   3
ATOM      3  C   UNL A   1      36.274  22.398  25.291  1.00  0.00     0.116 C 
BRANCH   3   4
ATOM      4  N   UNL A   1      35.578  21.838  26.432  1.00  0.00    -0.354 N 
ATOM      5  C   UNL A   1      34.271  21.516  26.637  1.00  0.00     0.242 C 
ATOM      6  O   UNL A   1      33.945  21.272  27.806  1.00  0.00    -0.273 OA
ATOM      7  H   UNL A   1      36.160  21.655  27.204  1.00  0.00     0.163 HD
BRANCH   5   8
ATOM      8  C   UNL A   1      33.196  21.474  25.521  1.00  0.00     0.171 C 
BRANCH   8   9
ATOM      9  N   UNL A   1      31.862  21.695  26.044  1.00  0.00    -0.340 N 
ATOM     10  C   UNL A   1      31.074  22.822  26.134  1.00  0.00     0.262 C 
ATOM     11  O   UNL A   1      29.959  22.605  26.621  1.00  0.00    -0.268 OA
ATOM     12  H   UNL A   1      31.436  20.883  26.404  1.00  0.00     0.164 HD
BRANCH  10  13
ATOM     13  C   UNL A   1      31.497  24.140  25.661  1.00  0.00     0.093 A 
ATOM     14  C   UNL A   1      33.346  27.438  25.718  1.00  0.00     0.046 C 
ATOM     15  C   UNL A   1      32.470  26.286  25.345  1.00  0.00    -0.025 A 
ATOM     16  C   UNL A   1      32.238  25.166  26.224  1.00  0.00     0.030 A 
ATOM     17  C   UNL A   1      31.767  26.106  24.176  1.00  0.00     0.074 A 
ATOM     18  S   UNL A   1      30.951  24.627  24.095  1.00  0.00    -0.123 S 
ATOM     19  Br  UNL A   1      31.688  27.346  22.763  1.00  0.00    -0.039 Br
ENDBRANCH  10  13
ENDBRANCH   8   9
BRANCH   8  20
ATOM     20  C   UNL A   1      33.348  20.361  24.461  1.00  0.00     0.038 C 
BRANCH  20  21
ATOM     21  C   UNL A   1      32.230  20.042  23.455  1.00  0.00    -0.015 C 
ATOM     22  C   UNL A   1      32.070  21.059  22.327  1.00  0.00     0.007 C 
ATOM     23  C   UNL A   1      32.466  18.651  22.849  1.00  0.00     0.007 C 
ENDBRANCH  20  21
ENDBRANCH   8  20
ENDBRANCH   5   8
ENDBRANCH   3   4
ENDBRANCH   2   3
ENDBRANCH   1   2
BRANCH   1  24
ATOM     24  C   UNL A   1      38.956  20.576  25.566  1.00  0.00     0.116 C 
BRANCH  24  25
ATOM     25  N   UNL A   1      39.881  19.452  25.676  1.00  0.00    -0.352 N 
ATOM     26  C   UNL A   1      41.237  19.493  25.944  1.00  0.00     0.251 C 
ATOM     27  H   UNL A   1      39.493  18.557  25.542  1.00  0.00     0.163 HD
ATOM     28  O   UNL A   1      41.963  18.557  25.658  1.00  0.00    -0.269 OA
BRANCH  26  29
ATOM     29  C   UNL A   1      41.781  20.704  26.583  1.00  0.00     0.039 A 
ATOM     30  C   UNL A   1      42.246  21.764  25.804  1.00  0.00     0.014 A 
ATOM     31  C   UNL A   1      41.743  20.793  27.975  1.00  0.00     0.014 A 
ATOM     32  C   UNL A   1      42.577  22.962  26.431  1.00  0.00     0.010 A 
ATOM     33  C   UNL A   1      41.987  22.006  28.585  1.00  0.00     0.010 A 
ATOM     34  C   UNL A   1      42.412  23.094  27.821  1.00  0.00    -0.014 A 
BRANCH  34  35
ATOM     35  C   UNL A   1      42.494  24.425  28.432  1.00  0.00     0.031 A 
ATOM     36  C   UNL A   1      41.326  25.310  28.142  1.00  0.00     0.074 A 
ATOM     37  C   UNL A   1      43.391  24.768  29.382  1.00  0.00     0.049 A 
ATOM     38  N   UNL A   1      41.304  26.414  27.470  1.00  0.00    -0.248 NA
ATOM     39  C   UNL A   1      39.989  24.832  28.540  1.00  0.00     0.031 C 
ATOM     40  C   UNL A   1      44.380  23.895  30.024  1.00  0.00     0.029 A 
ATOM     41  N   UNL A   1      43.520  25.935  30.078  1.00  0.00    -0.354 N 
ATOM     42  C   UNL A   1      39.997  26.890  27.563  1.00  0.00     0.074 A 
ATOM     43  C   UNL A   1      39.204  25.792  28.050  1.00  0.00     0.031 C 
ATOM     44  C   UNL A   1      44.815  24.472  31.164  1.00  0.00     0.029 A 
ATOM     45  C   UNL A   1      44.275  25.817  31.241  1.00  0.00     0.049 A 
ATOM     46  H   UNL A   1      43.115  26.782  29.784  1.00  0.00     0.167 HD
ATOM     47  C   UNL A   1      39.715  28.223  27.502  1.00  0.00     0.031 A 
ATOM     48  C   UNL A   1      44.423  26.739  32.224  1.00  0.00     0.031 A 
ATOM     49  C   UNL A   1      40.839  28.979  27.013  1.00  0.00     0.049 A 
ATOM     50  C   UNL A   1      44.061  28.055  31.654  1.00  0.00     0.074 A 
ATOM     51  C   UNL A   1      41.570  29.027  25.846  1.00  0.00     0.029 A 
ATOM     52  N   UNL A   1      41.588  29.606  27.976  1.00  0.00    -0.354 N 
ATOM     53  N   UNL A   1      44.744  28.649  30.718  1.00  0.00    -0.248 NA
ATOM     54  C   UNL A   1      42.721  28.575  31.872  1.00  0.00     0.031 C 
ATOM     55  C   UNL A   1      42.901  29.340  26.251  1.00  0.00     0.029 A 
ATOM     56  C   UNL A   1      42.911  29.529  27.634  1.00  0.00     0.049 A 
ATOM     57  H   UNL A   1      41.232  30.042  28.784  1.00  0.00     0.167 HD
ATOM     58  C   UNL A   1      43.796  29.303  29.951  1.00  0.00     0.074 A 
ATOM     59  C   UNL A   1      42.604  29.348  30.790  1.00  0.00     0.031 C 
ATOM     60  C   UNL A   1      43.983  29.481  28.610  1.00  0.00     0.031 A 
BRANCH  47  61
ATOM     61  C   UNL A   1      38.624  28.892  28.321  1.00  0.00    -0.014 A 
ATOM     62  C   UNL A   1      37.737  29.782  27.674  1.00  0.00     0.010 A 
ATOM     63  C   UNL A   1      38.623  28.917  29.730  1.00  0.00     0.010 A 
ATOM     64  C   UNL A   1      36.964  30.702  28.397  1.00  0.00     0.020 A 
ATOM     65  C   UNL A   1      37.824  29.798  30.463  1.00  0.00     0.020 A 
ATOM     66  C   UNL A   1      37.025  30.712  29.790  1.00  0.00     0.054 A 
BRANCH  66  67
ATOM     67  S   UNL A   1      36.105  31.964  30.716  1.00  0.00     0.124 S 
ATOM     68  O   UNL A   1      35.872  31.286  31.986  1.00  0.00    -0.237 OA
ATOM     69  O   UNL A   1      37.049  33.077  30.753  1.00  0.00    -0.237 OA
ATOM     70  O   UNL A   1      34.917  32.189  29.896  1.00  0.00    -0.744 OA
ENDBRANCH  66  67
ENDBRANCH  47  61
BRANCH  48  71
ATOM     71  C   UNL A   1      44.610  26.526  33.681  1.00  0.00    -0.014 A 
ATOM     72  C   UNL A   1      43.616  25.889  34.449  1.00  0.00     0.010 A 
ATOM     73  C   UNL A   1      45.885  26.684  34.261  1.00  0.00     0.010 A 
ATOM     74  C   UNL A   1      43.910  25.357  35.715  1.00  0.00     0.020 A 
ATOM     75  C   UNL A   1      46.183  26.167  35.527  1.00  0.00     0.020 A 
ATOM     76  C   UNL A   1      45.202  25.477  36.236  1.00  0.00     0.054 A 
BRANCH  76  77
ATOM     77  S   UNL A   1      45.628  24.607  37.775  1.00  0.00     0.124 S 
ATOM     78  O   UNL A   1      44.659  25.154  38.720  1.00  0.00    -0.237 OA
ATOM     79  O   UNL A   1      45.436  23.206  37.411  1.00  0.00    -0.237 OA
ATOM     80  O   UNL A   1      47.017  24.994  38.015  1.00  0.00    -0.744 OA
ENDBRANCH  76  77
ENDBRANCH  48  71
BRANCH  60  81
ATOM     81  C   UNL A   1      45.393  29.438  28.072  1.00  0.00    -0.014 A 
ATOM     82  C   UNL A   1      46.213  30.564  27.866  1.00  0.00     0.010 A 
ATOM     83  C   UNL A   1      45.937  28.162  27.836  1.00  0.00     0.010 A 
ATOM     84  C   UNL A   1      47.525  30.414  27.390  1.00  0.00     0.020 A 
ATOM     85  C   UNL A   1      47.248  28.004  27.387  1.00  0.00     0.020 A 
ATOM     86  C   UNL A   1      48.031  29.132  27.147  1.00  0.00     0.054 A 
BRANCH  86  87
ATOM     87  S   UNL A   1      49.725  28.938  26.529  1.00  0.00     0.124 S 
ATOM     88  O   UNL A   1      50.337  28.083  27.541  1.00  0.00    -0.237 OA
ATOM     89  O   UNL A   1      49.523  28.320  25.220  1.00  0.00    -0.237 OA
ATOM     90  O   UNL A   1      50.238  30.307  26.484  1.00  0.00    -0.744 OA
ENDBRANCH  86  87
ENDBRANCH  60  81
ENDBRANCH  34  35
ENDBRANCH  26  29
ENDBRANCH  24  25
ENDBRANCH   1  24
TORSDOF 18
ENDMDL
