MODEL 1
REMARK VINA RESULT:     -11.0      0.000      0.000
REMARK SMILES O=C(NCCCCNC(=O)c1ccc(S(=O)(=O)NCC[NH+]2CCCC2)c(F)c1)c1ccc(-c2c3nc(c(-c4ccc(S(=O)(=O)[O-])cc4)c4ccc([nH]4)c(-c4ccc(S(=O)(=O)[O-])cc4)c4nc(c(-c5ccc(S(=O)(=O)[O-])cc5)c5ccc2[nH]5)C=C4)C=C3)cc1
REMARK SMILES IDX 6 1 5 2 4 3 3 4 1 5 2 6 29 8 30 9 88 10 31 11 87 12 32 13
REMARK SMILES IDX 33 14 34 15 81 16 35 17 86 18 80 19 82 20 36 21 85 22 79 23
REMARK SMILES IDX 78 24 37 26 67 27 48 28 66 29 49 30 52 31 65 32 83 33 50 34
REMARK SMILES IDX 51 35 64 37 84 38 53 39 38 40 39 41 47 42 40 43 46 44 41 45
REMARK SMILES IDX 42 46 43 47 44 48 45 49 68 50 69 51 77 52 70 53 76 54 71 55
REMARK SMILES IDX 72 56 73 57 74 58 75 59 54 60 55 61 63 62 56 63 62 64 57 65
REMARK SMILES IDX 58 66 59 67 60 68 61 69 7 70 8 71 9 72 10 74 11 75 12 76
REMARK SMILES IDX 28 77 13 78 26 79 14 80 27 81 15 82 16 83 17 84 18 85 19 87
REMARK SMILES IDX 20 88 21 89 22 90 25 91 23 93 24 94
REMARK H PARENT 3 7 82 25 52 36 8 73 18 86 21 92
REMARK Flexibility Score: inf
ROOT
ATOM      1  C   UNL A   1      32.868  28.836  24.066  1.00  0.00     0.023 C 
ENDROOT
BRANCH   1   2
ATOM      2  C   UNL A   1      32.942  28.210  25.458  1.00  0.00     0.023 C 
BRANCH   2   3
ATOM      3  C   UNL A   1      34.080  28.701  26.344  1.00  0.00     0.116 C 
BRANCH   3   4
ATOM      4  N   UNL A   1      33.763  29.933  27.045  1.00  0.00    -0.352 N 
ATOM      5  O   UNL A   1      34.032  31.585  28.550  1.00  0.00    -0.269 OA
ATOM      6  C   UNL A   1      34.523  30.630  27.956  1.00  0.00     0.251 C 
ATOM      7  H   UNL A   1      32.883  30.322  26.841  1.00  0.00     0.163 HD
BRANCH   6   8
ATOM      8  C   UNL A   1      35.916  30.215  28.237  1.00  0.00     0.039 A 
ATOM      9  C   UNL A   1      36.922  30.372  27.279  1.00  0.00     0.014 A 
ATOM     10  C   UNL A   1      36.225  29.685  29.493  1.00  0.00     0.014 A 
ATOM     11  C   UNL A   1      38.207  29.901  27.537  1.00  0.00     0.010 A 
ATOM     12  C   UNL A   1      37.531  29.271  29.775  1.00  0.00     0.010 A 
ATOM     13  C   UNL A   1      38.528  29.360  28.793  1.00  0.00    -0.014 A 
BRANCH  13  14
ATOM     14  C   UNL A   1      39.936  28.994  29.090  1.00  0.00     0.031 A 
ATOM     15  C   UNL A   1      40.497  27.655  28.699  1.00  0.00     0.074 A 
ATOM     16  C   UNL A   1      40.711  29.897  29.722  1.00  0.00     0.049 A 
ATOM     17  N   UNL A   1      41.710  27.195  28.875  1.00  0.00    -0.248 NA
ATOM     18  C   UNL A   1      39.588  26.710  28.033  1.00  0.00     0.031 C 
ATOM     19  C   UNL A   1      40.267  31.220  30.173  1.00  0.00     0.029 A 
ATOM     20  N   UNL A   1      42.031  29.848  30.088  1.00  0.00    -0.354 N 
ATOM     21  C   UNL A   1      41.708  25.904  28.361  1.00  0.00     0.074 A 
ATOM     22  C   UNL A   1      40.368  25.647  27.874  1.00  0.00     0.031 C 
ATOM     23  C   UNL A   1      41.303  31.866  30.728  1.00  0.00     0.029 A 
ATOM     24  C   UNL A   1      42.469  30.990  30.717  1.00  0.00     0.049 A 
ATOM     25  H   UNL A   1      42.610  29.070  29.916  1.00  0.00     0.167 HD
ATOM     26  C   UNL A   1      42.731  25.017  28.300  1.00  0.00     0.031 A 
ATOM     27  C   UNL A   1      43.667  31.294  31.247  1.00  0.00     0.031 A 
ATOM     28  C   UNL A   1      44.066  25.284  28.772  1.00  0.00     0.049 A 
ATOM     29  C   UNL A   1      44.776  30.285  31.176  1.00  0.00     0.074 A 
ATOM     30  C   UNL A   1      45.184  24.472  28.688  1.00  0.00     0.029 A 
ATOM     31  N   UNL A   1      44.460  26.439  29.426  1.00  0.00    -0.354 N 
ATOM     32  N   UNL A   1      44.767  29.095  30.627  1.00  0.00    -0.248 NA
ATOM     33  C   UNL A   1      46.051  30.659  31.803  1.00  0.00     0.031 C 
ATOM     34  C   UNL A   1      46.245  25.118  29.332  1.00  0.00     0.029 A 
ATOM     35  C   UNL A   1      45.796  26.348  29.782  1.00  0.00     0.049 A 
ATOM     36  H   UNL A   1      43.878  27.212  29.610  1.00  0.00     0.167 HD
ATOM     37  C   UNL A   1      46.036  28.575  30.844  1.00  0.00     0.074 A 
ATOM     38  C   UNL A   1      46.793  29.590  31.548  1.00  0.00     0.031 C 
ATOM     39  C   UNL A   1      46.527  27.360  30.499  1.00  0.00     0.031 A 
BRANCH  26  40
ATOM     40  C   UNL A   1      42.458  23.659  27.715  1.00  0.00    -0.014 A 
ATOM     41  C   UNL A   1      42.740  23.381  26.367  1.00  0.00     0.010 A 
ATOM     42  C   UNL A   1      42.008  22.620  28.551  1.00  0.00     0.010 A 
ATOM     43  C   UNL A   1      42.566  22.089  25.861  1.00  0.00     0.020 A 
ATOM     44  C   UNL A   1      41.847  21.324  28.053  1.00  0.00     0.020 A 
ATOM     45  C   UNL A   1      42.120  21.068  26.708  1.00  0.00     0.054 A 
BRANCH  45  46
ATOM     46  S   UNL A   1      41.956  19.388  26.041  1.00  0.00     0.124 S 
ATOM     47  O   UNL A   1      42.469  18.577  27.141  1.00  0.00    -0.237 OA
ATOM     48  O   UNL A   1      40.519  19.277  25.797  1.00  0.00    -0.237 OA
ATOM     49  O   UNL A   1      42.787  19.410  24.840  1.00  0.00    -0.744 OA
ENDBRANCH  45  46
ENDBRANCH  26  40
BRANCH  27  50
ATOM     50  C   UNL A   1      43.862  32.600  31.926  1.00  0.00    -0.014 A 
ATOM     51  C   UNL A   1      44.348  33.712  31.219  1.00  0.00     0.010 A 
ATOM     52  C   UNL A   1      43.544  32.737  33.290  1.00  0.00     0.010 A 
ATOM     53  C   UNL A   1      44.528  34.937  31.868  1.00  0.00     0.020 A 
ATOM     54  C   UNL A   1      43.699  33.964  33.935  1.00  0.00     0.020 A 
ATOM     55  C   UNL A   1      44.204  35.055  33.223  1.00  0.00     0.054 A 
BRANCH  55  56
ATOM     56  S   UNL A   1      44.391  36.662  34.044  1.00  0.00     0.124 S 
ATOM     57  O   UNL A   1      43.003  37.042  34.282  1.00  0.00    -0.237 OA
ATOM     58  O   UNL A   1      45.170  36.327  35.234  1.00  0.00    -0.237 OA
ATOM     59  O   UNL A   1      45.103  37.466  33.052  1.00  0.00    -0.744 OA
ENDBRANCH  55  56
ENDBRANCH  27  50
BRANCH  39  60
ATOM     60  C   UNL A   1      47.947  27.065  30.889  1.00  0.00    -0.014 A 
ATOM     61  C   UNL A   1      49.013  27.478  30.070  1.00  0.00     0.010 A 
ATOM     62  C   UNL A   1      48.220  26.396  32.094  1.00  0.00     0.010 A 
ATOM     63  C   UNL A   1      50.331  27.201  30.438  1.00  0.00     0.020 A 
ATOM     64  C   UNL A   1      49.539  26.135  32.475  1.00  0.00     0.020 A 
ATOM     65  C   UNL A   1      50.586  26.526  31.636  1.00  0.00     0.054 A 
BRANCH  65  66
ATOM     66  S   UNL A   1      52.306  26.206  32.115  1.00  0.00     0.124 S 
ATOM     67  O   UNL A   1      52.933  25.936  30.824  1.00  0.00    -0.237 OA
ATOM     68  O   UNL A   1      52.704  27.457  32.757  1.00  0.00    -0.237 OA
ATOM     69  O   UNL A   1      52.206  25.058  33.013  1.00  0.00    -0.744 OA
ENDBRANCH  65  66
ENDBRANCH  39  60
ENDBRANCH  13  14
ENDBRANCH   6   8
ENDBRANCH   3   4
ENDBRANCH   2   3
ENDBRANCH   1   2
BRANCH   1  70
ATOM     70  C   UNL A   1      34.046  28.544  23.139  1.00  0.00     0.116 C 
BRANCH  70  71
ATOM     71  N   UNL A   1      33.712  27.645  22.043  1.00  0.00    -0.352 N 
ATOM     72  C   UNL A   1      33.382  26.313  22.052  1.00  0.00     0.251 C 
ATOM     73  H   UNL A   1      33.725  28.061  21.151  1.00  0.00     0.163 HD
ATOM     74  O   UNL A   1      33.230  25.707  20.996  1.00  0.00    -0.269 OA
BRANCH  72  75
ATOM     75  C   UNL A   1      33.260  25.575  23.327  1.00  0.00     0.042 A 
ATOM     76  C   UNL A   1      34.380  25.214  24.078  1.00  0.00     0.015 A 
ATOM     77  C   UNL A   1      31.978  25.239  23.774  1.00  0.00     0.054 A 
ATOM     78  C   UNL A   1      34.226  24.375  25.182  1.00  0.00     0.026 A 
ATOM     79  C   UNL A   1      31.827  24.437  24.904  1.00  0.00     0.144 A 
ATOM     80  C   UNL A   1      32.945  23.953  25.568  1.00  0.00     0.118 A 
ATOM     81  F   UNL A   1      30.582  24.121  25.279  1.00  0.00    -0.205 F 
BRANCH  80  82
ATOM     82  S   UNL A   1      32.864  22.671  26.775  1.00  0.00     0.243 S 
ATOM     83  O   UNL A   1      34.227  22.417  27.189  1.00  0.00    -0.207 OA
ATOM     84  O   UNL A   1      31.853  23.065  27.733  1.00  0.00    -0.207 OA
BRANCH  82  85
ATOM     85  N   UNL A   1      32.293  21.289  26.033  1.00  0.00    -0.205 NA
ATOM     86  H   UNL A   1      31.960  21.573  25.112  1.00  0.00     0.141 HD
BRANCH  85  87
ATOM     87  C   UNL A   1      33.155  20.120  25.820  1.00  0.00     0.160 C 
BRANCH  87  88
ATOM     88  C   UNL A   1      33.145  19.573  24.384  1.00  0.00     0.278 C 
BRANCH  88  89
ATOM     89  N   UNL A   1      32.544  18.243  24.164  1.00  0.00    -0.334 N 
ATOM     90  C   UNL A   1      32.981  17.320  25.229  1.00  0.00     0.262 C 
ATOM     91  C   UNL A   1      32.935  17.584  22.913  1.00  0.00     0.262 C 
ATOM     92  H   UNL A   1      31.540  18.424  24.144  1.00  0.00     0.348 HD
ATOM     93  C   UNL A   1      34.293  16.741  24.726  1.00  0.00     0.067 C 
ATOM     94  C   UNL A   1      34.085  16.636  23.227  1.00  0.00     0.067 C 
ENDBRANCH  88  89
ENDBRANCH  87  88
ENDBRANCH  85  87
ENDBRANCH  82  85
ENDBRANCH  80  82
ENDBRANCH  72  75
ENDBRANCH  70  71
ENDBRANCH   1  70
TORSDOF 19
ENDMDL
MODEL 2
REMARK VINA RESULT:     -11.0      1.180      8.229
REMARK SMILES O=C(NCCCCNC(=O)c1ccc(S(=O)(=O)NCC[NH+]2CCCC2)c(F)c1)c1ccc(-c2c3nc(c(-c4ccc(S(=O)(=O)[O-])cc4)c4ccc([nH]4)c(-c4ccc(S(=O)(=O)[O-])cc4)c4nc(c(-c5ccc(S(=O)(=O)[O-])cc5)c5ccc2[nH]5)C=C4)C=C3)cc1
REMARK SMILES IDX 6 1 5 2 4 3 3 4 1 5 2 6 29 8 30 9 88 10 31 11 87 12 32 13
REMARK SMILES IDX 33 14 34 15 81 16 35 17 86 18 80 19 82 20 36 21 85 22 79 23
REMARK SMILES IDX 78 24 37 26 67 27 48 28 66 29 49 30 52 31 65 32 83 33 50 34
REMARK SMILES IDX 51 35 64 37 84 38 53 39 38 40 39 41 47 42 40 43 46 44 41 45
REMARK SMILES IDX 42 46 43 47 44 48 45 49 68 50 69 51 77 52 70 53 76 54 71 55
REMARK SMILES IDX 72 56 73 57 74 58 75 59 54 60 55 61 63 62 56 63 62 64 57 65
REMARK SMILES IDX 58 66 59 67 60 68 61 69 7 70 8 71 9 72 10 74 11 75 12 76
REMARK SMILES IDX 28 77 13 78 26 79 14 80 27 81 15 82 16 83 17 84 18 85 19 87
REMARK SMILES IDX 20 88 21 89 22 90 25 91 23 93 24 94
REMARK H PARENT 3 7 82 25 52 36 8 73 18 86 21 92
REMARK Flexibility Score: inf
ROOT
ATOM      1  C   UNL A   1      33.465  28.750  24.405  1.00  0.00     0.023 C 
ENDROOT
BRANCH   1   2
ATOM      2  C   UNL A   1      33.556  27.580  25.384  1.00  0.00     0.023 C 
BRANCH   2   3
ATOM      3  C   UNL A   1      33.637  27.956  26.859  1.00  0.00     0.116 C 
BRANCH   3   4
ATOM      4  N   UNL A   1      33.342  29.357  27.104  1.00  0.00    -0.352 N 
ATOM      5  O   UNL A   1      33.660  31.425  27.936  1.00  0.00    -0.269 OA
ATOM      6  C   UNL A   1      34.133  30.319  27.689  1.00  0.00     0.251 C 
ATOM      7  H   UNL A   1      32.452  29.660  26.811  1.00  0.00     0.163 HD
BRANCH   6   8
ATOM      8  C   UNL A   1      35.538  30.014  28.042  1.00  0.00     0.039 A 
ATOM      9  C   UNL A   1      36.559  30.119  27.093  1.00  0.00     0.014 A 
ATOM     10  C   UNL A   1      35.841  29.643  29.356  1.00  0.00     0.014 A 
ATOM     11  C   UNL A   1      37.859  29.750  27.428  1.00  0.00     0.010 A 
ATOM     12  C   UNL A   1      37.159  29.335  29.708  1.00  0.00     0.010 A 
ATOM     13  C   UNL A   1      38.175  29.369  28.742  1.00  0.00    -0.014 A 
BRANCH  13  14
ATOM     14  C   UNL A   1      39.591  29.115  29.107  1.00  0.00     0.031 A 
ATOM     15  C   UNL A   1      40.427  30.162  29.789  1.00  0.00     0.074 A 
ATOM     16  C   UNL A   1      40.119  27.909  28.815  1.00  0.00     0.049 A 
ATOM     17  N   UNL A   1      41.672  30.084  30.184  1.00  0.00    -0.248 NA
ATOM     18  C   UNL A   1      39.793  31.463  30.056  1.00  0.00     0.031 C 
ATOM     19  C   UNL A   1      39.411  26.822  28.131  1.00  0.00     0.029 A 
ATOM     20  N   UNL A   1      41.365  27.391  29.060  1.00  0.00    -0.354 N 
ATOM     21  C   UNL A   1      41.979  31.325  30.730  1.00  0.00     0.074 A 
ATOM     22  C   UNL A   1      40.792  32.145  30.606  1.00  0.00     0.031 C 
ATOM     23  C   UNL A   1      40.223  25.759  28.037  1.00  0.00     0.029 A 
ATOM     24  C   UNL A   1      41.520  26.101  28.608  1.00  0.00     0.049 A 
ATOM     25  H   UNL A   1      42.079  27.894  29.515  1.00  0.00     0.167 HD
ATOM     26  C   UNL A   1      43.144  31.738  31.285  1.00  0.00     0.031 A 
ATOM     27  C   UNL A   1      42.591  25.288  28.630  1.00  0.00     0.031 A 
ATOM     28  C   UNL A   1      44.318  30.913  31.420  1.00  0.00     0.049 A 
ATOM     29  C   UNL A   1      43.871  25.781  29.238  1.00  0.00     0.074 A 
ATOM     30  C   UNL A   1      45.520  31.225  32.032  1.00  0.00     0.029 A 
ATOM     31  N   UNL A   1      44.443  29.625  30.927  1.00  0.00    -0.354 N 
ATOM     32  N   UNL A   1      44.117  26.937  29.806  1.00  0.00    -0.248 NA
ATOM     33  C   UNL A   1      45.018  24.863  29.202  1.00  0.00     0.031 C 
ATOM     34  C   UNL A   1      46.389  30.141  31.868  1.00  0.00     0.029 A 
ATOM     35  C   UNL A   1      45.714  29.141  31.190  1.00  0.00     0.049 A 
ATOM     36  H   UNL A   1      43.734  29.127  30.460  1.00  0.00     0.167 HD
ATOM     37  C   UNL A   1      45.450  26.886  30.193  1.00  0.00     0.074 A 
ATOM     38  C   UNL A   1      45.948  25.578  29.821  1.00  0.00     0.031 C 
ATOM     39  C   UNL A   1      46.197  27.844  30.795  1.00  0.00     0.031 A 
BRANCH  26  40
ATOM     40  C   UNL A   1      43.229  33.155  31.781  1.00  0.00    -0.014 A 
ATOM     41  C   UNL A   1      42.925  33.475  33.115  1.00  0.00     0.010 A 
ATOM     42  C   UNL A   1      43.716  34.163  30.928  1.00  0.00     0.010 A 
ATOM     43  C   UNL A   1      43.095  34.781  33.585  1.00  0.00     0.020 A 
ATOM     44  C   UNL A   1      43.901  35.466  31.398  1.00  0.00     0.020 A 
ATOM     45  C   UNL A   1      43.583  35.769  32.723  1.00  0.00     0.054 A 
BRANCH  45  46
ATOM     46  S   UNL A   1      43.848  37.443  33.372  1.00  0.00     0.124 S 
ATOM     47  O   UNL A   1      45.084  37.278  34.132  1.00  0.00    -0.237 OA
ATOM     48  O   UNL A   1      43.962  38.245  32.157  1.00  0.00    -0.237 OA
ATOM     49  O   UNL A   1      42.652  37.697  34.172  1.00  0.00    -0.744 OA
ENDBRANCH  45  46
ENDBRANCH  26  40
BRANCH  27  50
ATOM     50  C   UNL A   1      42.505  23.938  28.018  1.00  0.00    -0.014 A 
ATOM     51  C   UNL A   1      42.210  22.811  28.804  1.00  0.00     0.010 A 
ATOM     52  C   UNL A   1      42.703  23.780  26.635  1.00  0.00     0.010 A 
ATOM     53  C   UNL A   1      42.130  21.545  28.217  1.00  0.00     0.020 A 
ATOM     54  C   UNL A   1      42.600  22.521  26.042  1.00  0.00     0.020 A 
ATOM     55  C   UNL A   1      42.328  21.407  26.840  1.00  0.00     0.054 A 
BRANCH  55  56
ATOM     56  S   UNL A   1      42.171  19.767  26.081  1.00  0.00     0.124 S 
ATOM     57  O   UNL A   1      40.761  19.744  25.704  1.00  0.00    -0.237 OA
ATOM     58  O   UNL A   1      43.122  19.832  24.973  1.00  0.00    -0.237 OA
ATOM     59  O   UNL A   1      42.550  18.858  27.161  1.00  0.00    -0.744 OA
ENDBRANCH  55  56
ENDBRANCH  27  50
BRANCH  39  60
ATOM     60  C   UNL A   1      47.634  27.507  31.077  1.00  0.00    -0.014 A 
ATOM     61  C   UNL A   1      47.996  26.871  32.278  1.00  0.00     0.010 A 
ATOM     62  C   UNL A   1      48.624  27.802  30.125  1.00  0.00     0.010 A 
ATOM     63  C   UNL A   1      49.333  26.561  32.534  1.00  0.00     0.020 A 
ATOM     64  C   UNL A   1      49.960  27.475  30.370  1.00  0.00     0.020 A 
ATOM     65  C   UNL A   1      50.308  26.869  31.581  1.00  0.00     0.054 A 
BRANCH  65  66
ATOM     66  S   UNL A   1      52.035  26.427  31.917  1.00  0.00     0.124 S 
ATOM     67  O   UNL A   1      52.428  27.453  32.879  1.00  0.00    -0.237 OA
ATOM     68  O   UNL A   1      51.925  25.072  32.452  1.00  0.00    -0.237 OA
ATOM     69  O   UNL A   1      52.675  26.521  30.607  1.00  0.00    -0.744 OA
ENDBRANCH  65  66
ENDBRANCH  39  60
ENDBRANCH  13  14
ENDBRANCH   6   8
ENDBRANCH   3   4
ENDBRANCH   2   3
ENDBRANCH   1   2
BRANCH   1  70
ATOM     70  C   UNL A   1      33.224  28.381  22.943  1.00  0.00     0.116 C 
BRANCH  70  71
ATOM     71  N   UNL A   1      31.886  28.711  22.475  1.00  0.00    -0.352 N 
ATOM     72  C   UNL A   1      30.692  28.056  22.651  1.00  0.00     0.251 C 
ATOM     73  H   UNL A   1      31.828  29.539  21.945  1.00  0.00     0.163 HD
ATOM     74  O   UNL A   1      29.680  28.453  22.083  1.00  0.00    -0.269 OA
BRANCH  72  75
ATOM     75  C   UNL A   1      30.619  26.834  23.479  1.00  0.00     0.042 A 
ATOM     76  C   UNL A   1      30.208  26.873  24.813  1.00  0.00     0.015 A 
ATOM     77  C   UNL A   1      30.978  25.616  22.892  1.00  0.00     0.054 A 
ATOM     78  C   UNL A   1      30.316  25.727  25.599  1.00  0.00     0.026 A 
ATOM     79  C   UNL A   1      31.043  24.464  23.673  1.00  0.00     0.144 A 
ATOM     80  C   UNL A   1      30.776  24.529  25.032  1.00  0.00     0.118 A 
ATOM     81  F   UNL A   1      31.415  23.327  23.072  1.00  0.00    -0.205 F 
BRANCH  80  82
ATOM     82  S   UNL A   1      31.164  23.222  26.150  1.00  0.00     0.243 S 
ATOM     83  O   UNL A   1      31.713  23.848  27.333  1.00  0.00    -0.207 OA
ATOM     84  O   UNL A   1      29.990  22.379  26.227  1.00  0.00    -0.207 OA
BRANCH  82  85
ATOM     85  N   UNL A   1      32.366  22.287  25.466  1.00  0.00    -0.205 NA
ATOM     86  H   UNL A   1      33.190  22.399  26.058  1.00  0.00     0.141 HD
BRANCH  85  87
ATOM     87  C   UNL A   1      32.194  20.843  25.264  1.00  0.00     0.160 C 
BRANCH  87  88
ATOM     88  C   UNL A   1      33.423  20.130  24.681  1.00  0.00     0.278 C 
BRANCH  88  89
ATOM     89  N   UNL A   1      33.846  18.867  25.318  1.00  0.00    -0.334 N 
ATOM     90  C   UNL A   1      34.775  18.148  24.424  1.00  0.00     0.262 C 
ATOM     91  C   UNL A   1      32.765  17.912  25.582  1.00  0.00     0.262 C 
ATOM     92  H   UNL A   1      34.254  19.160  26.206  1.00  0.00     0.348 HD
ATOM     93  C   UNL A   1      33.877  17.319  23.519  1.00  0.00     0.067 C 
ATOM     94  C   UNL A   1      32.728  16.920  24.425  1.00  0.00     0.067 C 
ENDBRANCH  88  89
ENDBRANCH  87  88
ENDBRANCH  85  87
ENDBRANCH  82  85
ENDBRANCH  80  82
ENDBRANCH  72  75
ENDBRANCH  70  71
ENDBRANCH   1  70
TORSDOF 19
ENDMDL
MODEL 3
REMARK VINA RESULT:     -10.9      4.358      5.690
REMARK SMILES O=C(NCCCCNC(=O)c1ccc(S(=O)(=O)NCC[NH+]2CCCC2)c(F)c1)c1ccc(-c2c3nc(c(-c4ccc(S(=O)(=O)[O-])cc4)c4ccc([nH]4)c(-c4ccc(S(=O)(=O)[O-])cc4)c4nc(c(-c5ccc(S(=O)(=O)[O-])cc5)c5ccc2[nH]5)C=C4)C=C3)cc1
REMARK SMILES IDX 6 1 5 2 4 3 3 4 1 5 2 6 29 8 30 9 88 10 31 11 87 12 32 13
REMARK SMILES IDX 33 14 34 15 81 16 35 17 86 18 80 19 82 20 36 21 85 22 79 23
REMARK SMILES IDX 78 24 37 26 67 27 48 28 66 29 49 30 52 31 65 32 83 33 50 34
REMARK SMILES IDX 51 35 64 37 84 38 53 39 38 40 39 41 47 42 40 43 46 44 41 45
REMARK SMILES IDX 42 46 43 47 44 48 45 49 68 50 69 51 77 52 70 53 76 54 71 55
REMARK SMILES IDX 72 56 73 57 74 58 75 59 54 60 55 61 63 62 56 63 62 64 57 65
REMARK SMILES IDX 58 66 59 67 60 68 61 69 7 70 8 71 9 72 10 74 11 75 12 76
REMARK SMILES IDX 28 77 13 78 26 79 14 80 27 81 15 82 16 83 17 84 18 85 19 87
REMARK SMILES IDX 20 88 21 89 22 90 25 91 23 93 24 94
REMARK H PARENT 3 7 82 25 52 36 8 73 18 86 21 92
REMARK Flexibility Score: inf
ROOT
ATOM      1  C   UNL A   1      31.928  30.437  26.778  1.00  0.00     0.023 C 
ENDROOT
BRANCH   1   2
ATOM      2  C   UNL A   1      31.818  31.957  26.893  1.00  0.00     0.023 C 
BRANCH   2   3
ATOM      3  C   UNL A   1      33.083  32.679  27.341  1.00  0.00     0.116 C 
BRANCH   3   4
ATOM      4  N   UNL A   1      32.837  34.048  27.758  1.00  0.00    -0.352 N 
ATOM      5  O   UNL A   1      32.982  35.868  29.075  1.00  0.00    -0.269 OA
ATOM      6  C   UNL A   1      33.416  34.757  28.785  1.00  0.00     0.251 C 
ATOM      7  H   UNL A   1      32.163  34.536  27.233  1.00  0.00     0.163 HD
BRANCH   6   8
ATOM      8  C   UNL A   1      34.540  34.173  29.553  1.00  0.00     0.039 A 
ATOM      9  C   UNL A   1      34.308  33.389  30.686  1.00  0.00     0.014 A 
ATOM     10  C   UNL A   1      35.849  34.395  29.112  1.00  0.00     0.014 A 
ATOM     11  C   UNL A   1      35.382  32.918  31.437  1.00  0.00     0.010 A 
ATOM     12  C   UNL A   1      36.926  33.867  29.832  1.00  0.00     0.010 A 
ATOM     13  C   UNL A   1      36.701  33.139  31.009  1.00  0.00    -0.014 A 
BRANCH  13  14
ATOM     14  C   UNL A   1      37.823  32.510  31.751  1.00  0.00     0.031 A 
ATOM     15  C   UNL A   1      38.569  31.331  31.192  1.00  0.00     0.074 A 
ATOM     16  C   UNL A   1      38.165  33.026  32.948  1.00  0.00     0.049 A 
ATOM     17  N   UNL A   1      39.581  30.683  31.712  1.00  0.00    -0.248 NA
ATOM     18  C   UNL A   1      38.126  30.806  29.891  1.00  0.00     0.031 C 
ATOM     19  C   UNL A   1      37.495  34.154  33.603  1.00  0.00     0.029 A 
ATOM     20  N   UNL A   1      39.162  32.679  33.823  1.00  0.00    -0.354 N 
ATOM     21  C   UNL A   1      39.885  29.665  30.817  1.00  0.00     0.074 A 
ATOM     22  C   UNL A   1      38.944  29.772  29.722  1.00  0.00     0.031 C 
ATOM     23  C   UNL A   1      38.117  34.423  34.760  1.00  0.00     0.029 A 
ATOM     24  C   UNL A   1      39.196  33.461  34.953  1.00  0.00     0.049 A 
ATOM     25  H   UNL A   1      39.793  31.941  33.658  1.00  0.00     0.167 HD
ATOM     26  C   UNL A   1      40.862  28.729  30.902  1.00  0.00     0.031 A 
ATOM     27  C   UNL A   1      39.990  33.402  36.037  1.00  0.00     0.031 A 
ATOM     28  C   UNL A   1      41.806  28.637  31.987  1.00  0.00     0.049 A 
ATOM     29  C   UNL A   1      41.053  32.345  36.108  1.00  0.00     0.074 A 
ATOM     30  C   UNL A   1      42.874  27.766  32.123  1.00  0.00     0.029 A 
ATOM     31  N   UNL A   1      41.789  29.429  33.123  1.00  0.00    -0.354 N 
ATOM     32  N   UNL A   1      41.363  31.433  35.218  1.00  0.00    -0.248 NA
ATOM     33  C   UNL A   1      41.866  32.305  37.330  1.00  0.00     0.031 C 
ATOM     34  C   UNL A   1      43.475  28.002  33.364  1.00  0.00     0.029 A 
ATOM     35  C   UNL A   1      42.807  29.044  33.982  1.00  0.00     0.049 A 
ATOM     36  H   UNL A   1      41.150  30.158  33.295  1.00  0.00     0.167 HD
ATOM     37  C   UNL A   1      42.408  30.708  35.776  1.00  0.00     0.074 A 
ATOM     38  C   UNL A   1      42.695  31.304  37.064  1.00  0.00     0.031 C 
ATOM     39  C   UNL A   1      43.064  29.637  35.267  1.00  0.00     0.031 A 
BRANCH  26  40
ATOM     40  C   UNL A   1      40.964  27.709  29.802  1.00  0.00    -0.014 A 
ATOM     41  C   UNL A   1      39.900  26.834  29.525  1.00  0.00     0.010 A 
ATOM     42  C   UNL A   1      42.098  27.696  28.970  1.00  0.00     0.010 A 
ATOM     43  C   UNL A   1      39.974  25.953  28.442  1.00  0.00     0.020 A 
ATOM     44  C   UNL A   1      42.170  26.827  27.877  1.00  0.00     0.020 A 
ATOM     45  C   UNL A   1      41.109  25.955  27.624  1.00  0.00     0.054 A 
BRANCH  45  46
ATOM     46  S   UNL A   1      41.157  24.842  26.191  1.00  0.00     0.124 S 
ATOM     47  O   UNL A   1      42.403  24.114  26.418  1.00  0.00    -0.237 OA
ATOM     48  O   UNL A   1      39.935  24.058  26.351  1.00  0.00    -0.237 OA
ATOM     49  O   UNL A   1      41.164  25.751  25.047  1.00  0.00    -0.744 OA
ENDBRANCH  45  46
ENDBRANCH  26  40
BRANCH  27  50
ATOM     50  C   UNL A   1      39.778  34.351  37.160  1.00  0.00    -0.014 A 
ATOM     51  C   UNL A   1      39.044  33.968  38.295  1.00  0.00     0.010 A 
ATOM     52  C   UNL A   1      40.329  35.643  37.100  1.00  0.00     0.010 A 
ATOM     53  C   UNL A   1      38.851  34.869  39.346  1.00  0.00     0.020 A 
ATOM     54  C   UNL A   1      40.160  36.537  38.158  1.00  0.00     0.020 A 
ATOM     55  C   UNL A   1      39.408  36.149  39.270  1.00  0.00     0.054 A 
BRANCH  55  56
ATOM     56  S   UNL A   1      39.196  37.293  40.662  1.00  0.00     0.124 S 
ATOM     57  O   UNL A   1      38.350  38.327  40.075  1.00  0.00    -0.237 OA
ATOM     58  O   UNL A   1      38.560  36.454  41.675  1.00  0.00    -0.237 OA
ATOM     59  O   UNL A   1      40.564  37.701  40.975  1.00  0.00    -0.744 OA
ENDBRANCH  55  56
ENDBRANCH  27  50
BRANCH  39  60
ATOM     60  C   UNL A   1      44.151  29.041  36.117  1.00  0.00    -0.014 A 
ATOM     61  C   UNL A   1      45.458  29.557  36.071  1.00  0.00     0.010 A 
ATOM     62  C   UNL A   1      43.858  27.977  36.986  1.00  0.00     0.010 A 
ATOM     63  C   UNL A   1      46.463  28.999  36.863  1.00  0.00     0.020 A 
ATOM     64  C   UNL A   1      44.857  27.429  37.794  1.00  0.00     0.020 A 
ATOM     65  C   UNL A   1      46.158  27.934  37.716  1.00  0.00     0.054 A 
BRANCH  65  66
ATOM     66  S   UNL A   1      47.469  27.244  38.763  1.00  0.00     0.124 S 
ATOM     67  O   UNL A   1      48.063  26.242  37.882  1.00  0.00    -0.237 OA
ATOM     68  O   UNL A   1      48.306  28.408  39.045  1.00  0.00    -0.237 OA
ATOM     69  O   UNL A   1      46.746  26.712  39.916  1.00  0.00    -0.744 OA
ENDBRANCH  65  66
ENDBRANCH  39  60
ENDBRANCH  13  14
ENDBRANCH   6   8
ENDBRANCH   3   4
ENDBRANCH   2   3
ENDBRANCH   1   2
BRANCH   1  70
ATOM     70  C   UNL A   1      33.321  29.888  26.477  1.00  0.00     0.116 C 
BRANCH  70  71
ATOM     71  N   UNL A   1      33.514  29.534  25.078  1.00  0.00    -0.352 N 
ATOM     72  C   UNL A   1      33.337  28.338  24.428  1.00  0.00     0.251 C 
ATOM     73  H   UNL A   1      33.822  30.273  24.505  1.00  0.00     0.163 HD
ATOM     74  O   UNL A   1      33.654  28.223  23.249  1.00  0.00    -0.269 OA
BRANCH  72  75
ATOM     75  C   UNL A   1      32.815  27.158  25.150  1.00  0.00     0.042 A 
ATOM     76  C   UNL A   1      33.665  26.182  25.673  1.00  0.00     0.015 A 
ATOM     77  C   UNL A   1      31.430  27.035  25.299  1.00  0.00     0.054 A 
ATOM     78  C   UNL A   1      33.123  25.007  26.195  1.00  0.00     0.026 A 
ATOM     79  C   UNL A   1      30.894  25.878  25.861  1.00  0.00     0.144 A 
ATOM     80  C   UNL A   1      31.730  24.842  26.248  1.00  0.00     0.118 A 
ATOM     81  F   UNL A   1      29.562  25.796  25.960  1.00  0.00    -0.205 F 
BRANCH  80  82
ATOM     82  S   UNL A   1      31.140  23.227  26.639  1.00  0.00     0.243 S 
ATOM     83  O   UNL A   1      29.986  23.412  27.492  1.00  0.00    -0.207 OA
ATOM     84  O   UNL A   1      31.036  22.509  25.386  1.00  0.00    -0.207 OA
BRANCH  82  85
ATOM     85  N   UNL A   1      32.311  22.443  27.533  1.00  0.00    -0.205 NA
ATOM     86  H   UNL A   1      31.825  21.975  28.298  1.00  0.00     0.141 HD
BRANCH  85  87
ATOM     87  C   UNL A   1      33.194  21.438  26.927  1.00  0.00     0.160 C 
BRANCH  87  88
ATOM     88  C   UNL A   1      34.679  21.833  26.890  1.00  0.00     0.278 C 
BRANCH  88  89
ATOM     89  N   UNL A   1      35.465  21.422  25.711  1.00  0.00    -0.334 N 
ATOM     90  C   UNL A   1      36.732  22.179  25.672  1.00  0.00     0.262 C 
ATOM     91  C   UNL A   1      34.830  21.689  24.416  1.00  0.00     0.262 C 
ATOM     92  H   UNL A   1      35.577  20.414  25.824  1.00  0.00     0.348 HD
ATOM     93  C   UNL A   1      36.395  23.459  24.925  1.00  0.00     0.067 C 
ATOM     94  C   UNL A   1      35.375  23.013  23.895  1.00  0.00     0.067 C 
ENDBRANCH  88  89
ENDBRANCH  87  88
ENDBRANCH  85  87
ENDBRANCH  82  85
ENDBRANCH  80  82
ENDBRANCH  72  75
ENDBRANCH  70  71
ENDBRANCH   1  70
TORSDOF 19
ENDMDL
