MODEL 1
REMARK VINA RESULT:      -8.4      0.000      0.000
REMARK SMILES CC[C@@](C)(NC(=O)CCc1ccccc1Cl)C(=O)NCCCCNC(=O)c1ccc(-c2c3nc(c(-c4ccc(S(=O)(=O)[O-])cc4)c4ccc([nH]4)c(-c4ccc(S(=O)(=O)[O-])cc4)c4nc(c(-c5ccc(S(=O)(=O)[O-])cc5)c5ccc2[nH]5)C=C4)C=C3)cc1
REMARK SMILES IDX 21 1 20 2 19 3 17 4 18 5 3 7 4 8 2 9 1 10 5 11 6 12 7 14
REMARK SMILES IDX 8 15 9 16 10 17 11 18 15 19 12 20 14 21 16 22 13 23 22 24
REMARK SMILES IDX 23 25 24 26 25 27 26 29 27 30 28 31 86 32 29 33 85 34 30 35
REMARK SMILES IDX 31 36 32 37 79 38 33 39 84 40 78 41 80 42 34 43 83 44 77 45
REMARK SMILES IDX 76 46 35 48 65 49 46 50 64 51 47 52 50 53 63 54 81 55 48 56
REMARK SMILES IDX 49 57 62 59 82 60 51 61 36 62 37 63 45 64 38 65 44 66 39 67
REMARK SMILES IDX 40 68 41 69 42 70 43 71 66 72 67 73 75 74 68 75 74 76 69 77
REMARK SMILES IDX 70 78 71 79 72 80 73 81 52 82 53 83 61 84 54 85 60 86 55 87
REMARK SMILES IDX 56 88 57 89 58 90 59 91
REMARK H PARENT 19 6 5 13 24 28 80 47 50 58
REMARK Flexibility Score: inf
ROOT
ATOM      1  C   UNL A   1      34.793  34.004  30.463  1.00  0.00     0.023 C 
ENDROOT
BRANCH   1   2
ATOM      2  C   UNL A   1      36.052  34.063  31.323  1.00  0.00     0.116 C 
BRANCH   2   3
ATOM      3  N   UNL A   1      35.758  34.203  32.735  1.00  0.00    -0.354 N 
ATOM      4  C   UNL A   1      36.199  33.542  33.848  1.00  0.00     0.245 C 
ATOM      5  O   UNL A   1      35.555  33.741  34.854  1.00  0.00    -0.272 OA
ATOM      6  H   UNL A   1      35.111  34.918  32.934  1.00  0.00     0.163 HD
BRANCH   4   7
ATOM      7  C   UNL A   1      37.430  32.617  33.847  1.00  0.00     0.116 C 
ATOM      8  C   UNL A   1      37.061  31.482  32.870  1.00  0.00     0.045 C 
BRANCH   7   9
ATOM      9  C   UNL A   1      38.853  33.096  33.441  1.00  0.00     0.035 C 
ATOM     10  C   UNL A   1      39.176  34.563  33.243  1.00  0.00     0.007 C 
ENDBRANCH   7   9
BRANCH   7  11
ATOM     11  N   UNL A   1      37.602  32.278  35.265  1.00  0.00    -0.342 N 
ATOM     12  C   UNL A   1      38.190  31.110  35.723  1.00  0.00     0.221 C 
ATOM     13  H   UNL A   1      37.278  32.924  35.933  1.00  0.00     0.164 HD
ATOM     14  O   UNL A   1      37.747  30.676  36.793  1.00  0.00    -0.275 OA
BRANCH  12  15
ATOM     15  C   UNL A   1      39.459  30.465  35.069  1.00  0.00     0.105 C 
BRANCH  15  16
ATOM     16  C   UNL A   1      40.854  30.075  35.685  1.00  0.00     0.047 C 
BRANCH  16  17
ATOM     17  C   UNL A   1      41.908  29.065  35.217  1.00  0.00    -0.029 A 
ATOM     18  C   UNL A   1      43.231  29.258  35.665  1.00  0.00     0.005 A 
ATOM     19  C   UNL A   1      41.742  28.044  34.260  1.00  0.00     0.044 A 
ATOM     20  C   UNL A   1      44.277  28.386  35.324  1.00  0.00     0.000 A 
ATOM     21  C   UNL A   1      42.744  27.074  34.042  1.00  0.00     0.021 A 
ATOM     22  Cl  UNL A   1      40.420  28.030  33.131  1.00  0.00    -0.084 Cl
ATOM     23  C   UNL A   1      44.016  27.245  34.578  1.00  0.00     0.002 A 
ENDBRANCH  16  17
ENDBRANCH  15  16
ENDBRANCH  12  15
ENDBRANCH   7  11
ENDBRANCH   4   7
ENDBRANCH   2   3
ENDBRANCH   1   2
BRANCH   1  24
ATOM     24  C   UNL A   1      34.449  32.654  29.833  1.00  0.00     0.023 C 
BRANCH  24  25
ATOM     25  C   UNL A   1      34.476  32.578  28.313  1.00  0.00     0.116 C 
BRANCH  25  26
ATOM     26  N   UNL A   1      33.894  31.355  27.789  1.00  0.00    -0.352 N 
ATOM     27  C   UNL A   1      34.457  30.118  27.620  1.00  0.00     0.251 C 
ATOM     28  H   UNL A   1      32.952  31.424  27.515  1.00  0.00     0.163 HD
ATOM     29  O   UNL A   1      33.816  29.229  27.068  1.00  0.00    -0.269 OA
BRANCH  27  30
ATOM     30  C   UNL A   1      35.842  29.874  28.065  1.00  0.00     0.039 A 
ATOM     31  C   UNL A   1      36.046  29.393  29.359  1.00  0.00     0.014 A 
ATOM     32  C   UNL A   1      36.925  30.100  27.212  1.00  0.00     0.014 A 
ATOM     33  C   UNL A   1      37.339  29.089  29.782  1.00  0.00     0.010 A 
ATOM     34  C   UNL A   1      38.203  29.720  27.607  1.00  0.00     0.010 A 
ATOM     35  C   UNL A   1      38.423  29.220  28.899  1.00  0.00    -0.014 A 
BRANCH  35  36
ATOM     36  C   UNL A   1      39.795  28.849  29.321  1.00  0.00     0.031 A 
ATOM     37  C   UNL A   1      40.618  29.812  30.132  1.00  0.00     0.074 A 
ATOM     38  C   UNL A   1      40.311  27.666  28.933  1.00  0.00     0.049 A 
ATOM     39  N   UNL A   1      41.841  29.681  30.573  1.00  0.00    -0.248 NA
ATOM     40  C   UNL A   1      39.992  31.102  30.471  1.00  0.00     0.031 C 
ATOM     41  C   UNL A   1      39.619  26.667  28.114  1.00  0.00     0.029 A 
ATOM     42  N   UNL A   1      41.537  27.100  29.179  1.00  0.00    -0.354 N 
ATOM     43  C   UNL A   1      42.137  30.873  31.224  1.00  0.00     0.074 A 
ATOM     44  C   UNL A   1      40.987  31.736  31.075  1.00  0.00     0.031 C 
ATOM     45  C   UNL A   1      40.416  25.598  27.956  1.00  0.00     0.029 A 
ATOM     46  C   UNL A   1      41.689  25.852  28.623  1.00  0.00     0.049 A 
ATOM     47  H   UNL A   1      42.241  27.546  29.703  1.00  0.00     0.167 HD
ATOM     48  C   UNL A   1      43.261  31.211  31.901  1.00  0.00     0.031 A 
ATOM     49  C   UNL A   1      42.738  25.007  28.646  1.00  0.00     0.031 A 
ATOM     50  C   UNL A   1      44.396  30.340  32.051  1.00  0.00     0.049 A 
ATOM     51  C   UNL A   1      43.980  25.413  29.391  1.00  0.00     0.074 A 
ATOM     52  C   UNL A   1      45.560  30.562  32.767  1.00  0.00     0.029 A 
ATOM     53  N   UNL A   1      44.513  29.087  31.470  1.00  0.00    -0.354 N 
ATOM     54  N   UNL A   1      44.214  26.515  30.064  1.00  0.00    -0.248 NA
ATOM     55  C   UNL A   1      45.095  24.456  29.392  1.00  0.00     0.031 C 
ATOM     56  C   UNL A   1      46.407  29.468  32.566  1.00  0.00     0.029 A 
ATOM     57  C   UNL A   1      45.743  28.534  31.785  1.00  0.00     0.049 A 
ATOM     58  H   UNL A   1      43.825  28.653  30.915  1.00  0.00     0.167 HD
ATOM     59  C   UNL A   1      45.492  26.371  30.593  1.00  0.00     0.074 A 
ATOM     60  C   UNL A   1      45.971  25.068  30.176  1.00  0.00     0.031 C 
ATOM     61  C   UNL A   1      46.203  27.235  31.358  1.00  0.00     0.031 A 
BRANCH  48  62
ATOM     62  C   UNL A   1      43.318  32.584  32.519  1.00  0.00    -0.014 A 
ATOM     63  C   UNL A   1      42.835  32.823  33.819  1.00  0.00     0.010 A 
ATOM     64  C   UNL A   1      43.897  33.647  31.801  1.00  0.00     0.010 A 
ATOM     65  C   UNL A   1      42.892  34.106  34.372  1.00  0.00     0.020 A 
ATOM     66  C   UNL A   1      43.984  34.924  32.363  1.00  0.00     0.020 A 
ATOM     67  C   UNL A   1      43.465  35.149  33.639  1.00  0.00     0.054 A 
BRANCH  67  68
ATOM     68  S   UNL A   1      43.547  36.797  34.393  1.00  0.00     0.124 S 
ATOM     69  O   UNL A   1      44.233  36.518  35.651  1.00  0.00    -0.237 OA
ATOM     70  O   UNL A   1      44.317  37.558  33.412  1.00  0.00    -0.237 OA
ATOM     71  O   UNL A   1      42.145  37.190  34.521  1.00  0.00    -0.744 OA
ENDBRANCH  67  68
ENDBRANCH  48  62
BRANCH  49  72
ATOM     72  C   UNL A   1      42.650  23.689  27.957  1.00  0.00    -0.014 A 
ATOM     73  C   UNL A   1      42.941  23.579  26.587  1.00  0.00     0.010 A 
ATOM     74  C   UNL A   1      42.287  22.533  28.673  1.00  0.00     0.010 A 
ATOM     75  C   UNL A   1      42.850  22.343  25.939  1.00  0.00     0.020 A 
ATOM     76  C   UNL A   1      42.226  21.290  28.036  1.00  0.00     0.020 A 
ATOM     77  C   UNL A   1      42.495  21.205  26.669  1.00  0.00     0.054 A 
BRANCH  77  78
ATOM     78  S   UNL A   1      42.429  19.605  25.816  1.00  0.00     0.124 S 
ATOM     79  O   UNL A   1      43.449  19.767  24.786  1.00  0.00    -0.237 OA
ATOM     80  O   UNL A   1      42.751  18.665  26.885  1.00  0.00    -0.237 OA
ATOM     81  O   UNL A   1      41.052  19.535  25.328  1.00  0.00    -0.744 OA
ENDBRANCH  77  78
ENDBRANCH  49  72
BRANCH  61  82
ATOM     82  C   UNL A   1      47.563  26.790  31.827  1.00  0.00    -0.014 A 
ATOM     83  C   UNL A   1      48.714  27.006  31.048  1.00  0.00     0.010 A 
ATOM     84  C   UNL A   1      47.696  26.196  33.096  1.00  0.00     0.010 A 
ATOM     85  C   UNL A   1      49.968  26.606  31.517  1.00  0.00     0.020 A 
ATOM     86  C   UNL A   1      48.951  25.826  33.582  1.00  0.00     0.020 A 
ATOM     87  C   UNL A   1      50.079  26.019  32.782  1.00  0.00     0.054 A 
BRANCH  87  88
ATOM     88  S   UNL A   1      51.723  25.553  33.385  1.00  0.00     0.124 S 
ATOM     89  O   UNL A   1      51.399  24.629  34.469  1.00  0.00    -0.237 OA
ATOM     90  O   UNL A   1      52.337  24.947  32.206  1.00  0.00    -0.237 OA
ATOM     91  O   UNL A   1      52.313  26.822  33.804  1.00  0.00    -0.744 OA
ENDBRANCH  87  88
ENDBRANCH  61  82
ENDBRANCH  35  36
ENDBRANCH  27  30
ENDBRANCH  25  26
ENDBRANCH  24  25
ENDBRANCH   1  24
TORSDOF 19
ENDMDL
MODEL 2
REMARK VINA RESULT:      -8.2      4.729     11.798
REMARK SMILES CC[C@@](C)(NC(=O)CCc1ccccc1Cl)C(=O)NCCCCNC(=O)c1ccc(-c2c3nc(c(-c4ccc(S(=O)(=O)[O-])cc4)c4ccc([nH]4)c(-c4ccc(S(=O)(=O)[O-])cc4)c4nc(c(-c5ccc(S(=O)(=O)[O-])cc5)c5ccc2[nH]5)C=C4)C=C3)cc1
REMARK SMILES IDX 21 1 20 2 19 3 17 4 18 5 3 7 4 8 2 9 1 10 5 11 6 12 7 14
REMARK SMILES IDX 8 15 9 16 10 17 11 18 15 19 12 20 14 21 16 22 13 23 22 24
REMARK SMILES IDX 23 25 24 26 25 27 26 29 27 30 28 31 86 32 29 33 85 34 30 35
REMARK SMILES IDX 31 36 32 37 79 38 33 39 84 40 78 41 80 42 34 43 83 44 77 45
REMARK SMILES IDX 76 46 35 48 65 49 46 50 64 51 47 52 50 53 63 54 81 55 48 56
REMARK SMILES IDX 49 57 62 59 82 60 51 61 36 62 37 63 45 64 38 65 44 66 39 67
REMARK SMILES IDX 40 68 41 69 42 70 43 71 66 72 67 73 75 74 68 75 74 76 69 77
REMARK SMILES IDX 70 78 71 79 72 80 73 81 52 82 53 83 61 84 54 85 60 86 55 87
REMARK SMILES IDX 56 88 57 89 58 90 59 91
REMARK H PARENT 19 6 5 13 24 28 80 47 50 58
REMARK Flexibility Score: inf
ROOT
ATOM      1  C   UNL A   1      37.774  23.322  26.141  1.00  0.00     0.023 C 
ENDROOT
BRANCH   1   2
ATOM      2  C   UNL A   1      36.638  22.552  25.474  1.00  0.00     0.116 C 
BRANCH   2   3
ATOM      3  N   UNL A   1      35.767  21.899  26.431  1.00  0.00    -0.354 N 
ATOM      4  C   UNL A   1      34.443  22.049  26.739  1.00  0.00     0.245 C 
ATOM      5  O   UNL A   1      34.091  21.521  27.771  1.00  0.00    -0.272 OA
ATOM      6  H   UNL A   1      36.220  21.209  26.968  1.00  0.00     0.163 HD
BRANCH   4   7
ATOM      7  C   UNL A   1      33.451  22.815  25.845  1.00  0.00     0.116 C 
ATOM      8  C   UNL A   1      33.851  24.295  26.005  1.00  0.00     0.045 C 
BRANCH   7   9
ATOM      9  C   UNL A   1      33.313  22.563  24.317  1.00  0.00     0.035 C 
ATOM     10  C   UNL A   1      34.109  23.355  23.300  1.00  0.00     0.007 C 
ENDBRANCH   7   9
BRANCH   7  11
ATOM     11  N   UNL A   1      32.140  22.396  26.355  1.00  0.00    -0.342 N 
ATOM     12  C   UNL A   1      31.077  23.257  26.578  1.00  0.00     0.221 C 
ATOM     13  H   UNL A   1      32.008  21.441  26.552  1.00  0.00     0.164 HD
ATOM     14  O   UNL A   1      30.329  22.947  27.513  1.00  0.00    -0.275 OA
BRANCH  12  15
ATOM     15  C   UNL A   1      30.700  24.435  25.617  1.00  0.00     0.105 C 
BRANCH  15  16
ATOM     16  C   UNL A   1      30.265  25.917  25.919  1.00  0.00     0.047 C 
BRANCH  16  17
ATOM     17  C   UNL A   1      31.064  27.224  25.871  1.00  0.00    -0.029 A 
ATOM     18  C   UNL A   1      31.694  27.640  27.064  1.00  0.00     0.005 A 
ATOM     19  C   UNL A   1      31.120  28.149  24.810  1.00  0.00     0.044 A 
ATOM     20  C   UNL A   1      32.472  28.805  27.138  1.00  0.00     0.000 A 
ATOM     21  C   UNL A   1      32.027  29.231  24.827  1.00  0.00     0.021 A 
ATOM     22  Cl  UNL A   1      29.947  28.169  23.528  1.00  0.00    -0.084 Cl
ATOM     23  C   UNL A   1      32.707  29.559  25.995  1.00  0.00     0.002 A 
ENDBRANCH  16  17
ENDBRANCH  15  16
ENDBRANCH  12  15
ENDBRANCH   7  11
ENDBRANCH   4   7
ENDBRANCH   2   3
ENDBRANCH   1   2
BRANCH   1  24
ATOM     24  C   UNL A   1      39.119  22.605  26.257  1.00  0.00     0.023 C 
BRANCH  24  25
ATOM     25  C   UNL A   1      40.232  23.345  26.986  1.00  0.00     0.116 C 
BRANCH  25  26
ATOM     26  N   UNL A   1      41.235  23.898  26.093  1.00  0.00    -0.352 N 
ATOM     27  C   UNL A   1      41.944  25.065  26.187  1.00  0.00     0.251 C 
ATOM     28  H   UNL A   1      41.437  23.350  25.302  1.00  0.00     0.163 HD
ATOM     29  O   UNL A   1      42.687  25.400  25.269  1.00  0.00    -0.269 OA
BRANCH  27  30
ATOM     30  C   UNL A   1      41.781  25.931  27.369  1.00  0.00     0.039 A 
ATOM     31  C   UNL A   1      42.534  27.104  27.439  1.00  0.00     0.014 A 
ATOM     32  C   UNL A   1      40.885  25.601  28.389  1.00  0.00     0.014 A 
ATOM     33  C   UNL A   1      42.349  27.976  28.511  1.00  0.00     0.010 A 
ATOM     34  C   UNL A   1      40.644  26.508  29.414  1.00  0.00     0.010 A 
ATOM     35  C   UNL A   1      41.381  27.700  29.490  1.00  0.00    -0.014 A 
BRANCH  35  36
ATOM     36  C   UNL A   1      41.138  28.645  30.606  1.00  0.00     0.031 A 
ATOM     37  C   UNL A   1      41.994  28.583  31.842  1.00  0.00     0.074 A 
ATOM     38  C   UNL A   1      40.121  29.524  30.522  1.00  0.00     0.049 A 
ATOM     39  N   UNL A   1      41.922  29.305  32.929  1.00  0.00    -0.248 NA
ATOM     40  C   UNL A   1      43.053  27.560  31.868  1.00  0.00     0.031 C 
ATOM     41  C   UNL A   1      39.202  29.650  29.387  1.00  0.00     0.029 A 
ATOM     42  N   UNL A   1      39.688  30.482  31.404  1.00  0.00    -0.354 N 
ATOM     43  C   UNL A   1      42.911  28.813  33.774  1.00  0.00     0.074 A 
ATOM     44  C   UNL A   1      43.534  27.699  33.096  1.00  0.00     0.031 C 
ATOM     45  C   UNL A   1      38.340  30.652  29.627  1.00  0.00     0.029 A 
ATOM     46  C   UNL A   1      38.614  31.209  30.948  1.00  0.00     0.049 A 
ATOM     47  H   UNL A   1      40.109  30.634  32.282  1.00  0.00     0.167 HD
ATOM     48  C   UNL A   1      43.279  29.263  34.998  1.00  0.00     0.031 A 
ATOM     49  C   UNL A   1      37.926  32.209  31.530  1.00  0.00     0.031 A 
ATOM     50  C   UNL A   1      42.658  30.380  35.659  1.00  0.00     0.049 A 
ATOM     51  C   UNL A   1      38.345  32.680  32.896  1.00  0.00     0.074 A 
ATOM     52  C   UNL A   1      42.993  30.954  36.872  1.00  0.00     0.029 A 
ATOM     53  N   UNL A   1      41.571  31.086  35.166  1.00  0.00    -0.354 N 
ATOM     54  N   UNL A   1      39.331  32.252  33.648  1.00  0.00    -0.248 NA
ATOM     55  C   UNL A   1      37.567  33.778  33.486  1.00  0.00     0.031 C 
ATOM     56  C   UNL A   1      42.069  31.967  37.143  1.00  0.00     0.029 A 
ATOM     57  C   UNL A   1      41.202  32.072  36.066  1.00  0.00     0.049 A 
ATOM     58  H   UNL A   1      41.127  30.912  34.305  1.00  0.00     0.167 HD
ATOM     59  C   UNL A   1      39.309  33.047  34.789  1.00  0.00     0.074 A 
ATOM     60  C   UNL A   1      38.225  33.992  34.617  1.00  0.00     0.031 C 
ATOM     61  C   UNL A   1      40.117  33.003  35.877  1.00  0.00     0.031 A 
BRANCH  48  62
ATOM     62  C   UNL A   1      44.396  28.537  35.702  1.00  0.00    -0.014 A 
ATOM     63  C   UNL A   1      45.739  28.918  35.530  1.00  0.00     0.010 A 
ATOM     64  C   UNL A   1      44.094  27.479  36.578  1.00  0.00     0.010 A 
ATOM     65  C   UNL A   1      46.762  28.228  36.188  1.00  0.00     0.020 A 
ATOM     66  C   UNL A   1      45.112  26.807  37.262  1.00  0.00     0.020 A 
ATOM     67  C   UNL A   1      46.441  27.175  37.049  1.00  0.00     0.054 A 
BRANCH  67  68
ATOM     68  S   UNL A   1      47.788  26.315  37.908  1.00  0.00     0.124 S 
ATOM     69  O   UNL A   1      48.383  25.534  36.827  1.00  0.00    -0.237 OA
ATOM     70  O   UNL A   1      48.603  27.418  38.408  1.00  0.00    -0.237 OA
ATOM     71  O   UNL A   1      47.102  25.535  38.935  1.00  0.00    -0.744 OA
ENDBRANCH  67  68
ENDBRANCH  48  62
BRANCH  49  72
ATOM     72  C   UNL A   1      36.784  32.844  30.814  1.00  0.00    -0.014 A 
ATOM     73  C   UNL A   1      35.468  32.407  31.041  1.00  0.00     0.010 A 
ATOM     74  C   UNL A   1      37.007  33.900  29.911  1.00  0.00     0.010 A 
ATOM     75  C   UNL A   1      34.397  32.997  30.362  1.00  0.00     0.020 A 
ATOM     76  C   UNL A   1      35.936  34.515  29.255  1.00  0.00     0.020 A 
ATOM     77  C   UNL A   1      34.638  34.050  29.475  1.00  0.00     0.054 A 
BRANCH  77  78
ATOM     78  S   UNL A   1      33.227  34.830  28.641  1.00  0.00     0.124 S 
ATOM     79  O   UNL A   1      32.394  35.235  29.768  1.00  0.00    -0.237 OA
ATOM     80  O   UNL A   1      33.861  35.916  27.900  1.00  0.00    -0.237 OA
ATOM     81  O   UNL A   1      32.683  33.756  27.813  1.00  0.00    -0.744 OA
ENDBRANCH  77  78
ENDBRANCH  49  72
BRANCH  61  82
ATOM     82  C   UNL A   1      39.884  34.028  36.956  1.00  0.00    -0.014 A 
ATOM     83  C   UNL A   1      39.217  33.699  38.149  1.00  0.00     0.010 A 
ATOM     84  C   UNL A   1      40.395  35.330  36.793  1.00  0.00     0.010 A 
ATOM     85  C   UNL A   1      39.037  34.661  39.145  1.00  0.00     0.020 A 
ATOM     86  C   UNL A   1      40.245  36.285  37.800  1.00  0.00     0.020 A 
ATOM     87  C   UNL A   1      39.553  35.949  38.964  1.00  0.00     0.054 A 
BRANCH  87  88
ATOM     88  S   UNL A   1      39.345  37.165  40.292  1.00  0.00     0.124 S 
ATOM     89  O   UNL A   1      38.490  36.447  41.232  1.00  0.00    -0.237 OA
ATOM     90  O   UNL A   1      40.718  37.391  40.737  1.00  0.00    -0.237 OA
ATOM     91  O   UNL A   1      38.718  38.305  39.625  1.00  0.00    -0.744 OA
ENDBRANCH  87  88
ENDBRANCH  61  82
ENDBRANCH  35  36
ENDBRANCH  27  30
ENDBRANCH  25  26
ENDBRANCH  24  25
ENDBRANCH   1  24
TORSDOF 19
ENDMDL
MODEL 3
REMARK VINA RESULT:      -8.2      4.828     11.350
REMARK SMILES CC[C@@](C)(NC(=O)CCc1ccccc1Cl)C(=O)NCCCCNC(=O)c1ccc(-c2c3nc(c(-c4ccc(S(=O)(=O)[O-])cc4)c4ccc([nH]4)c(-c4ccc(S(=O)(=O)[O-])cc4)c4nc(c(-c5ccc(S(=O)(=O)[O-])cc5)c5ccc2[nH]5)C=C4)C=C3)cc1
REMARK SMILES IDX 21 1 20 2 19 3 17 4 18 5 3 7 4 8 2 9 1 10 5 11 6 12 7 14
REMARK SMILES IDX 8 15 9 16 10 17 11 18 15 19 12 20 14 21 16 22 13 23 22 24
REMARK SMILES IDX 23 25 24 26 25 27 26 29 27 30 28 31 86 32 29 33 85 34 30 35
REMARK SMILES IDX 31 36 32 37 79 38 33 39 84 40 78 41 80 42 34 43 83 44 77 45
REMARK SMILES IDX 76 46 35 48 65 49 46 50 64 51 47 52 50 53 63 54 81 55 48 56
REMARK SMILES IDX 49 57 62 59 82 60 51 61 36 62 37 63 45 64 38 65 44 66 39 67
REMARK SMILES IDX 40 68 41 69 42 70 43 71 66 72 67 73 75 74 68 75 74 76 69 77
REMARK SMILES IDX 70 78 71 79 72 80 73 81 52 82 53 83 61 84 54 85 60 86 55 87
REMARK SMILES IDX 56 88 57 89 58 90 59 91
REMARK H PARENT 19 6 5 13 24 28 80 47 50 58
REMARK Flexibility Score: inf
ROOT
ATOM      1  C   UNL A   1      37.592  23.424  25.728  1.00  0.00     0.023 C 
ENDROOT
BRANCH   1   2
ATOM      2  C   UNL A   1      36.500  22.417  25.377  1.00  0.00     0.116 C 
BRANCH   2   3
ATOM      3  N   UNL A   1      35.674  22.068  26.516  1.00  0.00    -0.354 N 
ATOM      4  C   UNL A   1      34.389  22.381  26.865  1.00  0.00     0.245 C 
ATOM      5  O   UNL A   1      34.093  22.134  28.013  1.00  0.00    -0.272 OA
ATOM      6  H   UNL A   1      36.129  21.490  27.170  1.00  0.00     0.163 HD
BRANCH   4   7
ATOM      7  C   UNL A   1      33.373  22.992  25.882  1.00  0.00     0.116 C 
ATOM      8  C   UNL A   1      33.681  24.502  25.896  1.00  0.00     0.045 C 
BRANCH   7   9
ATOM      9  C   UNL A   1      33.284  22.578  24.386  1.00  0.00     0.035 C 
ATOM     10  C   UNL A   1      32.326  21.506  23.908  1.00  0.00     0.007 C 
ENDBRANCH   7   9
BRANCH   7  11
ATOM     11  N   UNL A   1      32.079  22.546  26.412  1.00  0.00    -0.342 N 
ATOM     12  C   UNL A   1      31.007  23.388  26.664  1.00  0.00     0.221 C 
ATOM     13  H   UNL A   1      31.966  21.587  26.600  1.00  0.00     0.164 HD
ATOM     14  O   UNL A   1      30.281  23.056  27.609  1.00  0.00    -0.275 OA
BRANCH  12  15
ATOM     15  C   UNL A   1      30.594  24.570  25.723  1.00  0.00     0.105 C 
BRANCH  15  16
ATOM     16  C   UNL A   1      30.281  26.080  26.036  1.00  0.00     0.047 C 
BRANCH  16  17
ATOM     17  C   UNL A   1      31.176  27.323  25.964  1.00  0.00    -0.029 A 
ATOM     18  C   UNL A   1      31.510  27.949  27.184  1.00  0.00     0.005 A 
ATOM     19  C   UNL A   1      31.583  28.013  24.805  1.00  0.00     0.044 A 
ATOM     20  C   UNL A   1      32.342  29.078  27.248  1.00  0.00     0.000 A 
ATOM     21  C   UNL A   1      32.546  29.044  24.866  1.00  0.00     0.021 A 
ATOM     22  Cl  UNL A   1      30.786  27.814  23.274  1.00  0.00    -0.084 Cl
ATOM     23  C   UNL A   1      32.927  29.577  26.093  1.00  0.00     0.002 A 
ENDBRANCH  16  17
ENDBRANCH  15  16
ENDBRANCH  12  15
ENDBRANCH   7  11
ENDBRANCH   4   7
ENDBRANCH   2   3
ENDBRANCH   1   2
BRANCH   1  24
ATOM     24  C   UNL A   1      38.807  22.889  26.485  1.00  0.00     0.023 C 
BRANCH  24  25
ATOM     25  C   UNL A   1      39.774  23.920  27.049  1.00  0.00     0.116 C 
BRANCH  25  26
ATOM     26  N   UNL A   1      40.559  24.590  26.028  1.00  0.00    -0.352 N 
ATOM     27  C   UNL A   1      41.042  25.871  25.993  1.00  0.00     0.251 C 
ATOM     28  H   UNL A   1      40.779  24.041  25.242  1.00  0.00     0.163 HD
ATOM     29  O   UNL A   1      41.612  26.279  24.985  1.00  0.00    -0.269 OA
BRANCH  27  30
ATOM     30  C   UNL A   1      40.840  26.764  27.149  1.00  0.00     0.039 A 
ATOM     31  C   UNL A   1      39.976  26.350  28.163  1.00  0.00     0.014 A 
ATOM     32  C   UNL A   1      41.507  27.989  27.241  1.00  0.00     0.014 A 
ATOM     33  C   UNL A   1      39.819  27.142  29.299  1.00  0.00     0.010 A 
ATOM     34  C   UNL A   1      41.413  28.737  28.408  1.00  0.00     0.010 A 
ATOM     35  C   UNL A   1      40.561  28.326  29.443  1.00  0.00    -0.014 A 
BRANCH  35  36
ATOM     36  C   UNL A   1      40.443  29.151  30.671  1.00  0.00     0.031 A 
ATOM     37  C   UNL A   1      39.390  30.222  30.757  1.00  0.00     0.074 A 
ATOM     38  C   UNL A   1      41.312  28.962  31.683  1.00  0.00     0.049 A 
ATOM     39  N   UNL A   1      39.146  31.058  31.731  1.00  0.00    -0.248 NA
ATOM     40  C   UNL A   1      38.513  30.391  29.585  1.00  0.00     0.031 C 
ATOM     41  C   UNL A   1      42.397  27.977  31.695  1.00  0.00     0.029 A 
ATOM     42  N   UNL A   1      41.419  29.587  32.900  1.00  0.00    -0.354 N 
ATOM     43  C   UNL A   1      38.102  31.863  31.285  1.00  0.00     0.074 A 
ATOM     44  C   UNL A   1      37.796  31.449  29.934  1.00  0.00     0.031 C 
ATOM     45  C   UNL A   1      43.035  28.040  32.875  1.00  0.00     0.029 A 
ATOM     46  C   UNL A   1      42.436  29.097  33.684  1.00  0.00     0.049 A 
ATOM     47  H   UNL A   1      40.824  30.318  33.184  1.00  0.00     0.167 HD
ATOM     48  C   UNL A   1      37.448  32.845  31.949  1.00  0.00     0.031 A 
ATOM     49  C   UNL A   1      42.843  29.460  34.915  1.00  0.00     0.031 A 
ATOM     50  C   UNL A   1      37.756  33.241  33.297  1.00  0.00     0.049 A 
ATOM     51  C   UNL A   1      42.108  30.564  35.626  1.00  0.00     0.074 A 
ATOM     52  C   UNL A   1      37.116  34.183  34.083  1.00  0.00     0.029 A 
ATOM     53  N   UNL A   1      38.796  32.723  34.056  1.00  0.00    -0.354 N 
ATOM     54  N   UNL A   1      41.076  31.263  35.216  1.00  0.00    -0.248 NA
ATOM     55  C   UNL A   1      42.585  30.920  36.969  1.00  0.00     0.031 C 
ATOM     56  C   UNL A   1      37.807  34.279  35.294  1.00  0.00     0.029 A 
ATOM     57  C   UNL A   1      38.834  33.348  35.291  1.00  0.00     0.049 A 
ATOM     58  H   UNL A   1      39.414  32.017  33.760  1.00  0.00     0.167 HD
ATOM     59  C   UNL A   1      40.762  32.122  36.264  1.00  0.00     0.074 A 
ATOM     60  C   UNL A   1      41.702  31.841  37.330  1.00  0.00     0.031 C 
ATOM     61  C   UNL A   1      39.780  33.055  36.340  1.00  0.00     0.031 A 
BRANCH  48  62
ATOM     62  C   UNL A   1      36.343  33.564  31.220  1.00  0.00    -0.014 A 
ATOM     63  C   UNL A   1      35.100  33.810  31.834  1.00  0.00     0.010 A 
ATOM     64  C   UNL A   1      36.562  34.034  29.913  1.00  0.00     0.010 A 
ATOM     65  C   UNL A   1      34.085  34.474  31.139  1.00  0.00     0.020 A 
ATOM     66  C   UNL A   1      35.561  34.727  29.226  1.00  0.00     0.020 A 
ATOM     67  C   UNL A   1      34.322  34.927  29.837  1.00  0.00     0.054 A 
BRANCH  67  68
ATOM     68  S   UNL A   1      32.994  35.807  28.970  1.00  0.00     0.124 S 
ATOM     69  O   UNL A   1      32.189  36.307  30.080  1.00  0.00    -0.237 OA
ATOM     70  O   UNL A   1      33.725  36.823  28.216  1.00  0.00    -0.237 OA
ATOM     71  O   UNL A   1      32.361  34.769  28.159  1.00  0.00    -0.744 OA
ENDBRANCH  67  68
ENDBRANCH  48  62
BRANCH  49  72
ATOM     72  C   UNL A   1      43.988  28.759  35.560  1.00  0.00    -0.014 A 
ATOM     73  C   UNL A   1      45.311  29.084  35.214  1.00  0.00     0.010 A 
ATOM     74  C   UNL A   1      43.761  27.770  36.536  1.00  0.00     0.010 A 
ATOM     75  C   UNL A   1      46.385  28.419  35.813  1.00  0.00     0.020 A 
ATOM     76  C   UNL A   1      44.834  27.126  37.161  1.00  0.00     0.020 A 
ATOM     77  C   UNL A   1      46.139  27.446  36.786  1.00  0.00     0.054 A 
BRANCH  77  78
ATOM     78  S   UNL A   1      47.552  26.631  37.582  1.00  0.00     0.124 S 
ATOM     79  O   UNL A   1      47.470  27.143  38.945  1.00  0.00    -0.237 OA
ATOM     80  O   UNL A   1      47.232  25.216  37.417  1.00  0.00    -0.237 OA
ATOM     81  O   UNL A   1      48.698  27.098  36.804  1.00  0.00    -0.744 OA
ENDBRANCH  77  78
ENDBRANCH  49  72
BRANCH  61  82
ATOM     82  C   UNL A   1      39.648  33.819  37.630  1.00  0.00    -0.014 A 
ATOM     83  C   UNL A   1      38.868  33.332  38.694  1.00  0.00     0.010 A 
ATOM     84  C   UNL A   1      40.366  35.018  37.799  1.00  0.00     0.010 A 
ATOM     85  C   UNL A   1      38.783  34.047  39.891  1.00  0.00     0.020 A 
ATOM     86  C   UNL A   1      40.309  35.719  39.006  1.00  0.00     0.020 A 
ATOM     87  C   UNL A   1      39.505  35.236  40.040  1.00  0.00     0.054 A 
BRANCH  87  88
ATOM     88  S   UNL A   1      39.413  36.120  41.620  1.00  0.00     0.124 S 
ATOM     89  O   UNL A   1      38.231  35.523  42.234  1.00  0.00    -0.237 OA
ATOM     90  O   UNL A   1      40.687  35.783  42.250  1.00  0.00    -0.237 OA
ATOM     91  O   UNL A   1      39.272  37.521  41.227  1.00  0.00    -0.744 OA
ENDBRANCH  87  88
ENDBRANCH  61  82
ENDBRANCH  35  36
ENDBRANCH  27  30
ENDBRANCH  25  26
ENDBRANCH  24  25
ENDBRANCH   1  24
TORSDOF 19
ENDMDL
