MODEL 1
REMARK VINA RESULT:     -10.7      0.000      0.000
REMARK SMILES O=C(C[C@H]1C[C@H]2CC[C@@H](C1)[N@H+]2[C@@H]1CCCSC1)NCCCCNC(=O)c1ccc(-c2c3nc(c(-c4ccc(S(=O)(=O)[O-])cc4)c4ccc([nH]4)c(-c4ccc(S(=O)(=O)[O-])cc4)c4nc(c(-c5ccc(S(=O)(=O)[O-])cc5)c5ccc2[nH]5)C=C4)C=C3)cc1
REMARK SMILES IDX 21 1 20 2 19 3 18 4 1 5 2 6 3 8 4 9 5 10 10 11 6 12 9 13
REMARK SMILES IDX 7 14 11 15 8 16 12 18 13 19 17 20 14 21 16 22 15 23 22 24
REMARK SMILES IDX 23 25 24 26 25 28 26 29 27 30 85 31 28 32 84 33 29 34 30 35
REMARK SMILES IDX 31 36 78 37 32 38 83 39 77 40 79 41 33 42 82 43 76 44 75 45
REMARK SMILES IDX 34 47 64 48 45 49 63 50 46 51 49 52 62 53 80 54 47 55 48 56
REMARK SMILES IDX 61 58 81 59 50 60 35 61 36 62 44 63 37 64 43 65 38 66 39 67
REMARK SMILES IDX 40 68 41 69 42 70 65 71 66 72 74 73 67 74 73 75 68 76 69 77
REMARK SMILES IDX 70 78 71 79 72 80 51 81 52 82 60 83 53 84 59 85 54 86 55 87
REMARK SMILES IDX 56 88 57 89 58 90
REMARK H PARENT 18 7 11 17 23 27 79 46 49 57
REMARK Flexibility Score: inf
ROOT
ATOM      1  C   UNL A   1      33.838  28.459  25.017  1.00  0.00     0.023 C 
ENDROOT
BRANCH   1   2
ATOM      2  C   UNL A   1      32.778  29.300  24.284  1.00  0.00     0.023 C 
BRANCH   2   3
ATOM      3  C   UNL A   1      31.346  28.757  24.316  1.00  0.00     0.116 C 
BRANCH   3   4
ATOM      4  N   UNL A   1      31.347  27.333  24.076  1.00  0.00    -0.356 N 
ATOM      5  O   UNL A   1      30.834  27.304  21.840  1.00  0.00    -0.275 OA
ATOM      6  C   UNL A   1      31.151  26.718  22.865  1.00  0.00     0.220 C 
ATOM      7  H   UNL A   1      31.502  26.749  24.853  1.00  0.00     0.163 HD
BRANCH   6   8
ATOM      8  C   UNL A   1      31.345  25.207  22.941  1.00  0.00     0.104 C 
BRANCH   8   9
ATOM      9  C   UNL A   1      32.795  24.714  23.170  1.00  0.00     0.010 C 
ATOM     10  C   UNL A   1      33.422  25.012  24.552  1.00  0.00     0.069 C 
ATOM     11  C   UNL A   1      32.925  23.210  22.786  1.00  0.00     0.069 C 
ATOM     12  C   UNL A   1      33.340  23.864  25.566  1.00  0.00     0.185 C 
ATOM     13  C   UNL A   1      33.031  22.219  23.968  1.00  0.00     0.185 C 
ATOM     14  C   UNL A   1      31.923  23.330  25.810  1.00  0.00     0.071 C 
ATOM     15  N   UNL A   1      33.938  22.659  25.014  1.00  0.00    -0.327 N 
ATOM     16  C   UNL A   1      31.736  22.206  24.789  1.00  0.00     0.071 C 
ATOM     17  H   UNL A   1      34.006  21.898  25.691  1.00  0.00     0.348 HD
BRANCH  15  18
ATOM     18  C   UNL A   1      35.392  22.557  24.918  1.00  0.00     0.194 C 
ATOM     19  C   UNL A   1      35.999  21.144  24.923  1.00  0.00     0.067 C 
ATOM     20  C   UNL A   1      36.011  23.399  26.059  1.00  0.00     0.134 C 
ATOM     21  C   UNL A   1      37.497  21.167  24.626  1.00  0.00     0.017 C 
ATOM     22  S   UNL A   1      37.824  23.570  25.950  1.00  0.00    -0.156 SA
ATOM     23  C   UNL A   1      38.283  21.827  25.744  1.00  0.00     0.070 C 
ENDBRANCH  15  18
ENDBRANCH   8   9
ENDBRANCH   6   8
ENDBRANCH   3   4
ENDBRANCH   2   3
ENDBRANCH   1   2
BRANCH   1  24
ATOM     24  C   UNL A   1      33.770  28.464  26.543  1.00  0.00     0.116 C 
BRANCH  24  25
ATOM     25  N   UNL A   1      33.605  29.804  27.075  1.00  0.00    -0.352 N 
ATOM     26  C   UNL A   1      34.405  30.545  27.909  1.00  0.00     0.251 C 
ATOM     27  H   UNL A   1      32.779  30.258  26.792  1.00  0.00     0.163 HD
ATOM     28  O   UNL A   1      33.952  31.581  28.391  1.00  0.00    -0.269 OA
BRANCH  26  29
ATOM     29  C   UNL A   1      35.786  30.123  28.249  1.00  0.00     0.039 A 
ATOM     30  C   UNL A   1      36.755  30.147  27.238  1.00  0.00     0.014 A 
ATOM     31  C   UNL A   1      36.127  29.637  29.514  1.00  0.00     0.014 A 
ATOM     32  C   UNL A   1      38.065  29.738  27.508  1.00  0.00     0.010 A 
ATOM     33  C   UNL A   1      37.451  29.287  29.799  1.00  0.00     0.010 A 
ATOM     34  C   UNL A   1      38.436  29.332  28.800  1.00  0.00    -0.014 A 
BRANCH  34  35
ATOM     35  C   UNL A   1      39.847  28.971  29.117  1.00  0.00     0.031 A 
ATOM     36  C   UNL A   1      40.781  29.980  29.733  1.00  0.00     0.074 A 
ATOM     37  C   UNL A   1      40.306  27.741  28.808  1.00  0.00     0.049 A 
ATOM     38  N   UNL A   1      42.051  29.857  30.027  1.00  0.00    -0.248 NA
ATOM     39  C   UNL A   1      40.222  31.305  30.043  1.00  0.00     0.031 C 
ATOM     40  C   UNL A   1      39.517  26.676  28.185  1.00  0.00     0.029 A 
ATOM     41  N   UNL A   1      41.550  27.181  28.965  1.00  0.00    -0.354 N 
ATOM     42  C   UNL A   1      42.446  31.086  30.544  1.00  0.00     0.074 A 
ATOM     43  C   UNL A   1      41.291  31.956  30.480  1.00  0.00     0.031 C 
ATOM     44  C   UNL A   1      40.289  25.588  28.031  1.00  0.00     0.029 A 
ATOM     45  C   UNL A   1      41.638  25.889  28.501  1.00  0.00     0.049 A 
ATOM     46  H   UNL A   1      42.308  27.659  29.373  1.00  0.00     0.167 HD
ATOM     47  C   UNL A   1      43.653  31.454  31.041  1.00  0.00     0.031 A 
ATOM     48  C   UNL A   1      42.685  25.042  28.443  1.00  0.00     0.031 A 
ATOM     49  C   UNL A   1      44.804  30.590  31.103  1.00  0.00     0.049 A 
ATOM     50  C   UNL A   1      44.022  25.483  28.972  1.00  0.00     0.074 A 
ATOM     51  C   UNL A   1      46.056  30.862  31.627  1.00  0.00     0.029 A 
ATOM     52  N   UNL A   1      44.849  29.290  30.622  1.00  0.00    -0.354 N 
ATOM     53  N   UNL A   1      44.357  26.632  29.510  1.00  0.00    -0.248 NA
ATOM     54  C   UNL A   1      45.120  24.509  28.898  1.00  0.00     0.031 C 
ATOM     55  C   UNL A   1      46.873  29.748  31.412  1.00  0.00     0.029 A 
ATOM     56  C   UNL A   1      46.113  28.757  30.814  1.00  0.00     0.049 A 
ATOM     57  H   UNL A   1      44.093  28.816  30.204  1.00  0.00     0.167 HD
ATOM     58  C   UNL A   1      45.697  26.507  29.863  1.00  0.00     0.074 A 
ATOM     59  C   UNL A   1      46.105  25.168  29.494  1.00  0.00     0.031 C 
ATOM     60  C   UNL A   1      46.513  27.422  30.443  1.00  0.00     0.031 A 
BRANCH  47  61
ATOM     61  C   UNL A   1      43.796  32.866  31.553  1.00  0.00    -0.014 A 
ATOM     62  C   UNL A   1      43.544  33.179  32.902  1.00  0.00     0.010 A 
ATOM     63  C   UNL A   1      44.234  33.885  30.688  1.00  0.00     0.010 A 
ATOM     64  C   UNL A   1      43.684  34.491  33.363  1.00  0.00     0.020 A 
ATOM     65  C   UNL A   1      44.406  35.193  31.153  1.00  0.00     0.020 A 
ATOM     66  C   UNL A   1      44.112  35.491  32.484  1.00  0.00     0.054 A 
BRANCH  66  67
ATOM     67  S   UNL A   1      44.301  37.180  33.117  1.00  0.00     0.124 S 
ATOM     68  O   UNL A   1      44.370  37.958  31.884  1.00  0.00    -0.237 OA
ATOM     69  O   UNL A   1      43.085  37.364  33.907  1.00  0.00    -0.237 OA
ATOM     70  O   UNL A   1      45.540  37.126  33.889  1.00  0.00    -0.744 OA
ENDBRANCH  66  67
ENDBRANCH  47  61
BRANCH  48  71
ATOM     71  C   UNL A   1      42.507  23.684  27.856  1.00  0.00    -0.014 A 
ATOM     72  C   UNL A   1      42.557  23.492  26.463  1.00  0.00     0.010 A 
ATOM     73  C   UNL A   1      42.298  22.571  28.691  1.00  0.00     0.010 A 
ATOM     74  C   UNL A   1      42.383  22.217  25.917  1.00  0.00     0.020 A 
ATOM     75  C   UNL A   1      42.154  21.290  28.149  1.00  0.00     0.020 A 
ATOM     76  C   UNL A   1      42.187  21.124  26.764  1.00  0.00     0.054 A 
BRANCH  76  77
ATOM     77  S   UNL A   1      42.017  19.470  26.036  1.00  0.00     0.124 S 
ATOM     78  O   UNL A   1      40.581  19.394  25.786  1.00  0.00    -0.237 OA
ATOM     79  O   UNL A   1      42.862  19.562  24.847  1.00  0.00    -0.237 OA
ATOM     80  O   UNL A   1      42.520  18.582  27.081  1.00  0.00    -0.744 OA
ENDBRANCH  76  77
ENDBRANCH  48  71
BRANCH  60  81
ATOM     81  C   UNL A   1      47.926  26.998  30.753  1.00  0.00    -0.014 A 
ATOM     82  C   UNL A   1      48.966  27.172  29.822  1.00  0.00     0.010 A 
ATOM     83  C   UNL A   1      48.227  26.464  32.020  1.00  0.00     0.010 A 
ATOM     84  C   UNL A   1      50.272  26.790  30.141  1.00  0.00     0.020 A 
ATOM     85  C   UNL A   1      49.536  26.109  32.353  1.00  0.00     0.020 A 
ATOM     86  C   UNL A   1      50.550  26.262  31.406  1.00  0.00     0.054 A 
BRANCH  86  87
ATOM     87  S   UNL A   1      52.261  25.816  31.809  1.00  0.00     0.124 S 
ATOM     88  O   UNL A   1      52.566  26.733  32.903  1.00  0.00    -0.237 OA
ATOM     89  O   UNL A   1      52.145  24.408  32.183  1.00  0.00    -0.237 OA
ATOM     90  O   UNL A   1      52.987  26.066  30.565  1.00  0.00    -0.744 OA
ENDBRANCH  86  87
ENDBRANCH  60  81
ENDBRANCH  34  35
ENDBRANCH  26  29
ENDBRANCH  24  25
ENDBRANCH   1  24
TORSDOF 16
ENDMDL
MODEL 2
REMARK VINA RESULT:     -10.7      2.669      3.285
REMARK SMILES O=C(C[C@H]1C[C@H]2CC[C@@H](C1)[N@H+]2[C@@H]1CCCSC1)NCCCCNC(=O)c1ccc(-c2c3nc(c(-c4ccc(S(=O)(=O)[O-])cc4)c4ccc([nH]4)c(-c4ccc(S(=O)(=O)[O-])cc4)c4nc(c(-c5ccc(S(=O)(=O)[O-])cc5)c5ccc2[nH]5)C=C4)C=C3)cc1
REMARK SMILES IDX 21 1 20 2 19 3 18 4 1 5 2 6 3 8 4 9 5 10 10 11 6 12 9 13
REMARK SMILES IDX 7 14 11 15 8 16 12 18 13 19 17 20 14 21 16 22 15 23 22 24
REMARK SMILES IDX 23 25 24 26 25 28 26 29 27 30 85 31 28 32 84 33 29 34 30 35
REMARK SMILES IDX 31 36 78 37 32 38 83 39 77 40 79 41 33 42 82 43 76 44 75 45
REMARK SMILES IDX 34 47 64 48 45 49 63 50 46 51 49 52 62 53 80 54 47 55 48 56
REMARK SMILES IDX 61 58 81 59 50 60 35 61 36 62 44 63 37 64 43 65 38 66 39 67
REMARK SMILES IDX 40 68 41 69 42 70 65 71 66 72 74 73 67 74 73 75 68 76 69 77
REMARK SMILES IDX 70 78 71 79 72 80 51 81 52 82 60 83 53 84 59 85 54 86 55 87
REMARK SMILES IDX 56 88 57 89 58 90
REMARK H PARENT 18 7 11 17 23 27 79 46 49 57
REMARK Flexibility Score: inf
ROOT
ATOM      1  C   UNL A   1      33.474  28.537  24.638  1.00  0.00     0.023 C 
ENDROOT
BRANCH   1   2
ATOM      2  C   UNL A   1      32.042  29.064  24.435  1.00  0.00     0.023 C 
BRANCH   2   3
ATOM      3  C   UNL A   1      30.930  28.010  24.430  1.00  0.00     0.116 C 
BRANCH   3   4
ATOM      4  N   UNL A   1      31.490  26.692  24.612  1.00  0.00    -0.356 N 
ATOM      5  O   UNL A   1      31.128  26.411  26.860  1.00  0.00    -0.275 OA
ATOM      6  C   UNL A   1      31.499  25.973  25.781  1.00  0.00     0.220 C 
ATOM      7  H   UNL A   1      31.905  26.270  23.825  1.00  0.00     0.163 HD
BRANCH   6   8
ATOM      8  C   UNL A   1      32.053  24.564  25.594  1.00  0.00     0.104 C 
BRANCH   8   9
ATOM      9  C   UNL A   1      33.507  24.331  26.073  1.00  0.00     0.010 C 
ATOM     10  C   UNL A   1      33.862  22.902  26.549  1.00  0.00     0.069 C 
ATOM     11  C   UNL A   1      34.520  24.857  25.013  1.00  0.00     0.069 C 
ATOM     12  C   UNL A   1      34.534  22.012  25.496  1.00  0.00     0.185 C 
ATOM     13  C   UNL A   1      35.249  23.777  24.182  1.00  0.00     0.185 C 
ATOM     14  C   UNL A   1      33.751  21.877  24.184  1.00  0.00     0.071 C 
ATOM     15  N   UNL A   1      35.727  22.659  24.975  1.00  0.00    -0.327 N 
ATOM     16  C   UNL A   1      34.261  23.012  23.293  1.00  0.00     0.071 C 
ATOM     17  H   UNL A   1      36.269  22.060  24.352  1.00  0.00     0.348 HD
BRANCH  15  18
ATOM     18  C   UNL A   1      36.935  22.709  25.797  1.00  0.00     0.194 C 
ATOM     19  C   UNL A   1      37.566  24.092  26.032  1.00  0.00     0.067 C 
ATOM     20  C   UNL A   1      37.980  21.752  25.177  1.00  0.00     0.134 C 
ATOM     21  C   UNL A   1      38.699  24.033  27.054  1.00  0.00     0.017 C 
ATOM     22  S   UNL A   1      39.467  21.517  26.207  1.00  0.00    -0.156 SA
ATOM     23  C   UNL A   1      39.890  23.251  26.531  1.00  0.00     0.070 C 
ENDBRANCH  15  18
ENDBRANCH   8   9
ENDBRANCH   6   8
ENDBRANCH   3   4
ENDBRANCH   2   3
ENDBRANCH   1   2
BRANCH   1  24
ATOM     24  C   UNL A   1      34.111  28.816  25.999  1.00  0.00     0.116 C 
BRANCH  24  25
ATOM     25  N   UNL A   1      33.832  30.161  26.465  1.00  0.00    -0.352 N 
ATOM     26  C   UNL A   1      34.396  30.895  27.479  1.00  0.00     0.251 C 
ATOM     27  H   UNL A   1      33.118  30.625  25.972  1.00  0.00     0.163 HD
ATOM     28  O   UNL A   1      33.848  31.942  27.822  1.00  0.00    -0.269 OA
BRANCH  26  29
ATOM     29  C   UNL A   1      35.630  30.455  28.173  1.00  0.00     0.039 A 
ATOM     30  C   UNL A   1      36.866  30.823  27.628  1.00  0.00     0.014 A 
ATOM     31  C   UNL A   1      35.598  29.629  29.301  1.00  0.00     0.014 A 
ATOM     32  C   UNL A   1      38.057  30.413  28.237  1.00  0.00     0.010 A 
ATOM     33  C   UNL A   1      36.787  29.271  29.944  1.00  0.00     0.010 A 
ATOM     34  C   UNL A   1      38.030  29.657  29.420  1.00  0.00    -0.014 A 
BRANCH  34  35
ATOM     35  C   UNL A   1      39.291  29.283  30.121  1.00  0.00     0.031 A 
ATOM     36  C   UNL A   1      39.744  30.033  31.346  1.00  0.00     0.074 A 
ATOM     37  C   UNL A   1      40.060  28.291  29.626  1.00  0.00     0.049 A 
ATOM     38  N   UNL A   1      40.837  29.879  32.052  1.00  0.00    -0.248 NA
ATOM     39  C   UNL A   1      38.864  31.107  31.835  1.00  0.00     0.031 C 
ATOM     40  C   UNL A   1      39.754  27.500  28.432  1.00  0.00     0.029 A 
ATOM     41  N   UNL A   1      41.261  27.784  30.059  1.00  0.00    -0.354 N 
ATOM     42  C   UNL A   1      40.784  30.839  33.056  1.00  0.00     0.074 A 
ATOM     43  C   UNL A   1      39.572  31.602  32.840  1.00  0.00     0.031 C 
ATOM     44  C   UNL A   1      40.730  26.598  28.239  1.00  0.00     0.029 A 
ATOM     45  C   UNL A   1      41.752  26.773  29.266  1.00  0.00     0.049 A 
ATOM     46  H   UNL A   1      41.726  28.113  30.862  1.00  0.00     0.167 HD
ATOM     47  C   UNL A   1      41.653  31.058  34.073  1.00  0.00     0.031 A 
ATOM     48  C   UNL A   1      42.902  26.072  29.342  1.00  0.00     0.031 A 
ATOM     49  C   UNL A   1      42.860  30.302  34.288  1.00  0.00     0.049 A 
ATOM     50  C   UNL A   1      43.866  26.353  30.462  1.00  0.00     0.074 A 
ATOM     51  C   UNL A   1      43.780  30.424  35.314  1.00  0.00     0.029 A 
ATOM     52  N   UNL A   1      43.320  29.287  33.461  1.00  0.00    -0.354 N 
ATOM     53  N   UNL A   1      43.766  27.228  31.435  1.00  0.00    -0.248 NA
ATOM     54  C   UNL A   1      45.092  25.544  30.503  1.00  0.00     0.031 C 
ATOM     55  C   UNL A   1      44.824  29.523  35.078  1.00  0.00     0.029 A 
ATOM     56  C   UNL A   1      44.522  28.793  33.941  1.00  0.00     0.049 A 
ATOM     57  H   UNL A   1      42.859  28.966  32.652  1.00  0.00     0.167 HD
ATOM     58  C   UNL A   1      44.903  27.055  32.217  1.00  0.00     0.074 A 
ATOM     59  C   UNL A   1      45.666  25.981  31.615  1.00  0.00     0.031 C 
ATOM     60  C   UNL A   1      45.277  27.724  33.335  1.00  0.00     0.031 A 
BRANCH  47  61
ATOM     61  C   UNL A   1      41.334  32.175  35.037  1.00  0.00    -0.014 A 
ATOM     62  C   UNL A   1      40.604  31.932  36.215  1.00  0.00     0.010 A 
ATOM     63  C   UNL A   1      41.811  33.475  34.786  1.00  0.00     0.010 A 
ATOM     64  C   UNL A   1      40.319  32.976  37.100  1.00  0.00     0.020 A 
ATOM     65  C   UNL A   1      41.555  34.515  35.685  1.00  0.00     0.020 A 
ATOM     66  C   UNL A   1      40.794  34.262  36.827  1.00  0.00     0.054 A 
BRANCH  66  67
ATOM     67  S   UNL A   1      40.422  35.592  38.004  1.00  0.00     0.124 S 
ATOM     68  O   UNL A   1      40.188  36.725  37.114  1.00  0.00    -0.237 OA
ATOM     69  O   UNL A   1      39.240  35.085  38.697  1.00  0.00    -0.237 OA
ATOM     70  O   UNL A   1      41.630  35.682  38.821  1.00  0.00    -0.744 OA
ENDBRANCH  66  67
ENDBRANCH  47  61
BRANCH  48  71
ATOM     71  C   UNL A   1      43.204  25.032  28.320  1.00  0.00    -0.014 A 
ATOM     72  C   UNL A   1      43.780  25.384  27.086  1.00  0.00     0.010 A 
ATOM     73  C   UNL A   1      42.924  23.678  28.580  1.00  0.00     0.010 A 
ATOM     74  C   UNL A   1      44.056  24.406  26.127  1.00  0.00     0.020 A 
ATOM     75  C   UNL A   1      43.227  22.692  27.635  1.00  0.00     0.020 A 
ATOM     76  C   UNL A   1      43.781  23.065  26.409  1.00  0.00     0.054 A 
BRANCH  76  77
ATOM     77  S   UNL A   1      44.196  21.806  25.171  1.00  0.00     0.124 S 
ATOM     78  O   UNL A   1      43.170  20.795  25.408  1.00  0.00    -0.237 OA
ATOM     79  O   UNL A   1      44.076  22.546  23.917  1.00  0.00    -0.237 OA
ATOM     80  O   UNL A   1      45.558  21.413  25.525  1.00  0.00    -0.744 OA
ENDBRANCH  76  77
ENDBRANCH  48  71
BRANCH  60  81
ATOM     81  C   UNL A   1      46.555  27.295  34.010  1.00  0.00    -0.014 A 
ATOM     82  C   UNL A   1      46.569  26.260  34.964  1.00  0.00     0.010 A 
ATOM     83  C   UNL A   1      47.770  27.902  33.644  1.00  0.00     0.010 A 
ATOM     84  C   UNL A   1      47.771  25.866  35.561  1.00  0.00     0.020 A 
ATOM     85  C   UNL A   1      48.976  27.489  34.216  1.00  0.00     0.020 A 
ATOM     86  C   UNL A   1      48.967  26.481  35.181  1.00  0.00     0.054 A 
BRANCH  86  87
ATOM     87  S   UNL A   1      50.517  25.920  35.939  1.00  0.00     0.124 S 
ATOM     88  O   UNL A   1      50.369  26.383  37.315  1.00  0.00    -0.237 OA
ATOM     89  O   UNL A   1      50.458  24.472  35.752  1.00  0.00    -0.237 OA
ATOM     90  O   UNL A   1      51.550  26.600  35.160  1.00  0.00    -0.744 OA
ENDBRANCH  86  87
ENDBRANCH  60  81
ENDBRANCH  34  35
ENDBRANCH  26  29
ENDBRANCH  24  25
ENDBRANCH   1  24
TORSDOF 16
ENDMDL
MODEL 3
REMARK VINA RESULT:     -10.6      2.865      3.743
REMARK SMILES O=C(C[C@H]1C[C@H]2CC[C@@H](C1)[N@H+]2[C@@H]1CCCSC1)NCCCCNC(=O)c1ccc(-c2c3nc(c(-c4ccc(S(=O)(=O)[O-])cc4)c4ccc([nH]4)c(-c4ccc(S(=O)(=O)[O-])cc4)c4nc(c(-c5ccc(S(=O)(=O)[O-])cc5)c5ccc2[nH]5)C=C4)C=C3)cc1
REMARK SMILES IDX 21 1 20 2 19 3 18 4 1 5 2 6 3 8 4 9 5 10 10 11 6 12 9 13
REMARK SMILES IDX 7 14 11 15 8 16 12 18 13 19 17 20 14 21 16 22 15 23 22 24
REMARK SMILES IDX 23 25 24 26 25 28 26 29 27 30 85 31 28 32 84 33 29 34 30 35
REMARK SMILES IDX 31 36 78 37 32 38 83 39 77 40 79 41 33 42 82 43 76 44 75 45
REMARK SMILES IDX 34 47 64 48 45 49 63 50 46 51 49 52 62 53 80 54 47 55 48 56
REMARK SMILES IDX 61 58 81 59 50 60 35 61 36 62 44 63 37 64 43 65 38 66 39 67
REMARK SMILES IDX 40 68 41 69 42 70 65 71 66 72 74 73 67 74 73 75 68 76 69 77
REMARK SMILES IDX 70 78 71 79 72 80 51 81 52 82 60 83 53 84 59 85 54 86 55 87
REMARK SMILES IDX 56 88 57 89 58 90
REMARK H PARENT 18 7 11 17 23 27 79 46 49 57
REMARK Flexibility Score: inf
ROOT
ATOM      1  C   UNL A   1      33.820  28.951  27.031  1.00  0.00     0.023 C 
ENDROOT
BRANCH   1   2
ATOM      2  C   UNL A   1      33.480  29.315  25.574  1.00  0.00     0.023 C 
BRANCH   2   3
ATOM      3  C   UNL A   1      32.029  29.726  25.304  1.00  0.00     0.116 C 
BRANCH   3   4
ATOM      4  N   UNL A   1      31.316  28.649  24.660  1.00  0.00    -0.356 N 
ATOM      5  O   UNL A   1      32.297  28.704  22.586  1.00  0.00    -0.275 OA
ATOM      6  C   UNL A   1      31.534  28.182  23.388  1.00  0.00     0.220 C 
ATOM      7  H   UNL A   1      30.607  28.207  25.182  1.00  0.00     0.163 HD
BRANCH   6   8
ATOM      8  C   UNL A   1      30.696  26.948  23.068  1.00  0.00     0.104 C 
BRANCH   8   9
ATOM      9  C   UNL A   1      31.447  25.594  23.061  1.00  0.00     0.010 C 
ATOM     10  C   UNL A   1      32.809  25.550  23.794  1.00  0.00     0.069 C 
ATOM     11  C   UNL A   1      30.501  24.446  23.525  1.00  0.00     0.069 C 
ATOM     12  C   UNL A   1      32.759  25.014  25.230  1.00  0.00     0.185 C 
ATOM     13  C   UNL A   1      30.749  23.903  24.951  1.00  0.00     0.185 C 
ATOM     14  C   UNL A   1      31.768  25.743  26.147  1.00  0.00     0.071 C 
ATOM     15  N   UNL A   1      32.153  23.693  25.257  1.00  0.00    -0.327 N 
ATOM     16  C   UNL A   1      30.452  24.977  26.005  1.00  0.00     0.071 C 
ATOM     17  H   UNL A   1      32.197  23.249  26.174  1.00  0.00     0.348 HD
BRANCH  15  18
ATOM     18  C   UNL A   1      32.919  22.541  24.784  1.00  0.00     0.194 C 
ATOM     19  C   UNL A   1      32.207  21.178  24.784  1.00  0.00     0.067 C 
ATOM     20  C   UNL A   1      34.221  22.455  25.614  1.00  0.00     0.134 C 
ATOM     21  C   UNL A   1      33.042  20.101  24.094  1.00  0.00     0.017 C 
ATOM     22  S   UNL A   1      35.405  21.209  25.002  1.00  0.00    -0.156 SA
ATOM     23  C   UNL A   1      34.301  19.775  24.878  1.00  0.00     0.070 C 
ENDBRANCH  15  18
ENDBRANCH   8   9
ENDBRANCH   6   8
ENDBRANCH   3   4
ENDBRANCH   2   3
ENDBRANCH   1   2
BRANCH   1  24
ATOM     24  C   UNL A   1      35.230  29.300  27.504  1.00  0.00     0.116 C 
BRANCH  24  25
ATOM     25  N   UNL A   1      35.247  29.738  28.887  1.00  0.00    -0.352 N 
ATOM     26  C   UNL A   1      36.255  29.732  29.819  1.00  0.00     0.251 C 
ATOM     27  H   UNL A   1      34.392  30.100  29.212  1.00  0.00     0.163 HD
ATOM     28  O   UNL A   1      35.973  29.962  30.993  1.00  0.00    -0.269 OA
BRANCH  26  29
ATOM     29  C   UNL A   1      37.663  29.443  29.449  1.00  0.00     0.039 A 
ATOM     30  C   UNL A   1      38.547  29.048  30.460  1.00  0.00     0.014 A 
ATOM     31  C   UNL A   1      38.145  29.625  28.149  1.00  0.00     0.014 A 
ATOM     32  C   UNL A   1      39.888  28.785  30.161  1.00  0.00     0.010 A 
ATOM     33  C   UNL A   1      39.470  29.302  27.840  1.00  0.00     0.010 A 
ATOM     34  C   UNL A   1      40.358  28.880  28.841  1.00  0.00    -0.014 A 
BRANCH  34  35
ATOM     35  C   UNL A   1      41.765  28.525  28.499  1.00  0.00     0.031 A 
ATOM     36  C   UNL A   1      42.839  29.580  28.463  1.00  0.00     0.074 A 
ATOM     37  C   UNL A   1      42.070  27.253  28.173  1.00  0.00     0.049 A 
ATOM     38  N   UNL A   1      44.103  29.461  28.136  1.00  0.00    -0.248 NA
ATOM     39  C   UNL A   1      42.443  30.950  28.824  1.00  0.00     0.031 C 
ATOM     40  C   UNL A   1      41.122  26.137  28.141  1.00  0.00     0.029 A 
ATOM     41  N   UNL A   1      43.262  26.683  27.796  1.00  0.00    -0.354 N 
ATOM     42  C   UNL A   1      44.648  30.736  28.240  1.00  0.00     0.074 A 
ATOM     43  C   UNL A   1      43.566  31.623  28.616  1.00  0.00     0.031 C 
ATOM     44  C   UNL A   1      41.771  25.017  27.785  1.00  0.00     0.029 A 
ATOM     45  C   UNL A   1      43.169  25.339  27.518  1.00  0.00     0.049 A 
ATOM     46  H   UNL A   1      44.104  27.190  27.732  1.00  0.00     0.167 HD
ATOM     47  C   UNL A   1      45.931  31.133  28.056  1.00  0.00     0.031 A 
ATOM     48  C   UNL A   1      44.097  24.462  27.084  1.00  0.00     0.031 A 
ATOM     49  C   UNL A   1      47.007  30.253  27.680  1.00  0.00     0.049 A 
ATOM     50  C   UNL A   1      45.508  24.931  26.857  1.00  0.00     0.074 A 
ATOM     51  C   UNL A   1      48.347  30.556  27.511  1.00  0.00     0.029 A 
ATOM     52  N   UNL A   1      46.870  28.899  27.409  1.00  0.00    -0.354 N 
ATOM     53  N   UNL A   1      46.013  26.132  27.018  1.00  0.00    -0.248 NA
ATOM     54  C   UNL A   1      46.478  23.926  26.402  1.00  0.00     0.031 C 
ATOM     55  C   UNL A   1      49.009  29.400  27.083  1.00  0.00     0.029 A 
ATOM     56  C   UNL A   1      48.094  28.361  27.050  1.00  0.00     0.049 A 
ATOM     57  H   UNL A   1      46.025  28.396  27.463  1.00  0.00     0.167 HD
ATOM     58  C   UNL A   1      47.365  26.018  26.710  1.00  0.00     0.074 A 
ATOM     59  C   UNL A   1      47.601  24.630  26.371  1.00  0.00     0.031 C 
ATOM     60  C   UNL A   1      48.323  26.978  26.711  1.00  0.00     0.031 A 
BRANCH  47  61
ATOM     61  C   UNL A   1      46.245  32.596  28.252  1.00  0.00    -0.014 A 
ATOM     62  C   UNL A   1      46.126  33.513  27.192  1.00  0.00     0.010 A 
ATOM     63  C   UNL A   1      46.617  33.069  29.524  1.00  0.00     0.010 A 
ATOM     64  C   UNL A   1      46.416  34.866  27.389  1.00  0.00     0.020 A 
ATOM     65  C   UNL A   1      46.878  34.427  29.732  1.00  0.00     0.020 A 
ATOM     66  C   UNL A   1      46.794  35.314  28.658  1.00  0.00     0.054 A 
BRANCH  66  67
ATOM     67  S   UNL A   1      47.148  37.078  28.886  1.00  0.00     0.124 S 
ATOM     68  O   UNL A   1      46.447  37.368  30.133  1.00  0.00    -0.237 OA
ATOM     69  O   UNL A   1      48.607  37.104  28.965  1.00  0.00    -0.237 OA
ATOM     70  O   UNL A   1      46.580  37.704  27.693  1.00  0.00    -0.744 OA
ENDBRANCH  66  67
ENDBRANCH  47  61
BRANCH  48  71
ATOM     71  C   UNL A   1      43.716  23.044  26.833  1.00  0.00    -0.014 A 
ATOM     72  C   UNL A   1      43.057  22.292  27.823  1.00  0.00     0.010 A 
ATOM     73  C   UNL A   1      44.001  22.441  25.595  1.00  0.00     0.010 A 
ATOM     74  C   UNL A   1      42.707  20.960  27.585  1.00  0.00     0.020 A 
ATOM     75  C   UNL A   1      43.625  21.118  25.342  1.00  0.00     0.020 A 
ATOM     76  C   UNL A   1      42.990  20.383  26.344  1.00  0.00     0.054 A 
BRANCH  76  77
ATOM     77  S   UNL A   1      42.479  18.669  26.039  1.00  0.00     0.124 S 
ATOM     78  O   UNL A   1      42.712  18.045  27.338  1.00  0.00    -0.237 OA
ATOM     79  O   UNL A   1      41.077  18.822  25.653  1.00  0.00    -0.237 OA
ATOM     80  O   UNL A   1      43.368  18.232  24.965  1.00  0.00    -0.744 OA
ENDBRANCH  76  77
ENDBRANCH  48  71
BRANCH  60  81
ATOM     81  C   UNL A   1      49.730  26.559  26.371  1.00  0.00    -0.014 A 
ATOM     82  C   UNL A   1      50.583  25.997  27.338  1.00  0.00     0.010 A 
ATOM     83  C   UNL A   1      50.188  26.681  25.046  1.00  0.00     0.010 A 
ATOM     84  C   UNL A   1      51.878  25.598  26.992  1.00  0.00     0.020 A 
ATOM     85  C   UNL A   1      51.469  26.254  24.690  1.00  0.00     0.020 A 
ATOM     86  C   UNL A   1      52.312  25.727  25.669  1.00  0.00     0.054 A 
BRANCH  86  87
ATOM     87  S   UNL A   1      53.980  25.159  25.239  1.00  0.00     0.124 S 
ATOM     88  O   UNL A   1      54.318  26.027  24.115  1.00  0.00    -0.237 OA
ATOM     89  O   UNL A   1      54.729  25.403  26.470  1.00  0.00    -0.237 OA
ATOM     90  O   UNL A   1      53.791  23.749  24.902  1.00  0.00    -0.744 OA
ENDBRANCH  86  87
ENDBRANCH  60  81
ENDBRANCH  34  35
ENDBRANCH  26  29
ENDBRANCH  24  25
ENDBRANCH   1  24
TORSDOF 16
ENDMDL
