MODEL 1
REMARK VINA RESULT:     -11.6      0.000      0.000
REMARK SMILES C[C@]1(C(=O)NCCCCNC(=O)c2ccc(-c3c4nc(c(-c5ccc(S(=O)(=O)[O-])cc5)c5ccc([nH]5)c(-c5ccc(S(=O)(=O)[O-])cc5)c5nc(c(-c6ccc(S(=O)(=O)[O-])cc6)c6ccc3[nH]6)C=C5)C=C4)cc2)CCN(c2ccc([N+](=O)[O-])c(N)n2)C1
REMARK SMILES IDX 8 1 7 2 6 3 5 4 3 5 4 6 2 8 1 9 73 10 86 11 74 12 75 13
REMARK SMILES IDX 76 14 77 15 85 16 78 17 83 18 79 19 84 20 80 23 81 24 82 25
REMARK SMILES IDX 9 26 10 27 11 28 12 30 13 31 14 32 72 33 15 34 71 35 16 36
REMARK SMILES IDX 17 37 18 38 65 39 19 40 70 41 64 42 66 43 20 44 69 45 63 46
REMARK SMILES IDX 62 47 21 49 51 50 32 51 50 52 33 53 36 54 49 55 67 56 34 57
REMARK SMILES IDX 35 58 48 60 68 61 37 62 22 63 23 64 31 65 24 66 30 67 25 68
REMARK SMILES IDX 26 69 27 70 28 71 29 72 52 73 53 74 61 75 54 76 60 77 55 78
REMARK SMILES IDX 56 79 57 80 58 81 59 82 38 83 39 84 47 85 40 86 46 87 41 88
REMARK SMILES IDX 42 89 43 90 44 91 45 92
REMARK H PARENT 5 7 84 21 84 22 10 29 66 48 36 59
REMARK Flexibility Score: inf
ROOT
ATOM      1  C   UNL A   1      33.325  28.427  25.528  1.00  0.00     0.023 C 
ENDROOT
BRANCH   1   2
ATOM      2  C   UNL A   1      31.890  28.305  25.016  1.00  0.00     0.023 C 
BRANCH   2   3
ATOM      3  C   UNL A   1      31.542  27.025  24.262  1.00  0.00     0.116 C 
BRANCH   3   4
ATOM      4  N   UNL A   1      32.615  26.537  23.424  1.00  0.00    -0.356 N 
ATOM      5  C   UNL A   1      33.236  25.327  23.365  1.00  0.00     0.227 C 
ATOM      6  O   UNL A   1      33.985  25.168  22.396  1.00  0.00    -0.274 OA
ATOM      7  H   UNL A   1      32.959  27.199  22.782  1.00  0.00     0.163 HD
BRANCH   5   8
ATOM      8  C   UNL A   1      33.118  24.254  24.462  1.00  0.00     0.066 C 
ATOM      9  C   UNL A   1      33.578  24.690  25.863  1.00  0.00     0.024 C 
ATOM     10  C   UNL A   1      31.653  23.759  24.564  1.00  0.00     0.040 C 
ATOM     11  C   UNL A   1      33.826  22.970  23.985  1.00  0.00     0.134 C 
ATOM     12  C   UNL A   1      31.759  22.318  25.059  1.00  0.00     0.119 C 
ATOM     13  N   UNL A   1      33.078  21.884  24.617  1.00  0.00    -0.355 N 
BRANCH  13  14
ATOM     14  C   UNL A   1      33.331  20.553  24.399  1.00  0.00     0.131 A 
ATOM     15  C   UNL A   1      34.416  19.912  24.989  1.00  0.00     0.054 A 
ATOM     16  N   UNL A   1      32.480  19.859  23.605  1.00  0.00    -0.207 NA
ATOM     17  C   UNL A   1      34.631  18.554  24.758  1.00  0.00     0.093 A 
ATOM     18  C   UNL A   1      32.702  18.555  23.328  1.00  0.00     0.204 A 
ATOM     19  C   UNL A   1      33.760  17.872  23.908  1.00  0.00     0.311 A 
BRANCH  18  20
ATOM     20  N   UNL A   1      31.746  17.988  22.507  1.00  0.00    -0.378 N 
ATOM     21  H   UNL A   1      31.337  18.520  21.787  1.00  0.00     0.158 HD
ATOM     22  H   UNL A   1      31.475  17.051  22.642  1.00  0.00     0.158 HD
ENDBRANCH  18  20
BRANCH  19  23
ATOM     23  N   UNL A   1      33.991  16.463  23.637  1.00  0.00     0.066 N 
ATOM     24  O   UNL A   1      33.806  15.666  24.570  1.00  0.00    -0.258 OA
ATOM     25  O   UNL A   1      34.391  16.135  22.508  1.00  0.00    -0.258 OA
ENDBRANCH  19  23
ENDBRANCH  13  14
ENDBRANCH   5   8
ENDBRANCH   3   4
ENDBRANCH   2   3
ENDBRANCH   1   2
BRANCH   1  26
ATOM     26  C   UNL A   1      33.495  28.547  27.040  1.00  0.00     0.116 C 
BRANCH  26  27
ATOM     27  N   UNL A   1      33.476  29.921  27.521  1.00  0.00    -0.352 N 
ATOM     28  C   UNL A   1      34.453  30.646  28.164  1.00  0.00     0.251 C 
ATOM     29  H   UNL A   1      32.634  30.406  27.362  1.00  0.00     0.163 HD
ATOM     30  O   UNL A   1      34.196  31.773  28.581  1.00  0.00    -0.269 OA
BRANCH  28  31
ATOM     31  C   UNL A   1      35.793  30.060  28.388  1.00  0.00     0.039 A 
ATOM     32  C   UNL A   1      36.730  30.103  27.351  1.00  0.00     0.014 A 
ATOM     33  C   UNL A   1      36.135  29.488  29.616  1.00  0.00     0.014 A 
ATOM     34  C   UNL A   1      38.035  29.659  27.578  1.00  0.00     0.010 A 
ATOM     35  C   UNL A   1      37.455  29.117  29.862  1.00  0.00     0.010 A 
ATOM     36  C   UNL A   1      38.423  29.209  28.851  1.00  0.00    -0.014 A 
BRANCH  36  37
ATOM     37  C   UNL A   1      39.835  28.851  29.150  1.00  0.00     0.031 A 
ATOM     38  C   UNL A   1      40.766  29.872  29.750  1.00  0.00     0.074 A 
ATOM     39  C   UNL A   1      40.301  27.631  28.813  1.00  0.00     0.049 A 
ATOM     40  N   UNL A   1      42.047  29.775  29.992  1.00  0.00    -0.248 NA
ATOM     41  C   UNL A   1      40.184  31.178  30.101  1.00  0.00     0.031 C 
ATOM     42  C   UNL A   1      39.515  26.566  28.184  1.00  0.00     0.029 A 
ATOM     43  N   UNL A   1      41.554  27.083  28.939  1.00  0.00    -0.354 N 
ATOM     44  C   UNL A   1      42.429  31.007  30.511  1.00  0.00     0.074 A 
ATOM     45  C   UNL A   1      41.253  31.851  30.502  1.00  0.00     0.031 C 
ATOM     46  C   UNL A   1      40.298  25.490  27.998  1.00  0.00     0.029 A 
ATOM     47  C   UNL A   1      41.649  25.799  28.454  1.00  0.00     0.049 A 
ATOM     48  H   UNL A   1      42.314  27.565  29.339  1.00  0.00     0.167 HD
ATOM     49  C   UNL A   1      43.640  31.396  30.975  1.00  0.00     0.031 A 
ATOM     50  C   UNL A   1      42.706  24.967  28.372  1.00  0.00     0.031 A 
ATOM     51  C   UNL A   1      44.806  30.552  30.997  1.00  0.00     0.049 A 
ATOM     52  C   UNL A   1      44.044  25.426  28.890  1.00  0.00     0.074 A 
ATOM     53  C   UNL A   1      46.068  30.845  31.484  1.00  0.00     0.029 A 
ATOM     54  N   UNL A   1      44.852  29.251  30.523  1.00  0.00    -0.354 N 
ATOM     55  N   UNL A   1      44.368  26.579  29.423  1.00  0.00    -0.248 NA
ATOM     56  C   UNL A   1      45.154  24.467  28.804  1.00  0.00     0.031 C 
ATOM     57  C   UNL A   1      46.889  29.732  31.268  1.00  0.00     0.029 A 
ATOM     58  C   UNL A   1      46.123  28.731  30.696  1.00  0.00     0.049 A 
ATOM     59  H   UNL A   1      44.093  28.768  30.123  1.00  0.00     0.167 HD
ATOM     60  C   UNL A   1      45.713  26.473  29.763  1.00  0.00     0.074 A 
ATOM     61  C   UNL A   1      46.135  25.139  29.390  1.00  0.00     0.031 C 
ATOM     62  C   UNL A   1      46.525  27.397  30.330  1.00  0.00     0.031 A 
BRANCH  49  63
ATOM     63  C   UNL A   1      43.766  32.796  31.513  1.00  0.00    -0.014 A 
ATOM     64  C   UNL A   1      43.506  33.070  32.868  1.00  0.00     0.010 A 
ATOM     65  C   UNL A   1      44.208  33.836  30.676  1.00  0.00     0.010 A 
ATOM     66  C   UNL A   1      43.657  34.365  33.370  1.00  0.00     0.020 A 
ATOM     67  C   UNL A   1      44.385  35.129  31.181  1.00  0.00     0.020 A 
ATOM     68  C   UNL A   1      44.097  35.386  32.523  1.00  0.00     0.054 A 
BRANCH  68  69
ATOM     69  S   UNL A   1      44.325  37.047  33.213  1.00  0.00     0.124 S 
ATOM     70  O   UNL A   1      43.192  37.150  34.130  1.00  0.00    -0.237 OA
ATOM     71  O   UNL A   1      45.639  36.953  33.846  1.00  0.00    -0.237 OA
ATOM     72  O   UNL A   1      44.261  37.922  32.044  1.00  0.00    -0.744 OA
ENDBRANCH  68  69
ENDBRANCH  49  63
BRANCH  50  73
ATOM     73  C   UNL A   1      42.551  23.611  27.778  1.00  0.00    -0.014 A 
ATOM     74  C   UNL A   1      42.171  22.518  28.577  1.00  0.00     0.010 A 
ATOM     75  C   UNL A   1      42.806  23.401  26.410  1.00  0.00     0.010 A 
ATOM     76  C   UNL A   1      42.084  21.235  28.028  1.00  0.00     0.020 A 
ATOM     77  C   UNL A   1      42.692  22.125  25.852  1.00  0.00     0.020 A 
ATOM     78  C   UNL A   1      42.350  21.046  26.670  1.00  0.00     0.054 A 
BRANCH  78  79
ATOM     79  S   UNL A   1      42.211  19.377  25.971  1.00  0.00     0.124 S 
ATOM     80  O   UNL A   1      40.781  19.282  25.696  1.00  0.00    -0.237 OA
ATOM     81  O   UNL A   1      43.078  19.451  24.797  1.00  0.00    -0.237 OA
ATOM     82  O   UNL A   1      42.703  18.516  27.045  1.00  0.00    -0.744 OA
ENDBRANCH  78  79
ENDBRANCH  50  73
BRANCH  62  83
ATOM     83  C   UNL A   1      47.944  26.988  30.624  1.00  0.00    -0.014 A 
ATOM     84  C   UNL A   1      48.990  27.299  29.740  1.00  0.00     0.010 A 
ATOM     85  C   UNL A   1      48.237  26.330  31.833  1.00  0.00     0.010 A 
ATOM     86  C   UNL A   1      50.304  26.933  30.045  1.00  0.00     0.020 A 
ATOM     87  C   UNL A   1      49.552  25.986  32.155  1.00  0.00     0.020 A 
ATOM     88  C   UNL A   1      50.576  26.279  31.251  1.00  0.00     0.054 A 
BRANCH  88  89
ATOM     89  S   UNL A   1      52.295  25.854  31.646  1.00  0.00     0.124 S 
ATOM     90  O   UNL A   1      52.962  26.059  30.364  1.00  0.00    -0.237 OA
ATOM     91  O   UNL A   1      52.630  26.819  32.691  1.00  0.00    -0.237 OA
ATOM     92  O   UNL A   1      52.215  24.465  32.094  1.00  0.00    -0.744 OA
ENDBRANCH  88  89
ENDBRANCH  62  83
ENDBRANCH  36  37
ENDBRANCH  28  31
ENDBRANCH  26  27
ENDBRANCH   1  26
TORSDOF 17
ENDMDL
MODEL 2
REMARK VINA RESULT:     -11.3      2.245      4.558
REMARK SMILES C[C@]1(C(=O)NCCCCNC(=O)c2ccc(-c3c4nc(c(-c5ccc(S(=O)(=O)[O-])cc5)c5ccc([nH]5)c(-c5ccc(S(=O)(=O)[O-])cc5)c5nc(c(-c6ccc(S(=O)(=O)[O-])cc6)c6ccc3[nH]6)C=C5)C=C4)cc2)CCN(c2ccc([N+](=O)[O-])c(N)n2)C1
REMARK SMILES IDX 8 1 7 2 6 3 5 4 3 5 4 6 2 8 1 9 73 10 86 11 74 12 75 13
REMARK SMILES IDX 76 14 77 15 85 16 78 17 83 18 79 19 84 20 80 23 81 24 82 25
REMARK SMILES IDX 9 26 10 27 11 28 12 30 13 31 14 32 72 33 15 34 71 35 16 36
REMARK SMILES IDX 17 37 18 38 65 39 19 40 70 41 64 42 66 43 20 44 69 45 63 46
REMARK SMILES IDX 62 47 21 49 51 50 32 51 50 52 33 53 36 54 49 55 67 56 34 57
REMARK SMILES IDX 35 58 48 60 68 61 37 62 22 63 23 64 31 65 24 66 30 67 25 68
REMARK SMILES IDX 26 69 27 70 28 71 29 72 52 73 53 74 61 75 54 76 60 77 55 78
REMARK SMILES IDX 56 79 57 80 58 81 59 82 38 83 39 84 47 85 40 86 46 87 41 88
REMARK SMILES IDX 42 89 43 90 44 91 45 92
REMARK H PARENT 5 7 84 21 84 22 10 29 66 48 36 59
REMARK Flexibility Score: inf
ROOT
ATOM      1  C   UNL A   1      33.164  28.333  25.725  1.00  0.00     0.023 C 
ENDROOT
BRANCH   1   2
ATOM      2  C   UNL A   1      34.004  27.248  25.051  1.00  0.00     0.023 C 
BRANCH   2   3
ATOM      3  C   UNL A   1      34.038  25.886  25.737  1.00  0.00     0.116 C 
BRANCH   3   4
ATOM      4  N   UNL A   1      34.326  24.791  24.836  1.00  0.00    -0.356 N 
ATOM      5  C   UNL A   1      33.567  24.176  23.889  1.00  0.00     0.227 C 
ATOM      6  O   UNL A   1      34.178  23.400  23.148  1.00  0.00    -0.274 OA
ATOM      7  H   UNL A   1      35.236  24.425  24.924  1.00  0.00     0.163 HD
BRANCH   5   8
ATOM      8  C   UNL A   1      32.038  24.332  23.790  1.00  0.00     0.066 C 
ATOM      9  C   UNL A   1      31.294  23.143  23.160  1.00  0.00     0.024 C 
ATOM     10  C   UNL A   1      31.440  24.592  25.195  1.00  0.00     0.040 C 
ATOM     11  C   UNL A   1      31.717  25.665  23.085  1.00  0.00     0.134 C 
ATOM     12  C   UNL A   1      30.181  25.420  24.939  1.00  0.00     0.119 C 
ATOM     13  N   UNL A   1      30.448  26.092  23.674  1.00  0.00    -0.355 N 
BRANCH  13  14
ATOM     14  C   UNL A   1      29.830  27.282  23.379  1.00  0.00     0.131 A 
ATOM     15  C   UNL A   1      30.559  28.411  23.020  1.00  0.00     0.054 A 
ATOM     16  N   UNL A   1      28.477  27.331  23.425  1.00  0.00    -0.207 NA
ATOM     17  C   UNL A   1      29.894  29.597  22.711  1.00  0.00     0.093 A 
ATOM     18  C   UNL A   1      27.818  28.485  23.179  1.00  0.00     0.204 A 
ATOM     19  C   UNL A   1      28.502  29.630  22.800  1.00  0.00     0.311 A 
BRANCH  18  20
ATOM     20  N   UNL A   1      26.444  28.373  23.263  1.00  0.00    -0.378 N 
ATOM     21  H   UNL A   1      25.913  29.104  23.655  1.00  0.00     0.158 HD
ATOM     22  H   UNL A   1      25.995  27.563  22.930  1.00  0.00     0.158 HD
ENDBRANCH  18  20
BRANCH  19  23
ATOM     23  N   UNL A   1      27.801  30.869  22.508  1.00  0.00     0.066 N 
ATOM     24  O   UNL A   1      27.082  31.342  23.401  1.00  0.00    -0.258 OA
ATOM     25  O   UNL A   1      27.927  31.367  21.377  1.00  0.00    -0.258 OA
ENDBRANCH  19  23
ENDBRANCH  13  14
ENDBRANCH   5   8
ENDBRANCH   3   4
ENDBRANCH   2   3
ENDBRANCH   1   2
BRANCH   1  26
ATOM     26  C   UNL A   1      33.415  28.554  27.213  1.00  0.00     0.116 C 
BRANCH  26  27
ATOM     27  N   UNL A   1      33.429  29.958  27.599  1.00  0.00    -0.352 N 
ATOM     28  C   UNL A   1      34.433  30.709  28.166  1.00  0.00     0.251 C 
ATOM     29  H   UNL A   1      32.591  30.445  27.428  1.00  0.00     0.163 HD
ATOM     30  O   UNL A   1      34.204  31.866  28.511  1.00  0.00    -0.269 OA
BRANCH  28  31
ATOM     31  C   UNL A   1      35.769  30.118  28.397  1.00  0.00     0.039 A 
ATOM     32  C   UNL A   1      36.697  30.117  27.351  1.00  0.00     0.014 A 
ATOM     33  C   UNL A   1      36.118  29.582  29.640  1.00  0.00     0.014 A 
ATOM     34  C   UNL A   1      38.000  29.668  27.581  1.00  0.00     0.010 A 
ATOM     35  C   UNL A   1      37.436  29.206  29.887  1.00  0.00     0.010 A 
ATOM     36  C   UNL A   1      38.395  29.256  28.864  1.00  0.00    -0.014 A 
BRANCH  36  37
ATOM     37  C   UNL A   1      39.806  28.894  29.162  1.00  0.00     0.031 A 
ATOM     38  C   UNL A   1      40.741  29.913  29.760  1.00  0.00     0.074 A 
ATOM     39  C   UNL A   1      40.268  27.672  28.826  1.00  0.00     0.049 A 
ATOM     40  N   UNL A   1      42.023  29.812  30.001  1.00  0.00    -0.248 NA
ATOM     41  C   UNL A   1      40.164  31.221  30.110  1.00  0.00     0.031 C 
ATOM     42  C   UNL A   1      39.478  26.608  28.199  1.00  0.00     0.029 A 
ATOM     43  N   UNL A   1      41.520  27.121  28.951  1.00  0.00    -0.354 N 
ATOM     44  C   UNL A   1      42.409  31.044  30.518  1.00  0.00     0.074 A 
ATOM     45  C   UNL A   1      41.236  31.892  30.509  1.00  0.00     0.031 C 
ATOM     46  C   UNL A   1      40.258  25.530  28.014  1.00  0.00     0.029 A 
ATOM     47  C   UNL A   1      41.610  25.836  28.468  1.00  0.00     0.049 A 
ATOM     48  H   UNL A   1      42.281  27.601  29.350  1.00  0.00     0.167 HD
ATOM     49  C   UNL A   1      43.621  31.429  30.980  1.00  0.00     0.031 A 
ATOM     50  C   UNL A   1      42.665  25.000  28.386  1.00  0.00     0.031 A 
ATOM     51  C   UNL A   1      44.785  30.582  31.002  1.00  0.00     0.049 A 
ATOM     52  C   UNL A   1      44.004  25.455  28.901  1.00  0.00     0.074 A 
ATOM     53  C   UNL A   1      46.049  30.871  31.487  1.00  0.00     0.029 A 
ATOM     54  N   UNL A   1      44.826  29.280  30.529  1.00  0.00    -0.354 N 
ATOM     55  N   UNL A   1      44.333  26.609  29.433  1.00  0.00    -0.248 NA
ATOM     56  C   UNL A   1      45.112  24.493  28.815  1.00  0.00     0.031 C 
ATOM     57  C   UNL A   1      46.866  29.756  31.272  1.00  0.00     0.029 A 
ATOM     58  C   UNL A   1      46.096  28.757  30.701  1.00  0.00     0.049 A 
ATOM     59  H   UNL A   1      44.065  28.799  30.131  1.00  0.00     0.167 HD
ATOM     60  C   UNL A   1      45.677  26.498  29.771  1.00  0.00     0.074 A 
ATOM     61  C   UNL A   1      46.095  25.163  29.400  1.00  0.00     0.031 C 
ATOM     62  C   UNL A   1      46.493  27.421  30.337  1.00  0.00     0.031 A 
BRANCH  49  63
ATOM     63  C   UNL A   1      43.752  32.829  31.516  1.00  0.00    -0.014 A 
ATOM     64  C   UNL A   1      44.054  33.902  30.657  1.00  0.00     0.010 A 
ATOM     65  C   UNL A   1      43.510  33.089  32.877  1.00  0.00     0.010 A 
ATOM     66  C   UNL A   1      44.141  35.204  31.154  1.00  0.00     0.020 A 
ATOM     67  C   UNL A   1      43.571  34.396  33.373  1.00  0.00     0.020 A 
ATOM     68  C   UNL A   1      43.898  35.443  32.510  1.00  0.00     0.054 A 
BRANCH  68  69
ATOM     69  S   UNL A   1      43.976  37.150  33.117  1.00  0.00     0.124 S 
ATOM     70  O   UNL A   1      43.896  37.915  31.875  1.00  0.00    -0.237 OA
ATOM     71  O   UNL A   1      42.802  37.235  33.983  1.00  0.00    -0.237 OA
ATOM     72  O   UNL A   1      45.262  37.215  33.808  1.00  0.00    -0.744 OA
ENDBRANCH  68  69
ENDBRANCH  49  63
BRANCH  50  73
ATOM     73  C   UNL A   1      42.505  23.644  27.794  1.00  0.00    -0.014 A 
ATOM     74  C   UNL A   1      42.007  22.579  28.565  1.00  0.00     0.010 A 
ATOM     75  C   UNL A   1      42.873  23.404  26.457  1.00  0.00     0.010 A 
ATOM     76  C   UNL A   1      41.913  21.293  28.024  1.00  0.00     0.020 A 
ATOM     77  C   UNL A   1      42.754  22.126  25.903  1.00  0.00     0.020 A 
ATOM     78  C   UNL A   1      42.292  21.075  26.697  1.00  0.00     0.054 A 
BRANCH  78  79
ATOM     79  S   UNL A   1      42.145  19.404  26.005  1.00  0.00     0.124 S 
ATOM     80  O   UNL A   1      42.962  19.503  24.800  1.00  0.00    -0.237 OA
ATOM     81  O   UNL A   1      42.689  18.568  27.073  1.00  0.00    -0.237 OA
ATOM     82  O   UNL A   1      40.708  19.254  25.779  1.00  0.00    -0.744 OA
ENDBRANCH  78  79
ENDBRANCH  50  73
BRANCH  62  83
ATOM     83  C   UNL A   1      47.911  27.008  30.630  1.00  0.00    -0.014 A 
ATOM     84  C   UNL A   1      48.941  27.228  29.700  1.00  0.00     0.010 A 
ATOM     85  C   UNL A   1      48.221  26.440  31.879  1.00  0.00     0.010 A 
ATOM     86  C   UNL A   1      50.255  26.861  30.004  1.00  0.00     0.020 A 
ATOM     87  C   UNL A   1      49.538  26.096  32.197  1.00  0.00     0.020 A 
ATOM     88  C   UNL A   1      50.544  26.297  31.250  1.00  0.00     0.054 A 
BRANCH  88  89
ATOM     89  S   UNL A   1      52.264  25.870  31.639  1.00  0.00     0.124 S 
ATOM     90  O   UNL A   1      52.577  26.813  32.710  1.00  0.00    -0.237 OA
ATOM     91  O   UNL A   1      52.163  24.470  32.043  1.00  0.00    -0.237 OA
ATOM     92  O   UNL A   1      52.971  26.099  30.380  1.00  0.00    -0.744 OA
ENDBRANCH  88  89
ENDBRANCH  62  83
ENDBRANCH  36  37
ENDBRANCH  28  31
ENDBRANCH  26  27
ENDBRANCH   1  26
TORSDOF 17
ENDMDL
MODEL 3
REMARK VINA RESULT:     -11.3      4.653     10.809
REMARK SMILES C[C@]1(C(=O)NCCCCNC(=O)c2ccc(-c3c4nc(c(-c5ccc(S(=O)(=O)[O-])cc5)c5ccc([nH]5)c(-c5ccc(S(=O)(=O)[O-])cc5)c5nc(c(-c6ccc(S(=O)(=O)[O-])cc6)c6ccc3[nH]6)C=C5)C=C4)cc2)CCN(c2ccc([N+](=O)[O-])c(N)n2)C1
REMARK SMILES IDX 8 1 7 2 6 3 5 4 3 5 4 6 2 8 1 9 73 10 86 11 74 12 75 13
REMARK SMILES IDX 76 14 77 15 85 16 78 17 83 18 79 19 84 20 80 23 81 24 82 25
REMARK SMILES IDX 9 26 10 27 11 28 12 30 13 31 14 32 72 33 15 34 71 35 16 36
REMARK SMILES IDX 17 37 18 38 65 39 19 40 70 41 64 42 66 43 20 44 69 45 63 46
REMARK SMILES IDX 62 47 21 49 51 50 32 51 50 52 33 53 36 54 49 55 67 56 34 57
REMARK SMILES IDX 35 58 48 60 68 61 37 62 22 63 23 64 31 65 24 66 30 67 25 68
REMARK SMILES IDX 26 69 27 70 28 71 29 72 52 73 53 74 61 75 54 76 60 77 55 78
REMARK SMILES IDX 56 79 57 80 58 81 59 82 38 83 39 84 47 85 40 86 46 87 41 88
REMARK SMILES IDX 42 89 43 90 44 91 45 92
REMARK H PARENT 5 7 84 21 84 22 10 29 66 48 36 59
REMARK Flexibility Score: inf
ROOT
ATOM      1  C   UNL A   1      37.393  23.546  25.337  1.00  0.00     0.023 C 
ENDROOT
BRANCH   1   2
ATOM      2  C   UNL A   1      36.835  22.127  25.447  1.00  0.00     0.023 C 
BRANCH   2   3
ATOM      3  C   UNL A   1      35.326  21.972  25.281  1.00  0.00     0.116 C 
BRANCH   3   4
ATOM      4  N   UNL A   1      34.855  22.291  23.951  1.00  0.00    -0.356 N 
ATOM      5  C   UNL A   1      34.108  23.328  23.482  1.00  0.00     0.227 C 
ATOM      6  O   UNL A   1      34.046  23.415  22.252  1.00  0.00    -0.274 OA
ATOM      7  H   UNL A   1      35.121  21.641  23.262  1.00  0.00     0.163 HD
BRANCH   5   8
ATOM      8  C   UNL A   1      33.302  24.276  24.388  1.00  0.00     0.066 C 
ATOM      9  C   UNL A   1      32.916  23.704  25.763  1.00  0.00     0.024 C 
ATOM     10  C   UNL A   1      34.089  25.591  24.612  1.00  0.00     0.040 C 
ATOM     11  C   UNL A   1      32.080  24.797  23.605  1.00  0.00     0.134 C 
ATOM     12  C   UNL A   1      33.017  26.657  24.837  1.00  0.00     0.119 C 
ATOM     13  N   UNL A   1      31.845  26.136  24.145  1.00  0.00    -0.355 N 
BRANCH  13  14
ATOM     14  C   UNL A   1      30.883  26.993  23.672  1.00  0.00     0.131 A 
ATOM     15  C   UNL A   1      29.529  26.762  23.893  1.00  0.00     0.054 A 
ATOM     16  N   UNL A   1      31.284  28.096  22.994  1.00  0.00    -0.207 NA
ATOM     17  C   UNL A   1      28.583  27.665  23.412  1.00  0.00     0.093 A 
ATOM     18  C   UNL A   1      30.379  28.955  22.475  1.00  0.00     0.204 A 
ATOM     19  C   UNL A   1      29.020  28.774  22.686  1.00  0.00     0.311 A 
BRANCH  18  20
ATOM     20  N   UNL A   1      30.942  30.029  21.814  1.00  0.00    -0.378 N 
ATOM     21  H   UNL A   1      31.655  30.553  22.245  1.00  0.00     0.158 HD
ATOM     22  H   UNL A   1      30.630  30.270  20.912  1.00  0.00     0.158 HD
ENDBRANCH  18  20
BRANCH  19  23
ATOM     23  N   UNL A   1      28.040  29.707  22.156  1.00  0.00     0.066 N 
ATOM     24  O   UNL A   1      27.144  30.089  22.923  1.00  0.00    -0.258 OA
ATOM     25  O   UNL A   1      28.129  30.042  20.964  1.00  0.00    -0.258 OA
ENDBRANCH  19  23
ENDBRANCH  13  14
ENDBRANCH   5   8
ENDBRANCH   3   4
ENDBRANCH   2   3
ENDBRANCH   1   2
BRANCH   1  26
ATOM     26  C   UNL A   1      38.318  23.997  26.464  1.00  0.00     0.116 C 
BRANCH  26  27
ATOM     27  N   UNL A   1      39.733  23.891  26.133  1.00  0.00    -0.352 N 
ATOM     28  C   UNL A   1      40.791  24.684  26.514  1.00  0.00     0.251 C 
ATOM     29  H   UNL A   1      39.968  23.136  25.547  1.00  0.00     0.163 HD
ATOM     30  O   UNL A   1      41.904  24.479  26.036  1.00  0.00    -0.269 OA
BRANCH  28  31
ATOM     31  C   UNL A   1      40.584  25.802  27.460  1.00  0.00     0.039 A 
ATOM     32  C   UNL A   1      39.638  25.657  28.480  1.00  0.00     0.014 A 
ATOM     33  C   UNL A   1      41.328  26.980  27.361  1.00  0.00     0.014 A 
ATOM     34  C   UNL A   1      39.507  26.653  29.451  1.00  0.00     0.010 A 
ATOM     35  C   UNL A   1      41.250  27.936  28.372  1.00  0.00     0.010 A 
ATOM     36  C   UNL A   1      40.348  27.778  29.434  1.00  0.00    -0.014 A 
BRANCH  36  37
ATOM     37  C   UNL A   1      40.315  28.787  30.526  1.00  0.00     0.031 A 
ATOM     38  C   UNL A   1      41.225  28.646  31.718  1.00  0.00     0.074 A 
ATOM     39  C   UNL A   1      39.413  29.789  30.482  1.00  0.00     0.049 A 
ATOM     40  N   UNL A   1      41.273  29.369  32.807  1.00  0.00    -0.248 NA
ATOM     41  C   UNL A   1      42.189  27.534  31.692  1.00  0.00     0.031 C 
ATOM     42  C   UNL A   1      38.444  30.013  29.406  1.00  0.00     0.029 A 
ATOM     43  N   UNL A   1      39.155  30.803  31.373  1.00  0.00    -0.354 N 
ATOM     44  C   UNL A   1      42.260  28.795  33.600  1.00  0.00     0.074 A 
ATOM     45  C   UNL A   1      42.751  27.634  32.888  1.00  0.00     0.031 C 
ATOM     46  C   UNL A   1      37.712  31.104  29.690  1.00  0.00     0.029 A 
ATOM     47  C   UNL A   1      38.129  31.633  30.984  1.00  0.00     0.049 A 
ATOM     48  H   UNL A   1      39.658  30.924  32.210  1.00  0.00     0.167 HD
ATOM     49  C   UNL A   1      42.734  29.207  34.799  1.00  0.00     0.031 A 
ATOM     50  C   UNL A   1      37.576  32.694  31.604  1.00  0.00     0.031 A 
ATOM     51  C   UNL A   1      42.257  30.370  35.500  1.00  0.00     0.049 A 
ATOM     52  C   UNL A   1      38.116  33.129  32.941  1.00  0.00     0.074 A 
ATOM     53  C   UNL A   1      42.702  30.890  36.704  1.00  0.00     0.029 A 
ATOM     54  N   UNL A   1      41.237  31.198  35.060  1.00  0.00    -0.354 N 
ATOM     55  N   UNL A   1      39.085  32.599  33.648  1.00  0.00    -0.248 NA
ATOM     56  C   UNL A   1      37.495  34.310  33.557  1.00  0.00     0.031 C 
ATOM     57  C   UNL A   1      41.923  32.011  37.010  1.00  0.00     0.029 A 
ATOM     58  C   UNL A   1      41.031  32.218  35.972  1.00  0.00     0.049 A 
ATOM     59  H   UNL A   1      40.734  31.079  34.222  1.00  0.00     0.167 HD
ATOM     60  C   UNL A   1      39.210  33.400  34.778  1.00  0.00     0.074 A 
ATOM     61  C   UNL A   1      38.229  34.458  34.652  1.00  0.00     0.031 C 
ATOM     62  C   UNL A   1      40.058  33.271  35.826  1.00  0.00     0.031 A 
BRANCH  49  63
ATOM     63  C   UNL A   1      43.839  28.402  35.428  1.00  0.00    -0.014 A 
ATOM     64  C   UNL A   1      43.545  27.331  36.291  1.00  0.00     0.010 A 
ATOM     65  C   UNL A   1      45.181  28.676  35.108  1.00  0.00     0.010 A 
ATOM     66  C   UNL A   1      44.573  26.565  36.845  1.00  0.00     0.020 A 
ATOM     67  C   UNL A   1      46.212  27.896  35.641  1.00  0.00     0.020 A 
ATOM     68  C   UNL A   1      45.902  26.853  36.516  1.00  0.00     0.054 A 
BRANCH  68  69
ATOM     69  S   UNL A   1      47.213  25.815  37.217  1.00  0.00     0.124 S 
ATOM     70  O   UNL A   1      48.299  26.013  36.259  1.00  0.00    -0.237 OA
ATOM     71  O   UNL A   1      47.422  26.411  38.535  1.00  0.00    -0.237 OA
ATOM     72  O   UNL A   1      46.628  24.476  37.228  1.00  0.00    -0.744 OA
ENDBRANCH  68  69
ENDBRANCH  49  63
BRANCH  50  73
ATOM     73  C   UNL A   1      36.444  33.427  30.974  1.00  0.00    -0.014 A 
ATOM     74  C   UNL A   1      36.562  33.946  29.672  1.00  0.00     0.010 A 
ATOM     75  C   UNL A   1      35.245  33.631  31.683  1.00  0.00     0.010 A 
ATOM     76  C   UNL A   1      35.519  34.684  29.105  1.00  0.00     0.020 A 
ATOM     77  C   UNL A   1      34.189  34.344  31.108  1.00  0.00     0.020 A 
ATOM     78  C   UNL A   1      34.341  34.882  29.829  1.00  0.00     0.054 A 
BRANCH  78  79
ATOM     79  S   UNL A   1      32.990  35.826  29.069  1.00  0.00     0.124 S 
ATOM     80  O   UNL A   1      32.371  34.825  28.206  1.00  0.00    -0.237 OA
ATOM     81  O   UNL A   1      32.201  36.240  30.227  1.00  0.00    -0.237 OA
ATOM     82  O   UNL A   1      33.681  36.912  28.376  1.00  0.00    -0.744 OA
ENDBRANCH  78  79
ENDBRANCH  50  73
BRANCH  62  83
ATOM     83  C   UNL A   1      39.996  34.321  36.904  1.00  0.00    -0.014 A 
ATOM     84  C   UNL A   1      39.085  34.220  37.968  1.00  0.00     0.010 A 
ATOM     85  C   UNL A   1      40.903  35.395  36.874  1.00  0.00     0.010 A 
ATOM     86  C   UNL A   1      39.063  35.192  38.972  1.00  0.00     0.020 A 
ATOM     87  C   UNL A   1      40.903  36.355  37.890  1.00  0.00     0.020 A 
ATOM     88  C   UNL A   1      39.972  36.254  38.926  1.00  0.00     0.054 A 
BRANCH  88  89
ATOM     89  S   UNL A   1      39.954  37.479  40.264  1.00  0.00     0.124 S 
ATOM     90  O   UNL A   1      40.763  38.556  39.700  1.00  0.00    -0.237 OA
ATOM     91  O   UNL A   1      38.531  37.771  40.411  1.00  0.00    -0.237 OA
ATOM     92  O   UNL A   1      40.558  36.770  41.390  1.00  0.00    -0.744 OA
ENDBRANCH  88  89
ENDBRANCH  62  83
ENDBRANCH  36  37
ENDBRANCH  28  31
ENDBRANCH  26  27
ENDBRANCH   1  26
TORSDOF 17
ENDMDL
