MODEL 1
REMARK VINA RESULT:     -10.8      0.000      0.000
REMARK SMILES O=C(NCCCCNC(=O)c1cc(SCC(=O)N2CCOCC2)ccn1)c1ccc(-c2c3nc(c(-c4ccc(S(=O)(=O)[O-])cc4)c4ccc([nH]4)c(-c4ccc(S(=O)(=O)[O-])cc4)c4nc(c(-c5ccc(S(=O)(=O)[O-])cc5)c5ccc2[nH]5)C=C4)C=C3)cc1
REMARK SMILES IDX 5 1 4 2 3 3 1 4 2 5 27 7 28 8 86 9 29 10 85 11 30 12 31 13
REMARK SMILES IDX 32 14 79 15 33 16 84 17 78 18 80 19 34 20 83 21 77 22 76 23
REMARK SMILES IDX 35 25 65 26 46 27 64 28 47 29 50 30 63 31 81 32 48 33 49 34
REMARK SMILES IDX 62 36 82 37 51 38 36 39 37 40 45 41 38 42 44 43 39 44 40 45
REMARK SMILES IDX 41 46 42 47 43 48 66 49 67 50 75 51 68 52 74 53 69 54 70 55
REMARK SMILES IDX 71 56 72 57 73 58 52 59 53 60 61 61 54 62 60 63 55 64 56 65
REMARK SMILES IDX 57 66 58 67 59 68 6 69 7 70 8 71 9 72 10 74 11 75 12 76
REMARK SMILES IDX 26 77 13 78 25 79 24 80 14 81 15 82 16 83 17 84 18 85 19 86
REMARK SMILES IDX 23 87 20 88 22 89 21 90
REMARK H PARENT 3 6 80 24 50 35 8 73
REMARK Flexibility Score: inf
ROOT
ATOM      1  C   UNL A   1      34.023  27.839  25.050  1.00  0.00     0.023 C 
ENDROOT
BRANCH   1   2
ATOM      2  C   UNL A   1      33.943  28.099  26.552  1.00  0.00     0.116 C 
BRANCH   2   3
ATOM      3  N   UNL A   1      33.627  29.483  26.870  1.00  0.00    -0.352 N 
ATOM      4  O   UNL A   1      33.826  31.472  27.913  1.00  0.00    -0.269 OA
ATOM      5  C   UNL A   1      34.338  30.396  27.613  1.00  0.00     0.251 C 
ATOM      6  H   UNL A   1      32.777  29.815  26.499  1.00  0.00     0.163 HD
BRANCH   5   7
ATOM      7  C   UNL A   1      35.712  30.071  28.059  1.00  0.00     0.039 A 
ATOM      8  C   UNL A   1      36.791  30.172  27.176  1.00  0.00     0.014 A 
ATOM      9  C   UNL A   1      35.925  29.664  29.378  1.00  0.00     0.014 A 
ATOM     10  C   UNL A   1      38.054  29.735  27.567  1.00  0.00     0.010 A 
ATOM     11  C   UNL A   1      37.209  29.293  29.791  1.00  0.00     0.010 A 
ATOM     12  C   UNL A   1      38.277  29.292  28.879  1.00  0.00    -0.014 A 
BRANCH  12  13
ATOM     13  C   UNL A   1      39.634  28.857  29.300  1.00  0.00     0.031 A 
ATOM     14  C   UNL A   1      40.532  29.778  30.080  1.00  0.00     0.074 A 
ATOM     15  C   UNL A   1      40.064  27.625  28.967  1.00  0.00     0.049 A 
ATOM     16  N   UNL A   1      41.764  29.587  30.476  1.00  0.00    -0.248 NA
ATOM     17  C   UNL A   1      39.975  31.088  30.457  1.00  0.00     0.031 C 
ATOM     18  C   UNL A   1      39.286  26.633  28.222  1.00  0.00     0.029 A 
ATOM     19  N   UNL A   1      41.260  26.998  29.208  1.00  0.00    -0.354 N 
ATOM     20  C   UNL A   1      42.142  30.758  31.126  1.00  0.00     0.074 A 
ATOM     21  C   UNL A   1      41.012  31.660  31.053  1.00  0.00     0.031 C 
ATOM     22  C   UNL A   1      40.017  25.518  28.080  1.00  0.00     0.029 A 
ATOM     23  C   UNL A   1      41.334  25.735  28.671  1.00  0.00     0.049 A 
ATOM     24  H   UNL A   1      41.995  27.412  29.716  1.00  0.00     0.167 HD
ATOM     25  C   UNL A   1      43.321  31.053  31.724  1.00  0.00     0.031 A 
ATOM     26  C   UNL A   1      42.352  24.856  28.629  1.00  0.00     0.031 A 
ATOM     27  C   UNL A   1      44.444  30.154  31.790  1.00  0.00     0.049 A 
ATOM     28  C   UNL A   1      43.662  25.214  29.268  1.00  0.00     0.074 A 
ATOM     29  C   UNL A   1      45.673  30.354  32.395  1.00  0.00     0.029 A 
ATOM     30  N   UNL A   1      44.479  28.888  31.225  1.00  0.00    -0.354 N 
ATOM     31  N   UNL A   1      43.993  26.318  29.894  1.00  0.00    -0.248 NA
ATOM     32  C   UNL A   1      44.733  24.211  29.200  1.00  0.00     0.031 C 
ATOM     33  C   UNL A   1      46.467  29.226  32.157  1.00  0.00     0.029 A 
ATOM     34  C   UNL A   1      45.714  28.303  31.449  1.00  0.00     0.049 A 
ATOM     35  H   UNL A   1      43.736  28.467  30.736  1.00  0.00     0.167 HD
ATOM     36  C   UNL A   1      45.305  26.134  30.316  1.00  0.00     0.074 A 
ATOM     37  C   UNL A   1      45.703  24.812  29.877  1.00  0.00     0.031 C 
ATOM     38  C   UNL A   1      46.100  26.984  31.009  1.00  0.00     0.031 A 
BRANCH  25  39
ATOM     39  C   UNL A   1      43.469  32.430  32.319  1.00  0.00    -0.014 A 
ATOM     40  C   UNL A   1      43.979  33.503  31.567  1.00  0.00     0.010 A 
ATOM     41  C   UNL A   1      43.078  32.654  33.652  1.00  0.00     0.010 A 
ATOM     42  C   UNL A   1      44.151  34.760  32.154  1.00  0.00     0.020 A 
ATOM     43  C   UNL A   1      43.225  33.916  34.236  1.00  0.00     0.020 A 
ATOM     44  C   UNL A   1      43.785  34.955  33.490  1.00  0.00     0.054 A 
BRANCH  44  45
ATOM     45  S   UNL A   1      44.039  36.588  34.237  1.00  0.00     0.124 S 
ATOM     46  O   UNL A   1      43.382  37.465  33.271  1.00  0.00    -0.237 OA
ATOM     47  O   UNL A   1      43.366  36.462  35.528  1.00  0.00    -0.237 OA
ATOM     48  O   UNL A   1      45.492  36.715  34.307  1.00  0.00    -0.744 OA
ENDBRANCH  44  45
ENDBRANCH  25  39
BRANCH  26  49
ATOM     49  C   UNL A   1      42.154  23.554  27.937  1.00  0.00    -0.014 A 
ATOM     50  C   UNL A   1      42.728  23.321  26.676  1.00  0.00     0.010 A 
ATOM     51  C   UNL A   1      41.456  22.514  28.579  1.00  0.00     0.010 A 
ATOM     52  C   UNL A   1      42.614  22.065  26.072  1.00  0.00     0.020 A 
ATOM     53  C   UNL A   1      41.361  21.252  27.988  1.00  0.00     0.020 A 
ATOM     54  C   UNL A   1      41.939  21.036  26.736  1.00  0.00     0.054 A 
BRANCH  54  55
ATOM     55  S   UNL A   1      41.892  19.388  25.980  1.00  0.00     0.124 S 
ATOM     56  O   UNL A   1      40.471  19.231  25.683  1.00  0.00    -0.237 OA
ATOM     57  O   UNL A   1      42.767  19.546  24.820  1.00  0.00    -0.237 OA
ATOM     58  O   UNL A   1      42.414  18.515  27.028  1.00  0.00    -0.744 OA
ENDBRANCH  54  55
ENDBRANCH  26  49
BRANCH  38  59
ATOM     59  C   UNL A   1      47.477  26.504  31.378  1.00  0.00    -0.014 A 
ATOM     60  C   UNL A   1      47.722  25.864  32.607  1.00  0.00     0.010 A 
ATOM     61  C   UNL A   1      48.523  26.625  30.446  1.00  0.00     0.010 A 
ATOM     62  C   UNL A   1      48.995  25.367  32.899  1.00  0.00     0.020 A 
ATOM     63  C   UNL A   1      49.791  26.108  30.726  1.00  0.00     0.020 A 
ATOM     64  C   UNL A   1      50.020  25.488  31.956  1.00  0.00     0.054 A 
BRANCH  64  65
ATOM     65  S   UNL A   1      51.645  24.771  32.329  1.00  0.00     0.124 S 
ATOM     66  O   UNL A   1      51.416  23.352  32.077  1.00  0.00    -0.237 OA
ATOM     67  O   UNL A   1      52.521  25.446  31.374  1.00  0.00    -0.237 OA
ATOM     68  O   UNL A   1      51.868  25.128  33.728  1.00  0.00    -0.744 OA
ENDBRANCH  64  65
ENDBRANCH  38  59
ENDBRANCH  12  13
ENDBRANCH   5   7
ENDBRANCH   2   3
ENDBRANCH   1   2
BRANCH   1  69
ATOM     69  C   UNL A   1      33.483  28.957  24.161  1.00  0.00     0.023 C 
BRANCH  69  70
ATOM     70  C   UNL A   1      33.293  28.584  22.698  1.00  0.00     0.116 C 
BRANCH  70  71
ATOM     71  N   UNL A   1      31.963  28.862  22.190  1.00  0.00    -0.351 N 
ATOM     72  C   UNL A   1      30.789  28.194  22.468  1.00  0.00     0.269 C 
ATOM     73  H   UNL A   1      31.888  29.624  21.570  1.00  0.00     0.163 HD
ATOM     74  O   UNL A   1      29.727  28.581  21.989  1.00  0.00    -0.268 OA
BRANCH  72  75
ATOM     75  C   UNL A   1      30.831  26.993  23.345  1.00  0.00     0.129 A 
ATOM     76  C   UNL A   1      31.420  25.817  22.891  1.00  0.00     0.049 A 
ATOM     77  N   UNL A   1      30.202  27.121  24.542  1.00  0.00    -0.251 NA
ATOM     78  C   UNL A   1      31.289  24.682  23.680  1.00  0.00     0.012 A 
ATOM     79  C   UNL A   1      30.147  26.024  25.311  1.00  0.00     0.113 A 
ATOM     80  C   UNL A   1      30.657  24.799  24.923  1.00  0.00     0.035 A 
BRANCH  78  81
ATOM     81  S   UNL A   1      31.870  23.054  23.259  1.00  0.00    -0.116 SA
BRANCH  81  82
ATOM     82  C   UNL A   1      33.643  23.035  23.617  1.00  0.00     0.175 C 
BRANCH  82  83
ATOM     83  C   UNL A   1      34.239  21.922  24.466  1.00  0.00     0.233 C 
ATOM     84  O   UNL A   1      33.772  20.784  24.334  1.00  0.00    -0.274 OA
ATOM     85  N   UNL A   1      35.391  22.114  25.198  1.00  0.00    -0.337 N 
ATOM     86  C   UNL A   1      35.861  23.348  25.825  1.00  0.00     0.148 C 
ATOM     87  C   UNL A   1      36.293  20.977  25.437  1.00  0.00     0.148 C 
ATOM     88  C   UNL A   1      37.294  23.659  25.393  1.00  0.00     0.181 C 
ATOM     89  C   UNL A   1      37.717  21.358  24.998  1.00  0.00     0.181 C 
ATOM     90  O   UNL A   1      38.165  22.553  25.666  1.00  0.00    -0.378 OA
ENDBRANCH  82  83
ENDBRANCH  81  82
ENDBRANCH  78  81
ENDBRANCH  72  75
ENDBRANCH  70  71
ENDBRANCH  69  70
ENDBRANCH   1  69
TORSDOF 17
ENDMDL
MODEL 2
REMARK VINA RESULT:     -10.7      1.720      2.470
REMARK SMILES O=C(NCCCCNC(=O)c1cc(SCC(=O)N2CCOCC2)ccn1)c1ccc(-c2c3nc(c(-c4ccc(S(=O)(=O)[O-])cc4)c4ccc([nH]4)c(-c4ccc(S(=O)(=O)[O-])cc4)c4nc(c(-c5ccc(S(=O)(=O)[O-])cc5)c5ccc2[nH]5)C=C4)C=C3)cc1
REMARK SMILES IDX 5 1 4 2 3 3 1 4 2 5 27 7 28 8 86 9 29 10 85 11 30 12 31 13
REMARK SMILES IDX 32 14 79 15 33 16 84 17 78 18 80 19 34 20 83 21 77 22 76 23
REMARK SMILES IDX 35 25 65 26 46 27 64 28 47 29 50 30 63 31 81 32 48 33 49 34
REMARK SMILES IDX 62 36 82 37 51 38 36 39 37 40 45 41 38 42 44 43 39 44 40 45
REMARK SMILES IDX 41 46 42 47 43 48 66 49 67 50 75 51 68 52 74 53 69 54 70 55
REMARK SMILES IDX 71 56 72 57 73 58 52 59 53 60 61 61 54 62 60 63 55 64 56 65
REMARK SMILES IDX 57 66 58 67 59 68 6 69 7 70 8 71 9 72 10 74 11 75 12 76
REMARK SMILES IDX 26 77 13 78 25 79 24 80 14 81 15 82 16 83 17 84 18 85 19 86
REMARK SMILES IDX 23 87 20 88 22 89 21 90
REMARK H PARENT 3 6 80 24 50 35 8 73
REMARK Flexibility Score: inf
ROOT
ATOM      1  C   UNL A   1      33.828  27.939  25.669  1.00  0.00     0.023 C 
ENDROOT
BRANCH   1   2
ATOM      2  C   UNL A   1      33.528  28.230  27.136  1.00  0.00     0.116 C 
BRANCH   2   3
ATOM      3  N   UNL A   1      33.404  29.652  27.417  1.00  0.00    -0.352 N 
ATOM      4  O   UNL A   1      33.956  31.649  28.305  1.00  0.00    -0.269 OA
ATOM      5  C   UNL A   1      34.306  30.513  27.996  1.00  0.00     0.251 C 
ATOM      6  H   UNL A   1      32.546  30.058  27.154  1.00  0.00     0.163 HD
BRANCH   5   7
ATOM      7  C   UNL A   1      35.691  30.060  28.258  1.00  0.00     0.039 A 
ATOM      8  C   UNL A   1      36.059  29.585  29.520  1.00  0.00     0.014 A 
ATOM      9  C   UNL A   1      36.632  30.105  27.226  1.00  0.00     0.014 A 
ATOM     10  C   UNL A   1      37.394  29.291  29.791  1.00  0.00     0.010 A 
ATOM     11  C   UNL A   1      37.958  29.741  27.481  1.00  0.00     0.010 A 
ATOM     12  C   UNL A   1      38.358  29.364  28.774  1.00  0.00    -0.014 A 
BRANCH  12  13
ATOM     13  C   UNL A   1      39.773  29.018  29.061  1.00  0.00     0.031 A 
ATOM     14  C   UNL A   1      40.705  30.027  29.674  1.00  0.00     0.074 A 
ATOM     15  C   UNL A   1      40.225  27.786  28.757  1.00  0.00     0.049 A 
ATOM     16  N   UNL A   1      41.982  29.917  29.937  1.00  0.00    -0.248 NA
ATOM     17  C   UNL A   1      40.128  31.333  30.032  1.00  0.00     0.031 C 
ATOM     18  C   UNL A   1      39.419  26.714  28.169  1.00  0.00     0.029 A 
ATOM     19  N   UNL A   1      41.471  27.229  28.897  1.00  0.00    -0.354 N 
ATOM     20  C   UNL A   1      42.371  31.143  30.465  1.00  0.00     0.074 A 
ATOM     21  C   UNL A   1      41.195  31.989  30.468  1.00  0.00     0.031 C 
ATOM     22  C   UNL A   1      40.186  25.624  28.013  1.00  0.00     0.029 A 
ATOM     23  C   UNL A   1      41.548  25.937  28.433  1.00  0.00     0.049 A 
ATOM     24  H   UNL A   1      42.236  27.708  29.290  1.00  0.00     0.167 HD
ATOM     25  C   UNL A   1      43.593  31.529  30.905  1.00  0.00     0.031 A 
ATOM     26  C   UNL A   1      42.598  25.102  28.328  1.00  0.00     0.031 A 
ATOM     27  C   UNL A   1      44.760  30.686  30.896  1.00  0.00     0.049 A 
ATOM     28  C   UNL A   1      43.952  25.559  28.789  1.00  0.00     0.074 A 
ATOM     29  C   UNL A   1      46.038  30.979  31.343  1.00  0.00     0.029 A 
ATOM     30  N   UNL A   1      44.796  29.387  30.410  1.00  0.00    -0.354 N 
ATOM     31  N   UNL A   1      44.294  26.716  29.304  1.00  0.00    -0.248 NA
ATOM     32  C   UNL A   1      45.058  24.601  28.660  1.00  0.00     0.031 C 
ATOM     33  C   UNL A   1      46.856  29.873  31.084  1.00  0.00     0.029 A 
ATOM     34  C   UNL A   1      46.076  28.873  30.526  1.00  0.00     0.049 A 
ATOM     35  H   UNL A   1      44.025  28.903  30.037  1.00  0.00     0.167 HD
ATOM     36  C   UNL A   1      45.653  26.617  29.583  1.00  0.00     0.074 A 
ATOM     37  C   UNL A   1      46.066  25.287  29.183  1.00  0.00     0.031 C 
ATOM     38  C   UNL A   1      46.477  27.546  30.126  1.00  0.00     0.031 A 
BRANCH  25  39
ATOM     39  C   UNL A   1      43.736  32.947  31.393  1.00  0.00    -0.014 A 
ATOM     40  C   UNL A   1      44.136  33.983  30.531  1.00  0.00     0.010 A 
ATOM     41  C   UNL A   1      43.454  33.249  32.738  1.00  0.00     0.010 A 
ATOM     42  C   UNL A   1      44.308  35.282  31.016  1.00  0.00     0.020 A 
ATOM     43  C   UNL A   1      43.600  34.552  33.223  1.00  0.00     0.020 A 
ATOM     44  C   UNL A   1      44.051  35.556  32.364  1.00  0.00     0.054 A 
BRANCH  44  45
ATOM     45  S   UNL A   1      44.303  37.244  32.978  1.00  0.00     0.124 S 
ATOM     46  O   UNL A   1      43.346  37.308  34.079  1.00  0.00    -0.237 OA
ATOM     47  O   UNL A   1      45.711  37.240  33.369  1.00  0.00    -0.237 OA
ATOM     48  O   UNL A   1      43.984  38.083  31.825  1.00  0.00    -0.744 OA
ENDBRANCH  44  45
ENDBRANCH  25  39
BRANCH  26  49
ATOM     49  C   UNL A   1      42.390  23.750  27.745  1.00  0.00    -0.014 A 
ATOM     50  C   UNL A   1      42.643  23.513  26.384  1.00  0.00     0.010 A 
ATOM     51  C   UNL A   1      42.015  22.676  28.573  1.00  0.00     0.010 A 
ATOM     52  C   UNL A   1      42.532  22.220  25.862  1.00  0.00     0.020 A 
ATOM     53  C   UNL A   1      41.927  21.380  28.060  1.00  0.00     0.020 A 
ATOM     54  C   UNL A   1      42.184  21.161  26.705  1.00  0.00     0.054 A 
BRANCH  54  55
ATOM     55  S   UNL A   1      42.146  19.478  26.029  1.00  0.00     0.124 S 
ATOM     56  O   UNL A   1      43.078  19.579  24.910  1.00  0.00    -0.237 OA
ATOM     57  O   UNL A   1      42.600  18.671  27.160  1.00  0.00    -0.237 OA
ATOM     58  O   UNL A   1      40.744  19.287  25.663  1.00  0.00    -0.744 OA
ENDBRANCH  54  55
ENDBRANCH  26  49
BRANCH  38  59
ATOM     59  C   UNL A   1      47.909  27.151  30.363  1.00  0.00    -0.014 A 
ATOM     60  C   UNL A   1      48.927  27.523  29.466  1.00  0.00     0.010 A 
ATOM     61  C   UNL A   1      48.249  26.465  31.542  1.00  0.00     0.010 A 
ATOM     62  C   UNL A   1      50.259  27.202  29.741  1.00  0.00     0.020 A 
ATOM     63  C   UNL A   1      49.583  26.162  31.831  1.00  0.00     0.020 A 
ATOM     64  C   UNL A   1      50.579  26.528  30.923  1.00  0.00     0.054 A 
BRANCH  64  65
ATOM     65  S   UNL A   1      52.322  26.186  31.293  1.00  0.00     0.124 S 
ATOM     66  O   UNL A   1      52.243  24.890  31.962  1.00  0.00    -0.237 OA
ATOM     67  O   UNL A   1      52.935  26.171  29.967  1.00  0.00    -0.237 OA
ATOM     68  O   UNL A   1      52.722  27.304  32.145  1.00  0.00    -0.744 OA
ENDBRANCH  64  65
ENDBRANCH  38  59
ENDBRANCH  12  13
ENDBRANCH   5   7
ENDBRANCH   2   3
ENDBRANCH   1   2
BRANCH   1  69
ATOM     69  C   UNL A   1      33.179  28.889  24.665  1.00  0.00     0.023 C 
BRANCH  69  70
ATOM     70  C   UNL A   1      32.198  28.238  23.700  1.00  0.00     0.116 C 
BRANCH  70  71
ATOM     71  N   UNL A   1      31.039  27.653  24.349  1.00  0.00    -0.351 N 
ATOM     72  C   UNL A   1      30.722  26.317  24.479  1.00  0.00     0.269 C 
ATOM     73  H   UNL A   1      30.400  28.288  24.746  1.00  0.00     0.163 HD
ATOM     74  O   UNL A   1      29.718  25.976  25.099  1.00  0.00    -0.268 OA
BRANCH  72  75
ATOM     75  C   UNL A   1      31.606  25.299  23.850  1.00  0.00     0.129 A 
ATOM     76  C   UNL A   1      32.140  24.268  24.618  1.00  0.00     0.049 A 
ATOM     77  N   UNL A   1      31.891  25.503  22.539  1.00  0.00    -0.251 NA
ATOM     78  C   UNL A   1      33.085  23.443  24.023  1.00  0.00     0.012 A 
ATOM     79  C   UNL A   1      32.759  24.651  21.973  1.00  0.00     0.113 A 
ATOM     80  C   UNL A   1      33.380  23.629  22.668  1.00  0.00     0.035 A 
BRANCH  78  81
ATOM     81  S   UNL A   1      33.972  22.131  24.833  1.00  0.00    -0.116 SA
BRANCH  81  82
ATOM     82  C   UNL A   1      32.784  20.790  25.085  1.00  0.00     0.175 C 
BRANCH  82  83
ATOM     83  C   UNL A   1      32.401  19.881  23.926  1.00  0.00     0.233 C 
ATOM     84  O   UNL A   1      32.149  20.411  22.837  1.00  0.00    -0.274 OA
ATOM     85  N   UNL A   1      32.533  18.511  24.013  1.00  0.00    -0.337 N 
ATOM     86  C   UNL A   1      32.400  17.670  25.200  1.00  0.00     0.148 C 
ATOM     87  C   UNL A   1      32.816  17.735  22.796  1.00  0.00     0.148 C 
ATOM     88  C   UNL A   1      33.631  16.780  25.369  1.00  0.00     0.181 C 
ATOM     89  C   UNL A   1      34.052  16.851  23.036  1.00  0.00     0.181 C 
ATOM     90  O   UNL A   1      33.872  16.005  24.187  1.00  0.00    -0.378 OA
ENDBRANCH  82  83
ENDBRANCH  81  82
ENDBRANCH  78  81
ENDBRANCH  72  75
ENDBRANCH  70  71
ENDBRANCH  69  70
ENDBRANCH   1  69
TORSDOF 17
ENDMDL
MODEL 3
REMARK VINA RESULT:     -10.4      3.378      4.241
REMARK SMILES O=C(NCCCCNC(=O)c1cc(SCC(=O)N2CCOCC2)ccn1)c1ccc(-c2c3nc(c(-c4ccc(S(=O)(=O)[O-])cc4)c4ccc([nH]4)c(-c4ccc(S(=O)(=O)[O-])cc4)c4nc(c(-c5ccc(S(=O)(=O)[O-])cc5)c5ccc2[nH]5)C=C4)C=C3)cc1
REMARK SMILES IDX 5 1 4 2 3 3 1 4 2 5 27 7 28 8 86 9 29 10 85 11 30 12 31 13
REMARK SMILES IDX 32 14 79 15 33 16 84 17 78 18 80 19 34 20 83 21 77 22 76 23
REMARK SMILES IDX 35 25 65 26 46 27 64 28 47 29 50 30 63 31 81 32 48 33 49 34
REMARK SMILES IDX 62 36 82 37 51 38 36 39 37 40 45 41 38 42 44 43 39 44 40 45
REMARK SMILES IDX 41 46 42 47 43 48 66 49 67 50 75 51 68 52 74 53 69 54 70 55
REMARK SMILES IDX 71 56 72 57 73 58 52 59 53 60 61 61 54 62 60 63 55 64 56 65
REMARK SMILES IDX 57 66 58 67 59 68 6 69 7 70 8 71 9 72 10 74 11 75 12 76
REMARK SMILES IDX 26 77 13 78 25 79 24 80 14 81 15 82 16 83 17 84 18 85 19 86
REMARK SMILES IDX 23 87 20 88 22 89 21 90
REMARK H PARENT 3 6 80 24 50 35 8 73
REMARK Flexibility Score: inf
ROOT
ATOM      1  C   UNL A   1      34.597  30.460  27.263  1.00  0.00     0.023 C 
ENDROOT
BRANCH   1   2
ATOM      2  C   UNL A   1      35.640  31.273  28.025  1.00  0.00     0.116 C 
BRANCH   2   3
ATOM      3  N   UNL A   1      35.455  31.220  29.467  1.00  0.00    -0.352 N 
ATOM      4  O   UNL A   1      35.848  30.567  31.589  1.00  0.00    -0.269 OA
ATOM      5  C   UNL A   1      36.256  30.659  30.433  1.00  0.00     0.251 C 
ATOM      6  H   UNL A   1      34.634  31.650  29.801  1.00  0.00     0.163 HD
BRANCH   5   7
ATOM      7  C   UNL A   1      37.601  30.155  30.073  1.00  0.00     0.039 A 
ATOM      8  C   UNL A   1      38.474  29.687  31.059  1.00  0.00     0.014 A 
ATOM      9  C   UNL A   1      37.991  30.145  28.732  1.00  0.00     0.014 A 
ATOM     10  C   UNL A   1      39.782  29.344  30.724  1.00  0.00     0.010 A 
ATOM     11  C   UNL A   1      39.282  29.732  28.388  1.00  0.00     0.010 A 
ATOM     12  C   UNL A   1      40.200  29.361  29.384  1.00  0.00    -0.014 A 
BRANCH  12  13
ATOM     13  C   UNL A   1      41.586  28.963  29.030  1.00  0.00     0.031 A 
ATOM     14  C   UNL A   1      42.713  29.957  29.088  1.00  0.00     0.074 A 
ATOM     15  C   UNL A   1      41.829  27.695  28.644  1.00  0.00     0.049 A 
ATOM     16  N   UNL A   1      43.970  29.799  28.757  1.00  0.00    -0.248 NA
ATOM     17  C   UNL A   1      42.385  31.307  29.574  1.00  0.00     0.031 C 
ATOM     18  C   UNL A   1      40.825  26.633  28.556  1.00  0.00     0.029 A 
ATOM     19  N   UNL A   1      42.994  27.087  28.249  1.00  0.00    -0.354 N 
ATOM     20  C   UNL A   1      44.578  31.032  28.968  1.00  0.00     0.074 A 
ATOM     21  C   UNL A   1      43.546  31.933  29.438  1.00  0.00     0.031 C 
ATOM     22  C   UNL A   1      41.418  25.501  28.149  1.00  0.00     0.029 A 
ATOM     23  C   UNL A   1      42.830  25.770  27.891  1.00  0.00     0.049 A 
ATOM     24  H   UNL A   1      43.863  27.549  28.223  1.00  0.00     0.167 HD
ATOM     25  C   UNL A   1      45.874  31.382  28.785  1.00  0.00     0.031 A 
ATOM     26  C   UNL A   1      43.704  24.880  27.386  1.00  0.00     0.031 A 
ATOM     27  C   UNL A   1      46.896  30.484  28.313  1.00  0.00     0.049 A 
ATOM     28  C   UNL A   1      45.128  25.296  27.158  1.00  0.00     0.074 A 
ATOM     29  C   UNL A   1      48.243  30.738  28.118  1.00  0.00     0.029 A 
ATOM     30  N   UNL A   1      46.684  29.160  27.955  1.00  0.00    -0.354 N 
ATOM     31  N   UNL A   1      45.688  26.460  27.382  1.00  0.00    -0.248 NA
ATOM     32  C   UNL A   1      46.039  24.280  26.614  1.00  0.00     0.031 C 
ATOM     33  C   UNL A   1      48.835  29.582  27.598  1.00  0.00     0.029 A 
ATOM     34  C   UNL A   1      47.869  28.592  27.520  1.00  0.00     0.049 A 
ATOM     35  H   UNL A   1      45.818  28.695  28.002  1.00  0.00     0.167 HD
ATOM     36  C   UNL A   1      47.024  26.311  27.028  1.00  0.00     0.074 A 
ATOM     37  C   UNL A   1      47.188  24.943  26.580  1.00  0.00     0.031 C 
ATOM     38  C   UNL A   1      48.022  27.227  27.078  1.00  0.00     0.031 A 
BRANCH  25  39
ATOM     39  C   UNL A   1      46.249  32.815  29.056  1.00  0.00    -0.014 A 
ATOM     40  C   UNL A   1      46.605  33.249  30.345  1.00  0.00     0.010 A 
ATOM     41  C   UNL A   1      46.254  33.743  27.997  1.00  0.00     0.010 A 
ATOM     42  C   UNL A   1      46.904  34.594  30.582  1.00  0.00     0.020 A 
ATOM     43  C   UNL A   1      46.577  35.084  28.224  1.00  0.00     0.020 A 
ATOM     44  C   UNL A   1      46.875  35.506  29.521  1.00  0.00     0.054 A 
BRANCH  44  45
ATOM     45  S   UNL A   1      47.243  37.250  29.857  1.00  0.00     0.124 S 
ATOM     46  O   UNL A   1      48.507  37.432  29.148  1.00  0.00    -0.237 OA
ATOM     47  O   UNL A   1      46.093  37.941  29.277  1.00  0.00    -0.237 OA
ATOM     48  O   UNL A   1      47.331  37.311  31.314  1.00  0.00    -0.744 OA
ENDBRANCH  44  45
ENDBRANCH  25  39
BRANCH  26  49
ATOM     49  C   UNL A   1      43.230  23.510  27.054  1.00  0.00    -0.014 A 
ATOM     50  C   UNL A   1      43.039  23.125  25.717  1.00  0.00     0.010 A 
ATOM     51  C   UNL A   1      43.047  22.561  28.077  1.00  0.00     0.010 A 
ATOM     52  C   UNL A   1      42.680  21.809  25.409  1.00  0.00     0.020 A 
ATOM     53  C   UNL A   1      42.712  21.241  27.770  1.00  0.00     0.020 A 
ATOM     54  C   UNL A   1      42.528  20.874  26.436  1.00  0.00     0.054 A 
BRANCH  54  55
ATOM     55  S   UNL A   1      42.163  19.149  26.005  1.00  0.00     0.124 S 
ATOM     56  O   UNL A   1      43.022  18.939  24.844  1.00  0.00    -0.237 OA
ATOM     57  O   UNL A   1      42.551  18.431  27.217  1.00  0.00    -0.237 OA
ATOM     58  O   UNL A   1      40.728  19.161  25.732  1.00  0.00    -0.744 OA
ENDBRANCH  54  55
ENDBRANCH  26  49
BRANCH  38  59
ATOM     59  C   UNL A   1      49.400  26.777  26.674  1.00  0.00    -0.014 A 
ATOM     60  C   UNL A   1      50.317  26.295  27.625  1.00  0.00     0.010 A 
ATOM     61  C   UNL A   1      49.749  26.762  25.312  1.00  0.00     0.010 A 
ATOM     62  C   UNL A   1      51.567  25.820  27.218  1.00  0.00     0.020 A 
ATOM     63  C   UNL A   1      50.989  26.267  24.901  1.00  0.00     0.020 A 
ATOM     64  C   UNL A   1      51.894  25.805  25.858  1.00  0.00     0.054 A 
BRANCH  64  65
ATOM     65  S   UNL A   1      53.494  25.117  25.348  1.00  0.00     0.124 S 
ATOM     66  O   UNL A   1      53.204  23.688  25.285  1.00  0.00    -0.237 OA
ATOM     67  O   UNL A   1      53.727  25.768  24.061  1.00  0.00    -0.237 OA
ATOM     68  O   UNL A   1      54.402  25.522  26.418  1.00  0.00    -0.744 OA
ENDBRANCH  64  65
ENDBRANCH  38  59
ENDBRANCH  12  13
ENDBRANCH   5   7
ENDBRANCH   2   3
ENDBRANCH   1   2
BRANCH   1  69
ATOM     69  C   UNL A   1      34.634  28.953  27.505  1.00  0.00     0.023 C 
BRANCH  69  70
ATOM     70  C   UNL A   1      33.494  28.168  26.872  1.00  0.00     0.116 C 
BRANCH  70  71
ATOM     71  N   UNL A   1      33.614  28.018  25.433  1.00  0.00    -0.351 N 
ATOM     72  C   UNL A   1      33.414  26.882  24.678  1.00  0.00     0.269 C 
ATOM     73  H   UNL A   1      33.868  28.828  24.934  1.00  0.00     0.163 HD
ATOM     74  O   UNL A   1      33.513  26.926  23.454  1.00  0.00    -0.268 OA
BRANCH  72  75
ATOM     75  C   UNL A   1      33.089  25.603  25.366  1.00  0.00     0.129 A 
ATOM     76  C   UNL A   1      33.991  24.544  25.332  1.00  0.00     0.049 A 
ATOM     77  N   UNL A   1      31.858  25.542  25.934  1.00  0.00    -0.251 NA
ATOM     78  C   UNL A   1      33.575  23.324  25.847  1.00  0.00     0.012 A 
ATOM     79  C   UNL A   1      31.506  24.368  26.480  1.00  0.00     0.113 A 
ATOM     80  C   UNL A   1      32.314  23.246  26.450  1.00  0.00     0.035 A 
BRANCH  78  81
ATOM     81  S   UNL A   1      34.514  21.813  25.823  1.00  0.00    -0.116 SA
BRANCH  81  82
ATOM     82  C   UNL A   1      33.315  20.464  25.948  1.00  0.00     0.175 C 
BRANCH  82  83
ATOM     83  C   UNL A   1      32.755  19.820  24.688  1.00  0.00     0.233 C 
ATOM     84  O   UNL A   1      32.501  20.558  23.728  1.00  0.00    -0.274 OA
ATOM     85  N   UNL A   1      32.728  18.451  24.531  1.00  0.00    -0.337 N 
ATOM     86  C   UNL A   1      32.570  17.432  25.567  1.00  0.00     0.148 C 
ATOM     87  C   UNL A   1      32.841  17.875  23.182  1.00  0.00     0.148 C 
ATOM     88  C   UNL A   1      33.695  16.400  25.483  1.00  0.00     0.181 C 
ATOM     89  C   UNL A   1      33.975  16.837  23.168  1.00  0.00     0.181 C 
ATOM     90  O   UNL A   1      33.768  15.825  24.171  1.00  0.00    -0.378 OA
ENDBRANCH  82  83
ENDBRANCH  81  82
ENDBRANCH  78  81
ENDBRANCH  72  75
ENDBRANCH  70  71
ENDBRANCH  69  70
ENDBRANCH   1  69
TORSDOF 17
ENDMDL
