MODEL 1
REMARK VINA RESULT:     -13.2      0.000      0.000
REMARK SMILES O=C(CCN1C(=O)[C@@H]2[C@@H](C1=O)[C@H]1c3ccccc3[C@]2(Br)c2ccccc21)NCCCCNC(=O)c1ccc(-c2c3nc(c(-c4ccc(S(=O)(=O)[O-])cc4)c4ccc([nH]4)c(-c4ccc(S(=O)(=O)[O-])cc4)c4nc(c(-c5ccc(S(=O)(=O)[O-])cc5)c5ccc2[nH]5)C=C4)C=C3)cc1
REMARK SMILES IDX 30 1 29 2 28 3 27 4 1 5 2 6 3 8 4 9 5 10 6 11 10 12 7 13
REMARK SMILES IDX 8 14 9 15 11 16 19 17 12 18 21 19 20 20 18 21 26 22 13 23
REMARK SMILES IDX 22 24 17 25 25 26 14 27 23 28 16 29 24 30 15 31 31 32 32 33
REMARK SMILES IDX 33 34 34 36 35 37 36 38 94 39 37 40 93 41 38 42 39 43 40 44
REMARK SMILES IDX 87 45 41 46 92 47 86 48 88 49 42 50 91 51 85 52 84 53 43 55
REMARK SMILES IDX 73 56 54 57 72 58 55 59 58 60 71 61 89 62 56 63 57 64 70 66
REMARK SMILES IDX 90 67 59 68 44 69 45 70 53 71 46 72 52 73 47 74 48 75 49 76
REMARK SMILES IDX 50 77 51 78 74 79 75 80 83 81 76 82 82 83 77 84 78 85 79 86
REMARK SMILES IDX 80 87 81 88 60 89 61 90 69 91 62 92 68 93 63 94 64 95 65 96
REMARK SMILES IDX 66 97 67 98
REMARK H PARENT 27 7 32 35 88 54 58 65
REMARK Flexibility Score: inf
ROOT
ATOM      1  C   UNL A   1      40.088  22.136  26.963  1.00  0.00     0.023 C 
ENDROOT
BRANCH   1   2
ATOM      2  C   UNL A   1      39.129  21.852  25.797  1.00  0.00     0.023 C 
BRANCH   2   3
ATOM      3  C   UNL A   1      37.741  22.509  25.819  1.00  0.00     0.116 C 
BRANCH   3   4
ATOM      4  N   UNL A   1      37.148  22.783  24.510  1.00  0.00    -0.356 N 
ATOM      5  O   UNL A   1      34.956  22.579  25.209  1.00  0.00    -0.275 OA
ATOM      6  C   UNL A   1      35.775  22.913  24.356  1.00  0.00     0.221 C 
ATOM      7  H   UNL A   1      37.734  22.876  23.724  1.00  0.00     0.163 HD
BRANCH   6   8
ATOM      8  C   UNL A   1      35.314  23.540  23.046  1.00  0.00     0.122 C 
BRANCH   8   9
ATOM      9  C   UNL A   1      33.827  23.274  22.771  1.00  0.00     0.138 C 
BRANCH   9  10
ATOM     10  N   UNL A   1      33.006  24.446  23.019  1.00  0.00    -0.281 N 
ATOM     11  C   UNL A   1      31.953  24.442  23.923  1.00  0.00     0.235 C 
ATOM     12  C   UNL A   1      33.196  25.692  22.420  1.00  0.00     0.234 C 
ATOM     13  O   UNL A   1      31.556  23.502  24.580  1.00  0.00    -0.274 OA
ATOM     14  C   UNL A   1      31.285  25.767  23.761  1.00  0.00     0.118 C 
ATOM     15  C   UNL A   1      32.489  26.620  23.346  1.00  0.00     0.105 C 
ATOM     16  O   UNL A   1      33.938  25.990  21.503  1.00  0.00    -0.274 OA
ATOM     17  C   UNL A   1      30.497  26.575  24.803  1.00  0.00     0.088 C 
ATOM     18  C   UNL A   1      32.055  28.099  23.259  1.00  0.00     0.063 C 
ATOM     19  C   UNL A   1      29.688  27.494  23.864  1.00  0.00    -0.022 A 
ATOM     20  Br  UNL A   1      29.390  25.428  25.886  1.00  0.00    -0.074 Br
ATOM     21  C   UNL A   1      31.433  27.541  25.574  1.00  0.00    -0.022 A 
ATOM     22  C   UNL A   1      30.543  28.265  23.000  1.00  0.00    -0.035 A 
ATOM     23  C   UNL A   1      32.196  28.431  24.757  1.00  0.00    -0.035 A 
ATOM     24  C   UNL A   1      28.304  27.637  23.802  1.00  0.00     0.006 A 
ATOM     25  C   UNL A   1      31.614  27.635  26.926  1.00  0.00     0.006 A 
ATOM     26  C   UNL A   1      29.989  29.190  22.130  1.00  0.00     0.005 A 
ATOM     27  C   UNL A   1      33.071  29.373  25.295  1.00  0.00     0.005 A 
ATOM     28  C   UNL A   1      27.764  28.550  22.902  1.00  0.00     0.000 A 
ATOM     29  C   UNL A   1      32.509  28.552  27.486  1.00  0.00     0.000 A 
ATOM     30  C   UNL A   1      28.597  29.323  22.082  1.00  0.00     0.000 A 
ATOM     31  C   UNL A   1      33.227  29.425  26.676  1.00  0.00     0.000 A 
ENDBRANCH   9  10
ENDBRANCH   8   9
ENDBRANCH   6   8
ENDBRANCH   3   4
ENDBRANCH   2   3
ENDBRANCH   1   2
BRANCH   1  32
ATOM     32  C   UNL A   1      41.493  22.690  26.682  1.00  0.00     0.116 C 
BRANCH  32  33
ATOM     33  N   UNL A   1      41.711  23.710  25.674  1.00  0.00    -0.352 N 
ATOM     34  C   UNL A   1      41.870  25.088  25.852  1.00  0.00     0.251 C 
ATOM     35  H   UNL A   1      41.750  23.390  24.743  1.00  0.00     0.163 HD
ATOM     36  O   UNL A   1      42.140  25.790  24.879  1.00  0.00    -0.269 OA
BRANCH  34  37
ATOM     37  C   UNL A   1      41.691  25.762  27.182  1.00  0.00     0.039 A 
ATOM     38  C   UNL A   1      40.496  25.695  27.890  1.00  0.00     0.014 A 
ATOM     39  C   UNL A   1      42.759  26.413  27.805  1.00  0.00     0.014 A 
ATOM     40  C   UNL A   1      40.291  26.508  29.038  1.00  0.00     0.010 A 
ATOM     41  C   UNL A   1      42.577  27.121  29.026  1.00  0.00     0.010 A 
ATOM     42  C   UNL A   1      41.310  27.295  29.616  1.00  0.00    -0.014 A 
BRANCH  42  43
ATOM     43  C   UNL A   1      41.047  28.320  30.736  1.00  0.00     0.031 A 
ATOM     44  C   UNL A   1      41.904  28.368  32.020  1.00  0.00     0.074 A 
ATOM     45  C   UNL A   1      40.096  29.286  30.643  1.00  0.00     0.049 A 
ATOM     46  N   UNL A   1      41.790  29.154  33.074  1.00  0.00    -0.248 NA
ATOM     47  C   UNL A   1      43.036  27.432  32.139  1.00  0.00     0.031 C 
ATOM     48  C   UNL A   1      39.182  29.482  29.518  1.00  0.00     0.029 A 
ATOM     49  N   UNL A   1      39.737  30.306  31.516  1.00  0.00    -0.354 N 
ATOM     50  C   UNL A   1      42.817  28.805  33.955  1.00  0.00     0.074 A 
ATOM     51  C   UNL A   1      43.530  27.713  33.337  1.00  0.00     0.031 C 
ATOM     52  C   UNL A   1      38.432  30.572  29.731  1.00  0.00     0.029 A 
ATOM     53  C   UNL A   1      38.700  31.100  31.067  1.00  0.00     0.049 A 
ATOM     54  H   UNL A   1      40.185  30.450  32.382  1.00  0.00     0.167 HD
ATOM     55  C   UNL A   1      43.165  29.332  35.158  1.00  0.00     0.031 A 
ATOM     56  C   UNL A   1      37.986  32.100  31.639  1.00  0.00     0.031 A 
ATOM     57  C   UNL A   1      42.489  30.416  35.829  1.00  0.00     0.049 A 
ATOM     58  C   UNL A   1      38.293  32.579  33.034  1.00  0.00     0.074 A 
ATOM     59  C   UNL A   1      42.798  30.976  37.061  1.00  0.00     0.029 A 
ATOM     60  N   UNL A   1      41.387  31.101  35.354  1.00  0.00    -0.354 N 
ATOM     61  N   UNL A   1      39.263  32.214  33.832  1.00  0.00    -0.248 NA
ATOM     62  C   UNL A   1      37.401  33.603  33.612  1.00  0.00     0.031 C 
ATOM     63  C   UNL A   1      41.830  31.930  37.372  1.00  0.00     0.029 A 
ATOM     64  C   UNL A   1      40.975  32.039  36.290  1.00  0.00     0.049 A 
ATOM     65  H   UNL A   1      40.956  30.946  34.482  1.00  0.00     0.167 HD
ATOM     66  C   UNL A   1      39.106  32.965  34.994  1.00  0.00     0.074 A 
ATOM     67  C   UNL A   1      37.966  33.829  34.792  1.00  0.00     0.031 C 
ATOM     68  C   UNL A   1      39.849  32.923  36.127  1.00  0.00     0.031 A 
BRANCH  55  69
ATOM     69  C   UNL A   1      44.363  28.762  35.892  1.00  0.00    -0.014 A 
ATOM     70  C   UNL A   1      44.175  27.744  36.850  1.00  0.00     0.010 A 
ATOM     71  C   UNL A   1      45.622  29.383  35.800  1.00  0.00     0.010 A 
ATOM     72  C   UNL A   1      45.199  27.401  37.737  1.00  0.00     0.020 A 
ATOM     73  C   UNL A   1      46.659  29.021  36.668  1.00  0.00     0.020 A 
ATOM     74  C   UNL A   1      46.430  28.055  37.652  1.00  0.00     0.054 A 
BRANCH  74  75
ATOM     75  S   UNL A   1      47.718  27.658  38.870  1.00  0.00     0.124 S 
ATOM     76  O   UNL A   1      47.818  28.899  39.631  1.00  0.00    -0.237 OA
ATOM     77  O   UNL A   1      47.137  26.523  39.583  1.00  0.00    -0.237 OA
ATOM     78  O   UNL A   1      48.881  27.334  38.046  1.00  0.00    -0.744 OA
ENDBRANCH  74  75
ENDBRANCH  55  69
BRANCH  56  79
ATOM     79  C   UNL A   1      36.832  32.689  30.885  1.00  0.00    -0.014 A 
ATOM     80  C   UNL A   1      37.058  33.721  29.952  1.00  0.00     0.010 A 
ATOM     81  C   UNL A   1      35.510  32.271  31.122  1.00  0.00     0.010 A 
ATOM     82  C   UNL A   1      35.990  34.386  29.347  1.00  0.00     0.020 A 
ATOM     83  C   UNL A   1      34.437  32.903  30.479  1.00  0.00     0.020 A 
ATOM     84  C   UNL A   1      34.684  33.984  29.630  1.00  0.00     0.054 A 
BRANCH  84  85
ATOM     85  S   UNL A   1      33.314  34.914  28.890  1.00  0.00     0.124 S 
ATOM     86  O   UNL A   1      32.466  35.166  30.052  1.00  0.00    -0.237 OA
ATOM     87  O   UNL A   1      33.984  36.087  28.335  1.00  0.00    -0.237 OA
ATOM     88  O   UNL A   1      32.765  33.988  27.904  1.00  0.00    -0.744 OA
ENDBRANCH  84  85
ENDBRANCH  56  79
BRANCH  68  89
ATOM     89  C   UNL A   1      39.494  33.830  37.282  1.00  0.00    -0.014 A 
ATOM     90  C   UNL A   1      39.995  35.146  37.320  1.00  0.00     0.010 A 
ATOM     91  C   UNL A   1      38.791  33.342  38.399  1.00  0.00     0.010 A 
ATOM     92  C   UNL A   1      39.844  35.938  38.463  1.00  0.00     0.020 A 
ATOM     93  C   UNL A   1      38.608  34.142  39.533  1.00  0.00     0.020 A 
ATOM     94  C   UNL A   1      39.161  35.425  39.569  1.00  0.00     0.054 A 
BRANCH  94  95
ATOM     95  S   UNL A   1      39.018  36.449  41.061  1.00  0.00     0.124 S 
ATOM     96  O   UNL A   1      40.358  36.349  41.634  1.00  0.00    -0.237 OA
ATOM     97  O   UNL A   1      38.663  37.759  40.519  1.00  0.00    -0.237 OA
ATOM     98  O   UNL A   1      37.961  35.794  41.829  1.00  0.00    -0.744 OA
ENDBRANCH  94  95
ENDBRANCH  68  89
ENDBRANCH  42  43
ENDBRANCH  34  37
ENDBRANCH  32  33
ENDBRANCH   1  32
TORSDOF 16
ENDMDL
MODEL 2
REMARK VINA RESULT:     -13.1      1.363      7.767
REMARK SMILES O=C(CCN1C(=O)[C@@H]2[C@@H](C1=O)[C@H]1c3ccccc3[C@]2(Br)c2ccccc21)NCCCCNC(=O)c1ccc(-c2c3nc(c(-c4ccc(S(=O)(=O)[O-])cc4)c4ccc([nH]4)c(-c4ccc(S(=O)(=O)[O-])cc4)c4nc(c(-c5ccc(S(=O)(=O)[O-])cc5)c5ccc2[nH]5)C=C4)C=C3)cc1
REMARK SMILES IDX 30 1 29 2 28 3 27 4 1 5 2 6 3 8 4 9 5 10 6 11 10 12 7 13
REMARK SMILES IDX 8 14 9 15 11 16 19 17 12 18 21 19 20 20 18 21 26 22 13 23
REMARK SMILES IDX 22 24 17 25 25 26 14 27 23 28 16 29 24 30 15 31 31 32 32 33
REMARK SMILES IDX 33 34 34 36 35 37 36 38 94 39 37 40 93 41 38 42 39 43 40 44
REMARK SMILES IDX 87 45 41 46 92 47 86 48 88 49 42 50 91 51 85 52 84 53 43 55
REMARK SMILES IDX 73 56 54 57 72 58 55 59 58 60 71 61 89 62 56 63 57 64 70 66
REMARK SMILES IDX 90 67 59 68 44 69 45 70 53 71 46 72 52 73 47 74 48 75 49 76
REMARK SMILES IDX 50 77 51 78 74 79 75 80 83 81 76 82 82 83 77 84 78 85 79 86
REMARK SMILES IDX 80 87 81 88 60 89 61 90 69 91 62 92 68 93 63 94 64 95 65 96
REMARK SMILES IDX 66 97 67 98
REMARK H PARENT 27 7 32 35 88 54 58 65
REMARK Flexibility Score: inf
ROOT
ATOM      1  C   UNL A   1      39.364  22.518  26.665  1.00  0.00     0.023 C 
ENDROOT
BRANCH   1   2
ATOM      2  C   UNL A   1      38.343  21.793  25.776  1.00  0.00     0.023 C 
BRANCH   2   3
ATOM      3  C   UNL A   1      36.936  22.395  25.644  1.00  0.00     0.116 C 
BRANCH   3   4
ATOM      4  N   UNL A   1      36.546  22.808  24.296  1.00  0.00    -0.356 N 
ATOM      5  O   UNL A   1      34.367  22.056  24.452  1.00  0.00    -0.275 OA
ATOM      6  C   UNL A   1      35.231  22.704  23.864  1.00  0.00     0.221 C 
ATOM      7  H   UNL A   1      37.230  23.165  23.683  1.00  0.00     0.163 HD
BRANCH   6   8
ATOM      8  C   UNL A   1      34.888  23.480  22.600  1.00  0.00     0.122 C 
BRANCH   8   9
ATOM      9  C   UNL A   1      33.406  23.343  22.222  1.00  0.00     0.138 C 
BRANCH   9  10
ATOM     10  N   UNL A   1      32.643  24.532  22.560  1.00  0.00    -0.281 N 
ATOM     11  C   UNL A   1      31.632  24.524  23.511  1.00  0.00     0.235 C 
ATOM     12  C   UNL A   1      32.853  25.796  22.009  1.00  0.00     0.234 C 
ATOM     13  O   UNL A   1      31.229  23.570  24.143  1.00  0.00    -0.274 OA
ATOM     14  C   UNL A   1      31.009  25.878  23.439  1.00  0.00     0.118 C 
ATOM     15  C   UNL A   1      32.225  26.705  23.006  1.00  0.00     0.105 C 
ATOM     16  O   UNL A   1      33.564  26.109  21.072  1.00  0.00    -0.274 OA
ATOM     17  C   UNL A   1      30.300  26.666  24.551  1.00  0.00     0.088 C 
ATOM     18  C   UNL A   1      31.845  28.201  23.005  1.00  0.00     0.063 C 
ATOM     19  C   UNL A   1      29.486  27.656  23.693  1.00  0.00    -0.022 A 
ATOM     20  Br  UNL A   1      29.200  25.511  25.633  1.00  0.00    -0.074 Br
ATOM     21  C   UNL A   1      31.306  27.561  25.320  1.00  0.00    -0.022 A 
ATOM     22  C   UNL A   1      30.330  28.434  22.825  1.00  0.00    -0.035 A 
ATOM     23  C   UNL A   1      32.065  28.459  24.508  1.00  0.00    -0.035 A 
ATOM     24  C   UNL A   1      28.106  27.852  23.702  1.00  0.00     0.006 A 
ATOM     25  C   UNL A   1      31.551  27.586  26.665  1.00  0.00     0.006 A 
ATOM     26  C   UNL A   1      29.773  29.418  22.023  1.00  0.00     0.005 A 
ATOM     27  C   UNL A   1      33.000  29.343  25.046  1.00  0.00     0.005 A 
ATOM     28  C   UNL A   1      27.562  28.824  22.869  1.00  0.00     0.000 A 
ATOM     29  C   UNL A   1      32.505  28.443  27.222  1.00  0.00     0.000 A 
ATOM     30  C   UNL A   1      28.387  29.603  22.046  1.00  0.00     0.000 A 
ATOM     31  C   UNL A   1      33.218  29.325  26.419  1.00  0.00     0.000 A 
ENDBRANCH   9  10
ENDBRANCH   8   9
ENDBRANCH   6   8
ENDBRANCH   3   4
ENDBRANCH   2   3
ENDBRANCH   1   2
BRANCH   1  32
ATOM     32  C   UNL A   1      39.393  24.054  26.704  1.00  0.00     0.116 C 
BRANCH  32  33
ATOM     33  N   UNL A   1      40.261  24.812  25.824  1.00  0.00    -0.352 N 
ATOM     34  C   UNL A   1      40.832  26.071  26.039  1.00  0.00     0.251 C 
ATOM     35  H   UNL A   1      40.475  24.385  24.962  1.00  0.00     0.163 HD
ATOM     36  O   UNL A   1      41.623  26.518  25.211  1.00  0.00    -0.269 OA
BRANCH  34  37
ATOM     37  C   UNL A   1      40.495  26.923  27.229  1.00  0.00     0.039 A 
ATOM     38  C   UNL A   1      40.646  28.306  27.213  1.00  0.00     0.014 A 
ATOM     39  C   UNL A   1      39.929  26.362  28.376  1.00  0.00     0.014 A 
ATOM     40  C   UNL A   1      40.517  29.059  28.412  1.00  0.00     0.010 A 
ATOM     41  C   UNL A   1      39.683  27.150  29.535  1.00  0.00     0.010 A 
ATOM     42  C   UNL A   1      40.084  28.496  29.632  1.00  0.00    -0.014 A 
BRANCH  42  43
ATOM     43  C   UNL A   1      40.128  29.258  30.970  1.00  0.00     0.031 A 
ATOM     44  C   UNL A   1      39.066  30.315  31.346  1.00  0.00     0.074 A 
ATOM     45  C   UNL A   1      41.055  29.006  31.932  1.00  0.00     0.049 A 
ATOM     46  N   UNL A   1      38.981  31.069  32.427  1.00  0.00    -0.248 NA
ATOM     47  C   UNL A   1      37.957  30.554  30.407  1.00  0.00     0.031 C 
ATOM     48  C   UNL A   1      42.138  28.028  31.842  1.00  0.00     0.029 A 
ATOM     49  N   UNL A   1      41.234  29.553  33.198  1.00  0.00    -0.354 N 
ATOM     50  C   UNL A   1      37.831  31.850  32.288  1.00  0.00     0.074 A 
ATOM     51  C   UNL A   1      37.261  31.512  31.006  1.00  0.00     0.031 C 
ATOM     52  C   UNL A   1      42.813  27.994  32.999  1.00  0.00     0.029 A 
ATOM     53  C   UNL A   1      42.310  29.036  33.892  1.00  0.00     0.049 A 
ATOM     54  H   UNL A   1      40.644  30.250  33.567  1.00  0.00     0.167 HD
ATOM     55  C   UNL A   1      37.272  32.756  33.132  1.00  0.00     0.031 A 
ATOM     56  C   UNL A   1      42.890  29.361  35.074  1.00  0.00     0.031 A 
ATOM     57  C   UNL A   1      37.796  33.140  34.420  1.00  0.00     0.049 A 
ATOM     58  C   UNL A   1      42.341  30.468  35.935  1.00  0.00     0.074 A 
ATOM     59  C   UNL A   1      37.269  34.069  35.308  1.00  0.00     0.029 A 
ATOM     60  N   UNL A   1      38.943  32.644  35.009  1.00  0.00    -0.354 N 
ATOM     61  N   UNL A   1      41.261  31.184  35.760  1.00  0.00    -0.248 NA
ATOM     62  C   UNL A   1      43.095  30.817  37.154  1.00  0.00     0.031 C 
ATOM     63  C   UNL A   1      38.145  34.202  36.385  1.00  0.00     0.029 A 
ATOM     64  C   UNL A   1      39.166  33.283  36.221  1.00  0.00     0.049 A 
ATOM     65  H   UNL A   1      39.518  31.942  34.626  1.00  0.00     0.167 HD
ATOM     66  C   UNL A   1      41.201  32.057  36.844  1.00  0.00     0.074 A 
ATOM     67  C   UNL A   1      42.334  31.764  37.689  1.00  0.00     0.031 C 
ATOM     68  C   UNL A   1      40.280  33.019  37.096  1.00  0.00     0.031 A 
BRANCH  55  69
ATOM     69  C   UNL A   1      35.983  33.444  32.725  1.00  0.00    -0.014 A 
ATOM     70  C   UNL A   1      36.035  34.705  32.096  1.00  0.00     0.010 A 
ATOM     71  C   UNL A   1      34.740  32.954  33.164  1.00  0.00     0.010 A 
ATOM     72  C   UNL A   1      34.882  35.486  31.969  1.00  0.00     0.020 A 
ATOM     73  C   UNL A   1      33.579  33.721  33.011  1.00  0.00     0.020 A 
ATOM     74  C   UNL A   1      33.663  34.996  32.443  1.00  0.00     0.054 A 
BRANCH  74  75
ATOM     75  S   UNL A   1      32.195  36.061  32.348  1.00  0.00     0.124 S 
ATOM     76  O   UNL A   1      32.219  36.498  30.957  1.00  0.00    -0.237 OA
ATOM     77  O   UNL A   1      31.117  35.143  32.706  1.00  0.00    -0.237 OA
ATOM     78  O   UNL A   1      32.466  37.105  33.336  1.00  0.00    -0.744 OA
ENDBRANCH  74  75
ENDBRANCH  55  69
BRANCH  56  79
ATOM     79  C   UNL A   1      44.138  28.641  35.489  1.00  0.00    -0.014 A 
ATOM     80  C   UNL A   1      44.046  27.484  36.288  1.00  0.00     0.010 A 
ATOM     81  C   UNL A   1      45.414  29.123  35.143  1.00  0.00     0.010 A 
ATOM     82  C   UNL A   1      45.193  26.881  36.810  1.00  0.00     0.020 A 
ATOM     83  C   UNL A   1      46.569  28.492  35.624  1.00  0.00     0.020 A 
ATOM     84  C   UNL A   1      46.447  27.402  36.489  1.00  0.00     0.054 A 
BRANCH  84  85
ATOM     85  S   UNL A   1      47.915  26.648  37.242  1.00  0.00     0.124 S 
ATOM     86  O   UNL A   1      47.689  25.230  36.975  1.00  0.00    -0.237 OA
ATOM     87  O   UNL A   1      49.010  27.262  36.495  1.00  0.00    -0.237 OA
ATOM     88  O   UNL A   1      47.821  27.044  38.645  1.00  0.00    -0.744 OA
ENDBRANCH  84  85
ENDBRANCH  56  79
BRANCH  68  89
ATOM     89  C   UNL A   1      40.412  33.864  38.341  1.00  0.00    -0.014 A 
ATOM     90  C   UNL A   1      39.667  33.539  39.492  1.00  0.00     0.010 A 
ATOM     91  C   UNL A   1      41.151  35.061  38.331  1.00  0.00     0.010 A 
ATOM     92  C   UNL A   1      39.621  34.409  40.586  1.00  0.00     0.020 A 
ATOM     93  C   UNL A   1      41.136  35.920  39.437  1.00  0.00     0.020 A 
ATOM     94  C   UNL A   1      40.347  35.602  40.545  1.00  0.00     0.054 A 
BRANCH  94  95
ATOM     95  S   UNL A   1      40.235  36.742  41.954  1.00  0.00     0.124 S 
ATOM     96  O   UNL A   1      39.916  35.840  43.057  1.00  0.00    -0.237 OA
ATOM     97  O   UNL A   1      41.570  37.336  41.993  1.00  0.00    -0.237 OA
ATOM     98  O   UNL A   1      39.165  37.661  41.570  1.00  0.00    -0.744 OA
ENDBRANCH  94  95
ENDBRANCH  68  89
ENDBRANCH  42  43
ENDBRANCH  34  37
ENDBRANCH  32  33
ENDBRANCH   1  32
TORSDOF 16
ENDMDL
MODEL 3
REMARK VINA RESULT:     -12.8      6.410     11.784
REMARK SMILES O=C(CCN1C(=O)[C@@H]2[C@@H](C1=O)[C@H]1c3ccccc3[C@]2(Br)c2ccccc21)NCCCCNC(=O)c1ccc(-c2c3nc(c(-c4ccc(S(=O)(=O)[O-])cc4)c4ccc([nH]4)c(-c4ccc(S(=O)(=O)[O-])cc4)c4nc(c(-c5ccc(S(=O)(=O)[O-])cc5)c5ccc2[nH]5)C=C4)C=C3)cc1
REMARK SMILES IDX 30 1 29 2 28 3 27 4 1 5 2 6 3 8 4 9 5 10 6 11 10 12 7 13
REMARK SMILES IDX 8 14 9 15 11 16 19 17 12 18 21 19 20 20 18 21 26 22 13 23
REMARK SMILES IDX 22 24 17 25 25 26 14 27 23 28 16 29 24 30 15 31 31 32 32 33
REMARK SMILES IDX 33 34 34 36 35 37 36 38 94 39 37 40 93 41 38 42 39 43 40 44
REMARK SMILES IDX 87 45 41 46 92 47 86 48 88 49 42 50 91 51 85 52 84 53 43 55
REMARK SMILES IDX 73 56 54 57 72 58 55 59 58 60 71 61 89 62 56 63 57 64 70 66
REMARK SMILES IDX 90 67 59 68 44 69 45 70 53 71 46 72 52 73 47 74 48 75 49 76
REMARK SMILES IDX 50 77 51 78 74 79 75 80 83 81 76 82 82 83 77 84 78 85 79 86
REMARK SMILES IDX 80 87 81 88 60 89 61 90 69 91 62 92 68 93 63 94 64 95 65 96
REMARK SMILES IDX 66 97 67 98
REMARK H PARENT 27 7 32 35 88 54 58 65
REMARK Flexibility Score: inf
ROOT
ATOM      1  C   UNL A   1      34.386  30.617  27.274  1.00  0.00     0.023 C 
ENDROOT
BRANCH   1   2
ATOM      2  C   UNL A   1      33.880  29.632  26.210  1.00  0.00     0.023 C 
BRANCH   2   3
ATOM      3  C   UNL A   1      32.397  29.687  25.813  1.00  0.00     0.116 C 
BRANCH   3   4
ATOM      4  N   UNL A   1      31.542  28.663  26.411  1.00  0.00    -0.356 N 
ATOM      5  O   UNL A   1      31.380  27.365  24.507  1.00  0.00    -0.275 OA
ATOM      6  C   UNL A   1      31.207  27.509  25.715  1.00  0.00     0.221 C 
ATOM      7  H   UNL A   1      31.196  28.794  27.324  1.00  0.00     0.163 HD
BRANCH   6   8
ATOM      8  C   UNL A   1      30.622  26.379  26.552  1.00  0.00     0.122 C 
BRANCH   8   9
ATOM      9  C   UNL A   1      29.882  25.346  25.691  1.00  0.00     0.138 C 
BRANCH   9  10
ATOM     10  N   UNL A   1      30.695  24.173  25.422  1.00  0.00    -0.281 N 
ATOM     11  C   UNL A   1      31.078  23.808  24.139  1.00  0.00     0.235 C 
ATOM     12  C   UNL A   1      31.204  23.317  26.399  1.00  0.00     0.234 C 
ATOM     13  O   UNL A   1      30.779  24.360  23.101  1.00  0.00    -0.274 OA
ATOM     14  C   UNL A   1      31.754  22.485  24.288  1.00  0.00     0.118 C 
ATOM     15  C   UNL A   1      32.331  22.641  25.699  1.00  0.00     0.105 C 
ATOM     16  O   UNL A   1      30.951  23.285  27.589  1.00  0.00    -0.274 OA
ATOM     17  C   UNL A   1      32.857  21.872  23.414  1.00  0.00     0.088 C 
ATOM     18  C   UNL A   1      33.216  21.418  26.021  1.00  0.00     0.063 C 
ATOM     19  C   UNL A   1      32.691  20.384  23.787  1.00  0.00    -0.022 A 
ATOM     20  Br  UNL A   1      32.549  22.227  21.545  1.00  0.00    -0.074 Br
ATOM     21  C   UNL A   1      34.262  22.248  23.954  1.00  0.00    -0.022 A 
ATOM     22  C   UNL A   1      32.830  20.168  25.203  1.00  0.00    -0.035 A 
ATOM     23  C   UNL A   1      34.496  21.915  25.323  1.00  0.00    -0.035 A 
ATOM     24  C   UNL A   1      32.450  19.315  22.928  1.00  0.00     0.006 A 
ATOM     25  C   UNL A   1      35.284  22.858  23.282  1.00  0.00     0.006 A 
ATOM     26  C   UNL A   1      32.768  18.881  25.713  1.00  0.00     0.005 A 
ATOM     27  C   UNL A   1      35.712  22.172  25.956  1.00  0.00     0.005 A 
ATOM     28  C   UNL A   1      32.363  18.033  23.461  1.00  0.00     0.000 A 
ATOM     29  C   UNL A   1      36.501  23.152  23.905  1.00  0.00     0.000 A 
ATOM     30  C   UNL A   1      32.528  17.818  24.835  1.00  0.00     0.000 A 
ATOM     31  C   UNL A   1      36.719  22.800  25.233  1.00  0.00     0.000 A 
ENDBRANCH   9  10
ENDBRANCH   8   9
ENDBRANCH   6   8
ENDBRANCH   3   4
ENDBRANCH   2   3
ENDBRANCH   1   2
BRANCH   1  32
ATOM     32  C   UNL A   1      35.676  30.311  28.051  1.00  0.00     0.116 C 
BRANCH  32  33
ATOM     33  N   UNL A   1      35.640  29.978  29.462  1.00  0.00    -0.352 N 
ATOM     34  C   UNL A   1      36.670  29.470  30.261  1.00  0.00     0.251 C 
ATOM     35  H   UNL A   1      34.780  30.129  29.916  1.00  0.00     0.163 HD
ATOM     36  O   UNL A   1      36.481  29.337  31.468  1.00  0.00    -0.269 OA
BRANCH  34  37
ATOM     37  C   UNL A   1      37.999  29.046  29.702  1.00  0.00     0.039 A 
ATOM     38  C   UNL A   1      38.880  28.245  30.420  1.00  0.00     0.014 A 
ATOM     39  C   UNL A   1      38.363  29.371  28.394  1.00  0.00     0.014 A 
ATOM     40  C   UNL A   1      40.205  28.032  29.953  1.00  0.00     0.010 A 
ATOM     41  C   UNL A   1      39.650  29.042  27.885  1.00  0.00     0.010 A 
ATOM     42  C   UNL A   1      40.657  28.472  28.689  1.00  0.00    -0.014 A 
BRANCH  42  43
ATOM     43  C   UNL A   1      42.134  28.417  28.259  1.00  0.00     0.031 A 
ATOM     44  C   UNL A   1      42.754  27.155  27.619  1.00  0.00     0.074 A 
ATOM     45  C   UNL A   1      42.970  29.485  28.350  1.00  0.00     0.049 A 
ATOM     46  N   UNL A   1      43.996  26.938  27.228  1.00  0.00    -0.248 NA
ATOM     47  C   UNL A   1      41.878  25.996  27.372  1.00  0.00     0.031 C 
ATOM     48  C   UNL A   1      42.620  30.802  28.880  1.00  0.00     0.029 A 
ATOM     49  N   UNL A   1      44.303  29.639  27.987  1.00  0.00    -0.354 N 
ATOM     50  C   UNL A   1      44.038  25.643  26.704  1.00  0.00     0.074 A 
ATOM     51  C   UNL A   1      42.708  25.101  26.853  1.00  0.00     0.031 C 
ATOM     52  C   UNL A   1      43.664  31.633  28.748  1.00  0.00     0.029 A 
ATOM     53  C   UNL A   1      44.820  30.894  28.244  1.00  0.00     0.049 A 
ATOM     54  H   UNL A   1      44.834  28.915  27.582  1.00  0.00     0.167 HD
ATOM     55  C   UNL A   1      45.061  24.953  26.136  1.00  0.00     0.031 A 
ATOM     56  C   UNL A   1      46.067  31.417  28.154  1.00  0.00     0.031 A 
ATOM     57  C   UNL A   1      46.409  25.437  25.966  1.00  0.00     0.049 A 
ATOM     58  C   UNL A   1      47.225  30.592  27.655  1.00  0.00     0.074 A 
ATOM     59  C   UNL A   1      47.488  24.764  25.407  1.00  0.00     0.029 A 
ATOM     60  N   UNL A   1      46.877  26.681  26.342  1.00  0.00    -0.354 N 
ATOM     61  N   UNL A   1      47.219  29.373  27.181  1.00  0.00    -0.248 NA
ATOM     62  C   UNL A   1      48.563  31.213  27.685  1.00  0.00     0.031 C 
ATOM     63  C   UNL A   1      48.624  25.563  25.532  1.00  0.00     0.029 A 
ATOM     64  C   UNL A   1      48.236  26.775  26.074  1.00  0.00     0.049 A 
ATOM     65  H   UNL A   1      46.329  27.395  26.742  1.00  0.00     0.167 HD
ATOM     66  C   UNL A   1      48.541  29.085  26.850  1.00  0.00     0.074 A 
ATOM     67  C   UNL A   1      49.321  30.265  27.147  1.00  0.00     0.031 C 
ATOM     68  C   UNL A   1      49.049  27.932  26.350  1.00  0.00     0.031 A 
BRANCH  55  69
ATOM     69  C   UNL A   1      44.805  23.549  25.621  1.00  0.00    -0.014 A 
ATOM     70  C   UNL A   1      45.107  22.441  26.438  1.00  0.00     0.010 A 
ATOM     71  C   UNL A   1      44.487  23.330  24.268  1.00  0.00     0.010 A 
ATOM     72  C   UNL A   1      45.156  21.151  25.901  1.00  0.00     0.020 A 
ATOM     73  C   UNL A   1      44.506  22.036  23.734  1.00  0.00     0.020 A 
ATOM     74  C   UNL A   1      44.871  20.959  24.547  1.00  0.00     0.054 A 
BRANCH  74  75
ATOM     75  S   UNL A   1      45.026  19.289  23.849  1.00  0.00     0.124 S 
ATOM     76  O   UNL A   1      44.503  19.467  22.499  1.00  0.00    -0.237 OA
ATOM     77  O   UNL A   1      46.462  19.040  23.944  1.00  0.00    -0.237 OA
ATOM     78  O   UNL A   1      44.201  18.470  24.736  1.00  0.00    -0.744 OA
ENDBRANCH  74  75
ENDBRANCH  55  69
BRANCH  56  79
ATOM     79  C   UNL A   1      46.299  32.821  28.623  1.00  0.00    -0.014 A 
ATOM     80  C   UNL A   1      46.620  33.065  29.974  1.00  0.00     0.010 A 
ATOM     81  C   UNL A   1      46.152  33.919  27.756  1.00  0.00     0.010 A 
ATOM     82  C   UNL A   1      46.695  34.368  30.469  1.00  0.00     0.020 A 
ATOM     83  C   UNL A   1      46.276  35.229  28.238  1.00  0.00     0.020 A 
ATOM     84  C   UNL A   1      46.504  35.443  29.600  1.00  0.00     0.054 A 
BRANCH  84  85
ATOM     85  S   UNL A   1      46.530  37.123  30.283  1.00  0.00     0.124 S 
ATOM     86  O   UNL A   1      45.125  37.324  30.629  1.00  0.00    -0.237 OA
ATOM     87  O   UNL A   1      47.445  36.995  31.413  1.00  0.00    -0.237 OA
ATOM     88  O   UNL A   1      47.023  37.935  29.173  1.00  0.00    -0.744 OA
ENDBRANCH  84  85
ENDBRANCH  56  79
BRANCH  68  89
ATOM     89  C   UNL A   1      50.529  27.834  26.067  1.00  0.00    -0.014 A 
ATOM     90  C   UNL A   1      51.000  27.943  24.743  1.00  0.00     0.010 A 
ATOM     91  C   UNL A   1      51.441  27.488  27.081  1.00  0.00     0.010 A 
ATOM     92  C   UNL A   1      52.334  27.664  24.432  1.00  0.00     0.020 A 
ATOM     93  C   UNL A   1      52.786  27.240  26.779  1.00  0.00     0.020 A 
ATOM     94  C   UNL A   1      53.217  27.302  25.452  1.00  0.00     0.054 A 
BRANCH  94  95
ATOM     95  S   UNL A   1      54.933  26.895  25.020  1.00  0.00     0.124 S 
ATOM     96  O   UNL A   1      55.213  27.839  23.942  1.00  0.00    -0.237 OA
ATOM     97  O   UNL A   1      55.646  27.141  26.272  1.00  0.00    -0.237 OA
ATOM     98  O   UNL A   1      54.865  25.491  24.618  1.00  0.00    -0.744 OA
ENDBRANCH  94  95
ENDBRANCH  68  89
ENDBRANCH  42  43
ENDBRANCH  34  37
ENDBRANCH  32  33
ENDBRANCH   1  32
TORSDOF 16
ENDMDL
