MODEL 1
REMARK VINA RESULT:     -10.9      0.000      0.000
REMARK SMILES CSCC[C@@H](CO)n1ccnc1-c1ccccc1C(=O)NCCCCNC(=O)c1ccc(-c2c3nc(c(-c4ccc(S(=O)(=O)[O-])cc4)c4ccc([nH]4)c(-c4ccc(S(=O)(=O)[O-])cc4)c4nc(c(-c5ccc(S(=O)(=O)[O-])cc5)c5ccc2[nH]5)C=C4)C=C3)cc1
REMARK SMILES IDX 22 1 21 2 19 3 20 4 18 6 13 7 14 8 15 9 17 10 16 11 12 12
REMARK SMILES IDX 8 13 9 14 10 15 11 16 5 17 4 18 3 19 2 20 1 21 6 22 7 23
REMARK SMILES IDX 23 25 24 26 25 27 26 28 27 29 28 31 29 32 30 33 88 34 31 35
REMARK SMILES IDX 87 36 32 37 33 38 34 39 81 40 35 41 86 42 80 43 82 44 36 45
REMARK SMILES IDX 85 46 79 47 78 48 37 50 67 51 48 52 66 53 49 54 52 55 65 56
REMARK SMILES IDX 83 57 50 58 51 59 64 61 84 62 53 63 38 64 39 65 47 66 40 67
REMARK SMILES IDX 46 68 41 69 42 70 43 71 44 72 45 73 68 74 69 75 77 76 70 77
REMARK SMILES IDX 76 78 71 79 72 80 73 81 74 82 75 83 54 84 55 85 63 86 56 87
REMARK SMILES IDX 62 88 57 89 58 90 59 91 60 92 61 93
REMARK H PARENT 21 5 7 24 26 30 82 49 52 60
REMARK Flexibility Score: inf
ROOT
ATOM      1  C   UNL A   1      37.167  23.841  25.897  1.00  0.00     0.116 C 
ENDROOT
BRANCH   1   2
ATOM      2  N   UNL A   1      37.154  23.627  24.471  1.00  0.00    -0.352 N 
ATOM      3  C   UNL A   1      36.245  22.981  23.658  1.00  0.00     0.252 C 
ATOM      4  O   UNL A   1      36.572  22.945  22.467  1.00  0.00    -0.269 OA
ATOM      5  H   UNL A   1      37.927  24.007  23.995  1.00  0.00     0.163 HD
BRANCH   3   6
ATOM      6  C   UNL A   1      34.915  22.360  24.044  1.00  0.00     0.050 A 
ATOM      7  C   UNL A   1      33.596  22.793  23.800  1.00  0.00     0.030 A 
ATOM      8  C   UNL A   1      32.498  22.052  24.311  1.00  0.00     0.013 A 
ATOM      9  C   UNL A   1      32.666  20.832  24.950  1.00  0.00     0.001 A 
ATOM     10  C   UNL A   1      35.044  21.084  24.658  1.00  0.00     0.014 A 
ATOM     11  C   UNL A   1      33.945  20.326  25.090  1.00  0.00     0.001 A 
BRANCH   7  12
ATOM     12  C   UNL A   1      33.178  23.936  23.003  1.00  0.00     0.141 A 
ATOM     13  N   UNL A   1      32.671  25.146  23.450  1.00  0.00    -0.326 N 
ATOM     14  C   UNL A   1      32.595  25.959  22.327  1.00  0.00     0.108 A 
ATOM     15  C   UNL A   1      32.996  25.200  21.263  1.00  0.00     0.131 A 
ATOM     16  N   UNL A   1      33.379  23.970  21.693  1.00  0.00    -0.237 NA
BRANCH  13  17
ATOM     17  C   UNL A   1      32.424  25.664  24.806  1.00  0.00     0.115 C 
BRANCH  17  18
ATOM     18  C   UNL A   1      32.575  27.201  24.868  1.00  0.00     0.039 C 
BRANCH  18  19
ATOM     19  C   UNL A   1      31.285  27.959  25.191  1.00  0.00     0.071 C 
BRANCH  19  20
ATOM     20  S   UNL A   1      30.809  28.978  23.758  1.00  0.00    -0.165 SA
ATOM     21  C   UNL A   1      29.320  28.163  23.171  1.00  0.00     0.085 C 
ENDBRANCH  19  20
ENDBRANCH  18  19
ENDBRANCH  17  18
BRANCH  17  22
ATOM     22  C   UNL A   1      31.143  25.266  25.564  1.00  0.00     0.181 C 
BRANCH  22  23
ATOM     23  O   UNL A   1      30.109  24.777  24.718  1.00  0.00    -0.394 OA
ATOM     24  H   UNL A   1      29.246  25.039  25.077  1.00  0.00     0.210 HD
ENDBRANCH  22  23
ENDBRANCH  17  22
ENDBRANCH  13  17
ENDBRANCH   7  12
ENDBRANCH   3   6
ENDBRANCH   1   2
BRANCH   1  25
ATOM     25  C   UNL A   1      38.514  23.841  26.619  1.00  0.00     0.023 C 
BRANCH  25  26
ATOM     26  C   UNL A   1      39.300  22.523  26.665  1.00  0.00     0.023 C 
BRANCH  26  27
ATOM     27  C   UNL A   1      40.718  22.571  27.250  1.00  0.00     0.116 C 
BRANCH  27  28
ATOM     28  N   UNL A   1      41.797  22.347  26.291  1.00  0.00    -0.352 N 
ATOM     29  C   UNL A   1      42.544  23.308  25.612  1.00  0.00     0.251 C 
ATOM     30  H   UNL A   1      42.024  21.407  26.102  1.00  0.00     0.163 HD
ATOM     31  O   UNL A   1      43.245  23.000  24.664  1.00  0.00    -0.269 OA
BRANCH  29  32
ATOM     32  C   UNL A   1      42.501  24.717  26.084  1.00  0.00     0.039 A 
ATOM     33  C   UNL A   1      41.629  25.668  25.550  1.00  0.00     0.014 A 
ATOM     34  C   UNL A   1      43.379  25.084  27.094  1.00  0.00     0.014 A 
ATOM     35  C   UNL A   1      41.565  26.944  26.131  1.00  0.00     0.010 A 
ATOM     36  C   UNL A   1      43.281  26.322  27.699  1.00  0.00     0.010 A 
ATOM     37  C   UNL A   1      42.372  27.261  27.234  1.00  0.00    -0.014 A 
BRANCH  37  38
ATOM     38  C   UNL A   1      42.121  28.448  28.065  1.00  0.00     0.031 A 
ATOM     39  C   UNL A   1      43.127  29.532  27.891  1.00  0.00     0.074 A 
ATOM     40  C   UNL A   1      40.976  28.720  28.733  1.00  0.00     0.049 A 
ATOM     41  N   UNL A   1      43.984  29.939  28.765  1.00  0.00    -0.248 NA
ATOM     42  C   UNL A   1      43.291  30.151  26.564  1.00  0.00     0.031 C 
ATOM     43  C   UNL A   1      39.756  27.915  28.792  1.00  0.00     0.029 A 
ATOM     44  N   UNL A   1      40.613  29.852  29.412  1.00  0.00    -0.354 N 
ATOM     45  C   UNL A   1      44.650  31.014  28.187  1.00  0.00     0.074 A 
ATOM     46  C   UNL A   1      44.314  30.981  26.784  1.00  0.00     0.031 C 
ATOM     47  C   UNL A   1      38.733  28.671  29.259  1.00  0.00     0.029 A 
ATOM     48  C   UNL A   1      39.245  29.960  29.667  1.00  0.00     0.049 A 
ATOM     49  H   UNL A   1      41.264  30.532  29.696  1.00  0.00     0.167 HD
ATOM     50  C   UNL A   1      45.233  31.979  28.950  1.00  0.00     0.031 A 
ATOM     51  C   UNL A   1      38.573  31.028  30.172  1.00  0.00     0.031 A 
ATOM     52  C   UNL A   1      45.293  31.590  30.338  1.00  0.00     0.049 A 
ATOM     53  C   UNL A   1      39.560  31.820  30.936  1.00  0.00     0.074 A 
ATOM     54  C   UNL A   1      45.855  30.540  31.037  1.00  0.00     0.029 A 
ATOM     55  N   UNL A   1      44.351  32.142  31.176  1.00  0.00    -0.354 N 
ATOM     56  N   UNL A   1      40.145  31.377  32.012  1.00  0.00    -0.248 NA
ATOM     57  C   UNL A   1      40.227  32.924  30.268  1.00  0.00     0.031 C 
ATOM     58  C   UNL A   1      44.901  30.218  32.046  1.00  0.00     0.029 A 
ATOM     59  C   UNL A   1      43.850  31.135  31.957  1.00  0.00     0.049 A 
ATOM     60  H   UNL A   1      44.087  33.090  31.207  1.00  0.00     0.167 HD
ATOM     61  C   UNL A   1      41.456  31.807  31.893  1.00  0.00     0.074 A 
ATOM     62  C   UNL A   1      41.419  32.850  30.869  1.00  0.00     0.031 C 
ATOM     63  C   UNL A   1      42.483  31.080  32.427  1.00  0.00     0.031 A 
BRANCH  50  64
ATOM     64  C   UNL A   1      45.377  33.425  28.538  1.00  0.00    -0.014 A 
ATOM     65  C   UNL A   1      46.622  34.060  28.736  1.00  0.00     0.010 A 
ATOM     66  C   UNL A   1      44.280  34.255  28.235  1.00  0.00     0.010 A 
ATOM     67  C   UNL A   1      46.743  35.454  28.718  1.00  0.00     0.020 A 
ATOM     68  C   UNL A   1      44.398  35.646  28.169  1.00  0.00     0.020 A 
ATOM     69  C   UNL A   1      45.621  36.239  28.450  1.00  0.00     0.054 A 
BRANCH  69  70
ATOM     70  S   UNL A   1      45.763  38.040  28.536  1.00  0.00     0.124 S 
ATOM     71  O   UNL A   1      46.477  38.344  27.301  1.00  0.00    -0.237 OA
ATOM     72  O   UNL A   1      44.364  38.458  28.581  1.00  0.00    -0.237 OA
ATOM     73  O   UNL A   1      46.514  38.264  29.769  1.00  0.00    -0.744 OA
ENDBRANCH  69  70
ENDBRANCH  50  64
BRANCH  51  74
ATOM     74  C   UNL A   1      37.216  31.549  29.851  1.00  0.00    -0.014 A 
ATOM     75  C   UNL A   1      36.283  31.830  30.871  1.00  0.00     0.010 A 
ATOM     76  C   UNL A   1      36.948  32.069  28.568  1.00  0.00     0.010 A 
ATOM     77  C   UNL A   1      35.168  32.656  30.636  1.00  0.00     0.020 A 
ATOM     78  C   UNL A   1      35.836  32.891  28.324  1.00  0.00     0.020 A 
ATOM     79  C   UNL A   1      34.964  33.203  29.367  1.00  0.00     0.054 A 
BRANCH  79  80
ATOM     80  S   UNL A   1      33.634  34.422  29.118  1.00  0.00     0.124 S 
ATOM     81  O   UNL A   1      32.728  33.717  28.216  1.00  0.00    -0.237 OA
ATOM     82  O   UNL A   1      33.137  34.634  30.474  1.00  0.00    -0.237 OA
ATOM     83  O   UNL A   1      34.325  35.569  28.530  1.00  0.00    -0.744 OA
ENDBRANCH  79  80
ENDBRANCH  51  74
BRANCH  63  84
ATOM     84  C   UNL A   1      42.156  29.983  33.415  1.00  0.00    -0.014 A 
ATOM     85  C   UNL A   1      41.777  28.675  33.053  1.00  0.00     0.010 A 
ATOM     86  C   UNL A   1      42.393  30.257  34.773  1.00  0.00     0.010 A 
ATOM     87  C   UNL A   1      41.616  27.678  34.030  1.00  0.00     0.020 A 
ATOM     88  C   UNL A   1      42.254  29.267  35.747  1.00  0.00     0.020 A 
ATOM     89  C   UNL A   1      41.856  27.984  35.374  1.00  0.00     0.054 A 
BRANCH  89  90
ATOM     90  S   UNL A   1      41.691  26.687  36.634  1.00  0.00     0.124 S 
ATOM     91  O   UNL A   1      41.578  25.474  35.829  1.00  0.00    -0.237 OA
ATOM     92  O   UNL A   1      42.926  26.819  37.403  1.00  0.00    -0.237 OA
ATOM     93  O   UNL A   1      40.478  27.059  37.360  1.00  0.00    -0.744 OA
ENDBRANCH  89  90
ENDBRANCH  63  84
ENDBRANCH  37  38
ENDBRANCH  29  32
ENDBRANCH  27  28
ENDBRANCH  26  27
ENDBRANCH  25  26
ENDBRANCH   1  25
TORSDOF 21
ENDMDL
MODEL 2
REMARK VINA RESULT:     -10.7      3.053      9.307
REMARK SMILES CSCC[C@@H](CO)n1ccnc1-c1ccccc1C(=O)NCCCCNC(=O)c1ccc(-c2c3nc(c(-c4ccc(S(=O)(=O)[O-])cc4)c4ccc([nH]4)c(-c4ccc(S(=O)(=O)[O-])cc4)c4nc(c(-c5ccc(S(=O)(=O)[O-])cc5)c5ccc2[nH]5)C=C4)C=C3)cc1
REMARK SMILES IDX 22 1 21 2 19 3 20 4 18 6 13 7 14 8 15 9 17 10 16 11 12 12
REMARK SMILES IDX 8 13 9 14 10 15 11 16 5 17 4 18 3 19 2 20 1 21 6 22 7 23
REMARK SMILES IDX 23 25 24 26 25 27 26 28 27 29 28 31 29 32 30 33 88 34 31 35
REMARK SMILES IDX 87 36 32 37 33 38 34 39 81 40 35 41 86 42 80 43 82 44 36 45
REMARK SMILES IDX 85 46 79 47 78 48 37 50 67 51 48 52 66 53 49 54 52 55 65 56
REMARK SMILES IDX 83 57 50 58 51 59 64 61 84 62 53 63 38 64 39 65 47 66 40 67
REMARK SMILES IDX 46 68 41 69 42 70 43 71 44 72 45 73 68 74 69 75 77 76 70 77
REMARK SMILES IDX 76 78 71 79 72 80 73 81 74 82 75 83 54 84 55 85 63 86 56 87
REMARK SMILES IDX 62 88 57 89 58 90 59 91 60 92 61 93
REMARK H PARENT 21 5 7 24 26 30 82 49 52 60
REMARK Flexibility Score: inf
ROOT
ATOM      1  C   UNL A   1      34.276  28.664  26.515  1.00  0.00     0.116 C 
ENDROOT
BRANCH   1   2
ATOM      2  N   UNL A   1      33.135  27.903  26.963  1.00  0.00    -0.352 N 
ATOM      3  C   UNL A   1      32.315  27.018  26.294  1.00  0.00     0.252 C 
ATOM      4  O   UNL A   1      31.389  26.573  26.981  1.00  0.00    -0.269 OA
ATOM      5  H   UNL A   1      32.902  28.040  27.909  1.00  0.00     0.163 HD
BRANCH   3   6
ATOM      6  C   UNL A   1      32.437  26.519  24.866  1.00  0.00     0.050 A 
ATOM      7  C   UNL A   1      33.171  25.441  24.333  1.00  0.00     0.030 A 
ATOM      8  C   UNL A   1      33.163  25.199  22.933  1.00  0.00     0.013 A 
ATOM      9  C   UNL A   1      32.350  25.916  22.066  1.00  0.00     0.001 A 
ATOM     10  C   UNL A   1      31.583  27.199  23.955  1.00  0.00     0.014 A 
ATOM     11  C   UNL A   1      31.527  26.896  22.586  1.00  0.00     0.001 A 
BRANCH   7  12
ATOM     12  C   UNL A   1      33.942  24.451  25.067  1.00  0.00     0.141 A 
ATOM     13  N   UNL A   1      33.533  23.198  25.494  1.00  0.00    -0.326 N 
ATOM     14  C   UNL A   1      34.674  22.576  25.984  1.00  0.00     0.108 A 
ATOM     15  C   UNL A   1      35.691  23.484  25.885  1.00  0.00     0.131 A 
ATOM     16  N   UNL A   1      35.237  24.620  25.295  1.00  0.00    -0.237 NA
BRANCH  13  17
ATOM     17  C   UNL A   1      32.259  22.477  25.336  1.00  0.00     0.115 C 
BRANCH  17  18
ATOM     18  C   UNL A   1      32.436  20.953  25.526  1.00  0.00     0.039 C 
BRANCH  18  19
ATOM     19  C   UNL A   1      32.362  20.134  24.236  1.00  0.00     0.071 C 
BRANCH  19  20
ATOM     20  S   UNL A   1      32.676  18.380  24.615  1.00  0.00    -0.165 SA
ATOM     21  C   UNL A   1      32.984  17.673  22.993  1.00  0.00     0.085 C 
ENDBRANCH  19  20
ENDBRANCH  18  19
ENDBRANCH  17  18
BRANCH  17  22
ATOM     22  C   UNL A   1      31.012  22.928  26.122  1.00  0.00     0.181 C 
BRANCH  22  23
ATOM     23  O   UNL A   1      31.318  23.635  27.317  1.00  0.00    -0.394 OA
ATOM     24  H   UNL A   1      32.058  23.201  27.770  1.00  0.00     0.210 HD
ENDBRANCH  22  23
ENDBRANCH  17  22
ENDBRANCH  13  17
ENDBRANCH   7  12
ENDBRANCH   3   6
ENDBRANCH   1   2
BRANCH   1  25
ATOM     25  C   UNL A   1      34.936  29.630  27.498  1.00  0.00     0.023 C 
BRANCH  25  26
ATOM     26  C   UNL A   1      34.230  30.965  27.770  1.00  0.00     0.023 C 
BRANCH  26  27
ATOM     27  C   UNL A   1      35.075  32.099  28.367  1.00  0.00     0.116 C 
BRANCH  27  28
ATOM     28  N   UNL A   1      34.587  32.641  29.633  1.00  0.00    -0.352 N 
ATOM     29  C   UNL A   1      34.981  32.279  30.920  1.00  0.00     0.251 C 
ATOM     30  H   UNL A   1      33.901  33.345  29.570  1.00  0.00     0.163 HD
ATOM     31  O   UNL A   1      34.333  32.627  31.892  1.00  0.00    -0.269 OA
BRANCH  29  32
ATOM     32  C   UNL A   1      36.227  31.490  31.096  1.00  0.00     0.039 A 
ATOM     33  C   UNL A   1      36.234  30.096  31.181  1.00  0.00     0.014 A 
ATOM     34  C   UNL A   1      37.424  32.187  31.184  1.00  0.00     0.014 A 
ATOM     35  C   UNL A   1      37.461  29.416  31.226  1.00  0.00     0.010 A 
ATOM     36  C   UNL A   1      38.632  31.518  31.177  1.00  0.00     0.010 A 
ATOM     37  C   UNL A   1      38.668  30.131  31.189  1.00  0.00    -0.014 A 
BRANCH  37  38
ATOM     38  C   UNL A   1      39.954  29.472  30.914  1.00  0.00     0.031 A 
ATOM     39  C   UNL A   1      40.796  29.261  32.125  1.00  0.00     0.074 A 
ATOM     40  C   UNL A   1      40.293  28.844  29.765  1.00  0.00     0.049 A 
ATOM     41  N   UNL A   1      41.920  29.833  32.393  1.00  0.00    -0.248 NA
ATOM     42  C   UNL A   1      40.280  28.421  33.219  1.00  0.00     0.031 C 
ATOM     43  C   UNL A   1      39.487  28.687  28.554  1.00  0.00     0.029 A 
ATOM     44  N   UNL A   1      41.403  28.097  29.476  1.00  0.00    -0.354 N 
ATOM     45  C   UNL A   1      42.372  29.268  33.580  1.00  0.00     0.074 A 
ATOM     46  C   UNL A   1      41.249  28.548  34.129  1.00  0.00     0.031 C 
ATOM     47  C   UNL A   1      40.023  27.719  27.772  1.00  0.00     0.029 A 
ATOM     48  C   UNL A   1      41.279  27.290  28.345  1.00  0.00     0.049 A 
ATOM     49  H   UNL A   1      42.220  28.128  30.022  1.00  0.00     0.167 HD
ATOM     50  C   UNL A   1      43.697  29.243  33.893  1.00  0.00     0.031 A 
ATOM     51  C   UNL A   1      42.139  26.332  27.905  1.00  0.00     0.031 A 
ATOM     52  C   UNL A   1      44.465  30.083  33.007  1.00  0.00     0.049 A 
ATOM     53  C   UNL A   1      43.465  26.673  28.462  1.00  0.00     0.074 A 
ATOM     54  C   UNL A   1      44.453  31.424  32.674  1.00  0.00     0.029 A 
ATOM     55  N   UNL A   1      45.160  29.450  32.003  1.00  0.00    -0.354 N 
ATOM     56  N   UNL A   1      44.118  27.750  28.129  1.00  0.00    -0.248 NA
ATOM     57  C   UNL A   1      43.870  26.054  29.711  1.00  0.00     0.031 C 
ATOM     58  C   UNL A   1      44.712  31.456  31.272  1.00  0.00     0.029 A 
ATOM     59  C   UNL A   1      44.944  30.146  30.844  1.00  0.00     0.049 A 
ATOM     60  H   UNL A   1      45.714  28.642  32.101  1.00  0.00     0.167 HD
ATOM     61  C   UNL A   1      44.667  28.201  29.319  1.00  0.00     0.074 A 
ATOM     62  C   UNL A   1      44.584  27.059  30.228  1.00  0.00     0.031 C 
ATOM     63  C   UNL A   1      44.871  29.535  29.534  1.00  0.00     0.031 A 
BRANCH  50  64
ATOM     64  C   UNL A   1      44.361  28.166  34.718  1.00  0.00    -0.014 A 
ATOM     65  C   UNL A   1      44.747  26.970  34.075  1.00  0.00     0.010 A 
ATOM     66  C   UNL A   1      44.365  28.162  36.126  1.00  0.00     0.010 A 
ATOM     67  C   UNL A   1      45.033  25.809  34.803  1.00  0.00     0.020 A 
ATOM     68  C   UNL A   1      44.694  27.023  36.865  1.00  0.00     0.020 A 
ATOM     69  C   UNL A   1      44.988  25.842  36.197  1.00  0.00     0.054 A 
BRANCH  69  70
ATOM     70  S   UNL A   1      45.253  24.311  37.125  1.00  0.00     0.124 S 
ATOM     71  O   UNL A   1      46.709  24.227  37.152  1.00  0.00    -0.237 OA
ATOM     72  O   UNL A   1      44.609  24.610  38.401  1.00  0.00    -0.237 OA
ATOM     73  O   UNL A   1      44.579  23.301  36.314  1.00  0.00    -0.744 OA
ENDBRANCH  69  70
ENDBRANCH  50  64
BRANCH  51  74
ATOM     74  C   UNL A   1      41.866  25.023  27.252  1.00  0.00    -0.014 A 
ATOM     75  C   UNL A   1      42.799  24.442  26.367  1.00  0.00     0.010 A 
ATOM     76  C   UNL A   1      40.834  24.195  27.740  1.00  0.00     0.010 A 
ATOM     77  C   UNL A   1      42.745  23.074  26.041  1.00  0.00     0.020 A 
ATOM     78  C   UNL A   1      40.772  22.830  27.417  1.00  0.00     0.020 A 
ATOM     79  C   UNL A   1      41.744  22.269  26.589  1.00  0.00     0.054 A 
BRANCH  79  80
ATOM     80  S   UNL A   1      41.793  20.468  26.321  1.00  0.00     0.124 S 
ATOM     81  O   UNL A   1      42.117  19.962  27.651  1.00  0.00    -0.237 OA
ATOM     82  O   UNL A   1      40.443  20.179  25.846  1.00  0.00    -0.237 OA
ATOM     83  O   UNL A   1      42.846  20.298  25.321  1.00  0.00    -0.744 OA
ENDBRANCH  79  80
ENDBRANCH  51  74
BRANCH  63  84
ATOM     84  C   UNL A   1      44.793  30.480  28.356  1.00  0.00    -0.014 A 
ATOM     85  C   UNL A   1      43.596  30.849  27.711  1.00  0.00     0.010 A 
ATOM     86  C   UNL A   1      45.979  31.137  27.987  1.00  0.00     0.010 A 
ATOM     87  C   UNL A   1      43.595  31.832  26.707  1.00  0.00     0.020 A 
ATOM     88  C   UNL A   1      45.983  32.127  27.004  1.00  0.00     0.020 A 
ATOM     89  C   UNL A   1      44.793  32.465  26.361  1.00  0.00     0.054 A 
BRANCH  89  90
ATOM     90  S   UNL A   1      44.788  33.766  25.094  1.00  0.00     0.124 S 
ATOM     91  O   UNL A   1      44.423  33.032  23.885  1.00  0.00    -0.237 OA
ATOM     92  O   UNL A   1      43.782  34.702  25.591  1.00  0.00    -0.237 OA
ATOM     93  O   UNL A   1      46.158  34.277  25.114  1.00  0.00    -0.744 OA
ENDBRANCH  89  90
ENDBRANCH  63  84
ENDBRANCH  37  38
ENDBRANCH  29  32
ENDBRANCH  27  28
ENDBRANCH  26  27
ENDBRANCH  25  26
ENDBRANCH   1  25
TORSDOF 21
ENDMDL
MODEL 3
REMARK VINA RESULT:     -10.6      2.884      9.379
REMARK SMILES CSCC[C@@H](CO)n1ccnc1-c1ccccc1C(=O)NCCCCNC(=O)c1ccc(-c2c3nc(c(-c4ccc(S(=O)(=O)[O-])cc4)c4ccc([nH]4)c(-c4ccc(S(=O)(=O)[O-])cc4)c4nc(c(-c5ccc(S(=O)(=O)[O-])cc5)c5ccc2[nH]5)C=C4)C=C3)cc1
REMARK SMILES IDX 22 1 21 2 19 3 20 4 18 6 13 7 14 8 15 9 17 10 16 11 12 12
REMARK SMILES IDX 8 13 9 14 10 15 11 16 5 17 4 18 3 19 2 20 1 21 6 22 7 23
REMARK SMILES IDX 23 25 24 26 25 27 26 28 27 29 28 31 29 32 30 33 88 34 31 35
REMARK SMILES IDX 87 36 32 37 33 38 34 39 81 40 35 41 86 42 80 43 82 44 36 45
REMARK SMILES IDX 85 46 79 47 78 48 37 50 67 51 48 52 66 53 49 54 52 55 65 56
REMARK SMILES IDX 83 57 50 58 51 59 64 61 84 62 53 63 38 64 39 65 47 66 40 67
REMARK SMILES IDX 46 68 41 69 42 70 43 71 44 72 45 73 68 74 69 75 77 76 70 77
REMARK SMILES IDX 76 78 71 79 72 80 73 81 74 82 75 83 54 84 55 85 63 86 56 87
REMARK SMILES IDX 62 88 57 89 58 90 59 91 60 92 61 93
REMARK H PARENT 21 5 7 24 26 30 82 49 52 60
REMARK Flexibility Score: inf
ROOT
ATOM      1  C   UNL A   1      32.984  28.215  27.138  1.00  0.00     0.116 C 
ENDROOT
BRANCH   1   2
ATOM      2  N   UNL A   1      33.668  28.035  25.880  1.00  0.00    -0.352 N 
ATOM      3  C   UNL A   1      33.184  27.839  24.603  1.00  0.00     0.252 C 
ATOM      4  O   UNL A   1      34.064  27.676  23.752  1.00  0.00    -0.269 OA
ATOM      5  H   UNL A   1      34.650  28.057  25.945  1.00  0.00     0.163 HD
BRANCH   3   6
ATOM      6  C   UNL A   1      31.740  27.836  24.136  1.00  0.00     0.050 A 
ATOM      7  C   UNL A   1      30.753  26.835  24.219  1.00  0.00     0.030 A 
ATOM      8  C   UNL A   1      29.467  27.056  23.658  1.00  0.00     0.013 A 
ATOM      9  C   UNL A   1      29.094  28.285  23.130  1.00  0.00     0.001 A 
ATOM     10  C   UNL A   1      31.307  29.094  23.632  1.00  0.00     0.014 A 
ATOM     11  C   UNL A   1      30.008  29.321  23.152  1.00  0.00     0.001 A 
BRANCH   7  12
ATOM     12  C   UNL A   1      30.858  25.547  24.885  1.00  0.00     0.141 A 
ATOM     13  N   UNL A   1      31.679  24.481  24.553  1.00  0.00    -0.326 N 
ATOM     14  C   UNL A   1      31.540  23.564  25.587  1.00  0.00     0.108 A 
ATOM     15  C   UNL A   1      30.616  24.081  26.451  1.00  0.00     0.131 A 
ATOM     16  N   UNL A   1      30.225  25.310  26.026  1.00  0.00    -0.237 NA
BRANCH  13  17
ATOM     17  C   UNL A   1      32.684  24.311  23.491  1.00  0.00     0.115 C 
BRANCH  17  18
ATOM     18  C   UNL A   1      33.093  22.831  23.321  1.00  0.00     0.039 C 
BRANCH  18  19
ATOM     19  C   UNL A   1      34.547  22.522  23.687  1.00  0.00     0.071 C 
BRANCH  19  20
ATOM     20  S   UNL A   1      34.595  21.085  24.806  1.00  0.00    -0.165 SA
ATOM     21  C   UNL A   1      35.415  21.745  26.262  1.00  0.00     0.085 C 
ENDBRANCH  19  20
ENDBRANCH  18  19
ENDBRANCH  17  18
BRANCH  17  22
ATOM     22  C   UNL A   1      32.443  24.918  22.094  1.00  0.00     0.181 C 
BRANCH  22  23
ATOM     23  O   UNL A   1      33.488  25.780  21.661  1.00  0.00    -0.394 OA
ATOM     24  H   UNL A   1      33.870  25.437  20.837  1.00  0.00     0.210 HD
ENDBRANCH  22  23
ENDBRANCH  17  22
ENDBRANCH  13  17
ENDBRANCH   7  12
ENDBRANCH   3   6
ENDBRANCH   1   2
BRANCH   1  25
ATOM     25  C   UNL A   1      31.968  29.349  27.256  1.00  0.00     0.023 C 
BRANCH  25  26
ATOM     26  C   UNL A   1      32.433  30.767  26.895  1.00  0.00     0.023 C 
BRANCH  26  27
ATOM     27  C   UNL A   1      33.799  31.216  27.431  1.00  0.00     0.116 C 
BRANCH  27  28
ATOM     28  N   UNL A   1      33.766  31.938  28.700  1.00  0.00    -0.352 N 
ATOM     29  C   UNL A   1      34.724  31.923  29.712  1.00  0.00     0.251 C 
ATOM     30  H   UNL A   1      32.974  32.502  28.860  1.00  0.00     0.163 HD
ATOM     31  O   UNL A   1      34.472  32.371  30.817  1.00  0.00    -0.269 OA
BRANCH  29  32
ATOM     32  C   UNL A   1      36.076  31.384  29.415  1.00  0.00     0.039 A 
ATOM     33  C   UNL A   1      37.156  32.198  29.067  1.00  0.00     0.014 A 
ATOM     34  C   UNL A   1      36.250  30.009  29.487  1.00  0.00     0.014 A 
ATOM     35  C   UNL A   1      38.429  31.625  28.919  1.00  0.00     0.010 A 
ATOM     36  C   UNL A   1      37.511  29.451  29.391  1.00  0.00     0.010 A 
ATOM     37  C   UNL A   1      38.613  30.248  29.116  1.00  0.00    -0.014 A 
BRANCH  37  38
ATOM     38  C   UNL A   1      39.949  29.659  29.287  1.00  0.00     0.031 A 
ATOM     39  C   UNL A   1      40.321  29.406  30.707  1.00  0.00     0.074 A 
ATOM     40  C   UNL A   1      40.709  29.118  28.306  1.00  0.00     0.049 A 
ATOM     41  N   UNL A   1      41.243  30.005  31.383  1.00  0.00    -0.248 NA
ATOM     42  C   UNL A   1      39.504  28.478  31.508  1.00  0.00     0.031 C 
ATOM     43  C   UNL A   1      40.393  29.006  26.883  1.00  0.00     0.029 A 
ATOM     44  N   UNL A   1      41.892  28.436  28.398  1.00  0.00    -0.354 N 
ATOM     45  C   UNL A   1      41.279  29.384  32.626  1.00  0.00     0.074 A 
ATOM     46  C   UNL A   1      40.080  28.586  32.708  1.00  0.00     0.031 C 
ATOM     47  C   UNL A   1      41.227  28.111  26.300  1.00  0.00     0.029 A 
ATOM     48  C   UNL A   1      42.224  27.697  27.262  1.00  0.00     0.049 A 
ATOM     49  H   UNL A   1      42.461  28.465  29.200  1.00  0.00     0.167 HD
ATOM     50  C   UNL A   1      42.408  29.393  33.389  1.00  0.00     0.031 A 
ATOM     51  C   UNL A   1      43.238  26.804  27.114  1.00  0.00     0.031 A 
ATOM     52  C   UNL A   1      43.388  30.317  32.872  1.00  0.00     0.049 A 
ATOM     53  C   UNL A   1      44.260  27.162  28.121  1.00  0.00     0.074 A 
ATOM     54  C   UNL A   1      43.414  31.674  32.617  1.00  0.00     0.029 A 
ATOM     55  N   UNL A   1      44.429  29.776  32.153  1.00  0.00    -0.354 N 
ATOM     56  N   UNL A   1      44.923  28.283  28.091  1.00  0.00    -0.248 NA
ATOM     57  C   UNL A   1      44.235  26.482  29.404  1.00  0.00     0.031 C 
ATOM     58  C   UNL A   1      44.148  31.804  31.401  1.00  0.00     0.029 A 
ATOM     59  C   UNL A   1      44.594  30.534  31.025  1.00  0.00     0.049 A 
ATOM     60  H   UNL A   1      44.959  28.986  32.406  1.00  0.00     0.167 HD
ATOM     61  C   UNL A   1      44.989  28.680  29.416  1.00  0.00     0.074 A 
ATOM     62  C   UNL A   1      44.659  27.481  30.185  1.00  0.00     0.031 C 
ATOM     63  C   UNL A   1      45.024  30.004  29.749  1.00  0.00     0.031 A 
BRANCH  50  64
ATOM     64  C   UNL A   1      42.802  28.293  34.347  1.00  0.00    -0.014 A 
ATOM     65  C   UNL A   1      43.179  28.649  35.660  1.00  0.00     0.010 A 
ATOM     66  C   UNL A   1      43.087  26.976  33.936  1.00  0.00     0.010 A 
ATOM     67  C   UNL A   1      43.882  27.762  36.483  1.00  0.00     0.020 A 
ATOM     68  C   UNL A   1      43.747  26.067  34.767  1.00  0.00     0.020 A 
ATOM     69  C   UNL A   1      44.175  26.479  36.022  1.00  0.00     0.054 A 
BRANCH  69  70
ATOM     70  S   UNL A   1      45.177  25.378  37.049  1.00  0.00     0.124 S 
ATOM     71  O   UNL A   1      45.710  24.447  36.059  1.00  0.00    -0.237 OA
ATOM     72  O   UNL A   1      46.143  26.301  37.639  1.00  0.00    -0.237 OA
ATOM     73  O   UNL A   1      44.210  24.813  37.987  1.00  0.00    -0.744 OA
ENDBRANCH  69  70
ENDBRANCH  50  64
BRANCH  51  74
ATOM     74  C   UNL A   1      43.292  25.529  26.349  1.00  0.00    -0.014 A 
ATOM     75  C   UNL A   1      44.176  25.369  25.262  1.00  0.00     0.010 A 
ATOM     76  C   UNL A   1      42.704  24.363  26.883  1.00  0.00     0.010 A 
ATOM     77  C   UNL A   1      44.515  24.091  24.775  1.00  0.00     0.020 A 
ATOM     78  C   UNL A   1      43.034  23.086  26.401  1.00  0.00     0.020 A 
ATOM     79  C   UNL A   1      43.959  22.954  25.366  1.00  0.00     0.054 A 
BRANCH  79  80
ATOM     80  S   UNL A   1      44.546  21.305  24.864  1.00  0.00     0.124 S 
ATOM     81  O   UNL A   1      44.635  21.432  23.413  1.00  0.00    -0.237 OA
ATOM     82  O   UNL A   1      45.821  21.192  25.567  1.00  0.00    -0.237 OA
ATOM     83  O   UNL A   1      43.497  20.406  25.343  1.00  0.00    -0.744 OA
ENDBRANCH  79  80
ENDBRANCH  51  74
BRANCH  63  84
ATOM     84  C   UNL A   1      45.310  31.018  28.664  1.00  0.00    -0.014 A 
ATOM     85  C   UNL A   1      44.457  31.277  27.573  1.00  0.00     0.010 A 
ATOM     86  C   UNL A   1      46.429  31.849  28.847  1.00  0.00     0.010 A 
ATOM     87  C   UNL A   1      44.733  32.324  26.679  1.00  0.00     0.020 A 
ATOM     88  C   UNL A   1      46.700  32.903  27.974  1.00  0.00     0.020 A 
ATOM     89  C   UNL A   1      45.856  33.131  26.887  1.00  0.00     0.054 A 
BRANCH  89  90
ATOM     90  S   UNL A   1      46.192  34.513  25.758  1.00  0.00     0.124 S 
ATOM     91  O   UNL A   1      47.583  34.283  25.378  1.00  0.00    -0.237 OA
ATOM     92  O   UNL A   1      45.209  34.314  24.696  1.00  0.00    -0.237 OA
ATOM     93  O   UNL A   1      45.967  35.699  26.583  1.00  0.00    -0.744 OA
ENDBRANCH  89  90
ENDBRANCH  63  84
ENDBRANCH  37  38
ENDBRANCH  29  32
ENDBRANCH  27  28
ENDBRANCH  26  27
ENDBRANCH  25  26
ENDBRANCH   1  25
TORSDOF 21
ENDMDL
