MODEL 1
REMARK VINA RESULT:     -11.6      0.000      0.000
REMARK SMILES O=C(NCCCCNC(=O)[C@@H]1CCCN(c2cnnc(O)c2Cl)C1)c1ccc(-c2c3nc(c(-c4ccc(S(=O)(=O)[O-])cc4)c4ccc([nH]4)c(-c4ccc(S(=O)(=O)[O-])cc4)c4nc(c(-c5ccc(S(=O)(=O)[O-])cc5)c5ccc2[nH]5)C=C4)C=C3)cc1
REMARK SMILES IDX 5 1 4 2 3 3 1 4 2 5 25 7 26 8 84 9 27 10 83 11 28 12 29 13
REMARK SMILES IDX 30 14 77 15 31 16 82 17 76 18 78 19 32 20 81 21 75 22 74 23
REMARK SMILES IDX 33 25 63 26 44 27 62 28 45 29 48 30 61 31 79 32 46 33 47 34
REMARK SMILES IDX 60 36 80 37 49 38 34 39 35 40 43 41 36 42 42 43 37 44 38 45
REMARK SMILES IDX 39 46 40 47 41 48 64 49 65 50 73 51 66 52 72 53 67 54 68 55
REMARK SMILES IDX 69 56 70 57 71 58 50 59 51 60 59 61 52 62 58 63 53 64 54 65
REMARK SMILES IDX 55 66 56 67 57 68 6 69 7 70 8 71 9 72 10 74 11 75 12 76
REMARK SMILES IDX 24 77 13 78 15 79 14 80 16 81 17 82 22 83 18 84 20 85 23 86
REMARK SMILES IDX 19 87 21 88
REMARK H PARENT 3 6 78 24 48 35 8 73 21 89
REMARK Flexibility Score: inf
ROOT
ATOM      1  C   UNL A   1      37.970  19.854  24.779  1.00  0.00     0.023 C 
ENDROOT
BRANCH   1   2
ATOM      2  C   UNL A   1      39.020  20.274  25.796  1.00  0.00     0.116 C 
BRANCH   2   3
ATOM      3  N   UNL A   1      40.117  19.315  25.907  1.00  0.00    -0.352 N 
ATOM      4  O   UNL A   1      42.272  18.642  26.040  1.00  0.00    -0.269 OA
ATOM      5  C   UNL A   1      41.451  19.545  26.158  1.00  0.00     0.251 C 
ATOM      6  H   UNL A   1      39.865  18.371  25.787  1.00  0.00     0.163 HD
BRANCH   5   7
ATOM      7  C   UNL A   1      41.869  20.905  26.553  1.00  0.00     0.039 A 
ATOM      8  C   UNL A   1      42.056  21.867  25.561  1.00  0.00     0.014 A 
ATOM      9  C   UNL A   1      42.151  21.198  27.889  1.00  0.00     0.014 A 
ATOM     10  C   UNL A   1      42.731  23.035  25.868  1.00  0.00     0.010 A 
ATOM     11  C   UNL A   1      42.708  22.439  28.217  1.00  0.00     0.010 A 
ATOM     12  C   UNL A   1      43.043  23.348  27.202  1.00  0.00    -0.014 A 
BRANCH  12  13
ATOM     13  C   UNL A   1      43.631  24.680  27.478  1.00  0.00     0.031 A 
ATOM     14  C   UNL A   1      45.059  25.000  27.144  1.00  0.00     0.074 A 
ATOM     15  C   UNL A   1      42.806  25.633  27.956  1.00  0.00     0.049 A 
ATOM     16  N   UNL A   1      45.667  26.158  27.205  1.00  0.00    -0.248 NA
ATOM     17  C   UNL A   1      45.920  23.896  26.691  1.00  0.00     0.031 C 
ATOM     18  C   UNL A   1      41.401  25.415  28.317  1.00  0.00     0.029 A 
ATOM     19  N   UNL A   1      42.996  26.973  28.165  1.00  0.00    -0.354 N 
ATOM     20  C   UNL A   1      46.983  25.919  26.831  1.00  0.00     0.074 A 
ATOM     21  C   UNL A   1      47.091  24.505  26.548  1.00  0.00     0.031 C 
ATOM     22  C   UNL A   1      40.834  26.590  28.609  1.00  0.00     0.029 A 
ATOM     23  C   UNL A   1      41.850  27.632  28.540  1.00  0.00     0.049 A 
ATOM     24  H   UNL A   1      43.868  27.418  28.058  1.00  0.00     0.167 HD
ATOM     25  C   UNL A   1      48.004  26.804  26.741  1.00  0.00     0.031 A 
ATOM     26  C   UNL A   1      41.631  28.932  28.810  1.00  0.00     0.031 A 
ATOM     27  C   UNL A   1      47.872  28.212  27.014  1.00  0.00     0.049 A 
ATOM     28  C   UNL A   1      42.774  29.890  28.702  1.00  0.00     0.074 A 
ATOM     29  C   UNL A   1      48.834  29.200  26.904  1.00  0.00     0.029 A 
ATOM     30  N   UNL A   1      46.711  28.830  27.458  1.00  0.00    -0.354 N 
ATOM     31  N   UNL A   1      44.004  29.649  28.317  1.00  0.00    -0.248 NA
ATOM     32  C   UNL A   1      42.514  31.286  29.075  1.00  0.00     0.031 C 
ATOM     33  C   UNL A   1      48.271  30.404  27.335  1.00  0.00     0.029 A 
ATOM     34  C   UNL A   1      46.943  30.179  27.661  1.00  0.00     0.049 A 
ATOM     35  H   UNL A   1      45.851  28.374  27.607  1.00  0.00     0.167 HD
ATOM     36  C   UNL A   1      44.671  30.861  28.405  1.00  0.00     0.074 A 
ATOM     37  C   UNL A   1      43.703  31.839  28.865  1.00  0.00     0.031 C 
ATOM     38  C   UNL A   1      45.969  31.133  28.131  1.00  0.00     0.031 A 
BRANCH  25  39
ATOM     39  C   UNL A   1      49.366  26.283  26.367  1.00  0.00    -0.014 A 
ATOM     40  C   UNL A   1      49.854  26.375  25.051  1.00  0.00     0.010 A 
ATOM     41  C   UNL A   1      50.204  25.763  27.371  1.00  0.00     0.010 A 
ATOM     42  C   UNL A   1      51.145  25.934  24.744  1.00  0.00     0.020 A 
ATOM     43  C   UNL A   1      51.502  25.339  27.071  1.00  0.00     0.020 A 
ATOM     44  C   UNL A   1      51.963  25.423  25.758  1.00  0.00     0.054 A 
BRANCH  44  45
ATOM     45  S   UNL A   1      53.638  24.876  25.327  1.00  0.00     0.124 S 
ATOM     46  O   UNL A   1      54.391  25.219  26.531  1.00  0.00    -0.237 OA
ATOM     47  O   UNL A   1      53.451  23.448  25.088  1.00  0.00    -0.237 OA
ATOM     48  O   UNL A   1      53.971  25.668  24.144  1.00  0.00    -0.744 OA
ENDBRANCH  44  45
ENDBRANCH  25  39
BRANCH  26  49
ATOM     49  C   UNL A   1      40.264  29.350  29.214  1.00  0.00    -0.014 A 
ATOM     50  C   UNL A   1      39.949  29.549  30.568  1.00  0.00     0.010 A 
ATOM     51  C   UNL A   1      39.324  29.707  28.228  1.00  0.00     0.010 A 
ATOM     52  C   UNL A   1      38.730  30.132  30.927  1.00  0.00     0.020 A 
ATOM     53  C   UNL A   1      38.116  30.311  28.582  1.00  0.00     0.020 A 
ATOM     54  C   UNL A   1      37.831  30.530  29.931  1.00  0.00     0.054 A 
BRANCH  54  55
ATOM     55  S   UNL A   1      36.317  31.400  30.422  1.00  0.00     0.124 S 
ATOM     56  O   UNL A   1      35.428  31.131  29.296  1.00  0.00    -0.237 OA
ATOM     57  O   UNL A   1      35.972  30.732  31.674  1.00  0.00    -0.237 OA
ATOM     58  O   UNL A   1      36.746  32.790  30.561  1.00  0.00    -0.744 OA
ENDBRANCH  54  55
ENDBRANCH  26  49
BRANCH  38  59
ATOM     59  C   UNL A   1      46.439  32.545  28.320  1.00  0.00    -0.014 A 
ATOM     60  C   UNL A   1      47.045  32.942  29.524  1.00  0.00     0.010 A 
ATOM     61  C   UNL A   1      46.396  33.441  27.236  1.00  0.00     0.010 A 
ATOM     62  C   UNL A   1      47.613  34.213  29.637  1.00  0.00     0.020 A 
ATOM     63  C   UNL A   1      46.979  34.706  27.341  1.00  0.00     0.020 A 
ATOM     64  C   UNL A   1      47.589  35.081  28.540  1.00  0.00     0.054 A 
BRANCH  64  65
ATOM     65  S   UNL A   1      48.413  36.689  28.691  1.00  0.00     0.124 S 
ATOM     66  O   UNL A   1      48.508  36.851  30.140  1.00  0.00    -0.237 OA
ATOM     67  O   UNL A   1      49.678  36.459  28.001  1.00  0.00    -0.237 OA
ATOM     68  O   UNL A   1      47.499  37.613  28.024  1.00  0.00    -0.744 OA
ENDBRANCH  64  65
ENDBRANCH  38  59
ENDBRANCH  12  13
ENDBRANCH   5   7
ENDBRANCH   2   3
ENDBRANCH   1   2
BRANCH   1  69
ATOM     69  C   UNL A   1      36.625  20.521  25.002  1.00  0.00     0.023 C 
BRANCH  69  70
ATOM     70  C   UNL A   1      36.695  21.947  25.542  1.00  0.00     0.116 C 
BRANCH  70  71
ATOM     71  N   UNL A   1      35.849  22.129  26.700  1.00  0.00    -0.356 N 
ATOM     72  C   UNL A   1      34.680  22.784  26.889  1.00  0.00     0.224 C 
ATOM     73  H   UNL A   1      36.190  21.688  27.510  1.00  0.00     0.163 HD
ATOM     74  O   UNL A   1      34.256  22.800  28.053  1.00  0.00    -0.275 OA
BRANCH  72  75
ATOM     75  C   UNL A   1      33.871  23.509  25.810  1.00  0.00     0.098 C 
ATOM     76  C   UNL A   1      32.635  24.290  26.233  1.00  0.00     0.017 C 
ATOM     77  C   UNL A   1      33.641  22.698  24.546  1.00  0.00     0.130 C 
ATOM     78  C   UNL A   1      31.284  23.642  25.941  1.00  0.00     0.022 C 
ATOM     79  N   UNL A   1      32.495  21.792  24.692  1.00  0.00    -0.368 N 
ATOM     80  C   UNL A   1      31.216  22.472  24.943  1.00  0.00     0.116 C 
BRANCH  79  81
ATOM     81  C   UNL A   1      32.614  20.433  24.360  1.00  0.00     0.082 A 
ATOM     82  C   UNL A   1      33.015  19.491  25.327  1.00  0.00     0.163 A 
ATOM     83  C   UNL A   1      32.268  19.815  23.139  1.00  0.00     0.129 A 
ATOM     84  N   UNL A   1      33.040  18.139  25.187  1.00  0.00    -0.153 NA
ATOM     85  C   UNL A   1      32.237  18.414  23.050  1.00  0.00     0.252 A 
ATOM     86  Cl  UNL A   1      31.919  20.659  21.659  1.00  0.00    -0.076 Cl
ATOM     87  N   UNL A   1      32.617  17.596  24.042  1.00  0.00    -0.111 NA
BRANCH  85  88
ATOM     88  O   UNL A   1      31.783  17.769  21.928  1.00  0.00    -0.491 OA
ATOM     89  H   UNL A   1      31.758  18.219  21.107  1.00  0.00     0.295 HD
ENDBRANCH  85  88
ENDBRANCH  79  81
ENDBRANCH  72  75
ENDBRANCH  70  71
ENDBRANCH  69  70
ENDBRANCH   1  69
TORSDOF 16
ENDMDL
MODEL 2
REMARK VINA RESULT:     -11.2      6.762     12.082
REMARK SMILES O=C(NCCCCNC(=O)[C@@H]1CCCN(c2cnnc(O)c2Cl)C1)c1ccc(-c2c3nc(c(-c4ccc(S(=O)(=O)[O-])cc4)c4ccc([nH]4)c(-c4ccc(S(=O)(=O)[O-])cc4)c4nc(c(-c5ccc(S(=O)(=O)[O-])cc5)c5ccc2[nH]5)C=C4)C=C3)cc1
REMARK SMILES IDX 5 1 4 2 3 3 1 4 2 5 25 7 26 8 84 9 27 10 83 11 28 12 29 13
REMARK SMILES IDX 30 14 77 15 31 16 82 17 76 18 78 19 32 20 81 21 75 22 74 23
REMARK SMILES IDX 33 25 63 26 44 27 62 28 45 29 48 30 61 31 79 32 46 33 47 34
REMARK SMILES IDX 60 36 80 37 49 38 34 39 35 40 43 41 36 42 42 43 37 44 38 45
REMARK SMILES IDX 39 46 40 47 41 48 64 49 65 50 73 51 66 52 72 53 67 54 68 55
REMARK SMILES IDX 69 56 70 57 71 58 50 59 51 60 59 61 52 62 58 63 53 64 54 65
REMARK SMILES IDX 55 66 56 67 57 68 6 69 7 70 8 71 9 72 10 74 11 75 12 76
REMARK SMILES IDX 24 77 13 78 15 79 14 80 16 81 17 82 22 83 18 84 20 85 23 86
REMARK SMILES IDX 19 87 21 88
REMARK H PARENT 3 6 78 24 48 35 8 73 21 89
REMARK Flexibility Score: inf
ROOT
ATOM      1  C   UNL A   1      31.756  32.047  26.874  1.00  0.00     0.023 C 
ENDROOT
BRANCH   1   2
ATOM      2  C   UNL A   1      32.885  32.791  27.569  1.00  0.00     0.116 C 
BRANCH   2   3
ATOM      3  N   UNL A   1      32.578  34.202  27.794  1.00  0.00    -0.352 N 
ATOM      4  O   UNL A   1      32.590  36.171  28.908  1.00  0.00    -0.269 OA
ATOM      5  C   UNL A   1      33.089  35.063  28.740  1.00  0.00     0.251 C 
ATOM      6  H   UNL A   1      31.913  34.593  27.181  1.00  0.00     0.163 HD
BRANCH   5   7
ATOM      7  C   UNL A   1      34.233  34.614  29.556  1.00  0.00     0.039 A 
ATOM      8  C   UNL A   1      35.519  34.703  29.022  1.00  0.00     0.014 A 
ATOM      9  C   UNL A   1      34.024  34.036  30.810  1.00  0.00     0.014 A 
ATOM     10  C   UNL A   1      36.555  34.018  29.632  1.00  0.00     0.010 A 
ATOM     11  C   UNL A   1      35.104  33.463  31.492  1.00  0.00     0.010 A 
ATOM     12  C   UNL A   1      36.368  33.412  30.886  1.00  0.00    -0.014 A 
BRANCH  12  13
ATOM     13  C   UNL A   1      37.555  32.825  31.551  1.00  0.00     0.031 A 
ATOM     14  C   UNL A   1      38.012  33.282  32.906  1.00  0.00     0.074 A 
ATOM     15  C   UNL A   1      38.161  31.790  30.933  1.00  0.00     0.049 A 
ATOM     16  N   UNL A   1      38.949  32.767  33.662  1.00  0.00    -0.248 NA
ATOM     17  C   UNL A   1      37.350  34.458  33.490  1.00  0.00     0.031 C 
ATOM     18  C   UNL A   1      37.790  31.278  29.609  1.00  0.00     0.029 A 
ATOM     19  N   UNL A   1      39.160  30.950  31.344  1.00  0.00    -0.354 N 
ATOM     20  C   UNL A   1      39.011  33.572  34.793  1.00  0.00     0.074 A 
ATOM     21  C   UNL A   1      38.022  34.613  34.625  1.00  0.00     0.031 C 
ATOM     22  C   UNL A   1      38.483  30.161  29.360  1.00  0.00     0.029 A 
ATOM     23  C   UNL A   1      39.404  29.923  30.464  1.00  0.00     0.049 A 
ATOM     24  H   UNL A   1      39.655  31.071  32.187  1.00  0.00     0.167 HD
ATOM     25  C   UNL A   1      39.827  33.448  35.866  1.00  0.00     0.031 A 
ATOM     26  C   UNL A   1      40.277  28.901  30.524  1.00  0.00     0.031 A 
ATOM     27  C   UNL A   1      40.797  32.395  36.021  1.00  0.00     0.049 A 
ATOM     28  C   UNL A   1      41.167  28.786  31.719  1.00  0.00     0.074 A 
ATOM     29  C   UNL A   1      41.638  32.155  37.093  1.00  0.00     0.029 A 
ATOM     30  N   UNL A   1      41.062  31.414  35.075  1.00  0.00    -0.354 N 
ATOM     31  N   UNL A   1      41.189  29.540  32.793  1.00  0.00    -0.248 NA
ATOM     32  C   UNL A   1      42.156  27.702  31.715  1.00  0.00     0.031 C 
ATOM     33  C   UNL A   1      42.449  31.063  36.772  1.00  0.00     0.029 A 
ATOM     34  C   UNL A   1      42.078  30.588  35.524  1.00  0.00     0.049 A 
ATOM     35  H   UNL A   1      40.596  31.321  34.213  1.00  0.00     0.167 HD
ATOM     36  C   UNL A   1      42.198  29.027  33.593  1.00  0.00     0.074 A 
ATOM     37  C   UNL A   1      42.753  27.888  32.887  1.00  0.00     0.031 C 
ATOM     38  C   UNL A   1      42.624  29.466  34.801  1.00  0.00     0.031 A 
BRANCH  25  39
ATOM     39  C   UNL A   1      39.742  34.493  36.948  1.00  0.00    -0.014 A 
ATOM     40  C   UNL A   1      40.405  35.727  36.832  1.00  0.00     0.010 A 
ATOM     41  C   UNL A   1      38.917  34.263  38.065  1.00  0.00     0.010 A 
ATOM     42  C   UNL A   1      40.263  36.701  37.825  1.00  0.00     0.020 A 
ATOM     43  C   UNL A   1      38.757  35.241  39.050  1.00  0.00     0.020 A 
ATOM     44  C   UNL A   1      39.436  36.453  38.926  1.00  0.00     0.054 A 
BRANCH  44  45
ATOM     45  S   UNL A   1      39.260  37.746  40.187  1.00  0.00     0.124 S 
ATOM     46  O   UNL A   1      38.185  38.567  39.636  1.00  0.00    -0.237 OA
ATOM     47  O   UNL A   1      38.915  36.977  41.379  1.00  0.00    -0.237 OA
ATOM     48  O   UNL A   1      40.574  38.386  40.217  1.00  0.00    -0.744 OA
ENDBRANCH  44  45
ENDBRANCH  25  39
BRANCH  26  49
ATOM     49  C   UNL A   1      40.322  27.942  29.390  1.00  0.00    -0.014 A 
ATOM     50  C   UNL A   1      41.270  28.093  28.365  1.00  0.00     0.010 A 
ATOM     51  C   UNL A   1      39.521  26.785  29.424  1.00  0.00     0.010 A 
ATOM     52  C   UNL A   1      41.441  27.083  27.412  1.00  0.00     0.020 A 
ATOM     53  C   UNL A   1      39.704  25.765  28.488  1.00  0.00     0.020 A 
ATOM     54  C   UNL A   1      40.672  25.916  27.494  1.00  0.00     0.054 A 
BRANCH  54  55
ATOM     55  S   UNL A   1      41.007  24.571  26.323  1.00  0.00     0.124 S 
ATOM     56  O   UNL A   1      39.747  23.833  26.334  1.00  0.00    -0.237 OA
ATOM     57  O   UNL A   1      41.301  25.301  25.093  1.00  0.00    -0.237 OA
ATOM     58  O   UNL A   1      42.145  23.872  26.915  1.00  0.00    -0.744 OA
ENDBRANCH  54  55
ENDBRANCH  26  49
BRANCH  38  59
ATOM     59  C   UNL A   1      43.752  28.723  35.454  1.00  0.00    -0.014 A 
ATOM     60  C   UNL A   1      45.081  29.142  35.277  1.00  0.00     0.010 A 
ATOM     61  C   UNL A   1      43.466  27.683  36.357  1.00  0.00     0.010 A 
ATOM     62  C   UNL A   1      46.109  28.538  36.005  1.00  0.00     0.020 A 
ATOM     63  C   UNL A   1      44.489  27.090  37.099  1.00  0.00     0.020 A 
ATOM     64  C   UNL A   1      45.804  27.527  36.922  1.00  0.00     0.054 A 
BRANCH  64  65
ATOM     65  S   UNL A   1      47.150  26.826  37.915  1.00  0.00     0.124 S 
ATOM     66  O   UNL A   1      47.207  27.746  39.048  1.00  0.00    -0.237 OA
ATOM     67  O   UNL A   1      46.651  25.487  38.218  1.00  0.00    -0.237 OA
ATOM     68  O   UNL A   1      48.304  26.872  37.021  1.00  0.00    -0.744 OA
ENDBRANCH  64  65
ENDBRANCH  38  59
ENDBRANCH  12  13
ENDBRANCH   5   7
ENDBRANCH   2   3
ENDBRANCH   1   2
BRANCH   1  69
ATOM     69  C   UNL A   1      31.982  30.547  26.813  1.00  0.00     0.023 C 
BRANCH  69  70
ATOM     70  C   UNL A   1      32.735  30.059  25.578  1.00  0.00     0.116 C 
BRANCH  70  71
ATOM     71  N   UNL A   1      31.844  29.487  24.593  1.00  0.00    -0.356 N 
ATOM     72  C   UNL A   1      32.016  28.548  23.635  1.00  0.00     0.224 C 
ATOM     73  H   UNL A   1      30.932  29.854  24.627  1.00  0.00     0.163 HD
ATOM     74  O   UNL A   1      31.039  28.345  22.900  1.00  0.00    -0.275 OA
BRANCH  72  75
ATOM     75  C   UNL A   1      33.298  27.750  23.377  1.00  0.00     0.098 C 
ATOM     76  C   UNL A   1      33.534  27.188  21.983  1.00  0.00     0.017 C 
ATOM     77  C   UNL A   1      33.649  26.756  24.471  1.00  0.00     0.130 C 
ATOM     78  C   UNL A   1      33.298  25.691  21.800  1.00  0.00     0.022 C 
ATOM     79  N   UNL A   1      32.918  25.494  24.302  1.00  0.00    -0.368 N 
ATOM     80  C   UNL A   1      33.209  24.791  23.045  1.00  0.00     0.116 C 
BRANCH  79  81
ATOM     81  C   UNL A   1      32.217  24.927  25.380  1.00  0.00     0.082 A 
ATOM     82  C   UNL A   1      30.879  25.286  25.632  1.00  0.00     0.163 A 
ATOM     83  C   UNL A   1      32.657  23.902  26.245  1.00  0.00     0.129 A 
ATOM     84  N   UNL A   1      30.042  24.723  26.544  1.00  0.00    -0.153 NA
ATOM     85  C   UNL A   1      31.748  23.295  27.126  1.00  0.00     0.252 A 
ATOM     86  Cl  UNL A   1      34.298  23.340  26.369  1.00  0.00    -0.076 Cl
ATOM     87  N   UNL A   1      30.477  23.695  27.278  1.00  0.00    -0.111 NA
BRANCH  85  88
ATOM     88  O   UNL A   1      32.095  22.211  27.892  1.00  0.00    -0.491 OA
ATOM     89  H   UNL A   1      31.488  21.507  28.008  1.00  0.00     0.295 HD
ENDBRANCH  85  88
ENDBRANCH  79  81
ENDBRANCH  72  75
ENDBRANCH  70  71
ENDBRANCH  69  70
ENDBRANCH   1  69
TORSDOF 16
ENDMDL
MODEL 3
REMARK VINA RESULT:     -11.2      3.671      8.019
REMARK SMILES O=C(NCCCCNC(=O)[C@@H]1CCCN(c2cnnc(O)c2Cl)C1)c1ccc(-c2c3nc(c(-c4ccc(S(=O)(=O)[O-])cc4)c4ccc([nH]4)c(-c4ccc(S(=O)(=O)[O-])cc4)c4nc(c(-c5ccc(S(=O)(=O)[O-])cc5)c5ccc2[nH]5)C=C4)C=C3)cc1
REMARK SMILES IDX 5 1 4 2 3 3 1 4 2 5 25 7 26 8 84 9 27 10 83 11 28 12 29 13
REMARK SMILES IDX 30 14 77 15 31 16 82 17 76 18 78 19 32 20 81 21 75 22 74 23
REMARK SMILES IDX 33 25 63 26 44 27 62 28 45 29 48 30 61 31 79 32 46 33 47 34
REMARK SMILES IDX 60 36 80 37 49 38 34 39 35 40 43 41 36 42 42 43 37 44 38 45
REMARK SMILES IDX 39 46 40 47 41 48 64 49 65 50 73 51 66 52 72 53 67 54 68 55
REMARK SMILES IDX 69 56 70 57 71 58 50 59 51 60 59 61 52 62 58 63 53 64 54 65
REMARK SMILES IDX 55 66 56 67 57 68 6 69 7 70 8 71 9 72 10 74 11 75 12 76
REMARK SMILES IDX 24 77 13 78 15 79 14 80 16 81 17 82 22 83 18 84 20 85 23 86
REMARK SMILES IDX 19 87 21 88
REMARK H PARENT 3 6 78 24 48 35 8 73 21 89
REMARK Flexibility Score: inf
ROOT
ATOM      1  C   UNL A   1      33.754  27.808  24.965  1.00  0.00     0.023 C 
ENDROOT
BRANCH   1   2
ATOM      2  C   UNL A   1      34.242  28.193  26.353  1.00  0.00     0.116 C 
BRANCH   2   3
ATOM      3  N   UNL A   1      33.711  29.477  26.804  1.00  0.00    -0.352 N 
ATOM      4  O   UNL A   1      33.587  31.323  28.105  1.00  0.00    -0.269 OA
ATOM      5  C   UNL A   1      34.249  30.374  27.699  1.00  0.00     0.251 C 
ATOM      6  H   UNL A   1      32.846  29.738  26.412  1.00  0.00     0.163 HD
BRANCH   5   7
ATOM      7  C   UNL A   1      35.631  30.157  28.170  1.00  0.00     0.039 A 
ATOM      8  C   UNL A   1      36.690  30.450  27.312  1.00  0.00     0.014 A 
ATOM      9  C   UNL A   1      35.870  29.591  29.425  1.00  0.00     0.014 A 
ATOM     10  C   UNL A   1      37.955  29.975  27.610  1.00  0.00     0.010 A 
ATOM     11  C   UNL A   1      37.175  29.235  29.781  1.00  0.00     0.010 A 
ATOM     12  C   UNL A   1      38.220  29.385  28.857  1.00  0.00    -0.014 A 
BRANCH  12  13
ATOM     13  C   UNL A   1      39.625  29.034  29.169  1.00  0.00     0.031 A 
ATOM     14  C   UNL A   1      40.233  27.732  28.733  1.00  0.00     0.074 A 
ATOM     15  C   UNL A   1      40.376  29.973  29.780  1.00  0.00     0.049 A 
ATOM     16  N   UNL A   1      41.482  27.351  28.818  1.00  0.00    -0.248 NA
ATOM     17  C   UNL A   1      39.341  26.729  28.133  1.00  0.00     0.031 C 
ATOM     18  C   UNL A   1      39.871  31.269  30.248  1.00  0.00     0.029 A 
ATOM     19  N   UNL A   1      41.715  30.019  30.062  1.00  0.00    -0.354 N 
ATOM     20  C   UNL A   1      41.522  26.057  28.315  1.00  0.00     0.074 A 
ATOM     21  C   UNL A   1      40.171  25.713  27.929  1.00  0.00     0.031 C 
ATOM     22  C   UNL A   1      40.899  32.016  30.667  1.00  0.00     0.029 A 
ATOM     23  C   UNL A   1      42.120  31.226  30.579  1.00  0.00     0.049 A 
ATOM     24  H   UNL A   1      42.326  29.262  29.909  1.00  0.00     0.167 HD
ATOM     25  C   UNL A   1      42.592  25.236  28.195  1.00  0.00     0.031 A 
ATOM     26  C   UNL A   1      43.338  31.659  30.954  1.00  0.00     0.031 A 
ATOM     27  C   UNL A   1      43.932  25.603  28.572  1.00  0.00     0.049 A 
ATOM     28  C   UNL A   1      44.504  30.734  30.811  1.00  0.00     0.074 A 
ATOM     29  C   UNL A   1      45.092  24.860  28.445  1.00  0.00     0.029 A 
ATOM     30  N   UNL A   1      44.290  26.810  29.157  1.00  0.00    -0.354 N 
ATOM     31  N   UNL A   1      44.525  29.524  30.304  1.00  0.00    -0.248 NA
ATOM     32  C   UNL A   1      45.802  31.214  31.298  1.00  0.00     0.031 C 
ATOM     33  C   UNL A   1      46.142  25.595  29.004  1.00  0.00     0.029 A 
ATOM     34  C   UNL A   1      45.647  26.818  29.429  1.00  0.00     0.049 A 
ATOM     35  H   UNL A   1      43.670  27.549  29.350  1.00  0.00     0.167 HD
ATOM     36  C   UNL A   1      45.838  29.093  30.414  1.00  0.00     0.074 A 
ATOM     37  C   UNL A   1      46.585  30.177  31.022  1.00  0.00     0.031 C 
ATOM     38  C   UNL A   1      46.370  27.903  30.046  1.00  0.00     0.031 A 
BRANCH  25  39
ATOM     39  C   UNL A   1      42.364  23.843  27.668  1.00  0.00    -0.014 A 
ATOM     40  C   UNL A   1      42.405  23.562  26.292  1.00  0.00     0.010 A 
ATOM     41  C   UNL A   1      42.184  22.784  28.578  1.00  0.00     0.010 A 
ATOM     42  C   UNL A   1      42.246  22.250  25.834  1.00  0.00     0.020 A 
ATOM     43  C   UNL A   1      42.045  21.469  28.125  1.00  0.00     0.020 A 
ATOM     44  C   UNL A   1      42.071  21.211  26.755  1.00  0.00     0.054 A 
BRANCH  44  45
ATOM     45  S   UNL A   1      41.886  19.518  26.128  1.00  0.00     0.124 S 
ATOM     46  O   UNL A   1      42.343  18.720  27.262  1.00  0.00    -0.237 OA
ATOM     47  O   UNL A   1      40.456  19.444  25.842  1.00  0.00    -0.237 OA
ATOM     48  O   UNL A   1      42.758  19.483  24.956  1.00  0.00    -0.744 OA
ENDBRANCH  44  45
ENDBRANCH  25  39
BRANCH  26  49
ATOM     49  C   UNL A   1      43.462  33.033  31.503  1.00  0.00    -0.014 A 
ATOM     50  C   UNL A   1      43.419  33.254  32.890  1.00  0.00     0.010 A 
ATOM     51  C   UNL A   1      43.788  34.101  30.645  1.00  0.00     0.010 A 
ATOM     52  C   UNL A   1      43.735  34.513  33.411  1.00  0.00     0.020 A 
ATOM     53  C   UNL A   1      44.127  35.352  31.163  1.00  0.00     0.020 A 
ATOM     54  C   UNL A   1      44.109  35.547  32.545  1.00  0.00     0.054 A 
BRANCH  54  55
ATOM     55  S   UNL A   1      44.639  37.129  33.258  1.00  0.00     0.124 S 
ATOM     56  O   UNL A   1      45.054  36.738  34.601  1.00  0.00    -0.237 OA
ATOM     57  O   UNL A   1      45.714  37.529  32.354  1.00  0.00    -0.237 OA
ATOM     58  O   UNL A   1      43.437  37.958  33.192  1.00  0.00    -0.744 OA
ENDBRANCH  54  55
ENDBRANCH  26  49
BRANCH  38  59
ATOM     59  C   UNL A   1      47.836  27.691  30.288  1.00  0.00    -0.014 A 
ATOM     60  C   UNL A   1      48.292  27.192  31.519  1.00  0.00     0.010 A 
ATOM     61  C   UNL A   1      48.745  27.865  29.228  1.00  0.00     0.010 A 
ATOM     62  C   UNL A   1      49.639  26.858  31.683  1.00  0.00     0.020 A 
ATOM     63  C   UNL A   1      50.087  27.515  29.384  1.00  0.00     0.020 A 
ATOM     64  C   UNL A   1      50.524  27.007  30.610  1.00  0.00     0.054 A 
BRANCH  64  65
ATOM     65  S   UNL A   1      52.245  26.481  30.830  1.00  0.00     0.124 S 
ATOM     66  O   UNL A   1      52.740  26.470  29.455  1.00  0.00    -0.237 OA
ATOM     67  O   UNL A   1      52.788  27.533  31.684  1.00  0.00    -0.237 OA
ATOM     68  O   UNL A   1      52.131  25.167  31.457  1.00  0.00    -0.744 OA
ENDBRANCH  64  65
ENDBRANCH  38  59
ENDBRANCH  12  13
ENDBRANCH   5   7
ENDBRANCH   2   3
ENDBRANCH   1   2
BRANCH   1  69
ATOM     69  C   UNL A   1      33.859  28.943  23.962  1.00  0.00     0.023 C 
BRANCH  69  70
ATOM     70  C   UNL A   1      33.151  28.695  22.633  1.00  0.00     0.116 C 
BRANCH  70  71
ATOM     71  N   UNL A   1      33.544  27.437  22.038  1.00  0.00    -0.356 N 
ATOM     72  C   UNL A   1      32.889  26.269  21.843  1.00  0.00     0.224 C 
ATOM     73  H   UNL A   1      34.471  27.430  21.709  1.00  0.00     0.163 HD
ATOM     74  O   UNL A   1      33.563  25.350  21.359  1.00  0.00    -0.275 OA
BRANCH  72  75
ATOM     75  C   UNL A   1      31.422  25.993  22.186  1.00  0.00     0.098 C 
ATOM     76  C   UNL A   1      30.543  27.161  22.606  1.00  0.00     0.017 C 
ATOM     77  C   UNL A   1      31.199  24.761  23.046  1.00  0.00     0.130 C 
ATOM     78  C   UNL A   1      30.229  27.280  24.095  1.00  0.00     0.022 C 
ATOM     79  N   UNL A   1      31.399  25.058  24.470  1.00  0.00    -0.368 N 
ATOM     80  C   UNL A   1      30.478  26.068  25.010  1.00  0.00     0.116 C 
BRANCH  79  81
ATOM     81  C   UNL A   1      32.229  24.245  25.259  1.00  0.00     0.082 A 
ATOM     82  C   UNL A   1      33.626  24.259  25.079  1.00  0.00     0.163 A 
ATOM     83  C   UNL A   1      31.851  23.434  26.350  1.00  0.00     0.129 A 
ATOM     84  N   UNL A   1      34.554  23.637  25.853  1.00  0.00    -0.153 NA
ATOM     85  C   UNL A   1      32.836  22.862  27.170  1.00  0.00     0.252 A 
ATOM     86  Cl  UNL A   1      30.213  23.011  26.755  1.00  0.00    -0.076 Cl
ATOM     87  N   UNL A   1      34.151  22.954  26.929  1.00  0.00    -0.111 NA
BRANCH  85  88
ATOM     88  O   UNL A   1      32.518  22.176  28.314  1.00  0.00    -0.491 OA
ATOM     89  H   UNL A   1      31.952  21.431  28.272  1.00  0.00     0.295 HD
ENDBRANCH  85  88
ENDBRANCH  79  81
ENDBRANCH  72  75
ENDBRANCH  70  71
ENDBRANCH  69  70
ENDBRANCH   1  69
TORSDOF 16
ENDMDL
