MODEL 1
REMARK VINA RESULT:      -9.0      0.000      0.000
REMARK SMILES Cc1ccc([C@H](C)Nc2ccc(C(=O)NCCCCNC(=O)c3ccc(-c4c5nc(c(-c6ccc(S(=O)(=O)[O-])cc6)c6ccc([nH]6)c(-c6ccc(S(=O)(=O)[O-])cc6)c6nc(c(-c7ccc(S(=O)(=O)[O-])cc7)c7ccc4[nH]7)C=C6)C=C5)cc3)cc2Cl)cc1F
REMARK SMILES IDX 17 1 16 2 15 3 13 4 14 5 12 7 9 8 10 9 84 10 11 11 83 12
REMARK SMILES IDX 85 13 8 14 6 16 7 17 5 18 1 19 2 20 3 21 87 22 4 23 86 24
REMARK SMILES IDX 88 25 18 26 19 27 20 28 21 29 22 31 23 32 24 33 82 34 25 35
REMARK SMILES IDX 81 36 26 37 27 38 28 39 75 40 29 41 80 42 74 43 76 44 30 45
REMARK SMILES IDX 79 46 73 47 72 48 31 50 61 51 42 52 60 53 43 54 46 55 59 56
REMARK SMILES IDX 77 57 44 58 45 59 58 61 78 62 47 63 32 64 33 65 41 66 34 67
REMARK SMILES IDX 40 68 35 69 36 70 37 71 38 72 39 73 62 74 63 75 71 76 64 77
REMARK SMILES IDX 70 78 65 79 66 80 67 81 68 82 69 83 48 84 49 85 57 86 50 87
REMARK SMILES IDX 56 88 51 89 52 90 53 91 54 92 55 93
REMARK H PARENT 15 6 8 15 20 30 76 49 46 60
REMARK Flexibility Score: inf
ROOT
ATOM      1  C   UNL A   1      43.224  23.252  26.603  1.00  0.00     0.023 C 
ENDROOT
BRANCH   1   2
ATOM      2  C   UNL A   1      43.545  24.266  25.500  1.00  0.00     0.116 C 
BRANCH   2   3
ATOM      3  N   UNL A   1      44.921  24.139  25.060  1.00  0.00    -0.352 N 
ATOM      4  C   UNL A   1      45.958  25.030  24.951  1.00  0.00     0.251 C 
ATOM      5  O   UNL A   1      47.035  24.585  24.548  1.00  0.00    -0.269 OA
ATOM      6  H   UNL A   1      45.161  23.225  24.782  1.00  0.00     0.163 HD
BRANCH   4   7
ATOM      7  C   UNL A   1      45.876  26.480  25.307  1.00  0.00     0.041 A 
ATOM      8  C   UNL A   1      45.910  29.282  25.954  1.00  0.00     0.053 A 
ATOM      9  C   UNL A   1      47.087  28.565  25.668  1.00  0.00     0.028 A 
ATOM     10  C   UNL A   1      44.716  28.539  25.939  1.00  0.00     0.065 A 
ATOM     11  C   UNL A   1      47.076  27.195  25.368  1.00  0.00     0.016 A 
ATOM     12  C   UNL A   1      44.706  27.186  25.563  1.00  0.00     0.036 A 
ATOM     13  Cl  UNL A   1      43.145  29.176  26.301  1.00  0.00    -0.082 Cl
BRANCH   8  14
ATOM     14  N   UNL A   1      46.068  30.626  26.240  1.00  0.00    -0.377 N 
ATOM     15  H   UNL A   1      46.379  31.194  25.498  1.00  0.00     0.161 HD
BRANCH  14  16
ATOM     16  C   UNL A   1      45.829  31.302  27.509  1.00  0.00     0.106 C 
ATOM     17  C   UNL A   1      47.190  31.394  28.218  1.00  0.00     0.036 C 
BRANCH  16  18
ATOM     18  C   UNL A   1      45.121  32.638  27.279  1.00  0.00    -0.023 A 
ATOM     19  C   UNL A   1      42.455  36.007  26.663  1.00  0.00     0.047 C 
ATOM     20  C   UNL A   1      43.441  34.900  26.869  1.00  0.00    -0.015 A 
ATOM     21  C   UNL A   1      44.042  34.673  28.109  1.00  0.00     0.007 A 
ATOM     22  C   UNL A   1      43.721  34.018  25.830  1.00  0.00     0.126 A 
ATOM     23  C   UNL A   1      44.867  33.555  28.312  1.00  0.00     0.006 A 
ATOM     24  C   UNL A   1      44.559  32.924  26.020  1.00  0.00     0.045 A 
ATOM     25  F   UNL A   1      43.149  34.195  24.631  1.00  0.00    -0.207 F 
ENDBRANCH  16  18
ENDBRANCH  14  16
ENDBRANCH   8  14
ENDBRANCH   4   7
ENDBRANCH   2   3
ENDBRANCH   1   2
BRANCH   1  26
ATOM     26  C   UNL A   1      42.333  22.095  26.144  1.00  0.00     0.023 C 
BRANCH  26  27
ATOM     27  C   UNL A   1      41.137  21.826  27.052  1.00  0.00     0.116 C 
BRANCH  27  28
ATOM     28  N   UNL A   1      39.868  21.795  26.343  1.00  0.00    -0.352 N 
ATOM     29  C   UNL A   1      38.958  22.818  26.196  1.00  0.00     0.251 C 
ATOM     30  H   UNL A   1      39.630  20.940  25.916  1.00  0.00     0.163 HD
ATOM     31  O   UNL A   1      37.881  22.620  25.650  1.00  0.00    -0.269 OA
BRANCH  29  32
ATOM     32  C   UNL A   1      39.285  24.144  26.760  1.00  0.00     0.039 A 
ATOM     33  C   UNL A   1      38.933  24.415  28.083  1.00  0.00     0.014 A 
ATOM     34  C   UNL A   1      39.987  25.086  26.004  1.00  0.00     0.014 A 
ATOM     35  C   UNL A   1      39.351  25.608  28.675  1.00  0.00     0.010 A 
ATOM     36  C   UNL A   1      40.459  26.243  26.614  1.00  0.00     0.010 A 
ATOM     37  C   UNL A   1      40.150  26.513  27.955  1.00  0.00    -0.014 A 
BRANCH  37  38
ATOM     38  C   UNL A   1      40.677  27.746  28.591  1.00  0.00     0.031 A 
ATOM     39  C   UNL A   1      42.102  27.796  29.066  1.00  0.00     0.074 A 
ATOM     40  C   UNL A   1      39.854  28.792  28.802  1.00  0.00     0.049 A 
ATOM     41  N   UNL A   1      42.725  28.753  29.705  1.00  0.00    -0.248 NA
ATOM     42  C   UNL A   1      42.929  26.604  28.812  1.00  0.00     0.031 C 
ATOM     43  C   UNL A   1      38.437  28.847  28.429  1.00  0.00     0.029 A 
ATOM     44  N   UNL A   1      40.087  30.009  29.390  1.00  0.00    -0.354 N 
ATOM     45  C   UNL A   1      44.009  28.277  29.938  1.00  0.00     0.074 A 
ATOM     46  C   UNL A   1      44.061  26.928  29.420  1.00  0.00     0.031 C 
ATOM     47  C   UNL A   1      37.936  30.043  28.779  1.00  0.00     0.029 A 
ATOM     48  C   UNL A   1      38.983  30.826  29.429  1.00  0.00     0.049 A 
ATOM     49  H   UNL A   1      40.965  30.272  29.751  1.00  0.00     0.167 HD
ATOM     50  C   UNL A   1      45.059  28.913  30.512  1.00  0.00     0.031 A 
ATOM     51  C   UNL A   1      38.827  32.064  29.937  1.00  0.00     0.031 A 
ATOM     52  C   UNL A   1      45.008  30.259  31.017  1.00  0.00     0.049 A 
ATOM     53  C   UNL A   1      40.008  32.751  30.567  1.00  0.00     0.074 A 
ATOM     54  C   UNL A   1      46.027  31.006  31.582  1.00  0.00     0.029 A 
ATOM     55  N   UNL A   1      43.876  31.060  31.014  1.00  0.00    -0.354 N 
ATOM     56  N   UNL A   1      41.229  32.303  30.730  1.00  0.00    -0.248 NA
ATOM     57  C   UNL A   1      39.791  34.116  31.067  1.00  0.00     0.031 C 
ATOM     58  C   UNL A   1      45.502  32.249  31.952  1.00  0.00     0.029 A 
ATOM     59  C   UNL A   1      44.169  32.292  31.575  1.00  0.00     0.049 A 
ATOM     60  H   UNL A   1      42.996  30.794  30.664  1.00  0.00     0.167 HD
ATOM     61  C   UNL A   1      41.934  33.340  31.331  1.00  0.00     0.074 A 
ATOM     62  C   UNL A   1      41.006  34.441  31.488  1.00  0.00     0.031 C 
ATOM     63  C   UNL A   1      43.233  33.377  31.718  1.00  0.00     0.031 A 
BRANCH  50  64
ATOM     64  C   UNL A   1      46.353  28.152  30.615  1.00  0.00    -0.014 A 
ATOM     65  C   UNL A   1      46.662  27.410  31.770  1.00  0.00     0.010 A 
ATOM     66  C   UNL A   1      47.260  28.157  29.540  1.00  0.00     0.010 A 
ATOM     67  C   UNL A   1      47.875  26.724  31.866  1.00  0.00     0.020 A 
ATOM     68  C   UNL A   1      48.463  27.450  29.623  1.00  0.00     0.020 A 
ATOM     69  C   UNL A   1      48.771  26.753  30.794  1.00  0.00     0.054 A 
BRANCH  69  70
ATOM     70  S   UNL A   1      50.332  25.843  30.941  1.00  0.00     0.124 S 
ATOM     71  O   UNL A   1      50.217  25.264  32.278  1.00  0.00    -0.237 OA
ATOM     72  O   UNL A   1      50.256  24.890  29.837  1.00  0.00    -0.237 OA
ATOM     73  O   UNL A   1      51.352  26.879  30.797  1.00  0.00    -0.744 OA
ENDBRANCH  69  70
ENDBRANCH  50  64
BRANCH  51  74
ATOM     74  C   UNL A   1      37.506  32.743  29.854  1.00  0.00    -0.014 A 
ATOM     75  C   UNL A   1      37.146  33.465  28.702  1.00  0.00     0.010 A 
ATOM     76  C   UNL A   1      36.599  32.668  30.926  1.00  0.00     0.010 A 
ATOM     77  C   UNL A   1      35.914  34.122  28.635  1.00  0.00     0.020 A 
ATOM     78  C   UNL A   1      35.356  33.302  30.852  1.00  0.00     0.020 A 
ATOM     79  C   UNL A   1      35.027  34.037  29.711  1.00  0.00     0.054 A 
BRANCH  79  80
ATOM     80  S   UNL A   1      33.415  34.863  29.587  1.00  0.00     0.124 S 
ATOM     81  O   UNL A   1      32.680  33.962  28.705  1.00  0.00    -0.237 OA
ATOM     82  O   UNL A   1      32.967  34.893  30.977  1.00  0.00    -0.237 OA
ATOM     83  O   UNL A   1      33.746  36.168  29.019  1.00  0.00    -0.744 OA
ENDBRANCH  79  80
ENDBRANCH  51  74
BRANCH  63  84
ATOM     84  C   UNL A   1      43.738  34.662  32.317  1.00  0.00    -0.014 A 
ATOM     85  C   UNL A   1      44.233  35.697  31.506  1.00  0.00     0.010 A 
ATOM     86  C   UNL A   1      43.665  34.852  33.709  1.00  0.00     0.010 A 
ATOM     87  C   UNL A   1      44.675  36.892  32.080  1.00  0.00     0.020 A 
ATOM     88  C   UNL A   1      44.082  36.055  34.284  1.00  0.00     0.020 A 
ATOM     89  C   UNL A   1      44.597  37.062  33.466  1.00  0.00     0.054 A 
BRANCH  89  90
ATOM     90  S   UNL A   1      45.132  38.639  34.185  1.00  0.00     0.124 S 
ATOM     91  O   UNL A   1      45.788  39.284  33.050  1.00  0.00    -0.237 OA
ATOM     92  O   UNL A   1      43.871  39.246  34.607  1.00  0.00    -0.237 OA
ATOM     93  O   UNL A   1      46.019  38.240  35.275  1.00  0.00    -0.744 OA
ENDBRANCH  89  90
ENDBRANCH  63  84
ENDBRANCH  37  38
ENDBRANCH  29  32
ENDBRANCH  27  28
ENDBRANCH  26  27
ENDBRANCH   1  26
TORSDOF 17
ENDMDL
MODEL 2
REMARK VINA RESULT:      -8.9      3.600     10.905
REMARK SMILES Cc1ccc([C@H](C)Nc2ccc(C(=O)NCCCCNC(=O)c3ccc(-c4c5nc(c(-c6ccc(S(=O)(=O)[O-])cc6)c6ccc([nH]6)c(-c6ccc(S(=O)(=O)[O-])cc6)c6nc(c(-c7ccc(S(=O)(=O)[O-])cc7)c7ccc4[nH]7)C=C6)C=C5)cc3)cc2Cl)cc1F
REMARK SMILES IDX 17 1 16 2 15 3 13 4 14 5 12 7 9 8 10 9 84 10 11 11 83 12
REMARK SMILES IDX 85 13 8 14 6 16 7 17 5 18 1 19 2 20 3 21 87 22 4 23 86 24
REMARK SMILES IDX 88 25 18 26 19 27 20 28 21 29 22 31 23 32 24 33 82 34 25 35
REMARK SMILES IDX 81 36 26 37 27 38 28 39 75 40 29 41 80 42 74 43 76 44 30 45
REMARK SMILES IDX 79 46 73 47 72 48 31 50 61 51 42 52 60 53 43 54 46 55 59 56
REMARK SMILES IDX 77 57 44 58 45 59 58 61 78 62 47 63 32 64 33 65 41 66 34 67
REMARK SMILES IDX 40 68 35 69 36 70 37 71 38 72 39 73 62 74 63 75 71 76 64 77
REMARK SMILES IDX 70 78 65 79 66 80 67 81 68 82 69 83 48 84 49 85 57 86 50 87
REMARK SMILES IDX 56 88 51 89 52 90 53 91 54 92 55 93
REMARK H PARENT 15 6 8 15 20 30 76 49 46 60
REMARK Flexibility Score: inf
ROOT
ATOM      1  C   UNL A   1      34.121  33.538  28.937  1.00  0.00     0.023 C 
ENDROOT
BRANCH   1   2
ATOM      2  C   UNL A   1      34.152  34.606  30.036  1.00  0.00     0.116 C 
BRANCH   2   3
ATOM      3  N   UNL A   1      33.680  34.069  31.298  1.00  0.00    -0.352 N 
ATOM      4  C   UNL A   1      34.314  33.486  32.366  1.00  0.00     0.251 C 
ATOM      5  O   UNL A   1      33.605  33.147  33.316  1.00  0.00    -0.269 OA
ATOM      6  H   UNL A   1      32.704  34.138  31.412  1.00  0.00     0.163 HD
BRANCH   4   7
ATOM      7  C   UNL A   1      35.788  33.260  32.461  1.00  0.00     0.041 A 
ATOM      8  C   UNL A   1      38.649  32.967  32.510  1.00  0.00     0.053 A 
ATOM      9  C   UNL A   1      37.999  33.820  31.598  1.00  0.00     0.028 A 
ATOM     10  C   UNL A   1      37.814  32.238  33.375  1.00  0.00     0.065 A 
ATOM     11  C   UNL A   1      36.603  33.953  31.561  1.00  0.00     0.016 A 
ATOM     12  C   UNL A   1      36.423  32.434  33.382  1.00  0.00     0.036 A 
ATOM     13  Cl  UNL A   1      38.364  31.090  34.553  1.00  0.00    -0.082 Cl
BRANCH   8  14
ATOM     14  N   UNL A   1      40.029  32.928  32.431  1.00  0.00    -0.377 N 
ATOM     15  H   UNL A   1      40.424  32.071  32.149  1.00  0.00     0.161 HD
BRANCH  14  16
ATOM     16  C   UNL A   1      40.970  34.005  32.714  1.00  0.00     0.106 C 
ATOM     17  C   UNL A   1      41.890  33.498  33.837  1.00  0.00     0.036 C 
BRANCH  16  18
ATOM     18  C   UNL A   1      41.682  34.445  31.434  1.00  0.00    -0.023 A 
ATOM     19  C   UNL A   1      43.347  36.376  27.922  1.00  0.00     0.047 C 
ATOM     20  C   UNL A   1      42.815  35.638  29.111  1.00  0.00    -0.015 A 
ATOM     21  C   UNL A   1      43.579  35.461  30.267  1.00  0.00     0.007 A 
ATOM     22  C   UNL A   1      41.503  35.177  29.111  1.00  0.00     0.126 A 
ATOM     23  C   UNL A   1      43.018  34.876  31.413  1.00  0.00     0.006 A 
ATOM     24  C   UNL A   1      40.952  34.573  30.237  1.00  0.00     0.045 A 
ATOM     25  F   UNL A   1      40.735  35.346  28.025  1.00  0.00    -0.207 F 
ENDBRANCH  16  18
ENDBRANCH  14  16
ENDBRANCH   8  14
ENDBRANCH   4   7
ENDBRANCH   2   3
ENDBRANCH   1   2
BRANCH   1  26
ATOM     26  C   UNL A   1      35.473  33.305  28.259  1.00  0.00     0.023 C 
BRANCH  26  27
ATOM     27  C   UNL A   1      35.945  31.854  28.281  1.00  0.00     0.116 C 
BRANCH  27  28
ATOM     28  N   UNL A   1      35.580  31.146  29.498  1.00  0.00    -0.352 N 
ATOM     29  C   UNL A   1      36.368  30.310  30.256  1.00  0.00     0.251 C 
ATOM     30  H   UNL A   1      34.659  31.280  29.819  1.00  0.00     0.163 HD
ATOM     31  O   UNL A   1      35.897  29.703  31.209  1.00  0.00    -0.269 OA
BRANCH  29  32
ATOM     32  C   UNL A   1      37.780  30.116  29.863  1.00  0.00     0.039 A 
ATOM     33  C   UNL A   1      38.732  29.910  30.863  1.00  0.00     0.014 A 
ATOM     34  C   UNL A   1      38.145  30.078  28.516  1.00  0.00     0.014 A 
ATOM     35  C   UNL A   1      40.043  29.591  30.508  1.00  0.00     0.010 A 
ATOM     36  C   UNL A   1      39.435  29.696  28.164  1.00  0.00     0.010 A 
ATOM     37  C   UNL A   1      40.394  29.444  29.155  1.00  0.00    -0.014 A 
BRANCH  37  38
ATOM     38  C   UNL A   1      41.760  29.022  28.758  1.00  0.00     0.031 A 
ATOM     39  C   UNL A   1      42.873  30.030  28.704  1.00  0.00     0.074 A 
ATOM     40  C   UNL A   1      41.980  27.746  28.382  1.00  0.00     0.049 A 
ATOM     41  N   UNL A   1      44.112  29.869  28.317  1.00  0.00    -0.248 NA
ATOM     42  C   UNL A   1      42.544  31.405  29.115  1.00  0.00     0.031 C 
ATOM     43  C   UNL A   1      40.970  26.684  28.346  1.00  0.00     0.029 A 
ATOM     44  N   UNL A   1      43.125  27.127  27.948  1.00  0.00    -0.354 N 
ATOM     45  C   UNL A   1      44.707  31.120  28.427  1.00  0.00     0.074 A 
ATOM     46  C   UNL A   1      43.681  32.040  28.866  1.00  0.00     0.031 C 
ATOM     47  C   UNL A   1      41.546  25.543  27.935  1.00  0.00     0.029 A 
ATOM     48  C   UNL A   1      42.955  25.797  27.646  1.00  0.00     0.049 A 
ATOM     49  H   UNL A   1      43.989  27.593  27.862  1.00  0.00     0.167 HD
ATOM     50  C   UNL A   1      45.997  31.470  28.204  1.00  0.00     0.031 A 
ATOM     51  C   UNL A   1      43.831  24.886  27.182  1.00  0.00     0.031 A 
ATOM     52  C   UNL A   1      47.019  30.552  27.777  1.00  0.00     0.049 A 
ATOM     53  C   UNL A   1      45.258  25.296  26.945  1.00  0.00     0.074 A 
ATOM     54  C   UNL A   1      48.363  30.800  27.561  1.00  0.00     0.029 A 
ATOM     55  N   UNL A   1      46.809  29.208  27.507  1.00  0.00    -0.354 N 
ATOM     56  N   UNL A   1      45.813  26.474  27.105  1.00  0.00    -0.248 NA
ATOM     57  C   UNL A   1      46.180  24.252  26.477  1.00  0.00     0.031 C 
ATOM     58  C   UNL A   1      48.961  29.611  27.126  1.00  0.00     0.029 A 
ATOM     59  C   UNL A   1      47.997  28.615  27.117  1.00  0.00     0.049 A 
ATOM     60  H   UNL A   1      45.944  28.745  27.582  1.00  0.00     0.167 HD
ATOM     61  C   UNL A   1      47.155  26.306  26.782  1.00  0.00     0.074 A 
ATOM     62  C   UNL A   1      47.330  24.911  26.431  1.00  0.00     0.031 C 
ATOM     63  C   UNL A   1      48.153  27.224  26.776  1.00  0.00     0.031 A 
BRANCH  50  64
ATOM     64  C   UNL A   1      46.369  32.911  28.427  1.00  0.00    -0.014 A 
ATOM     65  C   UNL A   1      46.309  33.841  27.372  1.00  0.00     0.010 A 
ATOM     66  C   UNL A   1      46.758  33.349  29.705  1.00  0.00     0.010 A 
ATOM     67  C   UNL A   1      46.676  35.172  27.581  1.00  0.00     0.020 A 
ATOM     68  C   UNL A   1      47.101  34.686  29.924  1.00  0.00     0.020 A 
ATOM     69  C   UNL A   1      47.076  35.585  28.855  1.00  0.00     0.054 A 
BRANCH  69  70
ATOM     70  S   UNL A   1      47.535  37.322  29.102  1.00  0.00     0.124 S 
ATOM     71  O   UNL A   1      48.994  37.248  29.121  1.00  0.00    -0.237 OA
ATOM     72  O   UNL A   1      46.956  37.978  27.932  1.00  0.00    -0.237 OA
ATOM     73  O   UNL A   1      46.912  37.667  30.378  1.00  0.00    -0.744 OA
ENDBRANCH  69  70
ENDBRANCH  50  64
BRANCH  51  74
ATOM     74  C   UNL A   1      43.388  23.488  26.928  1.00  0.00    -0.014 A 
ATOM     75  C   UNL A   1      43.194  23.029  25.614  1.00  0.00     0.010 A 
ATOM     76  C   UNL A   1      43.162  22.608  28.001  1.00  0.00     0.010 A 
ATOM     77  C   UNL A   1      42.756  21.723  25.377  1.00  0.00     0.020 A 
ATOM     78  C   UNL A   1      42.749  21.293  27.768  1.00  0.00     0.020 A 
ATOM     79  C   UNL A   1      42.535  20.863  26.456  1.00  0.00     0.054 A 
BRANCH  79  80
ATOM     80  S   UNL A   1      42.006  19.159  26.127  1.00  0.00     0.124 S 
ATOM     81  O   UNL A   1      42.266  18.507  27.407  1.00  0.00    -0.237 OA
ATOM     82  O   UNL A   1      40.598  19.325  25.776  1.00  0.00    -0.237 OA
ATOM     83  O   UNL A   1      42.869  18.742  25.024  1.00  0.00    -0.744 OA
ENDBRANCH  79  80
ENDBRANCH  51  74
BRANCH  63  84
ATOM     84  C   UNL A   1      49.531  26.743  26.411  1.00  0.00    -0.014 A 
ATOM     85  C   UNL A   1      50.357  26.116  27.360  1.00  0.00     0.010 A 
ATOM     86  C   UNL A   1      49.981  26.873  25.085  1.00  0.00     0.010 A 
ATOM     87  C   UNL A   1      51.624  25.654  26.996  1.00  0.00     0.020 A 
ATOM     88  C   UNL A   1      51.238  26.390  24.711  1.00  0.00     0.020 A 
ATOM     89  C   UNL A   1      52.057  25.796  25.673  1.00  0.00     0.054 A 
BRANCH  89  90
ATOM     90  S   UNL A   1      53.686  25.146  25.211  1.00  0.00     0.124 S 
ATOM     91  O   UNL A   1      53.846  25.665  23.855  1.00  0.00    -0.237 OA
ATOM     92  O   UNL A   1      54.566  25.737  26.216  1.00  0.00    -0.237 OA
ATOM     93  O   UNL A   1      53.523  23.698  25.310  1.00  0.00    -0.744 OA
ENDBRANCH  89  90
ENDBRANCH  63  84
ENDBRANCH  37  38
ENDBRANCH  29  32
ENDBRANCH  27  28
ENDBRANCH  26  27
ENDBRANCH   1  26
TORSDOF 17
ENDMDL
MODEL 3
REMARK VINA RESULT:      -8.9      4.686     11.262
REMARK SMILES Cc1ccc([C@H](C)Nc2ccc(C(=O)NCCCCNC(=O)c3ccc(-c4c5nc(c(-c6ccc(S(=O)(=O)[O-])cc6)c6ccc([nH]6)c(-c6ccc(S(=O)(=O)[O-])cc6)c6nc(c(-c7ccc(S(=O)(=O)[O-])cc7)c7ccc4[nH]7)C=C6)C=C5)cc3)cc2Cl)cc1F
REMARK SMILES IDX 17 1 16 2 15 3 13 4 14 5 12 7 9 8 10 9 84 10 11 11 83 12
REMARK SMILES IDX 85 13 8 14 6 16 7 17 5 18 1 19 2 20 3 21 87 22 4 23 86 24
REMARK SMILES IDX 88 25 18 26 19 27 20 28 21 29 22 31 23 32 24 33 82 34 25 35
REMARK SMILES IDX 81 36 26 37 27 38 28 39 75 40 29 41 80 42 74 43 76 44 30 45
REMARK SMILES IDX 79 46 73 47 72 48 31 50 61 51 42 52 60 53 43 54 46 55 59 56
REMARK SMILES IDX 77 57 44 58 45 59 58 61 78 62 47 63 32 64 33 65 41 66 34 67
REMARK SMILES IDX 40 68 35 69 36 70 37 71 38 72 39 73 62 74 63 75 71 76 64 77
REMARK SMILES IDX 70 78 65 79 66 80 67 81 68 82 69 83 48 84 49 85 57 86 50 87
REMARK SMILES IDX 56 88 51 89 52 90 53 91 54 92 55 93
REMARK H PARENT 15 6 8 15 20 30 76 49 46 60
REMARK Flexibility Score: inf
ROOT
ATOM      1  C   UNL A   1      32.925  29.984  27.238  1.00  0.00     0.023 C 
ENDROOT
BRANCH   1   2
ATOM      2  C   UNL A   1      31.742  29.129  26.769  1.00  0.00     0.116 C 
BRANCH   2   3
ATOM      3  N   UNL A   1      31.329  29.502  25.430  1.00  0.00    -0.352 N 
ATOM      4  C   UNL A   1      31.362  28.853  24.221  1.00  0.00     0.251 C 
ATOM      5  O   UNL A   1      30.903  29.459  23.251  1.00  0.00    -0.269 OA
ATOM      6  H   UNL A   1      30.944  30.407  25.377  1.00  0.00     0.163 HD
BRANCH   4   7
ATOM      7  C   UNL A   1      31.889  27.470  24.012  1.00  0.00     0.041 A 
ATOM      8  C   UNL A   1      33.085  24.882  23.634  1.00  0.00     0.053 A 
ATOM      9  C   UNL A   1      33.857  26.052  23.763  1.00  0.00     0.028 A 
ATOM     10  C   UNL A   1      31.691  25.056  23.667  1.00  0.00     0.065 A 
ATOM     11  C   UNL A   1      33.277  27.317  23.931  1.00  0.00     0.016 A 
ATOM     12  C   UNL A   1      31.120  26.317  23.911  1.00  0.00     0.036 A 
ATOM     13  Cl  UNL A   1      30.526  23.785  23.484  1.00  0.00    -0.082 Cl
BRANCH   8  14
ATOM     14  N   UNL A   1      33.788  23.703  23.466  1.00  0.00    -0.377 N 
ATOM     15  H   UNL A   1      34.188  23.558  22.578  1.00  0.00     0.161 HD
BRANCH  14  16
ATOM     16  C   UNL A   1      34.010  22.649  24.449  1.00  0.00     0.106 C 
ATOM     17  C   UNL A   1      33.321  21.388  23.900  1.00  0.00     0.036 C 
BRANCH  16  18
ATOM     18  C   UNL A   1      35.502  22.500  24.748  1.00  0.00    -0.023 A 
ATOM     19  C   UNL A   1      39.518  22.099  26.345  1.00  0.00     0.047 C 
ATOM     20  C   UNL A   1      38.167  22.235  25.715  1.00  0.00    -0.015 A 
ATOM     21  C   UNL A   1      37.480  21.131  25.205  1.00  0.00     0.007 A 
ATOM     22  C   UNL A   1      37.532  23.472  25.695  1.00  0.00     0.126 A 
ATOM     23  C   UNL A   1      36.164  21.261  24.732  1.00  0.00     0.006 A 
ATOM     24  C   UNL A   1      36.238  23.610  25.203  1.00  0.00     0.045 A 
ATOM     25  F   UNL A   1      38.154  24.551  26.191  1.00  0.00    -0.207 F 
ENDBRANCH  16  18
ENDBRANCH  14  16
ENDBRANCH   8  14
ENDBRANCH   4   7
ENDBRANCH   2   3
ENDBRANCH   1   2
BRANCH   1  26
ATOM     26  C   UNL A   1      34.255  29.624  26.572  1.00  0.00     0.023 C 
BRANCH  26  27
ATOM     27  C   UNL A   1      35.340  29.170  27.543  1.00  0.00     0.116 C 
BRANCH  27  28
ATOM     28  N   UNL A   1      35.285  29.846  28.830  1.00  0.00    -0.352 N 
ATOM     29  C   UNL A   1      36.308  30.026  29.733  1.00  0.00     0.251 C 
ATOM     30  H   UNL A   1      34.411  30.221  29.086  1.00  0.00     0.163 HD
ATOM     31  O   UNL A   1      36.093  30.534  30.825  1.00  0.00    -0.269 OA
BRANCH  29  32
ATOM     32  C   UNL A   1      37.659  29.541  29.381  1.00  0.00     0.039 A 
ATOM     33  C   UNL A   1      38.104  29.694  28.066  1.00  0.00     0.014 A 
ATOM     34  C   UNL A   1      38.497  28.997  30.357  1.00  0.00     0.014 A 
ATOM     35  C   UNL A   1      39.423  29.367  27.746  1.00  0.00     0.010 A 
ATOM     36  C   UNL A   1      39.828  28.734  30.050  1.00  0.00     0.010 A 
ATOM     37  C   UNL A   1      40.304  28.921  28.745  1.00  0.00    -0.014 A 
BRANCH  37  38
ATOM     38  C   UNL A   1      41.732  28.650  28.443  1.00  0.00     0.031 A 
ATOM     39  C   UNL A   1      42.169  27.265  28.057  1.00  0.00     0.074 A 
ATOM     40  C   UNL A   1      42.641  29.636  28.583  1.00  0.00     0.049 A 
ATOM     41  N   UNL A   1      43.376  26.818  27.824  1.00  0.00    -0.248 NA
ATOM     42  C   UNL A   1      41.116  26.244  27.943  1.00  0.00     0.031 C 
ATOM     43  C   UNL A   1      42.347  31.011  28.998  1.00  0.00     0.029 A 
ATOM     44  N   UNL A   1      44.001  29.630  28.401  1.00  0.00    -0.354 N 
ATOM     45  C   UNL A   1      43.230  25.464  27.546  1.00  0.00     0.074 A 
ATOM     46  C   UNL A   1      41.825  25.152  27.692  1.00  0.00     0.031 C 
ATOM     47  C   UNL A   1      43.488  31.718  29.017  1.00  0.00     0.029 A 
ATOM     48  C   UNL A   1      44.598  30.843  28.650  1.00  0.00     0.049 A 
ATOM     49  H   UNL A   1      44.502  28.831  28.118  1.00  0.00     0.167 HD
ATOM     50  C   UNL A   1      44.175  24.564  27.181  1.00  0.00     0.031 A 
ATOM     51  C   UNL A   1      45.893  31.208  28.595  1.00  0.00     0.031 A 
ATOM     52  C   UNL A   1      45.570  24.879  27.027  1.00  0.00     0.049 A 
ATOM     53  C   UNL A   1      46.924  30.193  28.185  1.00  0.00     0.074 A 
ATOM     54  C   UNL A   1      46.600  24.048  26.624  1.00  0.00     0.029 A 
ATOM     55  N   UNL A   1      46.128  26.126  27.264  1.00  0.00    -0.354 N 
ATOM     56  N   UNL A   1      46.757  28.930  27.875  1.00  0.00    -0.248 NA
ATOM     57  C   UNL A   1      48.316  30.657  28.103  1.00  0.00     0.031 C 
ATOM     58  C   UNL A   1      47.790  24.784  26.651  1.00  0.00     0.029 A 
ATOM     59  C   UNL A   1      47.491  26.085  27.026  1.00  0.00     0.049 A 
ATOM     60  H   UNL A   1      45.630  26.922  27.558  1.00  0.00     0.167 HD
ATOM     61  C   UNL A   1      48.019  28.454  27.538  1.00  0.00     0.074 A 
ATOM     62  C   UNL A   1      48.936  29.568  27.668  1.00  0.00     0.031 C 
ATOM     63  C   UNL A   1      48.386  27.206  27.156  1.00  0.00     0.031 A 
BRANCH  50  64
ATOM     64  C   UNL A   1      43.720  23.154  26.919  1.00  0.00    -0.014 A 
ATOM     65  C   UNL A   1      43.062  22.413  27.919  1.00  0.00     0.010 A 
ATOM     66  C   UNL A   1      43.926  22.571  25.657  1.00  0.00     0.010 A 
ATOM     67  C   UNL A   1      42.662  21.097  27.675  1.00  0.00     0.020 A 
ATOM     68  C   UNL A   1      43.504  21.263  25.401  1.00  0.00     0.020 A 
ATOM     69  C   UNL A   1      42.891  20.528  26.419  1.00  0.00     0.054 A 
BRANCH  69  70
ATOM     70  S   UNL A   1      42.348  18.823  26.125  1.00  0.00     0.124 S 
ATOM     71  O   UNL A   1      43.258  18.397  25.064  1.00  0.00    -0.237 OA
ATOM     72  O   UNL A   1      42.560  18.189  27.424  1.00  0.00    -0.237 OA
ATOM     73  O   UNL A   1      40.951  18.968  25.726  1.00  0.00    -0.744 OA
ENDBRANCH  69  70
ENDBRANCH  50  64
BRANCH  51  74
ATOM     74  C   UNL A   1      46.287  32.606  28.920  1.00  0.00    -0.014 A 
ATOM     75  C   UNL A   1      46.635  32.961  30.236  1.00  0.00     0.010 A 
ATOM     76  C   UNL A   1      46.320  33.588  27.915  1.00  0.00     0.010 A 
ATOM     77  C   UNL A   1      46.982  34.279  30.544  1.00  0.00     0.020 A 
ATOM     78  C   UNL A   1      46.692  34.901  28.214  1.00  0.00     0.020 A 
ATOM     79  C   UNL A   1      47.008  35.242  29.531  1.00  0.00     0.054 A 
BRANCH  79  80
ATOM     80  S   UNL A   1      47.502  36.938  29.945  1.00  0.00     0.124 S 
ATOM     81  O   UNL A   1      47.277  37.636  28.682  1.00  0.00    -0.237 OA
ATOM     82  O   UNL A   1      46.585  37.281  31.029  1.00  0.00    -0.237 OA
ATOM     83  O   UNL A   1      48.901  36.797  30.344  1.00  0.00    -0.744 OA
ENDBRANCH  79  80
ENDBRANCH  51  74
BRANCH  63  84
ATOM     84  C   UNL A   1      49.836  26.987  26.816  1.00  0.00    -0.014 A 
ATOM     85  C   UNL A   1      50.758  26.575  27.793  1.00  0.00     0.010 A 
ATOM     86  C   UNL A   1      50.267  27.145  25.486  1.00  0.00     0.010 A 
ATOM     87  C   UNL A   1      52.094  26.354  27.453  1.00  0.00     0.020 A 
ATOM     88  C   UNL A   1      51.597  26.901  25.136  1.00  0.00     0.020 A 
ATOM     89  C   UNL A   1      52.505  26.519  26.126  1.00  0.00     0.054 A 
BRANCH  89  90
ATOM     90  S   UNL A   1      54.235  26.180  25.697  1.00  0.00     0.124 S 
ATOM     91  O   UNL A   1      54.643  25.278  26.771  1.00  0.00    -0.237 OA
ATOM     92  O   UNL A   1      54.126  25.571  24.373  1.00  0.00    -0.237 OA
ATOM     93  O   UNL A   1      54.862  27.500  25.717  1.00  0.00    -0.744 OA
ENDBRANCH  89  90
ENDBRANCH  63  84
ENDBRANCH  37  38
ENDBRANCH  29  32
ENDBRANCH  27  28
ENDBRANCH  26  27
ENDBRANCH   1  26
TORSDOF 17
ENDMDL
