MODEL 1
REMARK VINA RESULT:     -14.7      0.000      0.000
REMARK SMILES CC(=O)Nc1cnc(N2CC=C(c3ccccc3C)CC2)c(C(=O)NCCCCNC(=O)c2ccc(-c3c4nc(c(-c5ccc(S(=O)(=O)[O-])cc5)c5ccc([nH]5)c(-c5ccc(S(=O)(=O)[O-])cc5)c5nc(c(-c6ccc(S(=O)(=O)[O-])cc6)c6ccc3[nH]6)C=C5)C=C4)cc2)c1
REMARK SMILES IDX 28 1 27 2 26 3 25 4 23 5 24 6 22 8 5 9 6 10 93 11 7 12 8 13
REMARK SMILES IDX 4 14 1 15 2 16 3 17 9 19 10 20 21 21 11 22 20 23 12 24 13 25
REMARK SMILES IDX 14 26 18 27 15 28 17 29 19 30 16 31 29 32 30 33 31 34 32 36
REMARK SMILES IDX 33 37 34 38 92 39 35 40 91 41 36 42 37 43 38 44 85 45 39 46
REMARK SMILES IDX 90 47 84 48 86 49 40 50 89 51 83 52 82 53 41 55 71 56 52 57
REMARK SMILES IDX 70 58 53 59 56 60 69 61 87 62 54 63 55 64 68 66 88 67 57 68
REMARK SMILES IDX 42 69 43 70 51 71 44 72 50 73 45 74 46 75 47 76 48 77 49 78
REMARK SMILES IDX 72 79 73 80 81 81 74 82 80 83 75 84 76 85 77 86 78 87 79 88
REMARK SMILES IDX 58 89 59 90 67 91 60 92 66 93 61 94 62 95 63 96 64 97 65 98
REMARK H PARENT 25 7 4 18 30 35 86 54 56 65
REMARK Flexibility Score: inf
ROOT
ATOM      1  C   UNL A   1      32.869  30.542  26.975  1.00  0.00     0.023 C 
ENDROOT
BRANCH   1   2
ATOM      2  C   UNL A   1      31.894  29.364  26.834  1.00  0.00     0.023 C 
BRANCH   2   3
ATOM      3  C   UNL A   1      32.471  28.013  27.274  1.00  0.00     0.116 C 
BRANCH   3   4
ATOM      4  N   UNL A   1      31.618  26.882  26.928  1.00  0.00    -0.352 N 
ATOM      5  C   UNL A   1      30.911  26.428  25.840  1.00  0.00     0.255 C 
ATOM      6  O   UNL A   1      30.456  25.292  26.001  1.00  0.00    -0.269 OA
ATOM      7  H   UNL A   1      31.521  26.267  27.690  1.00  0.00     0.163 HD
BRANCH   5   8
ATOM      8  C   UNL A   1      30.702  27.147  24.536  1.00  0.00     0.084 A 
ATOM      9  C   UNL A   1      29.504  28.803  23.195  1.00  0.00     0.060 A 
ATOM     10  C   UNL A   1      30.493  28.667  22.242  1.00  0.00     0.139 A 
ATOM     11  C   UNL A   1      29.604  27.999  24.327  1.00  0.00     0.045 A 
ATOM     12  N   UNL A   1      31.548  27.845  22.371  1.00  0.00    -0.236 NA
ATOM     13  C   UNL A   1      31.662  27.079  23.493  1.00  0.00     0.141 A 
BRANCH   9  14
ATOM     14  N   UNL A   1      28.459  29.708  22.948  1.00  0.00    -0.325 N 
ATOM     15  C   UNL A   1      29.306  31.734  24.132  1.00  0.00     0.114 C 
ATOM     16  C   UNL A   1      28.235  30.978  23.394  1.00  0.00     0.221 C 
ATOM     17  O   UNL A   1      27.163  31.514  23.108  1.00  0.00    -0.275 OA
ATOM     18  H   UNL A   1      27.763  29.365  22.341  1.00  0.00     0.169 HD
ENDBRANCH   9  14
BRANCH  13  19
ATOM     19  N   UNL A   1      32.735  26.228  23.430  1.00  0.00    -0.352 N 
ATOM     20  C   UNL A   1      32.768  25.238  22.367  1.00  0.00     0.146 C 
ATOM     21  C   UNL A   1      33.919  26.427  24.247  1.00  0.00     0.123 C 
ATOM     22  C   UNL A   1      33.638  24.065  22.750  1.00  0.00    -0.002 C 
ATOM     23  C   UNL A   1      34.293  25.097  24.914  1.00  0.00     0.057 C 
ATOM     24  C   UNL A   1      34.323  23.973  23.907  1.00  0.00    -0.041 C 
BRANCH  24  25
ATOM     25  C   UNL A   1      35.159  22.800  24.214  1.00  0.00    -0.020 A 
ATOM     26  C   UNL A   1      36.553  22.934  24.100  1.00  0.00     0.008 A 
ATOM     27  C   UNL A   1      34.618  21.569  24.639  1.00  0.00    -0.044 A 
ATOM     28  C   UNL A   1      37.404  21.879  24.431  1.00  0.00     0.001 A 
ATOM     29  C   UNL A   1      35.490  20.522  24.985  1.00  0.00     0.004 A 
ATOM     30  C   UNL A   1      33.135  21.347  24.764  1.00  0.00     0.045 C 
ATOM     31  C   UNL A   1      36.871  20.676  24.882  1.00  0.00     0.000 A 
ENDBRANCH  24  25
ENDBRANCH  13  19
ENDBRANCH   5   8
ENDBRANCH   3   4
ENDBRANCH   2   3
ENDBRANCH   1   2
BRANCH   1  32
ATOM     32  C   UNL A   1      34.213  30.169  27.600  1.00  0.00     0.116 C 
BRANCH  32  33
ATOM     33  N   UNL A   1      34.972  31.277  28.162  1.00  0.00    -0.352 N 
ATOM     34  C   UNL A   1      36.208  31.203  28.794  1.00  0.00     0.251 C 
ATOM     35  H   UNL A   1      34.568  32.172  28.085  1.00  0.00     0.163 HD
ATOM     36  O   UNL A   1      36.710  32.131  29.398  1.00  0.00    -0.269 OA
BRANCH  34  37
ATOM     37  C   UNL A   1      36.972  29.952  28.588  1.00  0.00     0.039 A 
ATOM     38  C   UNL A   1      37.185  29.155  29.720  1.00  0.00     0.014 A 
ATOM     39  C   UNL A   1      37.723  29.781  27.428  1.00  0.00     0.014 A 
ATOM     40  C   UNL A   1      38.298  28.322  29.759  1.00  0.00     0.010 A 
ATOM     41  C   UNL A   1      38.877  29.022  27.503  1.00  0.00     0.010 A 
ATOM     42  C   UNL A   1      39.198  28.352  28.692  1.00  0.00    -0.014 A 
BRANCH  42  43
ATOM     43  C   UNL A   1      40.554  27.821  28.795  1.00  0.00     0.031 A 
ATOM     44  C   UNL A   1      40.836  26.423  28.403  1.00  0.00     0.074 A 
ATOM     45  C   UNL A   1      41.564  28.602  29.243  1.00  0.00     0.049 A 
ATOM     46  N   UNL A   1      41.819  25.722  28.864  1.00  0.00    -0.248 NA
ATOM     47  C   UNL A   1      39.976  25.681  27.489  1.00  0.00     0.031 C 
ATOM     48  C   UNL A   1      42.992  28.299  29.188  1.00  0.00     0.029 A 
ATOM     49  N   UNL A   1      41.492  29.730  30.066  1.00  0.00    -0.354 N 
ATOM     50  C   UNL A   1      41.898  24.577  28.105  1.00  0.00     0.074 A 
ATOM     51  C   UNL A   1      40.680  24.557  27.327  1.00  0.00     0.031 C 
ATOM     52  C   UNL A   1      43.608  28.983  30.164  1.00  0.00     0.029 A 
ATOM     53  C   UNL A   1      42.578  29.635  30.953  1.00  0.00     0.049 A 
ATOM     54  H   UNL A   1      40.817  30.447  30.031  1.00  0.00     0.167 HD
ATOM     55  C   UNL A   1      43.043  23.837  28.104  1.00  0.00     0.031 A 
ATOM     56  C   UNL A   1      42.446  29.549  32.309  1.00  0.00     0.031 A 
ATOM     57  C   UNL A   1      44.037  24.347  29.047  1.00  0.00     0.049 A 
ATOM     58  C   UNL A   1      43.062  28.297  32.909  1.00  0.00     0.074 A 
ATOM     59  C   UNL A   1      45.226  25.048  28.923  1.00  0.00     0.029 A 
ATOM     60  N   UNL A   1      43.719  24.381  30.397  1.00  0.00    -0.354 N 
ATOM     61  N   UNL A   1      43.636  27.352  32.218  1.00  0.00    -0.248 NA
ATOM     62  C   UNL A   1      42.986  27.967  34.332  1.00  0.00     0.031 C 
ATOM     63  C   UNL A   1      45.619  25.499  30.216  1.00  0.00     0.029 A 
ATOM     64  C   UNL A   1      44.677  25.061  31.126  1.00  0.00     0.049 A 
ATOM     65  H   UNL A   1      42.912  23.972  30.786  1.00  0.00     0.167 HD
ATOM     66  C   UNL A   1      43.965  26.305  33.043  1.00  0.00     0.074 A 
ATOM     67  C   UNL A   1      43.538  26.741  34.360  1.00  0.00     0.031 C 
ATOM     68  C   UNL A   1      44.521  25.150  32.570  1.00  0.00     0.031 A 
BRANCH  55  69
ATOM     69  C   UNL A   1      43.337  22.809  27.032  1.00  0.00    -0.014 A 
ATOM     70  C   UNL A   1      42.580  21.622  26.969  1.00  0.00     0.010 A 
ATOM     71  C   UNL A   1      44.390  22.922  26.104  1.00  0.00     0.010 A 
ATOM     72  C   UNL A   1      42.940  20.555  26.130  1.00  0.00     0.020 A 
ATOM     73  C   UNL A   1      44.791  21.848  25.294  1.00  0.00     0.020 A 
ATOM     74  C   UNL A   1      44.072  20.660  25.326  1.00  0.00     0.054 A 
BRANCH  74  75
ATOM     75  S   UNL A   1      44.606  19.226  24.355  1.00  0.00     0.124 S 
ATOM     76  O   UNL A   1      43.685  18.182  24.797  1.00  0.00    -0.237 OA
ATOM     77  O   UNL A   1      44.423  19.691  22.984  1.00  0.00    -0.237 OA
ATOM     78  O   UNL A   1      45.996  19.030  24.765  1.00  0.00    -0.744 OA
ENDBRANCH  74  75
ENDBRANCH  55  69
BRANCH  56  79
ATOM     79  C   UNL A   1      41.280  30.288  32.865  1.00  0.00    -0.014 A 
ATOM     80  C   UNL A   1      40.098  29.556  33.099  1.00  0.00     0.010 A 
ATOM     81  C   UNL A   1      41.445  31.529  33.501  1.00  0.00     0.010 A 
ATOM     82  C   UNL A   1      39.178  29.972  34.064  1.00  0.00     0.020 A 
ATOM     83  C   UNL A   1      40.527  31.948  34.475  1.00  0.00     0.020 A 
ATOM     84  C   UNL A   1      39.437  31.132  34.793  1.00  0.00     0.054 A 
BRANCH  84  85
ATOM     85  S   UNL A   1      38.415  31.474  36.256  1.00  0.00     0.124 S 
ATOM     86  O   UNL A   1      37.313  32.252  35.698  1.00  0.00    -0.237 OA
ATOM     87  O   UNL A   1      38.068  30.121  36.693  1.00  0.00    -0.237 OA
ATOM     88  O   UNL A   1      39.322  32.205  37.133  1.00  0.00    -0.744 OA
ENDBRANCH  84  85
ENDBRANCH  56  79
BRANCH  68  89
ATOM     89  C   UNL A   1      44.928  23.955  33.404  1.00  0.00    -0.014 A 
ATOM     90  C   UNL A   1      44.078  22.882  33.712  1.00  0.00     0.010 A 
ATOM     91  C   UNL A   1      46.208  23.943  34.011  1.00  0.00     0.010 A 
ATOM     92  C   UNL A   1      44.516  21.812  34.510  1.00  0.00     0.020 A 
ATOM     93  C   UNL A   1      46.650  22.895  34.821  1.00  0.00     0.020 A 
ATOM     94  C   UNL A   1      45.805  21.819  35.048  1.00  0.00     0.054 A 
BRANCH  94  95
ATOM     95  S   UNL A   1      46.349  20.429  36.072  1.00  0.00     0.124 S 
ATOM     96  O   UNL A   1      47.757  20.297  35.702  1.00  0.00    -0.237 OA
ATOM     97  O   UNL A   1      46.099  20.931  37.421  1.00  0.00    -0.237 OA
ATOM     98  O   UNL A   1      45.492  19.325  35.651  1.00  0.00    -0.744 OA
ENDBRANCH  94  95
ENDBRANCH  68  89
ENDBRANCH  42  43
ENDBRANCH  34  37
ENDBRANCH  32  33
ENDBRANCH   1  32
TORSDOF 17
ENDMDL
MODEL 2
REMARK VINA RESULT:     -14.3      1.373      4.507
REMARK SMILES CC(=O)Nc1cnc(N2CC=C(c3ccccc3C)CC2)c(C(=O)NCCCCNC(=O)c2ccc(-c3c4nc(c(-c5ccc(S(=O)(=O)[O-])cc5)c5ccc([nH]5)c(-c5ccc(S(=O)(=O)[O-])cc5)c5nc(c(-c6ccc(S(=O)(=O)[O-])cc6)c6ccc3[nH]6)C=C5)C=C4)cc2)c1
REMARK SMILES IDX 28 1 27 2 26 3 25 4 23 5 24 6 22 8 5 9 6 10 93 11 7 12 8 13
REMARK SMILES IDX 4 14 1 15 2 16 3 17 9 19 10 20 21 21 11 22 20 23 12 24 13 25
REMARK SMILES IDX 14 26 18 27 15 28 17 29 19 30 16 31 29 32 30 33 31 34 32 36
REMARK SMILES IDX 33 37 34 38 92 39 35 40 91 41 36 42 37 43 38 44 85 45 39 46
REMARK SMILES IDX 90 47 84 48 86 49 40 50 89 51 83 52 82 53 41 55 71 56 52 57
REMARK SMILES IDX 70 58 53 59 56 60 69 61 87 62 54 63 55 64 68 66 88 67 57 68
REMARK SMILES IDX 42 69 43 70 51 71 44 72 50 73 45 74 46 75 47 76 48 77 49 78
REMARK SMILES IDX 72 79 73 80 81 81 74 82 80 83 75 84 76 85 77 86 78 87 79 88
REMARK SMILES IDX 58 89 59 90 67 91 60 92 66 93 61 94 62 95 63 96 64 97 65 98
REMARK H PARENT 25 7 4 18 30 35 86 54 56 65
REMARK Flexibility Score: inf
ROOT
ATOM      1  C   UNL A   1      34.341  29.099  27.684  1.00  0.00     0.023 C 
ENDROOT
BRANCH   1   2
ATOM      2  C   UNL A   1      33.003  28.488  27.240  1.00  0.00     0.023 C 
BRANCH   2   3
ATOM      3  C   UNL A   1      33.142  27.270  26.320  1.00  0.00     0.116 C 
BRANCH   3   4
ATOM      4  N   UNL A   1      32.275  26.160  26.698  1.00  0.00    -0.352 N 
ATOM      5  C   UNL A   1      32.087  24.843  26.353  1.00  0.00     0.255 C 
ATOM      6  O   UNL A   1      31.299  24.256  27.099  1.00  0.00    -0.269 OA
ATOM      7  H   UNL A   1      31.643  26.431  27.403  1.00  0.00     0.163 HD
BRANCH   5   8
ATOM      8  C   UNL A   1      32.762  24.100  25.232  1.00  0.00     0.084 A 
ATOM      9  C   UNL A   1      34.214  22.292  24.458  1.00  0.00     0.060 A 
ATOM     10  C   UNL A   1      33.776  22.562  23.177  1.00  0.00     0.139 A 
ATOM     11  C   UNL A   1      33.723  23.104  25.477  1.00  0.00     0.045 A 
ATOM     12  N   UNL A   1      32.886  23.524  22.878  1.00  0.00    -0.236 NA
ATOM     13  C   UNL A   1      32.382  24.299  23.880  1.00  0.00     0.141 A 
BRANCH   9  14
ATOM     14  N   UNL A   1      35.137  21.250  24.642  1.00  0.00    -0.325 N 
ATOM     15  C   UNL A   1      37.100  22.515  25.520  1.00  0.00     0.114 C 
ATOM     16  C   UNL A   1      36.452  21.258  25.008  1.00  0.00     0.221 C 
ATOM     17  O   UNL A   1      37.068  20.191  24.983  1.00  0.00    -0.275 OA
ATOM     18  H   UNL A   1      34.768  20.351  24.479  1.00  0.00     0.169 HD
ENDBRANCH   9  14
BRANCH  13  19
ATOM     19  N   UNL A   1      31.565  25.291  23.403  1.00  0.00    -0.352 N 
ATOM     20  C   UNL A   1      32.114  26.235  22.444  1.00  0.00     0.146 C 
ATOM     21  C   UNL A   1      30.135  25.293  23.657  1.00  0.00     0.123 C 
ATOM     22  C   UNL A   1      31.343  27.534  22.464  1.00  0.00    -0.002 C 
ATOM     23  C   UNL A   1      29.718  26.688  24.143  1.00  0.00     0.057 C 
ATOM     24  C   UNL A   1      30.267  27.766  23.240  1.00  0.00    -0.041 C 
BRANCH  24  25
ATOM     25  C   UNL A   1      29.558  29.056  23.205  1.00  0.00    -0.020 A 
ATOM     26  C   UNL A   1      28.434  29.171  22.370  1.00  0.00     0.008 A 
ATOM     27  C   UNL A   1      29.947  30.161  23.990  1.00  0.00    -0.044 A 
ATOM     28  C   UNL A   1      27.684  30.347  22.334  1.00  0.00     0.001 A 
ATOM     29  C   UNL A   1      29.171  31.332  23.956  1.00  0.00     0.004 A 
ATOM     30  C   UNL A   1      31.151  30.117  24.892  1.00  0.00     0.045 C 
ATOM     31  C   UNL A   1      28.049  31.425  23.134  1.00  0.00     0.000 A 
ENDBRANCH  24  25
ENDBRANCH  13  19
ENDBRANCH   5   8
ENDBRANCH   3   4
ENDBRANCH   2   3
ENDBRANCH   1   2
BRANCH   1  32
ATOM     32  C   UNL A   1      34.646  30.457  27.053  1.00  0.00     0.116 C 
BRANCH  32  33
ATOM     33  N   UNL A   1      35.285  31.426  27.932  1.00  0.00    -0.352 N 
ATOM     34  C   UNL A   1      36.362  31.198  28.780  1.00  0.00     0.251 C 
ATOM     35  H   UNL A   1      34.916  32.340  27.924  1.00  0.00     0.163 HD
ATOM     36  O   UNL A   1      36.738  31.995  29.618  1.00  0.00    -0.269 OA
BRANCH  34  37
ATOM     37  C   UNL A   1      37.139  29.962  28.530  1.00  0.00     0.039 A 
ATOM     38  C   UNL A   1      37.296  29.091  29.615  1.00  0.00     0.014 A 
ATOM     39  C   UNL A   1      37.948  29.869  27.401  1.00  0.00     0.014 A 
ATOM     40  C   UNL A   1      38.407  28.256  29.655  1.00  0.00     0.010 A 
ATOM     41  C   UNL A   1      39.099  29.105  27.484  1.00  0.00     0.010 A 
ATOM     42  C   UNL A   1      39.361  28.357  28.640  1.00  0.00    -0.014 A 
BRANCH  42  43
ATOM     43  C   UNL A   1      40.710  27.818  28.776  1.00  0.00     0.031 A 
ATOM     44  C   UNL A   1      40.999  26.425  28.372  1.00  0.00     0.074 A 
ATOM     45  C   UNL A   1      41.710  28.588  29.266  1.00  0.00     0.049 A 
ATOM     46  N   UNL A   1      41.964  25.714  28.852  1.00  0.00    -0.248 NA
ATOM     47  C   UNL A   1      40.163  25.700  27.421  1.00  0.00     0.031 C 
ATOM     48  C   UNL A   1      43.138  28.280  29.249  1.00  0.00     0.029 A 
ATOM     49  N   UNL A   1      41.617  29.705  30.103  1.00  0.00    -0.354 N 
ATOM     50  C   UNL A   1      42.062  24.580  28.079  1.00  0.00     0.074 A 
ATOM     51  C   UNL A   1      40.868  24.576  27.264  1.00  0.00     0.031 C 
ATOM     52  C   UNL A   1      43.726  28.947  30.253  1.00  0.00     0.029 A 
ATOM     53  C   UNL A   1      42.675  29.592  31.021  1.00  0.00     0.049 A 
ATOM     54  H   UNL A   1      40.946  30.425  30.058  1.00  0.00     0.167 HD
ATOM     55  C   UNL A   1      43.203  23.834  28.101  1.00  0.00     0.031 A 
ATOM     56  C   UNL A   1      42.502  29.487  32.370  1.00  0.00     0.031 A 
ATOM     57  C   UNL A   1      44.171  24.326  29.082  1.00  0.00     0.049 A 
ATOM     58  C   UNL A   1      43.094  28.223  32.971  1.00  0.00     0.074 A 
ATOM     59  C   UNL A   1      45.365  25.024  29.003  1.00  0.00     0.029 A 
ATOM     60  N   UNL A   1      43.812  24.341  30.421  1.00  0.00    -0.354 N 
ATOM     61  N   UNL A   1      43.686  27.286  32.283  1.00  0.00    -0.248 NA
ATOM     62  C   UNL A   1      42.974  27.872  34.386  1.00  0.00     0.031 C 
ATOM     63  C   UNL A   1      45.721  25.454  30.315  1.00  0.00     0.029 A 
ATOM     64  C   UNL A   1      44.750  25.006  31.188  1.00  0.00     0.049 A 
ATOM     65  H   UNL A   1      42.992  23.930  30.780  1.00  0.00     0.167 HD
ATOM     66  C   UNL A   1      43.985  26.225  33.102  1.00  0.00     0.074 A 
ATOM     67  C   UNL A   1      43.521  26.644  34.412  1.00  0.00     0.031 C 
ATOM     68  C   UNL A   1      44.551  25.075  32.629  1.00  0.00     0.031 A 
BRANCH  55  69
ATOM     69  C   UNL A   1      43.526  22.821  27.024  1.00  0.00    -0.014 A 
ATOM     70  C   UNL A   1      42.805  21.612  26.956  1.00  0.00     0.010 A 
ATOM     71  C   UNL A   1      44.573  22.970  26.094  1.00  0.00     0.010 A 
ATOM     72  C   UNL A   1      43.195  20.560  26.112  1.00  0.00     0.020 A 
ATOM     73  C   UNL A   1      45.004  21.913  25.277  1.00  0.00     0.020 A 
ATOM     74  C   UNL A   1      44.321  20.704  25.305  1.00  0.00     0.054 A 
BRANCH  74  75
ATOM     75  S   UNL A   1      44.896  19.291  24.326  1.00  0.00     0.124 S 
ATOM     76  O   UNL A   1      44.036  18.207  24.796  1.00  0.00    -0.237 OA
ATOM     77  O   UNL A   1      44.655  19.740  22.959  1.00  0.00    -0.237 OA
ATOM     78  O   UNL A   1      46.304  19.162  24.700  1.00  0.00    -0.744 OA
ENDBRANCH  74  75
ENDBRANCH  55  69
BRANCH  56  79
ATOM     79  C   UNL A   1      41.323  30.222  32.902  1.00  0.00    -0.014 A 
ATOM     80  C   UNL A   1      40.144  29.482  33.132  1.00  0.00     0.010 A 
ATOM     81  C   UNL A   1      41.469  31.473  33.524  1.00  0.00     0.010 A 
ATOM     82  C   UNL A   1      39.209  29.903  34.079  1.00  0.00     0.020 A 
ATOM     83  C   UNL A   1      40.535  31.897  34.480  1.00  0.00     0.020 A 
ATOM     84  C   UNL A   1      39.448  31.075  34.796  1.00  0.00     0.054 A 
BRANCH  84  85
ATOM     85  S   UNL A   1      38.405  31.427  36.241  1.00  0.00     0.124 S 
ATOM     86  O   UNL A   1      38.083  30.091  36.732  1.00  0.00    -0.237 OA
ATOM     87  O   UNL A   1      39.321  32.199  37.082  1.00  0.00    -0.237 OA
ATOM     88  O   UNL A   1      37.290  32.176  35.673  1.00  0.00    -0.744 OA
ENDBRANCH  84  85
ENDBRANCH  56  79
BRANCH  68  89
ATOM     89  C   UNL A   1      44.928  23.866  33.457  1.00  0.00    -0.014 A 
ATOM     90  C   UNL A   1      44.000  23.013  34.073  1.00  0.00     0.010 A 
ATOM     91  C   UNL A   1      46.296  23.617  33.728  1.00  0.00     0.010 A 
ATOM     92  C   UNL A   1      44.421  21.917  34.846  1.00  0.00     0.020 A 
ATOM     93  C   UNL A   1      46.728  22.543  34.510  1.00  0.00     0.020 A 
ATOM     94  C   UNL A   1      45.783  21.682  35.047  1.00  0.00     0.054 A 
BRANCH  94  95
ATOM     95  S   UNL A   1      46.303  20.264  36.045  1.00  0.00     0.124 S 
ATOM     96  O   UNL A   1      45.733  19.136  35.311  1.00  0.00    -0.237 OA
ATOM     97  O   UNL A   1      47.759  20.375  35.995  1.00  0.00    -0.237 OA
ATOM     98  O   UNL A   1      45.705  20.516  37.353  1.00  0.00    -0.744 OA
ENDBRANCH  94  95
ENDBRANCH  68  89
ENDBRANCH  42  43
ENDBRANCH  34  37
ENDBRANCH  32  33
ENDBRANCH   1  32
TORSDOF 17
ENDMDL
MODEL 3
REMARK VINA RESULT:     -14.3      4.869     11.641
REMARK SMILES CC(=O)Nc1cnc(N2CC=C(c3ccccc3C)CC2)c(C(=O)NCCCCNC(=O)c2ccc(-c3c4nc(c(-c5ccc(S(=O)(=O)[O-])cc5)c5ccc([nH]5)c(-c5ccc(S(=O)(=O)[O-])cc5)c5nc(c(-c6ccc(S(=O)(=O)[O-])cc6)c6ccc3[nH]6)C=C5)C=C4)cc2)c1
REMARK SMILES IDX 28 1 27 2 26 3 25 4 23 5 24 6 22 8 5 9 6 10 93 11 7 12 8 13
REMARK SMILES IDX 4 14 1 15 2 16 3 17 9 19 10 20 21 21 11 22 20 23 12 24 13 25
REMARK SMILES IDX 14 26 18 27 15 28 17 29 19 30 16 31 29 32 30 33 31 34 32 36
REMARK SMILES IDX 33 37 34 38 92 39 35 40 91 41 36 42 37 43 38 44 85 45 39 46
REMARK SMILES IDX 90 47 84 48 86 49 40 50 89 51 83 52 82 53 41 55 71 56 52 57
REMARK SMILES IDX 70 58 53 59 56 60 69 61 87 62 54 63 55 64 68 66 88 67 57 68
REMARK SMILES IDX 42 69 43 70 51 71 44 72 50 73 45 74 46 75 47 76 48 77 49 78
REMARK SMILES IDX 72 79 73 80 81 81 74 82 80 83 75 84 76 85 77 86 78 87 79 88
REMARK SMILES IDX 58 89 59 90 67 91 60 92 66 93 61 94 62 95 63 96 64 97 65 98
REMARK H PARENT 25 7 4 18 30 35 86 54 56 65
REMARK Flexibility Score: inf
ROOT
ATOM      1  C   UNL A   1      38.038  21.870  25.201  1.00  0.00     0.023 C 
ENDROOT
BRANCH   1   2
ATOM      2  C   UNL A   1      36.958  22.330  24.210  1.00  0.00     0.023 C 
BRANCH   2   3
ATOM      3  C   UNL A   1      36.038  23.432  24.747  1.00  0.00     0.116 C 
BRANCH   3   4
ATOM      4  N   UNL A   1      35.178  22.983  25.837  1.00  0.00    -0.352 N 
ATOM      5  C   UNL A   1      34.334  21.934  26.109  1.00  0.00     0.255 C 
ATOM      6  O   UNL A   1      33.942  21.921  27.280  1.00  0.00    -0.269 OA
ATOM      7  H   UNL A   1      35.212  23.612  26.594  1.00  0.00     0.163 HD
BRANCH   5   8
ATOM      8  C   UNL A   1      33.916  20.843  25.162  1.00  0.00     0.084 A 
ATOM      9  C   UNL A   1      33.996  18.505  24.450  1.00  0.00     0.060 A 
ATOM     10  C   UNL A   1      32.941  18.783  23.605  1.00  0.00     0.139 A 
ATOM     11  C   UNL A   1      34.502  19.566  25.198  1.00  0.00     0.045 A 
ATOM     12  N   UNL A   1      32.363  19.992  23.503  1.00  0.00    -0.236 NA
ATOM     13  C   UNL A   1      32.839  21.023  24.257  1.00  0.00     0.141 A 
BRANCH   9  14
ATOM     14  N   UNL A   1      34.503  17.196  24.477  1.00  0.00    -0.325 N 
ATOM     15  C   UNL A   1      32.746  16.041  25.820  1.00  0.00     0.114 C 
ATOM     16  C   UNL A   1      34.082  16.074  25.128  1.00  0.00     0.221 C 
ATOM     17  O   UNL A   1      34.788  15.066  25.066  1.00  0.00    -0.275 OA
ATOM     18  H   UNL A   1      35.307  17.064  23.924  1.00  0.00     0.169 HD
ENDBRANCH   9  14
BRANCH  13  19
ATOM     19  N   UNL A   1      32.210  22.207  23.968  1.00  0.00    -0.352 N 
ATOM     20  C   UNL A   1      32.563  22.893  22.737  1.00  0.00     0.146 C 
ATOM     21  C   UNL A   1      31.066  22.673  24.733  1.00  0.00     0.123 C 
ATOM     22  C   UNL A   1      32.261  24.369  22.837  1.00  0.00    -0.002 C 
ATOM     23  C   UNL A   1      31.287  24.143  25.112  1.00  0.00     0.057 C 
ATOM     24  C   UNL A   1      31.701  24.959  23.911  1.00  0.00    -0.041 C 
BRANCH  24  25
ATOM     25  C   UNL A   1      31.427  26.406  23.938  1.00  0.00    -0.020 A 
ATOM     26  C   UNL A   1      30.228  26.863  23.366  1.00  0.00     0.008 A 
ATOM     27  C   UNL A   1      32.304  27.335  24.535  1.00  0.00    -0.044 A 
ATOM     28  C   UNL A   1      29.882  28.214  23.410  1.00  0.00     0.001 A 
ATOM     29  C   UNL A   1      31.933  28.690  24.586  1.00  0.00     0.004 A 
ATOM     30  C   UNL A   1      33.614  26.920  25.148  1.00  0.00     0.045 C 
ATOM     31  C   UNL A   1      30.732  29.126  24.028  1.00  0.00     0.000 A 
ENDBRANCH  24  25
ENDBRANCH  13  19
ENDBRANCH   5   8
ENDBRANCH   3   4
ENDBRANCH   2   3
ENDBRANCH   1   2
BRANCH   1  32
ATOM     32  C   UNL A   1      38.512  22.963  26.158  1.00  0.00     0.116 C 
BRANCH  32  33
ATOM     33  N   UNL A   1      39.913  22.889  26.549  1.00  0.00    -0.352 N 
ATOM     34  C   UNL A   1      40.735  23.952  26.905  1.00  0.00     0.251 C 
ATOM     35  H   UNL A   1      40.320  21.992  26.564  1.00  0.00     0.163 HD
ATOM     36  O   UNL A   1      41.938  23.850  27.050  1.00  0.00    -0.269 OA
BRANCH  34  37
ATOM     37  C   UNL A   1      40.052  25.223  27.236  1.00  0.00     0.039 A 
ATOM     38  C   UNL A   1      40.446  26.353  26.510  1.00  0.00     0.014 A 
ATOM     39  C   UNL A   1      39.339  25.337  28.427  1.00  0.00     0.014 A 
ATOM     40  C   UNL A   1      40.306  27.610  27.089  1.00  0.00     0.010 A 
ATOM     41  C   UNL A   1      39.285  26.576  29.039  1.00  0.00     0.010 A 
ATOM     42  C   UNL A   1      39.832  27.697  28.399  1.00  0.00    -0.014 A 
BRANCH  42  43
ATOM     43  C   UNL A   1      39.999  28.896  29.215  1.00  0.00     0.031 A 
ATOM     44  C   UNL A   1      38.974  29.962  29.189  1.00  0.00     0.074 A 
ATOM     45  C   UNL A   1      41.088  29.041  30.005  1.00  0.00     0.049 A 
ATOM     46  N   UNL A   1      39.206  31.202  29.466  1.00  0.00    -0.248 NA
ATOM     47  C   UNL A   1      37.597  29.709  28.782  1.00  0.00     0.031 C 
ATOM     48  C   UNL A   1      41.288  30.055  31.038  1.00  0.00     0.029 A 
ATOM     49  N   UNL A   1      42.347  28.447  29.869  1.00  0.00    -0.354 N 
ATOM     50  C   UNL A   1      37.989  31.835  29.567  1.00  0.00     0.074 A 
ATOM     51  C   UNL A   1      37.029  30.889  29.046  1.00  0.00     0.031 C 
ATOM     52  C   UNL A   1      42.607  30.235  31.204  1.00  0.00     0.029 A 
ATOM     53  C   UNL A   1      43.284  29.443  30.192  1.00  0.00     0.049 A 
ATOM     54  H   UNL A   1      42.537  27.518  29.603  1.00  0.00     0.167 HD
ATOM     55  C   UNL A   1      37.894  33.034  30.209  1.00  0.00     0.031 A 
ATOM     56  C   UNL A   1      44.227  29.908  29.322  1.00  0.00     0.031 A 
ATOM     57  C   UNL A   1      39.199  33.547  30.628  1.00  0.00     0.049 A 
ATOM     58  C   UNL A   1      44.139  31.402  29.060  1.00  0.00     0.074 A 
ATOM     59  C   UNL A   1      39.857  33.651  31.842  1.00  0.00     0.029 A 
ATOM     60  N   UNL A   1      40.152  33.816  29.657  1.00  0.00    -0.354 N 
ATOM     61  N   UNL A   1      43.234  32.190  29.571  1.00  0.00    -0.248 NA
ATOM     62  C   UNL A   1      45.008  32.105  28.117  1.00  0.00     0.031 C 
ATOM     63  C   UNL A   1      41.218  33.991  31.587  1.00  0.00     0.029 A 
ATOM     64  C   UNL A   1      41.380  34.105  30.220  1.00  0.00     0.049 A 
ATOM     65  H   UNL A   1      39.975  33.802  28.688  1.00  0.00     0.167 HD
ATOM     66  C   UNL A   1      43.351  33.447  29.032  1.00  0.00     0.074 A 
ATOM     67  C   UNL A   1      44.481  33.342  28.127  1.00  0.00     0.031 C 
ATOM     68  C   UNL A   1      42.485  34.457  29.341  1.00  0.00     0.031 A 
BRANCH  55  69
ATOM     69  C   UNL A   1      36.570  33.592  30.685  1.00  0.00    -0.014 A 
ATOM     70  C   UNL A   1      35.572  33.932  29.749  1.00  0.00     0.010 A 
ATOM     71  C   UNL A   1      36.274  33.870  32.033  1.00  0.00     0.010 A 
ATOM     72  C   UNL A   1      34.414  34.635  30.118  1.00  0.00     0.020 A 
ATOM     73  C   UNL A   1      35.144  34.612  32.413  1.00  0.00     0.020 A 
ATOM     74  C   UNL A   1      34.228  35.008  31.447  1.00  0.00     0.054 A 
BRANCH  74  75
ATOM     75  S   UNL A   1      32.802  36.036  31.887  1.00  0.00     0.124 S 
ATOM     76  O   UNL A   1      33.379  36.995  32.826  1.00  0.00    -0.237 OA
ATOM     77  O   UNL A   1      32.399  36.582  30.595  1.00  0.00    -0.237 OA
ATOM     78  O   UNL A   1      31.862  35.086  32.481  1.00  0.00    -0.744 OA
ENDBRANCH  74  75
ENDBRANCH  55  69
BRANCH  56  79
ATOM     79  C   UNL A   1      44.737  28.893  28.361  1.00  0.00    -0.014 A 
ATOM     80  C   UNL A   1      44.118  28.827  27.096  1.00  0.00     0.010 A 
ATOM     81  C   UNL A   1      46.005  28.312  28.526  1.00  0.00     0.010 A 
ATOM     82  C   UNL A   1      44.809  28.338  25.986  1.00  0.00     0.020 A 
ATOM     83  C   UNL A   1      46.706  27.825  27.413  1.00  0.00     0.020 A 
ATOM     84  C   UNL A   1      46.125  27.904  26.142  1.00  0.00     0.054 A 
BRANCH  84  85
ATOM     85  S   UNL A   1      47.111  27.589  24.649  1.00  0.00     0.124 S 
ATOM     86  O   UNL A   1      46.590  28.580  23.712  1.00  0.00    -0.237 OA
ATOM     87  O   UNL A   1      48.468  27.841  25.136  1.00  0.00    -0.237 OA
ATOM     88  O   UNL A   1      46.804  26.199  24.333  1.00  0.00    -0.744 OA
ENDBRANCH  84  85
ENDBRANCH  56  79
BRANCH  68  89
ATOM     89  C   UNL A   1      42.547  35.872  28.809  1.00  0.00    -0.014 A 
ATOM     90  C   UNL A   1      43.080  36.958  29.518  1.00  0.00     0.010 A 
ATOM     91  C   UNL A   1      41.941  36.165  27.561  1.00  0.00     0.010 A 
ATOM     92  C   UNL A   1      43.088  38.252  28.970  1.00  0.00     0.020 A 
ATOM     93  C   UNL A   1      41.925  37.449  27.013  1.00  0.00     0.020 A 
ATOM     94  C   UNL A   1      42.522  38.486  27.714  1.00  0.00     0.054 A 
BRANCH  94  95
ATOM     95  S   UNL A   1      42.545  40.160  27.026  1.00  0.00     0.124 S 
ATOM     96  O   UNL A   1      41.241  40.250  26.372  1.00  0.00    -0.237 OA
ATOM     97  O   UNL A   1      42.702  40.979  28.227  1.00  0.00    -0.237 OA
ATOM     98  O   UNL A   1      43.692  40.155  26.123  1.00  0.00    -0.744 OA
ENDBRANCH  94  95
ENDBRANCH  68  89
ENDBRANCH  42  43
ENDBRANCH  34  37
ENDBRANCH  32  33
ENDBRANCH   1  32
TORSDOF 17
ENDMDL
