MODEL 1
REMARK VINA RESULT:     -10.0      0.000      0.000
REMARK SMILES O=C(Cn1nc(C(=O)NCCCCNC(=O)c2ccc(-c3c4nc(c(-c5ccc(S(=O)(=O)[O-])cc5)c5ccc([nH]5)c(-c5ccc(S(=O)(=O)[O-])cc5)c5nc(c(-c6ccc(S(=O)(=O)[O-])cc6)c6ccc3[nH]6)C=C5)C=C4)cc2)c2ccccc2c1=O)Nc1ccc2c(c1)C(=O)c1ccccc1C2=O
REMARK SMILES IDX 11 1 10 2 9 3 7 4 8 5 6 7 4 8 5 9 83 10 82 11 84 12 77 13
REMARK SMILES IDX 81 14 78 15 80 16 79 17 3 18 2 19 1 20 85 21 86 23 87 24
REMARK SMILES IDX 91 25 88 26 90 27 89 28 92 29 100 30 93 31 94 32 99 33
REMARK SMILES IDX 101 34 95 35 98 36 96 37 97 38 12 39 13 40 14 41 15 42 16 44
REMARK SMILES IDX 17 45 18 46 76 47 19 48 75 49 20 50 21 51 22 52 69 53 23 54
REMARK SMILES IDX 74 55 68 56 70 57 24 58 73 59 67 60 66 61 25 63 55 64 36 65
REMARK SMILES IDX 54 66 37 67 40 68 53 69 71 70 38 71 39 72 52 74 72 75 41 76
REMARK SMILES IDX 26 77 27 78 35 79 28 80 34 81 29 82 30 83 31 84 32 85 33 86
REMARK SMILES IDX 56 87 57 88 65 89 58 90 64 91 59 92 60 93 61 94 62 95 63 96
REMARK SMILES IDX 42 97 43 98 51 99 44 100 50 101 45 102 46 103 47 104 48 105
REMARK SMILES IDX 49 106
REMARK H PARENT 9 6 85 22 14 43 70 62 40 73
REMARK Flexibility Score: inf
ROOT
ATOM      1  C   UNL A   1      48.986  25.277  27.949  1.00  0.00     0.023 C 
ENDROOT
BRANCH   1   2
ATOM      2  C   UNL A   1      47.725  24.548  27.491  1.00  0.00     0.116 C 
BRANCH   2   3
ATOM      3  N   UNL A   1      47.244  25.016  26.205  1.00  0.00    -0.351 N 
ATOM      4  C   UNL A   1      45.966  25.135  25.702  1.00  0.00     0.272 C 
ATOM      5  O   UNL A   1      45.845  25.650  24.597  1.00  0.00    -0.267 OA
ATOM      6  H   UNL A   1      47.953  25.297  25.583  1.00  0.00     0.163 HD
BRANCH   4   7
ATOM      7  C   UNL A   1      44.723  24.671  26.500  1.00  0.00     0.156 A 
ATOM      8  N   UNL A   1      43.123  25.201  28.098  1.00  0.00    -0.219 N 
ATOM      9  N   UNL A   1      44.235  25.508  27.370  1.00  0.00    -0.163 NA
ATOM     10  C   UNL A   1      42.388  24.037  27.933  1.00  0.00     0.275 A 
ATOM     11  C   UNL A   1      42.919  23.061  26.961  1.00  0.00     0.051 A 
ATOM     12  O   UNL A   1      41.359  23.787  28.558  1.00  0.00    -0.267 OA
ATOM     13  C   UNL A   1      44.096  23.339  26.262  1.00  0.00     0.020 A 
ATOM     14  C   UNL A   1      42.237  21.846  26.774  1.00  0.00     0.014 A 
ATOM     15  C   UNL A   1      44.594  22.359  25.391  1.00  0.00     0.011 A 
ATOM     16  C   UNL A   1      42.733  20.894  25.888  1.00  0.00     0.001 A 
ATOM     17  C   UNL A   1      43.915  21.149  25.202  1.00  0.00     0.001 A 
BRANCH   8  18
ATOM     18  C   UNL A   1      42.734  26.169  29.125  1.00  0.00     0.248 C 
BRANCH  18  19
ATOM     19  C   UNL A   1      41.611  27.032  28.548  1.00  0.00     0.246 C 
ATOM     20  O   UNL A   1      41.817  28.141  28.059  1.00  0.00    -0.273 OA
ATOM     21  N   UNL A   1      40.348  26.502  28.770  1.00  0.00    -0.324 N 
ATOM     22  H   UNL A   1      40.195  25.558  28.536  1.00  0.00     0.169 HD
BRANCH  21  23
ATOM     23  C   UNL A   1      39.269  27.232  29.312  1.00  0.00     0.042 A 
ATOM     24  C   UNL A   1      38.905  26.965  30.639  1.00  0.00     0.027 A 
ATOM     25  C   UNL A   1      38.733  28.343  28.658  1.00  0.00     0.039 A 
ATOM     26  C   UNL A   1      38.117  27.872  31.352  1.00  0.00     0.015 A 
ATOM     27  C   UNL A   1      38.007  29.281  29.392  1.00  0.00     0.036 A 
ATOM     28  C   UNL A   1      37.734  29.068  30.741  1.00  0.00     0.034 A 
ATOM     29  C   UNL A   1      37.715  30.589  28.782  1.00  0.00     0.194 C 
ATOM     30  C   UNL A   1      37.210  30.180  31.561  1.00  0.00     0.194 C 
ATOM     31  O   UNL A   1      37.615  30.727  27.570  1.00  0.00    -0.289 OA
ATOM     32  C   UNL A   1      37.654  31.750  29.687  1.00  0.00     0.034 A 
ATOM     33  C   UNL A   1      37.412  31.551  31.045  1.00  0.00     0.034 A 
ATOM     34  O   UNL A   1      36.726  29.981  32.668  1.00  0.00    -0.289 OA
ATOM     35  C   UNL A   1      37.935  33.026  29.194  1.00  0.00     0.013 A 
ATOM     36  C   UNL A   1      37.455  32.635  31.926  1.00  0.00     0.013 A 
ATOM     37  C   UNL A   1      38.005  34.103  30.076  1.00  0.00     0.001 A 
ATOM     38  C   UNL A   1      37.767  33.908  31.439  1.00  0.00     0.001 A 
ENDBRANCH  21  23
ENDBRANCH  18  19
ENDBRANCH   8  18
ENDBRANCH   4   7
ENDBRANCH   2   3
ENDBRANCH   1   2
BRANCH   1  39
ATOM     39  C   UNL A   1      50.157  25.226  26.956  1.00  0.00     0.023 C 
BRANCH  39  40
ATOM     40  C   UNL A   1      51.153  26.384  27.039  1.00  0.00     0.116 C 
BRANCH  40  41
ATOM     41  N   UNL A   1      51.264  27.149  25.808  1.00  0.00    -0.352 N 
ATOM     42  C   UNL A   1      50.475  28.188  25.373  1.00  0.00     0.251 C 
ATOM     43  H   UNL A   1      52.001  26.890  25.208  1.00  0.00     0.163 HD
ATOM     44  O   UNL A   1      50.655  28.672  24.259  1.00  0.00    -0.269 OA
BRANCH  42  45
ATOM     45  C   UNL A   1      49.373  28.681  26.228  1.00  0.00     0.039 A 
ATOM     46  C   UNL A   1      49.623  29.502  27.330  1.00  0.00     0.014 A 
ATOM     47  C   UNL A   1      48.065  28.293  25.922  1.00  0.00     0.014 A 
ATOM     48  C   UNL A   1      48.583  29.828  28.198  1.00  0.00     0.010 A 
ATOM     49  C   UNL A   1      47.015  28.652  26.773  1.00  0.00     0.010 A 
ATOM     50  C   UNL A   1      47.276  29.384  27.941  1.00  0.00    -0.014 A 
BRANCH  50  51
ATOM     51  C   UNL A   1      46.205  29.649  28.932  1.00  0.00     0.031 A 
ATOM     52  C   UNL A   1      45.957  28.676  30.052  1.00  0.00     0.074 A 
ATOM     53  C   UNL A   1      45.510  30.801  28.875  1.00  0.00     0.049 A 
ATOM     54  N   UNL A   1      45.110  28.767  31.046  1.00  0.00    -0.248 NA
ATOM     55  C   UNL A   1      46.767  27.448  30.064  1.00  0.00     0.031 C 
ATOM     56  C   UNL A   1      45.682  31.839  27.858  1.00  0.00     0.029 A 
ATOM     57  N   UNL A   1      44.546  31.305  29.712  1.00  0.00    -0.354 N 
ATOM     58  C   UNL A   1      45.280  27.609  31.795  1.00  0.00     0.074 A 
ATOM     59  C   UNL A   1      46.298  26.822  31.134  1.00  0.00     0.031 C 
ATOM     60  C   UNL A   1      44.893  32.882  28.164  1.00  0.00     0.029 A 
ATOM     61  C   UNL A   1      44.137  32.572  29.376  1.00  0.00     0.049 A 
ATOM     62  H   UNL A   1      44.184  30.806  30.479  1.00  0.00     0.167 HD
ATOM     63  C   UNL A   1      44.652  27.239  32.936  1.00  0.00     0.031 A 
ATOM     64  C   UNL A   1      43.261  33.399  29.978  1.00  0.00     0.031 A 
ATOM     65  C   UNL A   1      43.644  28.017  33.601  1.00  0.00     0.049 A 
ATOM     66  C   UNL A   1      42.551  32.953  31.222  1.00  0.00     0.074 A 
ATOM     67  C   UNL A   1      42.937  27.706  34.750  1.00  0.00     0.029 A 
ATOM     68  N   UNL A   1      43.204  29.263  33.184  1.00  0.00    -0.354 N 
ATOM     69  N   UNL A   1      42.696  31.835  31.892  1.00  0.00    -0.248 NA
ATOM     70  C   UNL A   1      41.551  33.872  31.785  1.00  0.00     0.031 C 
ATOM     71  C   UNL A   1      42.054  28.757  35.016  1.00  0.00     0.029 A 
ATOM     72  C   UNL A   1      42.232  29.733  34.048  1.00  0.00     0.049 A 
ATOM     73  H   UNL A   1      43.536  29.743  32.390  1.00  0.00     0.167 HD
ATOM     74  C   UNL A   1      41.802  31.913  32.953  1.00  0.00     0.074 A 
ATOM     75  C   UNL A   1      41.132  33.192  32.847  1.00  0.00     0.031 C 
ATOM     76  C   UNL A   1      41.560  31.000  33.923  1.00  0.00     0.031 A 
BRANCH  63  77
ATOM     77  C   UNL A   1      45.034  25.918  33.539  1.00  0.00    -0.014 A 
ATOM     78  C   UNL A   1      46.101  25.848  34.452  1.00  0.00     0.010 A 
ATOM     79  C   UNL A   1      44.371  24.740  33.157  1.00  0.00     0.010 A 
ATOM     80  C   UNL A   1      46.502  24.616  34.974  1.00  0.00     0.020 A 
ATOM     81  C   UNL A   1      44.762  23.508  33.687  1.00  0.00     0.020 A 
ATOM     82  C   UNL A   1      45.834  23.452  34.583  1.00  0.00     0.054 A 
BRANCH  82  83
ATOM     83  S   UNL A   1      46.337  21.857  35.288  1.00  0.00     0.124 S 
ATOM     84  O   UNL A   1      47.768  22.053  35.499  1.00  0.00    -0.237 OA
ATOM     85  O   UNL A   1      45.529  21.764  36.502  1.00  0.00    -0.237 OA
ATOM     86  O   UNL A   1      45.980  20.902  34.242  1.00  0.00    -0.744 OA
ENDBRANCH  82  83
ENDBRANCH  63  77
BRANCH  64  87
ATOM     87  C   UNL A   1      43.038  34.749  29.406  1.00  0.00    -0.014 A 
ATOM     88  C   UNL A   1      42.081  34.945  28.395  1.00  0.00     0.010 A 
ATOM     89  C   UNL A   1      43.845  35.826  29.812  1.00  0.00     0.010 A 
ATOM     90  C   UNL A   1      41.961  36.188  27.768  1.00  0.00     0.020 A 
ATOM     91  C   UNL A   1      43.718  37.074  29.196  1.00  0.00     0.020 A 
ATOM     92  C   UNL A   1      42.794  37.239  28.160  1.00  0.00     0.054 A 
BRANCH  92  93
ATOM     93  S   UNL A   1      42.672  38.839  27.312  1.00  0.00     0.124 S 
ATOM     94  O   UNL A   1      42.560  39.763  28.436  1.00  0.00    -0.237 OA
ATOM     95  O   UNL A   1      43.924  38.910  26.561  1.00  0.00    -0.237 OA
ATOM     96  O   UNL A   1      41.470  38.692  26.496  1.00  0.00    -0.744 OA
ENDBRANCH  92  93
ENDBRANCH  64  87
BRANCH  76  97
ATOM     97  C   UNL A   1      40.513  31.329  34.947  1.00  0.00    -0.014 A 
ATOM     98  C   UNL A   1      40.820  32.194  36.012  1.00  0.00     0.010 A 
ATOM     99  C   UNL A   1      39.259  30.695  34.908  1.00  0.00     0.010 A 
ATOM    100  C   UNL A   1      39.892  32.410  37.034  1.00  0.00     0.020 A 
ATOM    101  C   UNL A   1      38.326  30.918  35.924  1.00  0.00     0.020 A 
ATOM    102  C   UNL A   1      38.655  31.760  36.990  1.00  0.00     0.054 A 
BRANCH 102 103
ATOM    103  S   UNL A   1      37.458  32.033  38.325  1.00  0.00     0.124 S 
ATOM    104  O   UNL A   1      36.633  33.109  37.781  1.00  0.00    -0.237 OA
ATOM    105  O   UNL A   1      36.797  30.736  38.448  1.00  0.00    -0.237 OA
ATOM    106  O   UNL A   1      38.300  32.402  39.461  1.00  0.00    -0.744 OA
ENDBRANCH 102 103
ENDBRANCH  76  97
ENDBRANCH  50  51
ENDBRANCH  42  45
ENDBRANCH  40  41
ENDBRANCH  39  40
ENDBRANCH   1  39
TORSDOF 17
ENDMDL
MODEL 2
REMARK VINA RESULT:      -9.9      6.764     13.765
REMARK SMILES O=C(Cn1nc(C(=O)NCCCCNC(=O)c2ccc(-c3c4nc(c(-c5ccc(S(=O)(=O)[O-])cc5)c5ccc([nH]5)c(-c5ccc(S(=O)(=O)[O-])cc5)c5nc(c(-c6ccc(S(=O)(=O)[O-])cc6)c6ccc3[nH]6)C=C5)C=C4)cc2)c2ccccc2c1=O)Nc1ccc2c(c1)C(=O)c1ccccc1C2=O
REMARK SMILES IDX 11 1 10 2 9 3 7 4 8 5 6 7 4 8 5 9 83 10 82 11 84 12 77 13
REMARK SMILES IDX 81 14 78 15 80 16 79 17 3 18 2 19 1 20 85 21 86 23 87 24
REMARK SMILES IDX 91 25 88 26 90 27 89 28 92 29 100 30 93 31 94 32 99 33
REMARK SMILES IDX 101 34 95 35 98 36 96 37 97 38 12 39 13 40 14 41 15 42 16 44
REMARK SMILES IDX 17 45 18 46 76 47 19 48 75 49 20 50 21 51 22 52 69 53 23 54
REMARK SMILES IDX 74 55 68 56 70 57 24 58 73 59 67 60 66 61 25 63 55 64 36 65
REMARK SMILES IDX 54 66 37 67 40 68 53 69 71 70 38 71 39 72 52 74 72 75 41 76
REMARK SMILES IDX 26 77 27 78 35 79 28 80 34 81 29 82 30 83 31 84 32 85 33 86
REMARK SMILES IDX 56 87 57 88 65 89 58 90 64 91 59 92 60 93 61 94 62 95 63 96
REMARK SMILES IDX 42 97 43 98 51 99 44 100 50 101 45 102 46 103 47 104 48 105
REMARK SMILES IDX 49 106
REMARK H PARENT 9 6 85 22 14 43 70 62 40 73
REMARK Flexibility Score: inf
ROOT
ATOM      1  C   UNL A   1      46.721  39.067  25.433  1.00  0.00     0.023 C 
ENDROOT
BRANCH   1   2
ATOM      2  C   UNL A   1      46.792  40.196  24.407  1.00  0.00     0.116 C 
BRANCH   2   3
ATOM      3  N   UNL A   1      46.884  41.506  25.022  1.00  0.00    -0.351 N 
ATOM      4  C   UNL A   1      45.943  42.267  25.682  1.00  0.00     0.272 C 
ATOM      5  O   UNL A   1      46.325  43.318  26.185  1.00  0.00    -0.267 OA
ATOM      6  H   UNL A   1      47.772  41.925  24.958  1.00  0.00     0.163 HD
BRANCH   4   7
ATOM      7  C   UNL A   1      44.468  41.814  25.818  1.00  0.00     0.156 A 
ATOM      8  N   UNL A   1      42.378  41.659  24.820  1.00  0.00    -0.219 N 
ATOM      9  N   UNL A   1      43.685  42.049  24.806  1.00  0.00    -0.163 NA
ATOM     10  C   UNL A   1      41.798  40.934  25.850  1.00  0.00     0.275 A 
ATOM     11  C   UNL A   1      42.657  40.658  27.018  1.00  0.00     0.051 A 
ATOM     12  O   UNL A   1      40.633  40.543  25.836  1.00  0.00    -0.267 OA
ATOM     13  C   UNL A   1      43.977  41.116  27.041  1.00  0.00     0.020 A 
ATOM     14  C   UNL A   1      42.118  39.956  28.110  1.00  0.00     0.014 A 
ATOM     15  C   UNL A   1      44.739  40.880  28.195  1.00  0.00     0.011 A 
ATOM     16  C   UNL A   1      42.895  39.712  29.239  1.00  0.00     0.001 A 
ATOM     17  C   UNL A   1      44.203  40.180  29.283  1.00  0.00     0.001 A 
BRANCH   8  18
ATOM     18  C   UNL A   1      41.564  42.077  23.677  1.00  0.00     0.248 C 
BRANCH  18  19
ATOM     19  C   UNL A   1      42.338  43.167  22.933  1.00  0.00     0.246 C 
ATOM     20  O   UNL A   1      42.076  44.362  23.056  1.00  0.00    -0.273 OA
ATOM     21  N   UNL A   1      43.242  42.660  22.010  1.00  0.00    -0.324 N 
ATOM     22  H   UNL A   1      43.864  41.958  22.311  1.00  0.00     0.169 HD
BRANCH  21  23
ATOM     23  C   UNL A   1      43.325  43.087  20.669  1.00  0.00     0.042 A 
ATOM     24  C   UNL A   1      42.290  42.709  19.801  1.00  0.00     0.027 A 
ATOM     25  C   UNL A   1      44.256  44.043  20.259  1.00  0.00     0.039 A 
ATOM     26  C   UNL A   1      42.107  43.376  18.586  1.00  0.00     0.015 A 
ATOM     27  C   UNL A   1      44.028  44.755  19.081  1.00  0.00     0.036 A 
ATOM     28  C   UNL A   1      42.938  44.452  18.269  1.00  0.00     0.034 A 
ATOM     29  C   UNL A   1      44.829  45.963  18.815  1.00  0.00     0.194 C 
ATOM     30  C   UNL A   1      42.560  45.380  17.184  1.00  0.00     0.194 C 
ATOM     31  O   UNL A   1      45.960  46.097  19.261  1.00  0.00    -0.289 OA
ATOM     32  C   UNL A   1      44.169  47.052  18.075  1.00  0.00     0.034 A 
ATOM     33  C   UNL A   1      43.058  46.770  17.281  1.00  0.00     0.034 A 
ATOM     34  O   UNL A   1      41.782  45.043  16.301  1.00  0.00    -0.289 OA
ATOM     35  C   UNL A   1      44.601  48.368  18.251  1.00  0.00     0.013 A 
ATOM     36  C   UNL A   1      42.365  47.811  16.659  1.00  0.00     0.013 A 
ATOM     37  C   UNL A   1      43.893  49.409  17.652  1.00  0.00     0.001 A 
ATOM     38  C   UNL A   1      42.776  49.132  16.860  1.00  0.00     0.001 A 
ENDBRANCH  21  23
ENDBRANCH  18  19
ENDBRANCH   8  18
ENDBRANCH   4   7
ENDBRANCH   2   3
ENDBRANCH   1   2
BRANCH   1  39
ATOM     39  C   UNL A   1      47.908  39.004  26.406  1.00  0.00     0.023 C 
BRANCH  39  40
ATOM     40  C   UNL A   1      48.325  37.604  26.860  1.00  0.00     0.116 C 
BRANCH  40  41
ATOM     41  N   UNL A   1      49.079  37.593  28.103  1.00  0.00    -0.352 N 
ATOM     42  C   UNL A   1      49.081  36.639  29.094  1.00  0.00     0.251 C 
ATOM     43  H   UNL A   1      49.665  38.370  28.256  1.00  0.00     0.163 HD
ATOM     44  O   UNL A   1      49.716  36.826  30.128  1.00  0.00    -0.269 OA
BRANCH  42  45
ATOM     45  C   UNL A   1      48.270  35.412  28.932  1.00  0.00     0.039 A 
ATOM     46  C   UNL A   1      48.192  34.456  29.947  1.00  0.00     0.014 A 
ATOM     47  C   UNL A   1      47.590  35.215  27.726  1.00  0.00     0.014 A 
ATOM     48  C   UNL A   1      47.541  33.247  29.708  1.00  0.00     0.010 A 
ATOM     49  C   UNL A   1      46.903  34.018  27.501  1.00  0.00     0.010 A 
ATOM     50  C   UNL A   1      46.914  33.008  28.475  1.00  0.00    -0.014 A 
BRANCH  50  51
ATOM     51  C   UNL A   1      46.321  31.677  28.202  1.00  0.00     0.031 A 
ATOM     52  C   UNL A   1      47.158  30.592  27.579  1.00  0.00     0.074 A 
ATOM     53  C   UNL A   1      45.057  31.414  28.585  1.00  0.00     0.049 A 
ATOM     54  N   UNL A   1      46.834  29.351  27.323  1.00  0.00    -0.248 NA
ATOM     55  C   UNL A   1      48.537  30.943  27.203  1.00  0.00     0.031 C 
ATOM     56  C   UNL A   1      44.157  32.372  29.229  1.00  0.00     0.029 A 
ATOM     57  N   UNL A   1      44.327  30.254  28.521  1.00  0.00    -0.354 N 
ATOM     58  C   UNL A   1      47.962  28.774  26.752  1.00  0.00     0.074 A 
ATOM     59  C   UNL A   1      48.975  29.805  26.682  1.00  0.00     0.031 C 
ATOM     60  C   UNL A   1      43.015  31.743  29.553  1.00  0.00     0.029 A 
ATOM     61  C   UNL A   1      43.090  30.353  29.110  1.00  0.00     0.049 A 
ATOM     62  H   UNL A   1      44.658  29.432  28.094  1.00  0.00     0.167 HD
ATOM     63  C   UNL A   1      48.142  27.501  26.332  1.00  0.00     0.031 A 
ATOM     64  C   UNL A   1      42.127  29.428  29.286  1.00  0.00     0.031 A 
ATOM     65  C   UNL A   1      47.144  26.470  26.401  1.00  0.00     0.049 A 
ATOM     66  C   UNL A   1      42.336  28.031  28.781  1.00  0.00     0.074 A 
ATOM     67  C   UNL A   1      47.233  25.156  25.975  1.00  0.00     0.029 A 
ATOM     68  N   UNL A   1      45.877  26.633  26.938  1.00  0.00    -0.354 N 
ATOM     69  N   UNL A   1      43.396  27.518  28.206  1.00  0.00    -0.248 NA
ATOM     70  C   UNL A   1      41.216  27.091  28.937  1.00  0.00     0.031 C 
ATOM     71  C   UNL A   1      46.011  24.529  26.236  1.00  0.00     0.029 A 
ATOM     72  C   UNL A   1      45.172  25.446  26.849  1.00  0.00     0.049 A 
ATOM     73  H   UNL A   1      45.530  27.469  27.326  1.00  0.00     0.167 HD
ATOM     74  C   UNL A   1      43.070  26.197  27.925  1.00  0.00     0.074 A 
ATOM     75  C   UNL A   1      41.721  25.983  28.407  1.00  0.00     0.031 C 
ATOM     76  C   UNL A   1      43.824  25.251  27.316  1.00  0.00     0.031 A 
BRANCH  63  77
ATOM     77  C   UNL A   1      49.479  27.147  25.745  1.00  0.00    -0.014 A 
ATOM     78  C   UNL A   1      50.487  26.618  26.568  1.00  0.00     0.010 A 
ATOM     79  C   UNL A   1      49.751  27.394  24.388  1.00  0.00     0.010 A 
ATOM     80  C   UNL A   1      51.752  26.341  26.045  1.00  0.00     0.020 A 
ATOM     81  C   UNL A   1      51.012  27.106  23.859  1.00  0.00     0.020 A 
ATOM     82  C   UNL A   1      52.009  26.593  24.694  1.00  0.00     0.054 A 
BRANCH  82  83
ATOM     83  S   UNL A   1      53.644  26.202  24.011  1.00  0.00     0.124 S 
ATOM     84  O   UNL A   1      54.407  27.403  24.332  1.00  0.00    -0.237 OA
ATOM     85  O   UNL A   1      54.027  24.997  24.744  1.00  0.00    -0.237 OA
ATOM     86  O   UNL A   1      53.370  25.990  22.591  1.00  0.00    -0.744 OA
ENDBRANCH  82  83
ENDBRANCH  63  77
BRANCH  64  87
ATOM     87  C   UNL A   1      40.887  29.810  30.005  1.00  0.00    -0.014 A 
ATOM     88  C   UNL A   1      39.751  30.230  29.290  1.00  0.00     0.010 A 
ATOM     89  C   UNL A   1      40.868  29.837  31.410  1.00  0.00     0.010 A 
ATOM     90  C   UNL A   1      38.629  30.711  29.969  1.00  0.00     0.020 A 
ATOM     91  C   UNL A   1      39.742  30.306  32.091  1.00  0.00     0.020 A 
ATOM     92  C   UNL A   1      38.639  30.764  31.365  1.00  0.00     0.054 A 
BRANCH  92  93
ATOM     93  S   UNL A   1      37.200  31.434  32.243  1.00  0.00     0.124 S 
ATOM     94  O   UNL A   1      37.356  30.838  33.567  1.00  0.00    -0.237 OA
ATOM     95  O   UNL A   1      37.416  32.878  32.175  1.00  0.00    -0.237 OA
ATOM     96  O   UNL A   1      36.071  30.941  31.460  1.00  0.00    -0.744 OA
ENDBRANCH  92  93
ENDBRANCH  64  87
BRANCH  76  97
ATOM     97  C   UNL A   1      43.214  23.894  27.113  1.00  0.00    -0.014 A 
ATOM     98  C   UNL A   1      43.208  22.962  28.165  1.00  0.00     0.010 A 
ATOM     99  C   UNL A   1      42.743  23.512  25.845  1.00  0.00     0.010 A 
ATOM    100  C   UNL A   1      42.753  21.658  27.949  1.00  0.00     0.020 A 
ATOM    101  C   UNL A   1      42.278  22.213  25.630  1.00  0.00     0.020 A 
ATOM    102  C   UNL A   1      42.303  21.288  26.679  1.00  0.00     0.054 A 
BRANCH 102 103
ATOM    103  S   UNL A   1      41.724  19.592  26.399  1.00  0.00     0.124 S 
ATOM    104  O   UNL A   1      42.222  18.898  27.584  1.00  0.00    -0.237 OA
ATOM    105  O   UNL A   1      40.273  19.745  26.325  1.00  0.00    -0.237 OA
ATOM    106  O   UNL A   1      42.366  19.222  25.139  1.00  0.00    -0.744 OA
ENDBRANCH 102 103
ENDBRANCH  76  97
ENDBRANCH  50  51
ENDBRANCH  42  45
ENDBRANCH  40  41
ENDBRANCH  39  40
ENDBRANCH   1  39
TORSDOF 17
ENDMDL
MODEL 3
REMARK VINA RESULT:      -9.6      4.851     11.621
REMARK SMILES O=C(Cn1nc(C(=O)NCCCCNC(=O)c2ccc(-c3c4nc(c(-c5ccc(S(=O)(=O)[O-])cc5)c5ccc([nH]5)c(-c5ccc(S(=O)(=O)[O-])cc5)c5nc(c(-c6ccc(S(=O)(=O)[O-])cc6)c6ccc3[nH]6)C=C5)C=C4)cc2)c2ccccc2c1=O)Nc1ccc2c(c1)C(=O)c1ccccc1C2=O
REMARK SMILES IDX 11 1 10 2 9 3 7 4 8 5 6 7 4 8 5 9 83 10 82 11 84 12 77 13
REMARK SMILES IDX 81 14 78 15 80 16 79 17 3 18 2 19 1 20 85 21 86 23 87 24
REMARK SMILES IDX 91 25 88 26 90 27 89 28 92 29 100 30 93 31 94 32 99 33
REMARK SMILES IDX 101 34 95 35 98 36 96 37 97 38 12 39 13 40 14 41 15 42 16 44
REMARK SMILES IDX 17 45 18 46 76 47 19 48 75 49 20 50 21 51 22 52 69 53 23 54
REMARK SMILES IDX 74 55 68 56 70 57 24 58 73 59 67 60 66 61 25 63 55 64 36 65
REMARK SMILES IDX 54 66 37 67 40 68 53 69 71 70 38 71 39 72 52 74 72 75 41 76
REMARK SMILES IDX 26 77 27 78 35 79 28 80 34 81 29 82 30 83 31 84 32 85 33 86
REMARK SMILES IDX 56 87 57 88 65 89 58 90 64 91 59 92 60 93 61 94 62 95 63 96
REMARK SMILES IDX 42 97 43 98 51 99 44 100 50 101 45 102 46 103 47 104 48 105
REMARK SMILES IDX 49 106
REMARK H PARENT 9 6 85 22 14 43 70 62 40 73
REMARK Flexibility Score: inf
ROOT
ATOM      1  C   UNL A   1      38.575  28.740  28.589  1.00  0.00     0.023 C 
ENDROOT
BRANCH   1   2
ATOM      2  C   UNL A   1      39.397  27.479  28.331  1.00  0.00     0.116 C 
BRANCH   2   3
ATOM      3  N   UNL A   1      40.181  27.561  27.114  1.00  0.00    -0.351 N 
ATOM      4  C   UNL A   1      40.924  26.611  26.447  1.00  0.00     0.272 C 
ATOM      5  O   UNL A   1      41.422  26.939  25.376  1.00  0.00    -0.267 OA
ATOM      6  H   UNL A   1      40.183  28.449  26.690  1.00  0.00     0.163 HD
BRANCH   4   7
ATOM      7  C   UNL A   1      41.107  25.175  26.998  1.00  0.00     0.156 A 
ATOM      8  N   UNL A   1      40.498  22.939  26.852  1.00  0.00    -0.219 N 
ATOM      9  N   UNL A   1      40.384  24.239  26.455  1.00  0.00    -0.163 NA
ATOM     10  C   UNL A   1      41.418  22.495  27.790  1.00  0.00     0.275 A 
ATOM     11  C   UNL A   1      42.248  23.532  28.433  1.00  0.00     0.051 A 
ATOM     12  O   UNL A   1      41.550  21.315  28.109  1.00  0.00    -0.267 OA
ATOM     13  C   UNL A   1      42.088  24.875  28.081  1.00  0.00     0.020 A 
ATOM     14  C   UNL A   1      43.177  23.149  29.416  1.00  0.00     0.014 A 
ATOM     15  C   UNL A   1      42.858  25.832  28.758  1.00  0.00     0.011 A 
ATOM     16  C   UNL A   1      43.949  24.111  30.063  1.00  0.00     0.001 A 
ATOM     17  C   UNL A   1      43.784  25.452  29.737  1.00  0.00     0.001 A 
BRANCH   8  18
ATOM     18  C   UNL A   1      39.555  21.993  26.253  1.00  0.00     0.248 C 
BRANCH  18  19
ATOM     19  C   UNL A   1      38.297  22.775  25.868  1.00  0.00     0.246 C 
ATOM     20  O   UNL A   1      37.728  23.533  26.650  1.00  0.00    -0.273 OA
ATOM     21  N   UNL A   1      37.798  22.423  24.622  1.00  0.00    -0.324 N 
ATOM     22  H   UNL A   1      38.424  22.405  23.862  1.00  0.00     0.169 HD
BRANCH  21  23
ATOM     23  C   UNL A   1      36.450  22.089  24.377  1.00  0.00     0.042 A 
ATOM     24  C   UNL A   1      35.989  20.854  24.856  1.00  0.00     0.027 A 
ATOM     25  C   UNL A   1      35.536  23.029  23.897  1.00  0.00     0.039 A 
ATOM     26  C   UNL A   1      34.618  20.611  24.979  1.00  0.00     0.015 A 
ATOM     27  C   UNL A   1      34.172  22.812  24.088  1.00  0.00     0.036 A 
ATOM     28  C   UNL A   1      33.716  21.628  24.663  1.00  0.00     0.034 A 
ATOM     29  C   UNL A   1      33.237  23.930  23.871  1.00  0.00     0.194 C 
ATOM     30  C   UNL A   1      32.309  21.529  25.105  1.00  0.00     0.194 C 
ATOM     31  O   UNL A   1      33.488  24.835  23.087  1.00  0.00    -0.289 OA
ATOM     32  C   UNL A   1      32.034  23.969  24.718  1.00  0.00     0.034 A 
ATOM     33  C   UNL A   1      31.581  22.798  25.325  1.00  0.00     0.034 A 
ATOM     34  O   UNL A   1      31.803  20.449  25.379  1.00  0.00    -0.289 OA
ATOM     35  C   UNL A   1      31.414  25.192  24.983  1.00  0.00     0.013 A 
ATOM     36  C   UNL A   1      30.502  22.845  26.211  1.00  0.00     0.013 A 
ATOM     37  C   UNL A   1      30.355  25.243  25.888  1.00  0.00     0.001 A 
ATOM     38  C   UNL A   1      29.901  24.073  26.502  1.00  0.00     0.001 A 
ENDBRANCH  21  23
ENDBRANCH  18  19
ENDBRANCH   8  18
ENDBRANCH   4   7
ENDBRANCH   2   3
ENDBRANCH   1   2
BRANCH   1  39
ATOM     39  C   UNL A   1      37.556  28.623  29.733  1.00  0.00     0.023 C 
BRANCH  39  40
ATOM     40  C   UNL A   1      36.366  29.580  29.667  1.00  0.00     0.116 C 
BRANCH  40  41
ATOM     41  N   UNL A   1      35.976  30.119  30.960  1.00  0.00    -0.352 N 
ATOM     42  C   UNL A   1      36.691  30.951  31.791  1.00  0.00     0.251 C 
ATOM     43  H   UNL A   1      35.084  29.854  31.283  1.00  0.00     0.163 HD
ATOM     44  O   UNL A   1      36.247  31.245  32.897  1.00  0.00    -0.269 OA
BRANCH  42  45
ATOM     45  C   UNL A   1      38.022  31.442  31.369  1.00  0.00     0.039 A 
ATOM     46  C   UNL A   1      38.163  32.313  30.287  1.00  0.00     0.014 A 
ATOM     47  C   UNL A   1      39.149  31.000  32.070  1.00  0.00     0.014 A 
ATOM     48  C   UNL A   1      39.437  32.639  29.826  1.00  0.00     0.010 A 
ATOM     49  C   UNL A   1      40.426  31.360  31.630  1.00  0.00     0.010 A 
ATOM     50  C   UNL A   1      40.578  32.144  30.477  1.00  0.00    -0.014 A 
BRANCH  50  51
ATOM     51  C   UNL A   1      41.920  32.414  29.907  1.00  0.00     0.031 A 
ATOM     52  C   UNL A   1      42.588  33.741  30.148  1.00  0.00     0.074 A 
ATOM     53  C   UNL A   1      42.574  31.443  29.243  1.00  0.00     0.049 A 
ATOM     54  N   UNL A   1      43.781  34.137  29.785  1.00  0.00    -0.248 NA
ATOM     55  C   UNL A   1      41.823  34.749  30.900  1.00  0.00     0.031 C 
ATOM     56  C   UNL A   1      42.047  30.104  28.975  1.00  0.00     0.029 A 
ATOM     57  N   UNL A   1      43.837  31.423  28.706  1.00  0.00    -0.354 N 
ATOM     58  C   UNL A   1      43.908  35.438  30.256  1.00  0.00     0.074 A 
ATOM     59  C   UNL A   1      42.665  35.773  30.917  1.00  0.00     0.031 C 
ATOM     60  C   UNL A   1      43.002  29.374  28.374  1.00  0.00     0.029 A 
ATOM     61  C   UNL A   1      44.191  30.202  28.186  1.00  0.00     0.049 A 
ATOM     62  H   UNL A   1      44.431  32.207  28.695  1.00  0.00     0.167 HD
ATOM     63  C   UNL A   1      44.967  36.276  30.156  1.00  0.00     0.031 A 
ATOM     64  C   UNL A   1      45.346  29.787  27.630  1.00  0.00     0.031 A 
ATOM     65  C   UNL A   1      46.205  35.950  29.506  1.00  0.00     0.049 A 
ATOM     66  C   UNL A   1      46.494  30.744  27.499  1.00  0.00     0.074 A 
ATOM     67  C   UNL A   1      47.323  36.748  29.336  1.00  0.00     0.029 A 
ATOM     68  N   UNL A   1      46.495  34.725  28.926  1.00  0.00    -0.354 N 
ATOM     69  N   UNL A   1      46.578  31.984  27.913  1.00  0.00    -0.248 NA
ATOM     70  C   UNL A   1      47.697  30.251  26.813  1.00  0.00     0.031 C 
ATOM     71  C   UNL A   1      48.283  36.012  28.635  1.00  0.00     0.029 A 
ATOM     72  C   UNL A   1      47.771  34.747  28.392  1.00  0.00     0.049 A 
ATOM     73  H   UNL A   1      45.883  33.954  28.898  1.00  0.00     0.167 HD
ATOM     74  C   UNL A   1      47.841  32.424  27.536  1.00  0.00     0.074 A 
ATOM     75  C   UNL A   1      48.492  31.313  26.873  1.00  0.00     0.031 C 
ATOM     76  C   UNL A   1      48.403  33.642  27.720  1.00  0.00     0.031 A 
BRANCH  63  77
ATOM     77  C   UNL A   1      44.828  37.643  30.761  1.00  0.00    -0.014 A 
ATOM     78  C   UNL A   1      44.263  38.688  30.009  1.00  0.00     0.010 A 
ATOM     79  C   UNL A   1      45.309  37.904  32.055  1.00  0.00     0.010 A 
ATOM     80  C   UNL A   1      44.182  39.977  30.541  1.00  0.00     0.020 A 
ATOM     81  C   UNL A   1      45.219  39.190  32.595  1.00  0.00     0.020 A 
ATOM     82  C   UNL A   1      44.668  40.222  31.829  1.00  0.00     0.054 A 
BRANCH  82  83
ATOM     83  S   UNL A   1      44.532  41.890  32.529  1.00  0.00     0.124 S 
ATOM     84  O   UNL A   1      45.249  41.752  33.792  1.00  0.00    -0.237 OA
ATOM     85  O   UNL A   1      45.185  42.723  31.521  1.00  0.00    -0.237 OA
ATOM     86  O   UNL A   1      43.089  42.088  32.642  1.00  0.00    -0.744 OA
ENDBRANCH  82  83
ENDBRANCH  63  77
BRANCH  64  87
ATOM     87  C   UNL A   1      45.462  28.377  27.184  1.00  0.00    -0.014 A 
ATOM     88  C   UNL A   1      46.248  27.464  27.909  1.00  0.00     0.010 A 
ATOM     89  C   UNL A   1      44.857  27.967  25.983  1.00  0.00     0.010 A 
ATOM     90  C   UNL A   1      46.461  26.173  27.420  1.00  0.00     0.020 A 
ATOM     91  C   UNL A   1      45.058  26.672  25.499  1.00  0.00     0.020 A 
ATOM     92  C   UNL A   1      45.880  25.792  26.208  1.00  0.00     0.054 A 
BRANCH  92  93
ATOM     93  S   UNL A   1      46.197  24.132  25.548  1.00  0.00     0.124 S 
ATOM     94  O   UNL A   1      46.733  24.435  24.225  1.00  0.00    -0.237 OA
ATOM     95  O   UNL A   1      47.154  23.575  26.502  1.00  0.00    -0.237 OA
ATOM     96  O   UNL A   1      44.876  23.509  25.564  1.00  0.00    -0.744 OA
ENDBRANCH  92  93
ENDBRANCH  64  87
BRANCH  76  97
ATOM     97  C   UNL A   1      49.788  33.861  27.186  1.00  0.00    -0.014 A 
ATOM     98  C   UNL A   1      49.971  34.250  25.847  1.00  0.00     0.010 A 
ATOM     99  C   UNL A   1      50.909  33.579  27.985  1.00  0.00     0.010 A 
ATOM    100  C   UNL A   1      51.257  34.339  25.308  1.00  0.00     0.020 A 
ATOM    101  C   UNL A   1      52.196  33.677  27.451  1.00  0.00     0.020 A 
ATOM    102  C   UNL A   1      52.362  34.038  26.111  1.00  0.00     0.054 A 
BRANCH 102 103
ATOM    103  S   UNL A   1      54.030  34.143  25.405  1.00  0.00     0.124 S 
ATOM    104  O   UNL A   1      54.873  33.991  26.588  1.00  0.00    -0.237 OA
ATOM    105  O   UNL A   1      54.062  33.025  24.464  1.00  0.00    -0.237 OA
ATOM    106  O   UNL A   1      54.050  35.466  24.786  1.00  0.00    -0.744 OA
ENDBRANCH 102 103
ENDBRANCH  76  97
ENDBRANCH  50  51
ENDBRANCH  42  45
ENDBRANCH  40  41
ENDBRANCH  39  40
ENDBRANCH   1  39
TORSDOF 17
ENDMDL
