MODEL 1
REMARK VINA RESULT:     -10.8      0.000      0.000
REMARK SMILES CC[C@H](c1ccc(OC)cc1)[N@H+]1CC[C@H](C(=O)NCCCCNC(=O)c2ccc(-c3c4nc(c(-c5ccc(S(=O)(=O)[O-])cc5)c5ccc([nH]5)c(-c5ccc(S(=O)(=O)[O-])cc5)c5nc(c(-c6ccc(S(=O)(=O)[O-])cc6)c6ccc3[nH]6)C=C5)C=C4)cc2)[C@@H]1C
REMARK SMILES IDX 20 1 19 2 18 3 16 4 17 5 15 7 12 8 13 9 86 10 14 12 87 13
REMARK SMILES IDX 3 14 2 15 1 16 4 17 5 18 11 19 6 20 10 21 7 22 8 23 9 24
REMARK SMILES IDX 21 25 22 26 23 27 24 28 25 30 26 31 27 32 85 33 28 34 84 35
REMARK SMILES IDX 29 36 30 37 31 38 78 39 32 40 83 41 77 42 79 43 33 44 82 45
REMARK SMILES IDX 76 46 75 47 34 49 64 50 45 51 63 52 46 53 49 54 62 55 80 56
REMARK SMILES IDX 47 57 48 58 61 60 81 61 50 62 35 63 36 64 44 65 37 66 43 67
REMARK SMILES IDX 38 68 39 69 40 70 41 71 42 72 65 73 66 74 74 75 67 76 73 77
REMARK SMILES IDX 68 78 69 79 70 80 71 81 72 82 51 83 52 84 60 85 53 86 59 87
REMARK SMILES IDX 54 88 55 89 56 90 57 91 58 92
REMARK H PARENT 18 6 12 11 23 29 79 48 49 59
REMARK Flexibility Score: inf
ROOT
ATOM      1  C   UNL A   1      33.162  29.079  24.321  1.00  0.00     0.023 C 
ENDROOT
BRANCH   1   2
ATOM      2  C   UNL A   1      31.682  28.699  24.378  1.00  0.00     0.116 C 
BRANCH   2   3
ATOM      3  N   UNL A   1      31.338  27.648  23.438  1.00  0.00    -0.356 N 
ATOM      4  C   UNL A   1      31.312  26.291  23.600  1.00  0.00     0.229 C 
ATOM      5  O   UNL A   1      30.884  25.619  22.665  1.00  0.00    -0.275 OA
ATOM      6  H   UNL A   1      31.083  27.963  22.541  1.00  0.00     0.163 HD
BRANCH   4   7
ATOM      7  C   UNL A   1      31.765  25.709  24.935  1.00  0.00     0.142 C 
ATOM      8  N   UNL A   1      31.973  23.306  25.060  1.00  0.00    -0.326 N 
ATOM      9  C   UNL A   1      30.581  23.659  25.358  1.00  0.00     0.264 C 
ATOM     10  C   UNL A   1      32.760  24.536  24.919  1.00  0.00     0.194 C 
ATOM     11  H   UNL A   1      32.049  22.859  24.146  1.00  0.00     0.348 HD
ATOM     12  C   UNL A   1      30.566  25.143  25.681  1.00  0.00     0.081 C 
ATOM     13  C   UNL A   1      33.674  24.490  23.695  1.00  0.00     0.076 C 
BRANCH   8  14
ATOM     14  C   UNL A   1      32.499  22.185  25.866  1.00  0.00     0.215 C 
BRANCH  14  15
ATOM     15  C   UNL A   1      33.881  22.456  26.522  1.00  0.00     0.067 C 
ATOM     16  C   UNL A   1      33.886  22.427  28.049  1.00  0.00     0.010 C 
ENDBRANCH  14  15
BRANCH  14  17
ATOM     17  C   UNL A   1      32.593  20.933  24.991  1.00  0.00     0.010 A 
ATOM     18  C   UNL A   1      33.028  19.717  25.540  1.00  0.00     0.014 A 
ATOM     19  C   UNL A   1      32.233  20.967  23.637  1.00  0.00     0.014 A 
ATOM     20  C   UNL A   1      33.095  18.567  24.755  1.00  0.00     0.047 A 
ATOM     21  C   UNL A   1      32.298  19.808  22.852  1.00  0.00     0.047 A 
ATOM     22  C   UNL A   1      32.726  18.603  23.410  1.00  0.00     0.118 A 
BRANCH  22  23
ATOM     23  O   UNL A   1      32.831  17.403  22.762  1.00  0.00    -0.497 OA
ATOM     24  C   UNL A   1      34.054  16.698  22.910  1.00  0.00     0.278 C 
ENDBRANCH  22  23
ENDBRANCH  14  17
ENDBRANCH   8  14
ENDBRANCH   4   7
ENDBRANCH   2   3
ENDBRANCH   1   2
BRANCH   1  25
ATOM     25  C   UNL A   1      34.054  28.405  25.369  1.00  0.00     0.023 C 
BRANCH  25  26
ATOM     26  C   UNL A   1      33.601  28.545  26.819  1.00  0.00     0.116 C 
BRANCH  26  27
ATOM     27  N   UNL A   1      33.518  29.928  27.256  1.00  0.00    -0.352 N 
ATOM     28  C   UNL A   1      34.433  30.682  27.948  1.00  0.00     0.251 C 
ATOM     29  H   UNL A   1      32.682  30.394  27.022  1.00  0.00     0.163 HD
ATOM     30  O   UNL A   1      34.113  31.802  28.347  1.00  0.00    -0.269 OA
BRANCH  28  31
ATOM     31  C   UNL A   1      35.784  30.149  28.247  1.00  0.00     0.039 A 
ATOM     32  C   UNL A   1      36.764  30.217  27.254  1.00  0.00     0.014 A 
ATOM     33  C   UNL A   1      36.089  29.573  29.484  1.00  0.00     0.014 A 
ATOM     34  C   UNL A   1      38.061  29.771  27.522  1.00  0.00     0.010 A 
ATOM     35  C   UNL A   1      37.401  29.197  29.774  1.00  0.00     0.010 A 
ATOM     36  C   UNL A   1      38.403  29.290  28.797  1.00  0.00    -0.014 A 
BRANCH  36  37
ATOM     37  C   UNL A   1      39.804  28.901  29.117  1.00  0.00     0.031 A 
ATOM     38  C   UNL A   1      40.731  29.866  29.810  1.00  0.00     0.074 A 
ATOM     39  C   UNL A   1      40.253  27.680  28.757  1.00  0.00     0.049 A 
ATOM     40  N   UNL A   1      41.983  29.701  30.156  1.00  0.00    -0.248 NA
ATOM     41  C   UNL A   1      40.189  31.194  30.145  1.00  0.00     0.031 C 
ATOM     42  C   UNL A   1      39.471  26.663  28.051  1.00  0.00     0.029 A 
ATOM     43  N   UNL A   1      41.477  27.083  28.940  1.00  0.00    -0.354 N 
ATOM     44  C   UNL A   1      42.376  30.896  30.748  1.00  0.00     0.074 A 
ATOM     45  C   UNL A   1      41.249  31.799  30.661  1.00  0.00     0.031 C 
ATOM     46  C   UNL A   1      40.218  25.559  27.894  1.00  0.00     0.029 A 
ATOM     47  C   UNL A   1      41.547  25.800  28.445  1.00  0.00     0.049 A 
ATOM     48  H   UNL A   1      42.234  27.531  29.382  1.00  0.00     0.167 HD
ATOM     49  C   UNL A   1      43.558  31.208  31.334  1.00  0.00     0.031 A 
ATOM     50  C   UNL A   1      42.566  24.918  28.433  1.00  0.00     0.031 A 
ATOM     51  C   UNL A   1      44.680  30.310  31.422  1.00  0.00     0.049 A 
ATOM     52  C   UNL A   1      43.881  25.308  29.055  1.00  0.00     0.074 A 
ATOM     53  C   UNL A   1      45.909  30.527  32.023  1.00  0.00     0.029 A 
ATOM     54  N   UNL A   1      44.714  29.027  30.897  1.00  0.00    -0.354 N 
ATOM     55  N   UNL A   1      44.210  26.424  29.661  1.00  0.00    -0.248 NA
ATOM     56  C   UNL A   1      44.961  24.312  29.001  1.00  0.00     0.031 C 
ATOM     57  C   UNL A   1      46.704  29.395  31.816  1.00  0.00     0.029 A 
ATOM     58  C   UNL A   1      45.948  28.449  31.144  1.00  0.00     0.049 A 
ATOM     59  H   UNL A   1      43.971  28.593  30.420  1.00  0.00     0.167 HD
ATOM     60  C   UNL A   1      45.521  26.248  30.091  1.00  0.00     0.074 A 
ATOM     61  C   UNL A   1      45.915  24.912  29.696  1.00  0.00     0.031 C 
ATOM     62  C   UNL A   1      46.327  27.114  30.753  1.00  0.00     0.031 A 
BRANCH  49  63
ATOM     63  C   UNL A   1      43.698  32.578  31.946  1.00  0.00    -0.014 A 
ATOM     64  C   UNL A   1      44.153  33.667  31.179  1.00  0.00     0.010 A 
ATOM     65  C   UNL A   1      43.297  32.801  33.276  1.00  0.00     0.010 A 
ATOM     66  C   UNL A   1      44.227  34.945  31.736  1.00  0.00     0.020 A 
ATOM     67  C   UNL A   1      43.341  34.085  33.829  1.00  0.00     0.020 A 
ATOM     68  C   UNL A   1      43.816  35.147  33.058  1.00  0.00     0.054 A 
BRANCH  68  69
ATOM     69  S   UNL A   1      43.872  36.830  33.733  1.00  0.00     0.124 S 
ATOM     70  O   UNL A   1      44.044  37.634  32.525  1.00  0.00    -0.237 OA
ATOM     71  O   UNL A   1      42.573  36.954  34.389  1.00  0.00    -0.237 OA
ATOM     72  O   UNL A   1      45.022  36.806  34.632  1.00  0.00    -0.744 OA
ENDBRANCH  68  69
ENDBRANCH  49  63
BRANCH  50  73
ATOM     73  C   UNL A   1      42.396  23.574  27.811  1.00  0.00    -0.014 A 
ATOM     74  C   UNL A   1      41.714  22.549  28.493  1.00  0.00     0.010 A 
ATOM     75  C   UNL A   1      42.954  23.297  26.548  1.00  0.00     0.010 A 
ATOM     76  C   UNL A   1      41.635  21.264  27.947  1.00  0.00     0.020 A 
ATOM     77  C   UNL A   1      42.845  22.024  25.984  1.00  0.00     0.020 A 
ATOM     78  C   UNL A   1      42.205  21.009  26.698  1.00  0.00     0.054 A 
BRANCH  78  79
ATOM     79  S   UNL A   1      42.089  19.336  26.007  1.00  0.00     0.124 S 
ATOM     80  O   UNL A   1      42.597  18.519  27.105  1.00  0.00    -0.237 OA
ATOM     81  O   UNL A   1      40.660  19.206  25.730  1.00  0.00    -0.237 OA
ATOM     82  O   UNL A   1      42.943  19.395  24.823  1.00  0.00    -0.744 OA
ENDBRANCH  78  79
ENDBRANCH  50  73
BRANCH  62  83
ATOM     83  C   UNL A   1      47.702  26.629  31.136  1.00  0.00    -0.014 A 
ATOM     84  C   UNL A   1      48.803  26.792  30.276  1.00  0.00     0.010 A 
ATOM     85  C   UNL A   1      47.898  26.028  32.393  1.00  0.00     0.010 A 
ATOM     86  C   UNL A   1      50.065  26.321  30.648  1.00  0.00     0.020 A 
ATOM     87  C   UNL A   1      49.165  25.588  32.783  1.00  0.00     0.020 A 
ATOM     88  C   UNL A   1      50.238  25.720  31.900  1.00  0.00     0.054 A 
BRANCH  88  89
ATOM     89  S   UNL A   1      51.892  25.144  32.369  1.00  0.00     0.124 S 
ATOM     90  O   UNL A   1      52.046  25.717  33.704  1.00  0.00    -0.237 OA
ATOM     91  O   UNL A   1      51.752  23.692  32.321  1.00  0.00    -0.237 OA
ATOM     92  O   UNL A   1      52.762  25.715  31.344  1.00  0.00    -0.744 OA
ENDBRANCH  88  89
ENDBRANCH  62  83
ENDBRANCH  36  37
ENDBRANCH  28  31
ENDBRANCH  26  27
ENDBRANCH  25  26
ENDBRANCH   1  25
TORSDOF 18
ENDMDL
MODEL 2
REMARK VINA RESULT:     -10.7      2.889      9.725
REMARK SMILES CC[C@H](c1ccc(OC)cc1)[N@H+]1CC[C@H](C(=O)NCCCCNC(=O)c2ccc(-c3c4nc(c(-c5ccc(S(=O)(=O)[O-])cc5)c5ccc([nH]5)c(-c5ccc(S(=O)(=O)[O-])cc5)c5nc(c(-c6ccc(S(=O)(=O)[O-])cc6)c6ccc3[nH]6)C=C5)C=C4)cc2)[C@@H]1C
REMARK SMILES IDX 20 1 19 2 18 3 16 4 17 5 15 7 12 8 13 9 86 10 14 12 87 13
REMARK SMILES IDX 3 14 2 15 1 16 4 17 5 18 11 19 6 20 10 21 7 22 8 23 9 24
REMARK SMILES IDX 21 25 22 26 23 27 24 28 25 30 26 31 27 32 85 33 28 34 84 35
REMARK SMILES IDX 29 36 30 37 31 38 78 39 32 40 83 41 77 42 79 43 33 44 82 45
REMARK SMILES IDX 76 46 75 47 34 49 64 50 45 51 63 52 46 53 49 54 62 55 80 56
REMARK SMILES IDX 47 57 48 58 61 60 81 61 50 62 35 63 36 64 44 65 37 66 43 67
REMARK SMILES IDX 38 68 39 69 40 70 41 71 42 72 65 73 66 74 74 75 67 76 73 77
REMARK SMILES IDX 68 78 69 79 70 80 71 81 72 82 51 83 52 84 60 85 53 86 59 87
REMARK SMILES IDX 54 88 55 89 56 90 57 91 58 92
REMARK H PARENT 18 6 12 11 23 29 79 48 49 59
REMARK Flexibility Score: inf
ROOT
ATOM      1  C   UNL A   1      35.164  21.595  26.408  1.00  0.00     0.023 C 
ENDROOT
BRANCH   1   2
ATOM      2  C   UNL A   1      33.662  21.328  26.513  1.00  0.00     0.116 C 
BRANCH   2   3
ATOM      3  N   UNL A   1      32.939  22.434  27.114  1.00  0.00    -0.356 N 
ATOM      4  C   UNL A   1      32.268  23.473  26.529  1.00  0.00     0.229 C 
ATOM      5  O   UNL A   1      31.647  24.232  27.269  1.00  0.00    -0.275 OA
ATOM      6  H   UNL A   1      32.929  22.437  28.098  1.00  0.00     0.163 HD
BRANCH   4   7
ATOM      7  C   UNL A   1      32.294  23.590  25.008  1.00  0.00     0.142 C 
ATOM      8  N   UNL A   1      31.373  25.611  24.059  1.00  0.00    -0.326 N 
ATOM      9  C   UNL A   1      30.276  24.659  24.254  1.00  0.00     0.264 C 
ATOM     10  C   UNL A   1      32.643  24.955  24.389  1.00  0.00     0.194 C 
ATOM     11  H   UNL A   1      31.313  26.381  24.726  1.00  0.00     0.348 HD
ATOM     12  C   UNL A   1      30.912  23.293  24.447  1.00  0.00     0.081 C 
ATOM     13  C   UNL A   1      33.533  25.843  25.258  1.00  0.00     0.076 C 
BRANCH   8  14
ATOM     14  C   UNL A   1      31.262  26.418  22.825  1.00  0.00     0.215 C 
BRANCH  14  15
ATOM     15  C   UNL A   1      32.579  26.533  22.010  1.00  0.00     0.067 C 
ATOM     16  C   UNL A   1      32.650  25.640  20.774  1.00  0.00     0.010 C 
ENDBRANCH  14  15
BRANCH  14  17
ATOM     17  C   UNL A   1      30.765  27.821  23.182  1.00  0.00     0.010 A 
ATOM     18  C   UNL A   1      29.671  28.378  22.504  1.00  0.00     0.014 A 
ATOM     19  C   UNL A   1      31.377  28.570  24.198  1.00  0.00     0.014 A 
ATOM     20  C   UNL A   1      29.198  29.646  22.838  1.00  0.00     0.047 A 
ATOM     21  C   UNL A   1      30.897  29.843  24.533  1.00  0.00     0.047 A 
ATOM     22  C   UNL A   1      29.803  30.384  23.856  1.00  0.00     0.118 A 
BRANCH  22  23
ATOM     23  O   UNL A   1      29.234  31.605  24.085  1.00  0.00    -0.497 OA
ATOM     24  C   UNL A   1      28.077  31.928  23.328  1.00  0.00     0.278 C 
ENDBRANCH  22  23
ENDBRANCH  14  17
ENDBRANCH   8  14
ENDBRANCH   4   7
ENDBRANCH   2   3
ENDBRANCH   1   2
BRANCH   1  25
ATOM     25  C   UNL A   1      35.577  23.067  26.500  1.00  0.00     0.023 C 
BRANCH  25  26
ATOM     26  C   UNL A   1      36.780  23.476  25.654  1.00  0.00     0.116 C 
BRANCH  26  27
ATOM     27  N   UNL A   1      37.923  22.597  25.830  1.00  0.00    -0.352 N 
ATOM     28  C   UNL A   1      39.168  22.874  26.340  1.00  0.00     0.251 C 
ATOM     29  H   UNL A   1      37.785  21.665  25.544  1.00  0.00     0.163 HD
ATOM     30  O   UNL A   1      40.049  22.017  26.276  1.00  0.00    -0.269 OA
BRANCH  28  31
ATOM     31  C   UNL A   1      39.467  24.200  26.931  1.00  0.00     0.039 A 
ATOM     32  C   UNL A   1      39.048  24.460  28.238  1.00  0.00     0.014 A 
ATOM     33  C   UNL A   1      40.142  25.190  26.209  1.00  0.00     0.014 A 
ATOM     34  C   UNL A   1      39.360  25.681  28.841  1.00  0.00     0.010 A 
ATOM     35  C   UNL A   1      40.516  26.379  26.838  1.00  0.00     0.010 A 
ATOM     36  C   UNL A   1      40.130  26.639  28.161  1.00  0.00    -0.014 A 
BRANCH  36  37
ATOM     37  C   UNL A   1      40.545  27.902  28.831  1.00  0.00     0.031 A 
ATOM     38  C   UNL A   1      41.929  28.046  29.411  1.00  0.00     0.074 A 
ATOM     39  C   UNL A   1      39.663  28.917  28.942  1.00  0.00     0.049 A 
ATOM     40  N   UNL A   1      42.457  29.067  30.037  1.00  0.00    -0.248 NA
ATOM     41  C   UNL A   1      42.832  26.889  29.286  1.00  0.00     0.031 C 
ATOM     42  C   UNL A   1      38.281  28.896  28.455  1.00  0.00     0.029 A 
ATOM     43  N   UNL A   1      39.796  30.167  29.496  1.00  0.00    -0.354 N 
ATOM     44  C   UNL A   1      43.748  28.679  30.377  1.00  0.00     0.074 A 
ATOM     45  C   UNL A   1      43.905  27.308  29.941  1.00  0.00     0.031 C 
ATOM     46  C   UNL A   1      37.708  30.086  28.698  1.00  0.00     0.029 A 
ATOM     47  C   UNL A   1      38.661  30.941  29.397  1.00  0.00     0.049 A 
ATOM     48  H   UNL A   1      40.624  30.480  29.925  1.00  0.00     0.167 HD
ATOM     49  C   UNL A   1      44.726  29.404  30.975  1.00  0.00     0.031 A 
ATOM     50  C   UNL A   1      38.413  32.195  29.823  1.00  0.00     0.031 A 
ATOM     51  C   UNL A   1      44.572  30.768  31.409  1.00  0.00     0.049 A 
ATOM     52  C   UNL A   1      39.506  32.961  30.522  1.00  0.00     0.074 A 
ATOM     53  C   UNL A   1      45.515  31.594  31.998  1.00  0.00     0.029 A 
ATOM     54  N   UNL A   1      43.405  31.509  31.302  1.00  0.00    -0.354 N 
ATOM     55  N   UNL A   1      40.738  32.593  30.780  1.00  0.00    -0.248 NA
ATOM     56  C   UNL A   1      39.176  34.320  30.976  1.00  0.00     0.031 C 
ATOM     57  C   UNL A   1      44.903  32.816  32.294  1.00  0.00     0.029 A 
ATOM     58  C   UNL A   1      43.599  32.774  31.831  1.00  0.00     0.049 A 
ATOM     59  H   UNL A   1      42.564  31.183  30.909  1.00  0.00     0.167 HD
ATOM     60  C   UNL A   1      41.339  33.688  31.393  1.00  0.00     0.074 A 
ATOM     61  C   UNL A   1      40.342  34.736  31.446  1.00  0.00     0.031 C 
ATOM     62  C   UNL A   1      42.601  33.814  31.871  1.00  0.00     0.031 A 
BRANCH  49  63
ATOM     63  C   UNL A   1      46.064  28.742  31.184  1.00  0.00    -0.014 A 
ATOM     64  C   UNL A   1      46.288  27.905  32.293  1.00  0.00     0.010 A 
ATOM     65  C   UNL A   1      47.082  28.889  30.225  1.00  0.00     0.010 A 
ATOM     66  C   UNL A   1      47.510  27.248  32.451  1.00  0.00     0.020 A 
ATOM     67  C   UNL A   1      48.297  28.211  30.363  1.00  0.00     0.020 A 
ATOM     68  C   UNL A   1      48.507  27.403  31.482  1.00  0.00     0.054 A 
BRANCH  68  69
ATOM     69  S   UNL A   1      50.062  26.492  31.689  1.00  0.00     0.124 S 
ATOM     70  O   UNL A   1      50.300  26.623  33.125  1.00  0.00    -0.237 OA
ATOM     71  O   UNL A   1      49.710  25.151  31.231  1.00  0.00    -0.237 OA
ATOM     72  O   UNL A   1      51.003  27.213  30.835  1.00  0.00    -0.744 OA
ENDBRANCH  68  69
ENDBRANCH  49  63
BRANCH  50  73
ATOM     73  C   UNL A   1      37.076  32.818  29.608  1.00  0.00    -0.014 A 
ATOM     74  C   UNL A   1      36.806  33.551  28.437  1.00  0.00     0.010 A 
ATOM     75  C   UNL A   1      36.076  32.716  30.593  1.00  0.00     0.010 A 
ATOM     76  C   UNL A   1      35.583  34.209  28.279  1.00  0.00     0.020 A 
ATOM     77  C   UNL A   1      34.839  33.343  30.422  1.00  0.00     0.020 A 
ATOM     78  C   UNL A   1      34.609  34.104  29.275  1.00  0.00     0.054 A 
BRANCH  78  79
ATOM     79  S   UNL A   1      33.028  34.965  29.049  1.00  0.00     0.124 S 
ATOM     80  O   UNL A   1      33.461  36.271  28.560  1.00  0.00    -0.237 OA
ATOM     81  O   UNL A   1      32.345  34.119  28.073  1.00  0.00    -0.237 OA
ATOM     82  O   UNL A   1      32.441  34.959  30.386  1.00  0.00    -0.744 OA
ENDBRANCH  78  79
ENDBRANCH  50  73
BRANCH  62  83
ATOM     83  C   UNL A   1      42.994  35.149  32.451  1.00  0.00    -0.014 A 
ATOM     84  C   UNL A   1      43.603  36.141  31.661  1.00  0.00     0.010 A 
ATOM     85  C   UNL A   1      42.717  35.424  33.802  1.00  0.00     0.010 A 
ATOM     86  C   UNL A   1      43.970  37.365  32.225  1.00  0.00     0.020 A 
ATOM     87  C   UNL A   1      43.050  36.661  34.361  1.00  0.00     0.020 A 
ATOM     88  C   UNL A   1      43.692  37.618  33.572  1.00  0.00     0.054 A 
BRANCH  88  89
ATOM     89  S   UNL A   1      44.153  39.226  34.271  1.00  0.00     0.124 S 
ATOM     90  O   UNL A   1      43.047  40.075  33.835  1.00  0.00    -0.237 OA
ATOM     91  O   UNL A   1      44.205  38.950  35.704  1.00  0.00    -0.237 OA
ATOM     92  O   UNL A   1      45.443  39.518  33.651  1.00  0.00    -0.744 OA
ENDBRANCH  88  89
ENDBRANCH  62  83
ENDBRANCH  36  37
ENDBRANCH  28  31
ENDBRANCH  26  27
ENDBRANCH  25  26
ENDBRANCH   1  25
TORSDOF 18
ENDMDL
MODEL 3
REMARK VINA RESULT:     -10.7      1.394      2.270
REMARK SMILES CC[C@H](c1ccc(OC)cc1)[N@H+]1CC[C@H](C(=O)NCCCCNC(=O)c2ccc(-c3c4nc(c(-c5ccc(S(=O)(=O)[O-])cc5)c5ccc([nH]5)c(-c5ccc(S(=O)(=O)[O-])cc5)c5nc(c(-c6ccc(S(=O)(=O)[O-])cc6)c6ccc3[nH]6)C=C5)C=C4)cc2)[C@@H]1C
REMARK SMILES IDX 20 1 19 2 18 3 16 4 17 5 15 7 12 8 13 9 86 10 14 12 87 13
REMARK SMILES IDX 3 14 2 15 1 16 4 17 5 18 11 19 6 20 10 21 7 22 8 23 9 24
REMARK SMILES IDX 21 25 22 26 23 27 24 28 25 30 26 31 27 32 85 33 28 34 84 35
REMARK SMILES IDX 29 36 30 37 31 38 78 39 32 40 83 41 77 42 79 43 33 44 82 45
REMARK SMILES IDX 76 46 75 47 34 49 64 50 45 51 63 52 46 53 49 54 62 55 80 56
REMARK SMILES IDX 47 57 48 58 61 60 81 61 50 62 35 63 36 64 44 65 37 66 43 67
REMARK SMILES IDX 38 68 39 69 40 70 41 71 42 72 65 73 66 74 74 75 67 76 73 77
REMARK SMILES IDX 68 78 69 79 70 80 71 81 72 82 51 83 52 84 60 85 53 86 59 87
REMARK SMILES IDX 54 88 55 89 56 90 57 91 58 92
REMARK H PARENT 18 6 12 11 23 29 79 48 49 59
REMARK Flexibility Score: inf
ROOT
ATOM      1  C   UNL A   1      31.763  27.668  26.050  1.00  0.00     0.023 C 
ENDROOT
BRANCH   1   2
ATOM      2  C   UNL A   1      30.672  26.945  25.261  1.00  0.00     0.116 C 
BRANCH   2   3
ATOM      3  N   UNL A   1      30.034  25.890  26.026  1.00  0.00    -0.356 N 
ATOM      4  C   UNL A   1      30.482  24.639  26.350  1.00  0.00     0.229 C 
ATOM      5  O   UNL A   1      29.781  23.965  27.102  1.00  0.00    -0.275 OA
ATOM      6  H   UNL A   1      29.136  26.109  26.366  1.00  0.00     0.163 HD
BRANCH   4   7
ATOM      7  C   UNL A   1      31.831  24.186  25.803  1.00  0.00     0.142 C 
ATOM      8  N   UNL A   1      31.913  21.996  24.787  1.00  0.00    -0.326 N 
ATOM      9  C   UNL A   1      32.121  21.836  26.229  1.00  0.00     0.264 C 
ATOM     10  C   UNL A   1      31.857  23.426  24.464  1.00  0.00     0.194 C 
ATOM     11  H   UNL A   1      30.996  21.645  24.508  1.00  0.00     0.348 HD
ATOM     12  C   UNL A   1      32.477  23.209  26.774  1.00  0.00     0.081 C 
ATOM     13  C   UNL A   1      30.699  23.753  23.521  1.00  0.00     0.076 C 
BRANCH   8  14
ATOM     14  C   UNL A   1      32.727  21.087  23.954  1.00  0.00     0.215 C 
BRANCH  14  15
ATOM     15  C   UNL A   1      32.411  19.578  24.146  1.00  0.00     0.067 C 
ATOM     16  C   UNL A   1      32.463  18.742  22.870  1.00  0.00     0.010 C 
ENDBRANCH  14  15
BRANCH  14  17
ATOM     17  C   UNL A   1      34.211  21.331  24.241  1.00  0.00     0.010 A 
ATOM     18  C   UNL A   1      34.954  20.393  24.973  1.00  0.00     0.014 A 
ATOM     19  C   UNL A   1      34.861  22.480  23.767  1.00  0.00     0.014 A 
ATOM     20  C   UNL A   1      36.311  20.597  25.219  1.00  0.00     0.047 A 
ATOM     21  C   UNL A   1      36.226  22.680  24.014  1.00  0.00     0.047 A 
ATOM     22  C   UNL A   1      36.956  21.737  24.738  1.00  0.00     0.118 A 
BRANCH  22  23
ATOM     23  O   UNL A   1      38.287  21.805  25.044  1.00  0.00    -0.497 OA
ATOM     24  C   UNL A   1      38.663  22.694  26.085  1.00  0.00     0.278 C 
ENDBRANCH  22  23
ENDBRANCH  14  17
ENDBRANCH   8  14
ENDBRANCH   4   7
ENDBRANCH   2   3
ENDBRANCH   1   2
BRANCH   1  25
ATOM     25  C   UNL A   1      33.190  27.468  25.531  1.00  0.00     0.023 C 
BRANCH  25  26
ATOM     26  C   UNL A   1      34.294  28.149  26.336  1.00  0.00     0.116 C 
BRANCH  26  27
ATOM     27  N   UNL A   1      33.925  29.478  26.793  1.00  0.00    -0.352 N 
ATOM     28  C   UNL A   1      34.615  30.347  27.603  1.00  0.00     0.251 C 
ATOM     29  H   UNL A   1      33.051  29.804  26.476  1.00  0.00     0.163 HD
ATOM     30  O   UNL A   1      34.063  31.378  27.988  1.00  0.00    -0.269 OA
BRANCH  28  31
ATOM     31  C   UNL A   1      35.997  30.039  28.041  1.00  0.00     0.039 A 
ATOM     32  C   UNL A   1      36.205  29.635  29.362  1.00  0.00     0.014 A 
ATOM     33  C   UNL A   1      37.086  30.158  27.173  1.00  0.00     0.014 A 
ATOM     34  C   UNL A   1      37.488  29.288  29.793  1.00  0.00     0.010 A 
ATOM     35  C   UNL A   1      38.354  29.741  27.582  1.00  0.00     0.010 A 
ATOM     36  C   UNL A   1      38.571  29.301  28.896  1.00  0.00    -0.014 A 
BRANCH  36  37
ATOM     37  C   UNL A   1      39.922  28.843  29.324  1.00  0.00     0.031 A 
ATOM     38  C   UNL A   1      40.809  29.737  30.151  1.00  0.00     0.074 A 
ATOM     39  C   UNL A   1      40.363  27.626  28.943  1.00  0.00     0.049 A 
ATOM     40  N   UNL A   1      42.016  29.507  30.603  1.00  0.00    -0.248 NA
ATOM     41  C   UNL A   1      40.282  31.065  30.505  1.00  0.00     0.031 C 
ATOM     42  C   UNL A   1      39.618  26.676  28.112  1.00  0.00     0.029 A 
ATOM     43  N   UNL A   1      41.543  26.975  29.206  1.00  0.00    -0.354 N 
ATOM     44  C   UNL A   1      42.390  30.655  31.292  1.00  0.00     0.074 A 
ATOM     45  C   UNL A   1      41.307  31.604  31.150  1.00  0.00     0.031 C 
ATOM     46  C   UNL A   1      40.340  25.554  27.967  1.00  0.00     0.029 A 
ATOM     47  C   UNL A   1      41.618  25.717  28.652  1.00  0.00     0.049 A 
ATOM     48  H   UNL A   1      42.268  27.371  29.741  1.00  0.00     0.167 HD
ATOM     49  C   UNL A   1      43.520  30.892  32.002  1.00  0.00     0.031 A 
ATOM     50  C   UNL A   1      42.604  24.798  28.688  1.00  0.00     0.031 A 
ATOM     51  C   UNL A   1      44.600  29.950  32.146  1.00  0.00     0.049 A 
ATOM     52  C   UNL A   1      43.866  25.107  29.450  1.00  0.00     0.074 A 
ATOM     53  C   UNL A   1      45.772  30.089  32.871  1.00  0.00     0.029 A 
ATOM     54  N   UNL A   1      44.641  28.695  31.559  1.00  0.00    -0.354 N 
ATOM     55  N   UNL A   1      44.172  26.178  30.143  1.00  0.00    -0.248 NA
ATOM     56  C   UNL A   1      44.912  24.074  29.444  1.00  0.00     0.031 C 
ATOM     57  C   UNL A   1      46.545  28.940  32.678  1.00  0.00     0.029 A 
ATOM     58  C   UNL A   1      45.826  28.058  31.888  1.00  0.00     0.049 A 
ATOM     59  H   UNL A   1      43.933  28.313  30.992  1.00  0.00     0.167 HD
ATOM     60  C   UNL A   1      45.429  25.931  30.684  1.00  0.00     0.074 A 
ATOM     61  C   UNL A   1      45.815  24.603  30.256  1.00  0.00     0.031 C 
ATOM     62  C   UNL A   1      46.197  26.731  31.464  1.00  0.00     0.031 A 
BRANCH  49  63
ATOM     63  C   UNL A   1      43.647  32.224  32.698  1.00  0.00    -0.014 A 
ATOM     64  C   UNL A   1      44.107  33.358  32.004  1.00  0.00     0.010 A 
ATOM     65  C   UNL A   1      43.228  32.365  34.034  1.00  0.00     0.010 A 
ATOM     66  C   UNL A   1      44.168  34.601  32.638  1.00  0.00     0.020 A 
ATOM     67  C   UNL A   1      43.259  33.613  34.663  1.00  0.00     0.020 A 
ATOM     68  C   UNL A   1      43.739  34.722  33.963  1.00  0.00     0.054 A 
BRANCH  68  69
ATOM     69  S   UNL A   1      43.779  36.361  34.739  1.00  0.00     0.124 S 
ATOM     70  O   UNL A   1      43.475  36.043  36.132  1.00  0.00    -0.237 OA
ATOM     71  O   UNL A   1      45.147  36.803  34.481  1.00  0.00    -0.237 OA
ATOM     72  O   UNL A   1      42.741  37.106  34.031  1.00  0.00    -0.744 OA
ENDBRANCH  68  69
ENDBRANCH  49  63
BRANCH  50  73
ATOM     73  C   UNL A   1      42.450  23.495  27.982  1.00  0.00    -0.014 A 
ATOM     74  C   UNL A   1      41.598  22.498  28.493  1.00  0.00     0.010 A 
ATOM     75  C   UNL A   1      43.188  23.226  26.814  1.00  0.00     0.010 A 
ATOM     76  C   UNL A   1      41.524  21.244  27.879  1.00  0.00     0.020 A 
ATOM     77  C   UNL A   1      43.090  21.986  26.177  1.00  0.00     0.020 A 
ATOM     78  C   UNL A   1      42.275  20.995  26.728  1.00  0.00     0.054 A 
BRANCH  78  79
ATOM     79  S   UNL A   1      42.164  19.361  25.946  1.00  0.00     0.124 S 
ATOM     80  O   UNL A   1      42.747  18.496  26.967  1.00  0.00    -0.237 OA
ATOM     81  O   UNL A   1      40.726  19.210  25.734  1.00  0.00    -0.237 OA
ATOM     82  O   UNL A   1      42.953  19.512  24.726  1.00  0.00    -0.744 OA
ENDBRANCH  78  79
ENDBRANCH  50  73
BRANCH  62  83
ATOM     83  C   UNL A   1      47.512  26.176  31.946  1.00  0.00    -0.014 A 
ATOM     84  C   UNL A   1      48.697  26.349  31.208  1.00  0.00     0.010 A 
ATOM     85  C   UNL A   1      47.566  25.496  33.177  1.00  0.00     0.010 A 
ATOM     86  C   UNL A   1      49.901  25.813  31.671  1.00  0.00     0.020 A 
ATOM     87  C   UNL A   1      48.775  24.989  33.660  1.00  0.00     0.020 A 
ATOM     88  C   UNL A   1      49.933  25.134  32.894  1.00  0.00     0.054 A 
BRANCH  88  89
ATOM     89  S   UNL A   1      51.515  24.473  33.484  1.00  0.00     0.124 S 
ATOM     90  O   UNL A   1      52.037  25.590  34.266  1.00  0.00    -0.237 OA
ATOM     91  O   UNL A   1      51.106  23.303  34.255  1.00  0.00    -0.237 OA
ATOM     92  O   UNL A   1      52.248  24.178  32.255  1.00  0.00    -0.744 OA
ENDBRANCH  88  89
ENDBRANCH  62  83
ENDBRANCH  36  37
ENDBRANCH  28  31
ENDBRANCH  26  27
ENDBRANCH  25  26
ENDBRANCH   1  25
TORSDOF 18
ENDMDL
