MODEL 1
REMARK VINA RESULT:     -11.0      0.000      0.000
REMARK SMILES C[C@@H](Sc1nc2ccccc2c(=O)n1N)C(=O)NCCCCNC(=O)c1ccc(-c2c3nc(c(-c4ccc(S(=O)(=O)[O-])cc4)c4ccc([nH]4)c(-c4ccc(S(=O)(=O)[O-])cc4)c4nc(c(-c5ccc(S(=O)(=O)[O-])cc5)c5ccc2[nH]5)C=C4)C=C3)cc1
REMARK SMILES IDX 20 1 19 2 18 3 16 4 17 5 2 7 1 8 3 9 4 10 5 11 14 12 6 13
REMARK SMILES IDX 12 14 7 15 11 16 13 17 8 18 10 19 9 20 15 21 21 24 22 25
REMARK SMILES IDX 23 26 24 27 25 29 26 30 27 31 85 32 28 33 84 34 29 35 30 36
REMARK SMILES IDX 31 37 78 38 32 39 83 40 77 41 79 42 33 43 82 44 76 45 75 46
REMARK SMILES IDX 34 48 64 49 45 50 63 51 46 52 49 53 62 54 80 55 47 56 48 57
REMARK SMILES IDX 61 59 81 60 50 61 35 62 36 63 44 64 37 65 43 66 38 67 39 68
REMARK SMILES IDX 40 69 41 70 42 71 65 72 66 73 74 74 67 75 73 76 68 77 69 78
REMARK SMILES IDX 70 79 71 80 72 81 51 82 52 83 60 84 53 85 59 86 54 87 55 88
REMARK SMILES IDX 56 89 57 90 58 91
REMARK H PARENT 18 6 15 22 15 23 23 28 79 47 49 58
REMARK Flexibility Score: inf
ROOT
ATOM      1  C   UNL A   1      33.249  29.295  24.893  1.00  0.00     0.023 C 
ENDROOT
BRANCH   1   2
ATOM      2  C   UNL A   1      33.557  28.915  23.448  1.00  0.00     0.116 C 
BRANCH   2   3
ATOM      3  N   UNL A   1      32.341  28.662  22.696  1.00  0.00    -0.355 N 
ATOM      4  C   UNL A   1      31.640  27.508  22.506  1.00  0.00     0.233 C 
ATOM      5  O   UNL A   1      30.608  27.576  21.830  1.00  0.00    -0.274 OA
ATOM      6  H   UNL A   1      31.961  29.452  22.250  1.00  0.00     0.163 HD
BRANCH   4   7
ATOM      7  C   UNL A   1      32.093  26.169  23.095  1.00  0.00     0.141 C 
ATOM      8  C   UNL A   1      31.098  25.607  24.104  1.00  0.00     0.030 C 
BRANCH   7   9
ATOM      9  S   UNL A   1      32.583  25.069  21.718  1.00  0.00    -0.073 SA
BRANCH   9  10
ATOM     10  C   UNL A   1      33.386  23.772  22.564  1.00  0.00     0.191 A 
ATOM     11  N   UNL A   1      34.640  23.936  22.840  1.00  0.00    -0.222 NA
ATOM     12  N   UNL A   1      32.638  22.673  22.972  1.00  0.00    -0.202 N 
ATOM     13  C   UNL A   1      35.278  22.962  23.618  1.00  0.00     0.079 A 
ATOM     14  C   UNL A   1      33.194  21.664  23.760  1.00  0.00     0.280 A 
ATOM     15  C   UNL A   1      36.620  23.148  23.958  1.00  0.00     0.029 A 
ATOM     16  C   UNL A   1      34.617  21.833  24.105  1.00  0.00     0.068 A 
ATOM     17  O   UNL A   1      32.556  20.700  24.182  1.00  0.00    -0.267 OA
ATOM     18  C   UNL A   1      37.286  22.228  24.772  1.00  0.00     0.002 A 
ATOM     19  C   UNL A   1      35.274  20.901  24.918  1.00  0.00     0.016 A 
ATOM     20  C   UNL A   1      36.613  21.104  25.252  1.00  0.00     0.001 A 
BRANCH  12  21
ATOM     21  N   UNL A   1      31.257  22.526  22.619  1.00  0.00    -0.334 N 
ATOM     22  H   UNL A   1      31.009  22.106  21.764  1.00  0.00     0.178 HD
ATOM     23  H   UNL A   1      30.556  22.846  23.232  1.00  0.00     0.178 HD
ENDBRANCH  12  21
ENDBRANCH   9  10
ENDBRANCH   7   9
ENDBRANCH   4   7
ENDBRANCH   2   3
ENDBRANCH   1   2
BRANCH   1  24
ATOM     24  C   UNL A   1      33.235  28.116  25.869  1.00  0.00     0.023 C 
BRANCH  24  25
ATOM     25  C   UNL A   1      33.679  28.442  27.291  1.00  0.00     0.116 C 
BRANCH  25  26
ATOM     26  N   UNL A   1      33.632  29.865  27.593  1.00  0.00    -0.352 N 
ATOM     27  C   UNL A   1      34.608  30.662  28.141  1.00  0.00     0.251 C 
ATOM     28  H   UNL A   1      32.784  30.317  27.377  1.00  0.00     0.163 HD
ATOM     29  O   UNL A   1      34.354  31.823  28.449  1.00  0.00    -0.269 OA
BRANCH  27  30
ATOM     30  C   UNL A   1      35.952  30.100  28.389  1.00  0.00     0.039 A 
ATOM     31  C   UNL A   1      36.897  30.132  27.361  1.00  0.00     0.014 A 
ATOM     32  C   UNL A   1      36.285  29.570  29.639  1.00  0.00     0.014 A 
ATOM     33  C   UNL A   1      38.201  29.699  27.610  1.00  0.00     0.010 A 
ATOM     34  C   UNL A   1      37.601  29.203  29.903  1.00  0.00     0.010 A 
ATOM     35  C   UNL A   1      38.573  29.266  28.893  1.00  0.00    -0.014 A 
BRANCH  35  36
ATOM     36  C   UNL A   1      39.975  28.886  29.203  1.00  0.00     0.031 A 
ATOM     37  C   UNL A   1      40.907  29.884  29.835  1.00  0.00     0.074 A 
ATOM     38  C   UNL A   1      40.429  27.666  28.851  1.00  0.00     0.049 A 
ATOM     39  N   UNL A   1      42.177  29.760  30.119  1.00  0.00    -0.248 NA
ATOM     40  C   UNL A   1      40.343  31.202  30.168  1.00  0.00     0.031 C 
ATOM     41  C   UNL A   1      39.637  26.624  28.192  1.00  0.00     0.029 A 
ATOM     42  N   UNL A   1      41.671  27.099  28.991  1.00  0.00    -0.354 N 
ATOM     43  C   UNL A   1      42.568  30.985  30.646  1.00  0.00     0.074 A 
ATOM     44  C   UNL A   1      41.413  31.854  30.599  1.00  0.00     0.031 C 
ATOM     45  C   UNL A   1      40.406  25.539  28.007  1.00  0.00     0.029 A 
ATOM     46  C   UNL A   1      41.752  25.818  28.497  1.00  0.00     0.049 A 
ATOM     47  H   UNL A   1      42.432  27.565  29.406  1.00  0.00     0.167 HD
ATOM     48  C   UNL A   1      43.776  31.349  31.142  1.00  0.00     0.031 A 
ATOM     49  C   UNL A   1      42.794  24.966  28.438  1.00  0.00     0.031 A 
ATOM     50  C   UNL A   1      44.920  30.479  31.200  1.00  0.00     0.049 A 
ATOM     51  C   UNL A   1      44.123  25.392  28.996  1.00  0.00     0.074 A 
ATOM     52  C   UNL A   1      46.170  30.737  31.734  1.00  0.00     0.029 A 
ATOM     53  N   UNL A   1      44.955  29.184  30.706  1.00  0.00    -0.354 N 
ATOM     54  N   UNL A   1      44.456  26.534  29.548  1.00  0.00    -0.248 NA
ATOM     55  C   UNL A   1      45.215  24.411  28.933  1.00  0.00     0.031 C 
ATOM     56  C   UNL A   1      46.976  29.612  31.523  1.00  0.00     0.029 A 
ATOM     57  C   UNL A   1      46.212  28.636  30.906  1.00  0.00     0.049 A 
ATOM     58  H   UNL A   1      44.200  28.722  30.276  1.00  0.00     0.167 HD
ATOM     59  C   UNL A   1      45.789  26.399  29.922  1.00  0.00     0.074 A 
ATOM     60  C   UNL A   1      46.196  25.061  29.546  1.00  0.00     0.031 C 
ATOM     61  C   UNL A   1      46.601  27.302  30.524  1.00  0.00     0.031 A 
BRANCH  48  62
ATOM     62  C   UNL A   1      43.916  32.756  31.661  1.00  0.00    -0.014 A 
ATOM     63  C   UNL A   1      43.739  33.045  33.027  1.00  0.00     0.010 A 
ATOM     64  C   UNL A   1      44.258  33.796  30.779  1.00  0.00     0.010 A 
ATOM     65  C   UNL A   1      43.858  34.357  33.493  1.00  0.00     0.020 A 
ATOM     66  C   UNL A   1      44.404  35.106  31.247  1.00  0.00     0.020 A 
ATOM     67  C   UNL A   1      44.184  35.380  32.598  1.00  0.00     0.054 A 
BRANCH  67  68
ATOM     68  S   UNL A   1      44.346  37.072  33.233  1.00  0.00     0.124 S 
ATOM     69  O   UNL A   1      45.788  37.178  33.441  1.00  0.00    -0.237 OA
ATOM     70  O   UNL A   1      43.809  37.879  32.140  1.00  0.00    -0.237 OA
ATOM     71  O   UNL A   1      43.539  37.063  34.451  1.00  0.00    -0.744 OA
ENDBRANCH  67  68
ENDBRANCH  48  62
BRANCH  49  72
ATOM     72  C   UNL A   1      42.612  23.614  27.843  1.00  0.00    -0.014 A 
ATOM     73  C   UNL A   1      42.905  23.388  26.486  1.00  0.00     0.010 A 
ATOM     74  C   UNL A   1      42.162  22.541  28.633  1.00  0.00     0.010 A 
ATOM     75  C   UNL A   1      42.734  22.118  25.927  1.00  0.00     0.020 A 
ATOM     76  C   UNL A   1      42.015  21.264  28.084  1.00  0.00     0.020 A 
ATOM     77  C   UNL A   1      42.292  21.064  26.729  1.00  0.00     0.054 A 
BRANCH  77  78
ATOM     78  S   UNL A   1      42.131  19.412  25.996  1.00  0.00     0.124 S 
ATOM     79  O   UNL A   1      42.680  18.559  27.045  1.00  0.00    -0.237 OA
ATOM     80  O   UNL A   1      40.691  19.301  25.778  1.00  0.00    -0.237 OA
ATOM     81  O   UNL A   1      42.931  19.501  24.776  1.00  0.00    -0.744 OA
ENDBRANCH  77  78
ENDBRANCH  49  72
BRANCH  61  82
ATOM     82  C   UNL A   1      48.005  26.865  30.845  1.00  0.00    -0.014 A 
ATOM     83  C   UNL A   1      49.066  27.112  29.958  1.00  0.00     0.010 A 
ATOM     84  C   UNL A   1      48.273  26.245  32.080  1.00  0.00     0.010 A 
ATOM     85  C   UNL A   1      50.367  26.721  30.288  1.00  0.00     0.020 A 
ATOM     86  C   UNL A   1      49.575  25.877  32.425  1.00  0.00     0.020 A 
ATOM     87  C   UNL A   1      50.613  26.105  31.519  1.00  0.00     0.054 A 
BRANCH  87  88
ATOM     88  S   UNL A   1      52.317  25.650  31.944  1.00  0.00     0.124 S 
ATOM     89  O   UNL A   1      52.180  24.232  32.268  1.00  0.00    -0.237 OA
ATOM     90  O   UNL A   1      53.046  25.946  30.714  1.00  0.00    -0.237 OA
ATOM     91  O   UNL A   1      52.636  26.520  33.075  1.00  0.00    -0.744 OA
ENDBRANCH  87  88
ENDBRANCH  61  82
ENDBRANCH  35  36
ENDBRANCH  27  30
ENDBRANCH  25  26
ENDBRANCH  24  25
ENDBRANCH   1  24
TORSDOF 17
ENDMDL
MODEL 2
REMARK VINA RESULT:     -11.0      1.644      2.368
REMARK SMILES C[C@@H](Sc1nc2ccccc2c(=O)n1N)C(=O)NCCCCNC(=O)c1ccc(-c2c3nc(c(-c4ccc(S(=O)(=O)[O-])cc4)c4ccc([nH]4)c(-c4ccc(S(=O)(=O)[O-])cc4)c4nc(c(-c5ccc(S(=O)(=O)[O-])cc5)c5ccc2[nH]5)C=C4)C=C3)cc1
REMARK SMILES IDX 20 1 19 2 18 3 16 4 17 5 2 7 1 8 3 9 4 10 5 11 14 12 6 13
REMARK SMILES IDX 12 14 7 15 11 16 13 17 8 18 10 19 9 20 15 21 21 24 22 25
REMARK SMILES IDX 23 26 24 27 25 29 26 30 27 31 85 32 28 33 84 34 29 35 30 36
REMARK SMILES IDX 31 37 78 38 32 39 83 40 77 41 79 42 33 43 82 44 76 45 75 46
REMARK SMILES IDX 34 48 64 49 45 50 63 51 46 52 49 53 62 54 80 55 47 56 48 57
REMARK SMILES IDX 61 59 81 60 50 61 35 62 36 63 44 64 37 65 43 66 38 67 39 68
REMARK SMILES IDX 40 69 41 70 42 71 65 72 66 73 74 74 67 75 73 76 68 77 69 78
REMARK SMILES IDX 70 79 71 80 72 81 51 82 52 83 60 84 53 85 59 86 54 87 55 88
REMARK SMILES IDX 56 89 57 90 58 91
REMARK H PARENT 18 6 15 22 15 23 23 28 79 47 49 58
REMARK Flexibility Score: inf
ROOT
ATOM      1  C   UNL A   1      32.079  26.976  25.703  1.00  0.00     0.023 C 
ENDROOT
BRANCH   1   2
ATOM      2  C   UNL A   1      30.739  26.329  25.363  1.00  0.00     0.116 C 
BRANCH   2   3
ATOM      3  N   UNL A   1      30.384  25.306  26.329  1.00  0.00    -0.355 N 
ATOM      4  C   UNL A   1      30.647  23.968  26.342  1.00  0.00     0.233 C 
ATOM      5  O   UNL A   1      30.243  23.319  27.312  1.00  0.00    -0.274 OA
ATOM      6  H   UNL A   1      29.868  25.631  27.102  1.00  0.00     0.163 HD
BRANCH   4   7
ATOM      7  C   UNL A   1      31.409  23.274  25.209  1.00  0.00     0.141 C 
ATOM      8  C   UNL A   1      30.902  23.678  23.829  1.00  0.00     0.030 C 
BRANCH   7   9
ATOM      9  S   UNL A   1      33.202  23.467  25.517  1.00  0.00    -0.073 SA
BRANCH   9  10
ATOM     10  C   UNL A   1      33.782  21.838  25.288  1.00  0.00     0.191 A 
ATOM     11  N   UNL A   1      32.903  20.938  24.983  1.00  0.00    -0.222 NA
ATOM     12  N   UNL A   1      35.150  21.596  25.357  1.00  0.00    -0.202 N 
ATOM     13  C   UNL A   1      33.357  19.647  24.682  1.00  0.00     0.079 A 
ATOM     14  C   UNL A   1      35.685  20.343  25.059  1.00  0.00     0.280 A 
ATOM     15  C   UNL A   1      32.422  18.677  24.312  1.00  0.00     0.029 A 
ATOM     16  C   UNL A   1      34.709  19.301  24.693  1.00  0.00     0.068 A 
ATOM     17  O   UNL A   1      36.891  20.099  25.062  1.00  0.00    -0.267 OA
ATOM     18  C   UNL A   1      32.832  17.389  23.955  1.00  0.00     0.002 A 
ATOM     19  C   UNL A   1      35.131  18.013  24.342  1.00  0.00     0.016 A 
ATOM     20  C   UNL A   1      34.187  17.057  23.971  1.00  0.00     0.001 A 
BRANCH  12  21
ATOM     21  N   UNL A   1      36.080  22.623  25.722  1.00  0.00    -0.334 N 
ATOM     22  H   UNL A   1      37.046  22.432  25.735  1.00  0.00     0.178 HD
ATOM     23  H   UNL A   1      35.753  23.520  25.962  1.00  0.00     0.178 HD
ENDBRANCH  12  21
ENDBRANCH   9  10
ENDBRANCH   7   9
ENDBRANCH   4   7
ENDBRANCH   2   3
ENDBRANCH   1   2
BRANCH   1  24
ATOM     24  C   UNL A   1      32.037  27.923  26.904  1.00  0.00     0.023 C 
BRANCH  24  25
ATOM     25  C   UNL A   1      33.384  28.508  27.319  1.00  0.00     0.116 C 
BRANCH  25  26
ATOM     26  N   UNL A   1      33.326  29.936  27.595  1.00  0.00    -0.352 N 
ATOM     27  C   UNL A   1      34.303  30.754  28.111  1.00  0.00     0.251 C 
ATOM     28  H   UNL A   1      32.470  30.376  27.384  1.00  0.00     0.163 HD
ATOM     29  O   UNL A   1      34.043  31.918  28.400  1.00  0.00    -0.269 OA
BRANCH  27  30
ATOM     30  C   UNL A   1      35.657  30.210  28.346  1.00  0.00     0.039 A 
ATOM     31  C   UNL A   1      36.577  30.210  27.295  1.00  0.00     0.014 A 
ATOM     32  C   UNL A   1      36.024  29.728  29.606  1.00  0.00     0.014 A 
ATOM     33  C   UNL A   1      37.890  29.795  27.527  1.00  0.00     0.010 A 
ATOM     34  C   UNL A   1      37.348  29.380  29.852  1.00  0.00     0.010 A 
ATOM     35  C   UNL A   1      38.296  29.412  28.817  1.00  0.00    -0.014 A 
BRANCH  35  36
ATOM     36  C   UNL A   1      39.708  29.054  29.106  1.00  0.00     0.031 A 
ATOM     37  C   UNL A   1      40.642  30.076  29.693  1.00  0.00     0.074 A 
ATOM     38  C   UNL A   1      40.166  27.830  28.774  1.00  0.00     0.049 A 
ATOM     39  N   UNL A   1      41.920  29.971  29.953  1.00  0.00    -0.248 NA
ATOM     40  C   UNL A   1      40.072  31.396  30.006  1.00  0.00     0.031 C 
ATOM     41  C   UNL A   1      39.371  26.764  28.158  1.00  0.00     0.029 A 
ATOM     42  N   UNL A   1      41.416  27.279  28.902  1.00  0.00    -0.354 N 
ATOM     43  C   UNL A   1      42.309  31.212  30.442  1.00  0.00     0.074 A 
ATOM     44  C   UNL A   1      41.145  32.068  30.398  1.00  0.00     0.031 C 
ATOM     45  C   UNL A   1      40.147  25.682  27.983  1.00  0.00     0.029 A 
ATOM     46  C   UNL A   1      41.500  25.986  28.438  1.00  0.00     0.049 A 
ATOM     47  H   UNL A   1      42.182  27.761  29.289  1.00  0.00     0.167 HD
ATOM     48  C   UNL A   1      43.523  31.600  30.903  1.00  0.00     0.031 A 
ATOM     49  C   UNL A   1      42.549  25.143  28.378  1.00  0.00     0.031 A 
ATOM     50  C   UNL A   1      44.677  30.742  30.958  1.00  0.00     0.049 A 
ATOM     51  C   UNL A   1      43.885  25.595  28.897  1.00  0.00     0.074 A 
ATOM     52  C   UNL A   1      45.935  31.025  31.459  1.00  0.00     0.029 A 
ATOM     53  N   UNL A   1      44.715  29.436  30.495  1.00  0.00    -0.354 N 
ATOM     54  N   UNL A   1      44.218  26.753  29.413  1.00  0.00    -0.248 NA
ATOM     55  C   UNL A   1      44.985  24.623  28.834  1.00  0.00     0.031 C 
ATOM     56  C   UNL A   1      46.748  29.904  31.259  1.00  0.00     0.029 A 
ATOM     57  C   UNL A   1      45.980  28.905  30.681  1.00  0.00     0.049 A 
ATOM     58  H   UNL A   1      43.955  28.956  30.093  1.00  0.00     0.167 HD
ATOM     59  C   UNL A   1      45.560  26.641  29.762  1.00  0.00     0.074 A 
ATOM     60  C   UNL A   1      45.972  25.297  29.410  1.00  0.00     0.031 C 
ATOM     61  C   UNL A   1      46.375  27.565  30.325  1.00  0.00     0.031 A 
BRANCH  48  62
ATOM     62  C   UNL A   1      43.660  33.020  31.384  1.00  0.00    -0.014 A 
ATOM     63  C   UNL A   1      43.440  33.352  32.733  1.00  0.00     0.010 A 
ATOM     64  C   UNL A   1      44.043  34.031  30.484  1.00  0.00     0.010 A 
ATOM     65  C   UNL A   1      43.556  34.677  33.164  1.00  0.00     0.020 A 
ATOM     66  C   UNL A   1      44.187  35.352  30.916  1.00  0.00     0.020 A 
ATOM     67  C   UNL A   1      43.923  35.669  32.251  1.00  0.00     0.054 A 
BRANCH  67  68
ATOM     68  S   UNL A   1      44.081  37.378  32.840  1.00  0.00     0.124 S 
ATOM     69  O   UNL A   1      42.998  37.458  33.817  1.00  0.00    -0.237 OA
ATOM     70  O   UNL A   1      45.431  37.403  33.398  1.00  0.00    -0.237 OA
ATOM     71  O   UNL A   1      43.892  38.180  31.634  1.00  0.00    -0.744 OA
ENDBRANCH  67  68
ENDBRANCH  48  62
BRANCH  49  72
ATOM     72  C   UNL A   1      42.368  23.775  27.820  1.00  0.00    -0.014 A 
ATOM     73  C   UNL A   1      42.425  23.559  26.431  1.00  0.00     0.010 A 
ATOM     74  C   UNL A   1      42.155  22.678  28.674  1.00  0.00     0.010 A 
ATOM     75  C   UNL A   1      42.255  22.274  25.907  1.00  0.00     0.020 A 
ATOM     76  C   UNL A   1      42.012  21.389  28.156  1.00  0.00     0.020 A 
ATOM     77  C   UNL A   1      42.051  21.196  26.773  1.00  0.00     0.054 A 
BRANCH  77  78
ATOM     78  S   UNL A   1      41.889  19.530  26.074  1.00  0.00     0.124 S 
ATOM     79  O   UNL A   1      42.814  19.582  24.946  1.00  0.00    -0.237 OA
ATOM     80  O   UNL A   1      42.297  18.678  27.188  1.00  0.00    -0.237 OA
ATOM     81  O   UNL A   1      40.473  19.444  25.722  1.00  0.00    -0.744 OA
ENDBRANCH  77  78
ENDBRANCH  49  72
BRANCH  61  82
ATOM     82  C   UNL A   1      47.790  27.150  30.627  1.00  0.00    -0.014 A 
ATOM     83  C   UNL A   1      48.852  27.507  29.778  1.00  0.00     0.010 A 
ATOM     84  C   UNL A   1      48.065  26.437  31.808  1.00  0.00     0.010 A 
ATOM     85  C   UNL A   1      50.161  27.133  30.091  1.00  0.00     0.020 A 
ATOM     86  C   UNL A   1      49.376  26.084  32.138  1.00  0.00     0.020 A 
ATOM     87  C   UNL A   1      50.416  26.424  31.269  1.00  0.00     0.054 A 
BRANCH  87  88
ATOM     88  S   UNL A   1      52.129  25.991  31.677  1.00  0.00     0.124 S 
ATOM     89  O   UNL A   1      52.515  27.084  32.566  1.00  0.00    -0.237 OA
ATOM     90  O   UNL A   1      51.988  24.684  32.313  1.00  0.00    -0.237 OA
ATOM     91  O   UNL A   1      52.801  25.976  30.379  1.00  0.00    -0.744 OA
ENDBRANCH  87  88
ENDBRANCH  61  82
ENDBRANCH  35  36
ENDBRANCH  27  30
ENDBRANCH  25  26
ENDBRANCH  24  25
ENDBRANCH   1  24
TORSDOF 17
ENDMDL
MODEL 3
REMARK VINA RESULT:     -10.4      4.346      5.576
REMARK SMILES C[C@@H](Sc1nc2ccccc2c(=O)n1N)C(=O)NCCCCNC(=O)c1ccc(-c2c3nc(c(-c4ccc(S(=O)(=O)[O-])cc4)c4ccc([nH]4)c(-c4ccc(S(=O)(=O)[O-])cc4)c4nc(c(-c5ccc(S(=O)(=O)[O-])cc5)c5ccc2[nH]5)C=C4)C=C3)cc1
REMARK SMILES IDX 20 1 19 2 18 3 16 4 17 5 2 7 1 8 3 9 4 10 5 11 14 12 6 13
REMARK SMILES IDX 12 14 7 15 11 16 13 17 8 18 10 19 9 20 15 21 21 24 22 25
REMARK SMILES IDX 23 26 24 27 25 29 26 30 27 31 85 32 28 33 84 34 29 35 30 36
REMARK SMILES IDX 31 37 78 38 32 39 83 40 77 41 79 42 33 43 82 44 76 45 75 46
REMARK SMILES IDX 34 48 64 49 45 50 63 51 46 52 49 53 62 54 80 55 47 56 48 57
REMARK SMILES IDX 61 59 81 60 50 61 35 62 36 63 44 64 37 65 43 66 38 67 39 68
REMARK SMILES IDX 40 69 41 70 42 71 65 72 66 73 74 74 67 75 73 76 68 77 69 78
REMARK SMILES IDX 70 79 71 80 72 81 51 82 52 83 60 84 53 85 59 86 54 87 55 88
REMARK SMILES IDX 56 89 57 90 58 91
REMARK H PARENT 18 6 15 22 15 23 23 28 79 47 49 58
REMARK Flexibility Score: inf
ROOT
ATOM      1  C   UNL A   1      34.985  30.618  27.973  1.00  0.00     0.023 C 
ENDROOT
BRANCH   1   2
ATOM      2  C   UNL A   1      34.783  29.275  27.279  1.00  0.00     0.116 C 
BRANCH   2   3
ATOM      3  N   UNL A   1      34.071  29.428  26.023  1.00  0.00    -0.355 N 
ATOM      4  C   UNL A   1      32.993  28.757  25.526  1.00  0.00     0.233 C 
ATOM      5  O   UNL A   1      32.564  29.109  24.424  1.00  0.00    -0.274 OA
ATOM      6  H   UNL A   1      34.424  30.132  25.433  1.00  0.00     0.163 HD
BRANCH   4   7
ATOM      7  C   UNL A   1      32.325  27.606  26.286  1.00  0.00     0.141 C 
ATOM      8  C   UNL A   1      31.499  28.091  27.473  1.00  0.00     0.030 C 
BRANCH   7   9
ATOM      9  S   UNL A   1      31.477  26.530  25.075  1.00  0.00    -0.073 SA
BRANCH   9  10
ATOM     10  C   UNL A   1      32.794  25.554  24.478  1.00  0.00     0.191 A 
ATOM     11  N   UNL A   1      33.788  25.351  25.283  1.00  0.00    -0.222 NA
ATOM     12  N   UNL A   1      32.684  24.976  23.218  1.00  0.00    -0.202 N 
ATOM     13  C   UNL A   1      34.803  24.479  24.871  1.00  0.00     0.079 A 
ATOM     14  C   UNL A   1      33.645  24.086  22.738  1.00  0.00     0.280 A 
ATOM     15  C   UNL A   1      35.860  24.220  25.747  1.00  0.00     0.029 A 
ATOM     16  C   UNL A   1      34.781  23.823  23.640  1.00  0.00     0.068 A 
ATOM     17  O   UNL A   1      33.562  23.517  21.650  1.00  0.00    -0.267 OA
ATOM     18  C   UNL A   1      36.871  23.319  25.400  1.00  0.00     0.002 A 
ATOM     19  C   UNL A   1      35.790  22.922  23.279  1.00  0.00     0.016 A 
ATOM     20  C   UNL A   1      36.836  22.670  24.165  1.00  0.00     0.001 A 
BRANCH  12  21
ATOM     21  N   UNL A   1      31.574  25.252  22.356  1.00  0.00    -0.334 N 
ATOM     22  H   UNL A   1      31.090  24.512  21.923  1.00  0.00     0.178 HD
ATOM     23  H   UNL A   1      31.295  26.183  22.194  1.00  0.00     0.178 HD
ENDBRANCH  12  21
ENDBRANCH   9  10
ENDBRANCH   7   9
ENDBRANCH   4   7
ENDBRANCH   2   3
ENDBRANCH   1   2
BRANCH   1  24
ATOM     24  C   UNL A   1      34.348  31.806  27.248  1.00  0.00     0.023 C 
BRANCH  24  25
ATOM     25  C   UNL A   1      33.014  32.279  27.818  1.00  0.00     0.116 C 
BRANCH  25  26
ATOM     26  N   UNL A   1      32.902  33.728  27.884  1.00  0.00    -0.352 N 
ATOM     27  C   UNL A   1      33.599  34.611  28.675  1.00  0.00     0.251 C 
ATOM     28  H   UNL A   1      32.235  34.131  27.282  1.00  0.00     0.163 HD
ATOM     29  O   UNL A   1      33.287  35.798  28.696  1.00  0.00    -0.269 OA
BRANCH  27  30
ATOM     30  C   UNL A   1      34.702  34.113  29.523  1.00  0.00     0.039 A 
ATOM     31  C   UNL A   1      34.391  33.411  30.690  1.00  0.00     0.014 A 
ATOM     32  C   UNL A   1      36.035  34.313  29.153  1.00  0.00     0.014 A 
ATOM     33  C   UNL A   1      35.418  32.846  31.449  1.00  0.00     0.010 A 
ATOM     34  C   UNL A   1      37.051  33.693  29.873  1.00  0.00     0.010 A 
ATOM     35  C   UNL A   1      36.754  32.951  31.027  1.00  0.00    -0.014 A 
BRANCH  35  36
ATOM     36  C   UNL A   1      37.852  32.281  31.769  1.00  0.00     0.031 A 
ATOM     37  C   UNL A   1      38.315  32.830  33.091  1.00  0.00     0.074 A 
ATOM     38  C   UNL A   1      38.479  31.222  31.219  1.00  0.00     0.049 A 
ATOM     39  N   UNL A   1      39.298  32.423  33.852  1.00  0.00    -0.248 NA
ATOM     40  C   UNL A   1      37.596  34.002  33.613  1.00  0.00     0.031 C 
ATOM     41  C   UNL A   1      38.153  30.622  29.922  1.00  0.00     0.029 A 
ATOM     42  N   UNL A   1      39.528  30.466  31.679  1.00  0.00    -0.354 N 
ATOM     43  C   UNL A   1      39.327  33.298  34.931  1.00  0.00     0.074 A 
ATOM     44  C   UNL A   1      38.295  34.285  34.703  1.00  0.00     0.031 C 
ATOM     45  C   UNL A   1      38.970  29.578  29.703  1.00  0.00     0.029 A 
ATOM     46  C   UNL A   1      39.900  29.457  30.821  1.00  0.00     0.049 A 
ATOM     47  H   UNL A   1      39.973  30.629  32.542  1.00  0.00     0.167 HD
ATOM     48  C   UNL A   1      40.129  33.273  36.023  1.00  0.00     0.031 A 
ATOM     49  C   UNL A   1      40.883  28.541  30.919  1.00  0.00     0.031 A 
ATOM     50  C   UNL A   1      41.147  32.283  36.254  1.00  0.00     0.049 A 
ATOM     51  C   UNL A   1      41.759  28.532  32.141  1.00  0.00     0.074 A 
ATOM     52  C   UNL A   1      41.973  32.140  37.355  1.00  0.00     0.029 A 
ATOM     53  N   UNL A   1      41.479  31.268  35.370  1.00  0.00    -0.354 N 
ATOM     54  N   UNL A   1      41.729  29.330  33.181  1.00  0.00    -0.248 NA
ATOM     55  C   UNL A   1      42.794  27.492  32.207  1.00  0.00     0.031 C 
ATOM     56  C   UNL A   1      42.836  31.064  37.117  1.00  0.00     0.029 A 
ATOM     57  C   UNL A   1      42.511  30.506  35.891  1.00  0.00     0.049 A 
ATOM     58  H   UNL A   1      41.046  31.113  34.500  1.00  0.00     0.167 HD
ATOM     59  C   UNL A   1      42.723  28.873  34.038  1.00  0.00     0.074 A 
ATOM     60  C   UNL A   1      43.327  27.720  33.401  1.00  0.00     0.031 C 
ATOM     61  C   UNL A   1      43.101  29.362  35.244  1.00  0.00     0.031 A 
BRANCH  48  62
ATOM     62  C   UNL A   1      39.933  34.356  37.052  1.00  0.00    -0.014 A 
ATOM     63  C   UNL A   1      40.594  35.592  36.938  1.00  0.00     0.010 A 
ATOM     64  C   UNL A   1      39.052  34.147  38.129  1.00  0.00     0.010 A 
ATOM     65  C   UNL A   1      40.414  36.583  37.907  1.00  0.00     0.020 A 
ATOM     66  C   UNL A   1      38.849  35.146  39.086  1.00  0.00     0.020 A 
ATOM     67  C   UNL A   1      39.546  36.351  38.978  1.00  0.00     0.054 A 
BRANCH  67  68
ATOM     68  S   UNL A   1      39.321  37.660  40.213  1.00  0.00     0.124 S 
ATOM     69  O   UNL A   1      38.928  36.894  41.394  1.00  0.00    -0.237 OA
ATOM     70  O   UNL A   1      40.645  38.274  40.277  1.00  0.00    -0.237 OA
ATOM     71  O   UNL A   1      38.274  38.501  39.640  1.00  0.00    -0.744 OA
ENDBRANCH  67  68
ENDBRANCH  48  62
BRANCH  49  72
ATOM     72  C   UNL A   1      41.077  27.543  29.832  1.00  0.00    -0.014 A 
ATOM     73  C   UNL A   1      42.298  27.474  29.137  1.00  0.00     0.010 A 
ATOM     74  C   UNL A   1      40.048  26.645  29.496  1.00  0.00     0.010 A 
ATOM     75  C   UNL A   1      42.480  26.537  28.116  1.00  0.00     0.020 A 
ATOM     76  C   UNL A   1      40.236  25.689  28.494  1.00  0.00     0.020 A 
ATOM     77  C   UNL A   1      41.448  25.649  27.801  1.00  0.00     0.054 A 
BRANCH  77  78
ATOM     78  S   UNL A   1      41.726  24.405  26.511  1.00  0.00     0.124 S 
ATOM     79  O   UNL A   1      42.786  23.591  27.097  1.00  0.00    -0.237 OA
ATOM     80  O   UNL A   1      40.419  23.762  26.404  1.00  0.00    -0.237 OA
ATOM     81  O   UNL A   1      42.116  25.201  25.348  1.00  0.00    -0.744 OA
ENDBRANCH  77  78
ENDBRANCH  49  72
BRANCH  61  82
ATOM     82  C   UNL A   1      44.198  28.635  35.974  1.00  0.00    -0.014 A 
ATOM     83  C   UNL A   1      43.909  27.610  36.892  1.00  0.00     0.010 A 
ATOM     84  C   UNL A   1      45.542  28.946  35.694  1.00  0.00     0.010 A 
ATOM     85  C   UNL A   1      44.944  26.930  37.539  1.00  0.00     0.020 A 
ATOM     86  C   UNL A   1      46.579  28.251  36.319  1.00  0.00     0.020 A 
ATOM     87  C   UNL A   1      46.273  27.255  37.250  1.00  0.00     0.054 A 
BRANCH  87  88
ATOM     88  S   UNL A   1      47.599  26.326  38.067  1.00  0.00     0.124 S 
ATOM     89  O   UNL A   1      46.906  25.760  39.222  1.00  0.00    -0.237 OA
ATOM     90  O   UNL A   1      47.999  25.366  37.042  1.00  0.00    -0.237 OA
ATOM     91  O   UNL A   1      48.596  27.348  38.379  1.00  0.00    -0.744 OA
ENDBRANCH  87  88
ENDBRANCH  61  82
ENDBRANCH  35  36
ENDBRANCH  27  30
ENDBRANCH  25  26
ENDBRANCH  24  25
ENDBRANCH   1  24
TORSDOF 17
ENDMDL
