MODEL 1
REMARK VINA RESULT:     -12.7      0.000      0.000
REMARK SMILES Cc1ccccc1CSCC(=O)Nc1ccc(C)c(C(=O)NCCCCNC(=O)c2ccc(-c3c4nc(c(-c5ccc(S(=O)(=O)[O-])cc5)c5ccc([nH]5)c(-c5ccc(S(=O)(=O)[O-])cc5)c5nc(c(-c6ccc(S(=O)(=O)[O-])cc6)c6ccc3[nH]6)C=C5)C=C4)cc2)c1
REMARK SMILES IDX 23 1 22 2 20 3 21 4 19 6 14 7 15 8 90 9 16 10 17 11 18 12
REMARK SMILES IDX 13 13 11 14 12 15 10 17 9 18 8 19 7 20 1 21 2 22 3 23 4 24
REMARK SMILES IDX 6 25 5 26 24 27 25 28 26 29 27 30 28 31 29 33 30 34 31 35
REMARK SMILES IDX 89 36 32 37 88 38 33 39 34 40 35 41 82 42 36 43 87 44 81 45
REMARK SMILES IDX 83 46 37 47 86 48 80 49 79 50 38 52 68 53 49 54 67 55 50 56
REMARK SMILES IDX 53 57 66 58 84 59 51 60 52 61 65 63 85 64 54 65 39 66 40 67
REMARK SMILES IDX 48 68 41 69 47 70 42 71 43 72 44 73 45 74 46 75 69 76 70 77
REMARK SMILES IDX 78 78 71 79 77 80 72 81 73 82 74 83 75 84 76 85 55 86 56 87
REMARK SMILES IDX 64 88 57 89 63 90 58 91 59 92 60 93 61 94 62 95
REMARK H PARENT 22 5 13 16 27 32 83 51 53 62
REMARK Flexibility Score: inf
ROOT
ATOM      1  C   UNL A   1      38.951  22.304  26.123  1.00  0.00     0.116 C 
ENDROOT
BRANCH   1   2
ATOM      2  N   UNL A   1      38.085  21.832  25.038  1.00  0.00    -0.352 N 
ATOM      3  C   UNL A   1      36.982  22.527  24.560  1.00  0.00     0.251 C 
ATOM      4  O   UNL A   1      36.956  22.925  23.394  1.00  0.00    -0.269 OA
ATOM      5  H   UNL A   1      38.300  20.966  24.620  1.00  0.00     0.163 HD
BRANCH   3   6
ATOM      6  C   UNL A   1      35.702  22.428  25.296  1.00  0.00     0.044 A 
ATOM      7  C   UNL A   1      34.093  20.879  26.201  1.00  0.00     0.042 A 
ATOM      8  C   UNL A   1      33.614  21.889  27.019  1.00  0.00     0.026 A 
ATOM      9  C   UNL A   1      35.223  21.114  25.440  1.00  0.00     0.040 A 
ATOM     10  C   UNL A   1      34.004  23.199  26.805  1.00  0.00     0.006 A 
ATOM     11  C   UNL A   1      34.959  23.487  25.832  1.00  0.00    -0.038 A 
ATOM     12  C   UNL A   1      35.015  24.896  25.350  1.00  0.00     0.045 C 
BRANCH   7  13
ATOM     13  N   UNL A   1      33.477  19.631  26.166  1.00  0.00    -0.325 N 
ATOM     14  C   UNL A   1      32.631  19.147  25.198  1.00  0.00     0.234 C 
ATOM     15  O   UNL A   1      32.007  18.110  25.450  1.00  0.00    -0.274 OA
ATOM     16  H   UNL A   1      33.669  19.027  26.920  1.00  0.00     0.169 HD
BRANCH  14  17
ATOM     17  C   UNL A   1      32.651  19.706  23.773  1.00  0.00     0.170 C 
BRANCH  17  18
ATOM     18  S   UNL A   1      32.642  21.497  23.516  1.00  0.00    -0.147 SA
BRANCH  18  19
ATOM     19  C   UNL A   1      31.157  22.003  24.443  1.00  0.00     0.105 C 
BRANCH  19  20
ATOM     20  C   UNL A   1      31.123  23.485  24.694  1.00  0.00    -0.035 A 
ATOM     21  C   UNL A   1      29.998  23.307  27.008  1.00  0.00     0.044 C 
ATOM     22  C   UNL A   1      30.553  24.073  25.838  1.00  0.00    -0.047 A 
ATOM     23  C   UNL A   1      30.476  25.476  25.905  1.00  0.00     0.004 A 
ATOM     24  C   UNL A   1      30.990  26.283  24.891  1.00  0.00     0.000 A 
ATOM     25  C   UNL A   1      31.685  24.319  23.703  1.00  0.00     0.005 A 
ATOM     26  C   UNL A   1      31.615  25.703  23.796  1.00  0.00     0.000 A 
ENDBRANCH  19  20
ENDBRANCH  18  19
ENDBRANCH  17  18
ENDBRANCH  14  17
ENDBRANCH   7  13
ENDBRANCH   3   6
ENDBRANCH   1   2
BRANCH   1  27
ATOM     27  C   UNL A   1      40.070  21.456  26.869  1.00  0.00     0.023 C 
BRANCH  27  28
ATOM     28  C   UNL A   1      41.307  22.151  27.826  1.00  0.00     0.023 C 
BRANCH  28  29
ATOM     29  C   UNL A   1      42.685  22.876  27.280  1.00  0.00     0.116 C 
BRANCH  29  30
ATOM     30  N   UNL A   1      42.801  24.216  26.322  1.00  0.00    -0.352 N 
ATOM     31  C   UNL A   1      42.449  25.632  26.133  1.00  0.00     0.251 C 
ATOM     32  H   UNL A   1      43.338  23.954  25.538  1.00  0.00     0.163 HD
ATOM     33  O   UNL A   1      43.387  26.282  25.624  1.00  0.00    -0.269 OA
BRANCH  31  34
ATOM     34  C   UNL A   1      41.197  26.569  26.457  1.00  0.00     0.039 A 
ATOM     35  C   UNL A   1      41.035  27.847  25.866  1.00  0.00     0.014 A 
ATOM     36  C   UNL A   1      40.161  26.277  27.335  1.00  0.00     0.014 A 
ATOM     37  C   UNL A   1      40.447  28.920  26.621  1.00  0.00     0.010 A 
ATOM     38  C   UNL A   1      39.566  27.327  28.095  1.00  0.00     0.010 A 
ATOM     39  C   UNL A   1      39.887  28.671  27.876  1.00  0.00    -0.014 A 
BRANCH  39  40
ATOM     40  C   UNL A   1      39.762  29.701  28.975  1.00  0.00     0.031 A 
ATOM     41  C   UNL A   1      38.704  30.706  28.974  1.00  0.00     0.074 A 
ATOM     42  C   UNL A   1      40.498  29.790  30.120  1.00  0.00     0.049 A 
ATOM     43  N   UNL A   1      38.917  31.981  29.050  1.00  0.00    -0.248 NA
ATOM     44  C   UNL A   1      37.305  30.314  29.025  1.00  0.00     0.031 C 
ATOM     45  C   UNL A   1      40.402  30.651  31.314  1.00  0.00     0.029 A 
ATOM     46  N   UNL A   1      41.561  28.995  30.484  1.00  0.00    -0.354 N 
ATOM     47  C   UNL A   1      37.727  32.520  29.481  1.00  0.00     0.074 A 
ATOM     48  C   UNL A   1      36.724  31.495  29.261  1.00  0.00     0.031 C 
ATOM     49  C   UNL A   1      41.543  30.559  32.034  1.00  0.00     0.029 A 
ATOM     50  C   UNL A   1      42.439  29.659  31.337  1.00  0.00     0.049 A 
ATOM     51  H   UNL A   1      41.686  28.069  30.178  1.00  0.00     0.167 HD
ATOM     52  C   UNL A   1      37.681  33.630  30.275  1.00  0.00     0.031 A 
ATOM     53  C   UNL A   1      43.732  29.841  30.930  1.00  0.00     0.031 A 
ATOM     54  C   UNL A   1      38.992  33.978  30.838  1.00  0.00     0.049 A 
ATOM     55  C   UNL A   1      43.946  31.272  30.548  1.00  0.00     0.074 A 
ATOM     56  C   UNL A   1      39.490  33.900  32.132  1.00  0.00     0.029 A 
ATOM     57  N   UNL A   1      40.095  34.184  30.017  1.00  0.00    -0.354 N 
ATOM     58  N   UNL A   1      42.988  32.148  30.578  1.00  0.00    -0.248 NA
ATOM     59  C   UNL A   1      45.204  31.856  30.099  1.00  0.00     0.031 C 
ATOM     60  C   UNL A   1      40.901  34.019  32.079  1.00  0.00     0.029 A 
ATOM     61  C   UNL A   1      41.266  34.194  30.756  1.00  0.00     0.049 A 
ATOM     62  H   UNL A   1      40.050  34.306  29.041  1.00  0.00     0.167 HD
ATOM     63  C   UNL A   1      43.430  33.363  30.167  1.00  0.00     0.074 A 
ATOM     64  C   UNL A   1      44.838  33.136  29.891  1.00  0.00     0.031 C 
ATOM     65  C   UNL A   1      42.563  34.415  30.112  1.00  0.00     0.031 A 
BRANCH  52  66
ATOM     66  C   UNL A   1      36.372  34.177  30.809  1.00  0.00    -0.014 A 
ATOM     67  C   UNL A   1      35.271  34.387  29.957  1.00  0.00     0.010 A 
ATOM     68  C   UNL A   1      36.161  34.453  32.178  1.00  0.00     0.010 A 
ATOM     69  C   UNL A   1      34.062  34.925  30.420  1.00  0.00     0.020 A 
ATOM     70  C   UNL A   1      34.972  35.030  32.650  1.00  0.00     0.020 A 
ATOM     71  C   UNL A   1      33.926  35.261  31.764  1.00  0.00     0.054 A 
BRANCH  71  72
ATOM     72  S   UNL A   1      32.352  35.950  32.339  1.00  0.00     0.124 S 
ATOM     73  O   UNL A   1      31.647  34.769  32.830  1.00  0.00    -0.237 OA
ATOM     74  O   UNL A   1      32.783  36.896  33.364  1.00  0.00    -0.237 OA
ATOM     75  O   UNL A   1      31.778  36.556  31.140  1.00  0.00    -0.744 OA
ENDBRANCH  71  72
ENDBRANCH  52  66
BRANCH  53  76
ATOM     76  C   UNL A   1      44.348  28.614  30.266  1.00  0.00    -0.014 A 
ATOM     77  C   UNL A   1      43.691  28.270  29.077  1.00  0.00     0.010 A 
ATOM     78  C   UNL A   1      45.740  28.559  30.204  1.00  0.00     0.010 A 
ATOM     79  C   UNL A   1      44.283  28.681  27.881  1.00  0.00     0.020 A 
ATOM     80  C   UNL A   1      46.345  28.814  28.962  1.00  0.00     0.020 A 
ATOM     81  C   UNL A   1      45.582  29.182  27.878  1.00  0.00     0.054 A 
BRANCH  81  82
ATOM     82  S   UNL A   1      45.949  30.526  26.582  1.00  0.00     0.124 S 
ATOM     83  O   UNL A   1      44.622  31.011  26.473  1.00  0.00    -0.237 OA
ATOM     84  O   UNL A   1      46.803  31.530  27.182  1.00  0.00    -0.237 OA
ATOM     85  O   UNL A   1      46.369  29.987  25.310  1.00  0.00    -0.744 OA
ENDBRANCH  81  82
ENDBRANCH  53  76
BRANCH  65  86
ATOM     86  C   UNL A   1      42.846  35.788  29.567  1.00  0.00    -0.014 A 
ATOM     87  C   UNL A   1      43.726  36.711  30.143  1.00  0.00     0.010 A 
ATOM     88  C   UNL A   1      42.237  36.160  28.341  1.00  0.00     0.010 A 
ATOM     89  C   UNL A   1      43.939  37.967  29.559  1.00  0.00     0.020 A 
ATOM     90  C   UNL A   1      42.481  37.384  27.724  1.00  0.00     0.020 A 
ATOM     91  C   UNL A   1      43.313  38.295  28.355  1.00  0.00     0.054 A 
BRANCH  91  92
ATOM     92  S   UNL A   1      43.628  39.907  27.607  1.00  0.00     0.124 S 
ATOM     93  O   UNL A   1      42.374  40.608  27.865  1.00  0.00    -0.237 OA
ATOM     94  O   UNL A   1      44.783  40.390  28.362  1.00  0.00    -0.237 OA
ATOM     95  O   UNL A   1      43.895  39.595  26.206  1.00  0.00    -0.744 OA
ENDBRANCH  91  92
ENDBRANCH  65  86
ENDBRANCH  39  40
ENDBRANCH  31  34
ENDBRANCH  29  30
ENDBRANCH  28  29
ENDBRANCH  27  28
ENDBRANCH   1  27
TORSDOF 19
ENDMDL
MODEL 2
REMARK VINA RESULT:     -12.6      1.797      2.765
REMARK SMILES Cc1ccccc1CSCC(=O)Nc1ccc(C)c(C(=O)NCCCCNC(=O)c2ccc(-c3c4nc(c(-c5ccc(S(=O)(=O)[O-])cc5)c5ccc([nH]5)c(-c5ccc(S(=O)(=O)[O-])cc5)c5nc(c(-c6ccc(S(=O)(=O)[O-])cc6)c6ccc3[nH]6)C=C5)C=C4)cc2)c1
REMARK SMILES IDX 23 1 22 2 20 3 21 4 19 6 14 7 15 8 90 9 16 10 17 11 18 12
REMARK SMILES IDX 13 13 11 14 12 15 10 17 9 18 8 19 7 20 1 21 2 22 3 23 4 24
REMARK SMILES IDX 6 25 5 26 24 27 25 28 26 29 27 30 28 31 29 33 30 34 31 35
REMARK SMILES IDX 89 36 32 37 88 38 33 39 34 40 35 41 82 42 36 43 87 44 81 45
REMARK SMILES IDX 83 46 37 47 86 48 80 49 79 50 38 52 68 53 49 54 67 55 50 56
REMARK SMILES IDX 53 57 66 58 84 59 51 60 52 61 65 63 85 64 54 65 39 66 40 67
REMARK SMILES IDX 48 68 41 69 47 70 42 71 43 72 44 73 45 74 46 75 69 76 70 77
REMARK SMILES IDX 78 78 71 79 77 80 72 81 73 82 74 83 75 84 76 85 55 86 56 87
REMARK SMILES IDX 64 88 57 89 63 90 58 91 59 92 60 93 61 94 62 95
REMARK H PARENT 22 5 13 16 27 32 83 51 53 62
REMARK Flexibility Score: inf
ROOT
ATOM      1  C   UNL A   1      36.752  22.826  26.090  1.00  0.00     0.116 C 
ENDROOT
BRANCH   1   2
ATOM      2  N   UNL A   1      35.564  22.027  26.409  1.00  0.00    -0.352 N 
ATOM      3  C   UNL A   1      34.687  21.519  25.461  1.00  0.00     0.251 C 
ATOM      4  O   UNL A   1      34.546  20.301  25.336  1.00  0.00    -0.269 OA
ATOM      5  H   UNL A   1      35.377  21.839  27.357  1.00  0.00     0.163 HD
BRANCH   3   6
ATOM      6  C   UNL A   1      33.641  22.408  24.907  1.00  0.00     0.044 A 
ATOM      7  C   UNL A   1      32.884  23.506  22.901  1.00  0.00     0.042 A 
ATOM      8  C   UNL A   1      31.632  23.647  23.476  1.00  0.00     0.026 A 
ATOM      9  C   UNL A   1      33.847  22.768  23.564  1.00  0.00     0.040 A 
ATOM     10  C   UNL A   1      31.457  23.396  24.825  1.00  0.00     0.006 A 
ATOM     11  C   UNL A   1      32.518  22.902  25.582  1.00  0.00    -0.038 A 
ATOM     12  C   UNL A   1      32.415  23.066  27.059  1.00  0.00     0.045 C 
BRANCH   7  13
ATOM     13  N   UNL A   1      33.168  24.064  21.656  1.00  0.00    -0.325 N 
ATOM     14  C   UNL A   1      32.784  25.297  21.190  1.00  0.00     0.234 C 
ATOM     15  O   UNL A   1      32.937  25.524  19.984  1.00  0.00    -0.274 OA
ATOM     16  H   UNL A   1      33.706  23.512  21.043  1.00  0.00     0.169 HD
BRANCH  14  17
ATOM     17  C   UNL A   1      32.428  26.435  22.148  1.00  0.00     0.170 C 
BRANCH  17  18
ATOM     18  S   UNL A   1      33.649  27.725  22.495  1.00  0.00    -0.147 SA
BRANCH  18  19
ATOM     19  C   UNL A   1      32.668  28.923  23.454  1.00  0.00     0.105 C 
BRANCH  19  20
ATOM     20  C   UNL A   1      32.200  28.353  24.765  1.00  0.00    -0.035 A 
ATOM     21  C   UNL A   1      33.722  29.840  26.225  1.00  0.00     0.044 C 
ATOM     22  C   UNL A   1      32.716  28.740  26.016  1.00  0.00    -0.047 A 
ATOM     23  C   UNL A   1      32.283  28.051  27.163  1.00  0.00     0.004 A 
ATOM     24  C   UNL A   1      31.329  27.037  27.087  1.00  0.00     0.000 A 
ATOM     25  C   UNL A   1      31.197  27.361  24.715  1.00  0.00     0.005 A 
ATOM     26  C   UNL A   1      30.769  26.705  25.862  1.00  0.00     0.000 A 
ENDBRANCH  19  20
ENDBRANCH  18  19
ENDBRANCH  17  18
ENDBRANCH  14  17
ENDBRANCH   7  13
ENDBRANCH   3   6
ENDBRANCH   1   2
BRANCH   1  27
ATOM     27  C   UNL A   1      37.982  22.365  25.194  1.00  0.00     0.023 C 
BRANCH  27  28
ATOM     28  C   UNL A   1      39.137  21.205  25.692  1.00  0.00     0.023 C 
BRANCH  28  29
ATOM     29  C   UNL A   1      40.523  21.495  26.541  1.00  0.00     0.116 C 
BRANCH  29  30
ATOM     30  N   UNL A   1      41.438  22.870  26.526  1.00  0.00    -0.352 N 
ATOM     31  C   UNL A   1      41.530  24.295  26.881  1.00  0.00     0.251 C 
ATOM     32  H   UNL A   1      42.289  22.635  26.091  1.00  0.00     0.163 HD
ATOM     33  O   UNL A   1      42.675  24.604  27.274  1.00  0.00    -0.269 OA
BRANCH  31  34
ATOM     34  C   UNL A   1      40.533  25.541  26.946  1.00  0.00     0.039 A 
ATOM     35  C   UNL A   1      40.829  26.781  26.326  1.00  0.00     0.014 A 
ATOM     36  C   UNL A   1      39.311  25.579  27.605  1.00  0.00     0.014 A 
ATOM     37  C   UNL A   1      40.416  28.012  26.943  1.00  0.00     0.010 A 
ATOM     38  C   UNL A   1      38.884  26.790  28.227  1.00  0.00     0.010 A 
ATOM     39  C   UNL A   1      39.584  27.990  28.066  1.00  0.00    -0.014 A 
BRANCH  39  40
ATOM     40  C   UNL A   1      39.532  29.080  29.112  1.00  0.00     0.031 A 
ATOM     41  C   UNL A   1      38.540  30.148  29.064  1.00  0.00     0.074 A 
ATOM     42  C   UNL A   1      40.282  29.180  30.247  1.00  0.00     0.049 A 
ATOM     43  N   UNL A   1      38.832  31.409  29.075  1.00  0.00    -0.248 NA
ATOM     44  C   UNL A   1      37.119  29.848  29.142  1.00  0.00     0.031 C 
ATOM     45  C   UNL A   1      40.249  30.104  31.396  1.00  0.00     0.029 A 
ATOM     46  N   UNL A   1      41.296  28.340  30.646  1.00  0.00    -0.354 N 
ATOM     47  C   UNL A   1      37.681  32.043  29.483  1.00  0.00     0.074 A 
ATOM     48  C   UNL A   1      36.614  31.072  29.320  1.00  0.00     0.031 C 
ATOM     49  C   UNL A   1      41.388  29.977  32.114  1.00  0.00     0.029 A 
ATOM     50  C   UNL A   1      42.220  28.989  31.460  1.00  0.00     0.049 A 
ATOM     51  H   UNL A   1      41.361  27.393  30.386  1.00  0.00     0.167 HD
ATOM     52  C   UNL A   1      37.711  33.192  30.220  1.00  0.00     0.031 A 
ATOM     53  C   UNL A   1      43.519  29.069  31.037  1.00  0.00     0.031 A 
ATOM     54  C   UNL A   1      39.045  33.485  30.758  1.00  0.00     0.049 A 
ATOM     55  C   UNL A   1      43.819  30.463  30.582  1.00  0.00     0.074 A 
ATOM     56  C   UNL A   1      39.548  33.441  32.052  1.00  0.00     0.029 A 
ATOM     57  N   UNL A   1      40.153  33.580  29.923  1.00  0.00    -0.354 N 
ATOM     58  N   UNL A   1      42.917  31.397  30.573  1.00  0.00    -0.248 NA
ATOM     59  C   UNL A   1      45.107  30.943  30.099  1.00  0.00     0.031 C 
ATOM     60  C   UNL A   1      40.964  33.469  31.986  1.00  0.00     0.029 A 
ATOM     61  C   UNL A   1      41.328  33.554  30.655  1.00  0.00     0.049 A 
ATOM     62  H   UNL A   1      40.108  33.655  28.942  1.00  0.00     0.167 HD
ATOM     63  C   UNL A   1      43.431  32.560  30.098  1.00  0.00     0.074 A 
ATOM     64  C   UNL A   1      44.820  32.232  29.827  1.00  0.00     0.031 C 
ATOM     65  C   UNL A   1      42.631  33.661  29.994  1.00  0.00     0.031 A 
BRANCH  52  66
ATOM     66  C   UNL A   1      36.442  33.846  30.732  1.00  0.00    -0.014 A 
ATOM     67  C   UNL A   1      35.345  34.070  29.878  1.00  0.00     0.010 A 
ATOM     68  C   UNL A   1      36.265  34.215  32.083  1.00  0.00     0.010 A 
ATOM     69  C   UNL A   1      34.176  34.704  30.318  1.00  0.00     0.020 A 
ATOM     70  C   UNL A   1      35.118  34.888  32.530  1.00  0.00     0.020 A 
ATOM     71  C   UNL A   1      34.076  35.127  31.641  1.00  0.00     0.054 A 
BRANCH  71  72
ATOM     72  S   UNL A   1      32.553  35.941  32.188  1.00  0.00     0.124 S 
ATOM     73  O   UNL A   1      33.041  36.908  33.168  1.00  0.00    -0.237 OA
ATOM     74  O   UNL A   1      32.040  36.510  30.944  1.00  0.00    -0.237 OA
ATOM     75  O   UNL A   1      31.755  34.850  32.744  1.00  0.00    -0.744 OA
ENDBRANCH  71  72
ENDBRANCH  52  66
BRANCH  53  76
ATOM     76  C   UNL A   1      44.053  27.774  30.434  1.00  0.00    -0.014 A 
ATOM     77  C   UNL A   1      43.362  27.409  29.270  1.00  0.00     0.010 A 
ATOM     78  C   UNL A   1      45.437  27.631  30.364  1.00  0.00     0.010 A 
ATOM     79  C   UNL A   1      43.965  27.721  28.050  1.00  0.00     0.020 A 
ATOM     80  C   UNL A   1      46.043  27.784  29.104  1.00  0.00     0.020 A 
ATOM     81  C   UNL A   1      45.291  28.141  28.009  1.00  0.00     0.054 A 
BRANCH  81  82
ATOM     82  S   UNL A   1      45.723  29.391  26.642  1.00  0.00     0.124 S 
ATOM     83  O   UNL A   1      44.516  30.130  26.712  1.00  0.00    -0.237 OA
ATOM     84  O   UNL A   1      46.836  30.203  27.088  1.00  0.00    -0.237 OA
ATOM     85  O   UNL A   1      45.840  28.785  25.337  1.00  0.00    -0.744 OA
ENDBRANCH  81  82
ENDBRANCH  53  76
BRANCH  65  86
ATOM     86  C   UNL A   1      42.995  34.983  29.378  1.00  0.00    -0.014 A 
ATOM     87  C   UNL A   1      43.416  36.110  30.093  1.00  0.00     0.010 A 
ATOM     88  C   UNL A   1      42.981  35.090  27.964  1.00  0.00     0.010 A 
ATOM     89  C   UNL A   1      43.747  37.302  29.434  1.00  0.00     0.020 A 
ATOM     90  C   UNL A   1      43.358  36.251  27.295  1.00  0.00     0.020 A 
ATOM     91  C   UNL A   1      43.713  37.364  28.041  1.00  0.00     0.054 A 
BRANCH  91  92
ATOM     92  S   UNL A   1      44.173  38.902  27.215  1.00  0.00     0.124 S 
ATOM     93  O   UNL A   1      44.423  39.788  28.347  1.00  0.00    -0.237 OA
ATOM     94  O   UNL A   1      45.357  38.512  26.451  1.00  0.00    -0.237 OA
ATOM     95  O   UNL A   1      43.001  39.229  26.408  1.00  0.00    -0.744 OA
ENDBRANCH  91  92
ENDBRANCH  65  86
ENDBRANCH  39  40
ENDBRANCH  31  34
ENDBRANCH  29  30
ENDBRANCH  28  29
ENDBRANCH  27  28
ENDBRANCH   1  27
TORSDOF 19
ENDMDL
MODEL 3
REMARK VINA RESULT:     -12.1      3.319      4.546
REMARK SMILES Cc1ccccc1CSCC(=O)Nc1ccc(C)c(C(=O)NCCCCNC(=O)c2ccc(-c3c4nc(c(-c5ccc(S(=O)(=O)[O-])cc5)c5ccc([nH]5)c(-c5ccc(S(=O)(=O)[O-])cc5)c5nc(c(-c6ccc(S(=O)(=O)[O-])cc6)c6ccc3[nH]6)C=C5)C=C4)cc2)c1
REMARK SMILES IDX 23 1 22 2 20 3 21 4 19 6 14 7 15 8 90 9 16 10 17 11 18 12
REMARK SMILES IDX 13 13 11 14 12 15 10 17 9 18 8 19 7 20 1 21 2 22 3 23 4 24
REMARK SMILES IDX 6 25 5 26 24 27 25 28 26 29 27 30 28 31 29 33 30 34 31 35
REMARK SMILES IDX 89 36 32 37 88 38 33 39 34 40 35 41 82 42 36 43 87 44 81 45
REMARK SMILES IDX 83 46 37 47 86 48 80 49 79 50 38 52 68 53 49 54 67 55 50 56
REMARK SMILES IDX 53 57 66 58 84 59 51 60 52 61 65 63 85 64 54 65 39 66 40 67
REMARK SMILES IDX 48 68 41 69 47 70 42 71 43 72 44 73 45 74 46 75 69 76 70 77
REMARK SMILES IDX 78 78 71 79 77 80 72 81 73 82 74 83 75 84 76 85 55 86 56 87
REMARK SMILES IDX 64 88 57 89 63 90 58 91 59 92 60 93 61 94 62 95
REMARK H PARENT 22 5 13 16 27 32 83 51 53 62
REMARK Flexibility Score: inf
ROOT
ATOM      1  C   UNL A   1      35.152  23.247  23.058  1.00  0.00     0.116 C 
ENDROOT
BRANCH   1   2
ATOM      2  N   UNL A   1      33.960  23.933  22.550  1.00  0.00    -0.352 N 
ATOM      3  C   UNL A   1      33.782  25.310  22.571  1.00  0.00     0.251 C 
ATOM      4  O   UNL A   1      33.669  25.937  21.516  1.00  0.00    -0.269 OA
ATOM      5  H   UNL A   1      33.238  23.382  22.169  1.00  0.00     0.163 HD
BRANCH   3   6
ATOM      6  C   UNL A   1      33.319  25.951  23.822  1.00  0.00     0.044 A 
ATOM      7  C   UNL A   1      32.173  25.552  25.904  1.00  0.00     0.042 A 
ATOM      8  C   UNL A   1      32.740  26.710  26.412  1.00  0.00     0.026 A 
ATOM      9  C   UNL A   1      32.570  25.104  24.658  1.00  0.00     0.040 A 
ATOM     10  C   UNL A   1      33.383  27.596  25.567  1.00  0.00     0.006 A 
ATOM     11  C   UNL A   1      33.551  27.273  24.221  1.00  0.00    -0.038 A 
ATOM     12  C   UNL A   1      33.838  28.405  23.296  1.00  0.00     0.045 C 
BRANCH   7  13
ATOM     13  N   UNL A   1      31.245  24.823  26.643  1.00  0.00    -0.325 N 
ATOM     14  C   UNL A   1      31.402  23.563  27.165  1.00  0.00     0.234 C 
ATOM     15  O   UNL A   1      30.393  22.992  27.595  1.00  0.00    -0.274 OA
ATOM     16  H   UNL A   1      30.379  25.261  26.811  1.00  0.00     0.169 HD
BRANCH  14  17
ATOM     17  C   UNL A   1      32.791  22.987  27.449  1.00  0.00     0.170 C 
BRANCH  17  18
ATOM     18  S   UNL A   1      33.238  21.364  26.787  1.00  0.00    -0.147 SA
BRANCH  18  19
ATOM     19  C   UNL A   1      32.383  21.365  25.178  1.00  0.00     0.105 C 
BRANCH  19  20
ATOM     20  C   UNL A   1      32.578  20.075  24.431  1.00  0.00    -0.035 A 
ATOM     21  C   UNL A   1      31.882  21.024  22.136  1.00  0.00     0.044 C 
ATOM     22  C   UNL A   1      32.304  19.914  23.060  1.00  0.00    -0.047 A 
ATOM     23  C   UNL A   1      32.413  18.629  22.499  1.00  0.00     0.004 A 
ATOM     24  C   UNL A   1      32.829  17.536  23.258  1.00  0.00     0.000 A 
ATOM     25  C   UNL A   1      33.047  18.967  25.170  1.00  0.00     0.005 A 
ATOM     26  C   UNL A   1      33.166  17.709  24.593  1.00  0.00     0.000 A 
ENDBRANCH  19  20
ENDBRANCH  18  19
ENDBRANCH  17  18
ENDBRANCH  14  17
ENDBRANCH   7  13
ENDBRANCH   3   6
ENDBRANCH   1   2
BRANCH   1  27
ATOM     27  C   UNL A   1      35.797  23.426  24.500  1.00  0.00     0.023 C 
BRANCH  27  28
ATOM     28  C   UNL A   1      37.317  22.780  24.946  1.00  0.00     0.023 C 
BRANCH  28  29
ATOM     29  C   UNL A   1      38.343  23.376  26.094  1.00  0.00     0.116 C 
BRANCH  29  30
ATOM     30  N   UNL A   1      39.008  24.887  26.156  1.00  0.00    -0.352 N 
ATOM     31  C   UNL A   1      39.842  25.838  26.907  1.00  0.00     0.251 C 
ATOM     32  H   UNL A   1      38.723  25.352  25.336  1.00  0.00     0.163 HD
ATOM     33  O   UNL A   1      40.565  26.522  26.153  1.00  0.00    -0.269 OA
BRANCH  31  34
ATOM     34  C   UNL A   1      40.103  26.190  28.444  1.00  0.00     0.039 A 
ATOM     35  C   UNL A   1      39.110  26.017  29.440  1.00  0.00     0.014 A 
ATOM     36  C   UNL A   1      41.277  26.707  28.977  1.00  0.00     0.014 A 
ATOM     37  C   UNL A   1      39.020  26.943  30.536  1.00  0.00     0.010 A 
ATOM     38  C   UNL A   1      41.210  27.629  30.063  1.00  0.00     0.010 A 
ATOM     39  C   UNL A   1      40.006  27.917  30.715  1.00  0.00    -0.014 A 
BRANCH  39  40
ATOM     40  C   UNL A   1      39.784  29.239  31.412  1.00  0.00     0.031 A 
ATOM     41  C   UNL A   1      38.774  30.190  30.960  1.00  0.00     0.074 A 
ATOM     42  C   UNL A   1      40.375  29.686  32.557  1.00  0.00     0.049 A 
ATOM     43  N   UNL A   1      39.023  31.424  30.662  1.00  0.00    -0.248 NA
ATOM     44  C   UNL A   1      37.365  29.829  30.949  1.00  0.00     0.031 C 
ATOM     45  C   UNL A   1      40.164  30.878  33.399  1.00  0.00     0.029 A 
ATOM     46  N   UNL A   1      41.354  29.050  33.285  1.00  0.00    -0.354 N 
ATOM     47  C   UNL A   1      37.809  32.068  30.744  1.00  0.00     0.074 A 
ATOM     48  C   UNL A   1      36.803  31.022  30.727  1.00  0.00     0.031 C 
ATOM     49  C   UNL A   1      41.203  31.021  34.254  1.00  0.00     0.029 A 
ATOM     50  C   UNL A   1      42.144  29.951  33.995  1.00  0.00     0.049 A 
ATOM     51  H   UNL A   1      41.482  28.075  33.302  1.00  0.00     0.167 HD
ATOM     52  C   UNL A   1      37.707  33.371  31.139  1.00  0.00     0.031 A 
ATOM     53  C   UNL A   1      43.483  30.000  33.722  1.00  0.00     0.031 A 
ATOM     54  C   UNL A   1      38.950  33.882  31.731  1.00  0.00     0.049 A 
ATOM     55  C   UNL A   1      43.797  31.240  32.944  1.00  0.00     0.074 A 
ATOM     56  C   UNL A   1      39.280  34.217  33.038  1.00  0.00     0.029 A 
ATOM     57  N   UNL A   1      40.153  33.824  31.037  1.00  0.00    -0.354 N 
ATOM     58  N   UNL A   1      42.875  32.077  32.576  1.00  0.00    -0.248 NA
ATOM     59  C   UNL A   1      45.121  31.657  32.503  1.00  0.00     0.031 C 
ATOM     60  C   UNL A   1      40.691  34.318  33.133  1.00  0.00     0.029 A 
ATOM     61  C   UNL A   1      41.223  34.070  31.881  1.00  0.00     0.049 A 
ATOM     62  H   UNL A   1      40.234  33.633  30.075  1.00  0.00     0.167 HD
ATOM     63  C   UNL A   1      43.411  33.103  31.867  1.00  0.00     0.074 A 
ATOM     64  C   UNL A   1      44.832  32.806  31.860  1.00  0.00     0.031 C 
ATOM     65  C   UNL A   1      42.597  34.082  31.374  1.00  0.00     0.031 A 
BRANCH  52  66
ATOM     66  C   UNL A   1      36.363  34.053  31.302  1.00  0.00    -0.014 A 
ATOM     67  C   UNL A   1      35.989  34.640  32.526  1.00  0.00     0.010 A 
ATOM     68  C   UNL A   1      35.441  34.188  30.241  1.00  0.00     0.010 A 
ATOM     69  C   UNL A   1      34.739  35.244  32.712  1.00  0.00     0.020 A 
ATOM     70  C   UNL A   1      34.169  34.753  30.421  1.00  0.00     0.020 A 
ATOM     71  C   UNL A   1      33.826  35.281  31.661  1.00  0.00     0.054 A 
BRANCH  71  72
ATOM     72  S   UNL A   1      32.218  36.072  31.924  1.00  0.00     0.124 S 
ATOM     73  O   UNL A   1      31.445  35.015  32.572  1.00  0.00    -0.237 OA
ATOM     74  O   UNL A   1      32.565  37.208  32.774  1.00  0.00    -0.237 OA
ATOM     75  O   UNL A   1      31.776  36.420  30.575  1.00  0.00    -0.744 OA
ENDBRANCH  71  72
ENDBRANCH  52  66
BRANCH  53  76
ATOM     76  C   UNL A   1      44.131  28.629  33.561  1.00  0.00    -0.014 A 
ATOM     77  C   UNL A   1      44.948  28.298  34.651  1.00  0.00     0.010 A 
ATOM     78  C   UNL A   1      43.318  27.594  33.101  1.00  0.00     0.010 A 
ATOM     79  C   UNL A   1      44.403  27.450  35.618  1.00  0.00     0.020 A 
ATOM     80  C   UNL A   1      42.893  26.637  34.039  1.00  0.00     0.020 A 
ATOM     81  C   UNL A   1      43.210  26.778  35.370  1.00  0.00     0.054 A 
BRANCH  81  82
ATOM     82  S   UNL A   1      42.096  26.483  36.883  1.00  0.00     0.124 S 
ATOM     83  O   UNL A   1      41.347  27.681  36.768  1.00  0.00    -0.237 OA
ATOM     84  O   UNL A   1      41.251  25.336  36.622  1.00  0.00    -0.237 OA
ATOM     85  O   UNL A   1      42.822  26.489  38.131  1.00  0.00    -0.744 OA
ENDBRANCH  81  82
ENDBRANCH  53  76
BRANCH  65  86
ATOM     86  C   UNL A   1      42.997  35.215  30.469  1.00  0.00    -0.014 A 
ATOM     87  C   UNL A   1      42.641  35.325  29.121  1.00  0.00     0.010 A 
ATOM     88  C   UNL A   1      43.732  36.291  31.029  1.00  0.00     0.010 A 
ATOM     89  C   UNL A   1      43.051  36.423  28.353  1.00  0.00     0.020 A 
ATOM     90  C   UNL A   1      44.100  37.412  30.289  1.00  0.00     0.020 A 
ATOM     91  C   UNL A   1      43.779  37.456  28.942  1.00  0.00     0.054 A 
BRANCH  91  92
ATOM     92  S   UNL A   1      44.268  38.876  27.939  1.00  0.00     0.124 S 
ATOM     93  O   UNL A   1      43.613  39.977  28.638  1.00  0.00    -0.237 OA
ATOM     94  O   UNL A   1      45.726  38.849  28.036  1.00  0.00    -0.237 OA
ATOM     95  O   UNL A   1      43.733  38.568  26.615  1.00  0.00    -0.744 OA
ENDBRANCH  91  92
ENDBRANCH  65  86
ENDBRANCH  39  40
ENDBRANCH  31  34
ENDBRANCH  29  30
ENDBRANCH  28  29
ENDBRANCH  27  28
ENDBRANCH   1  27
TORSDOF 19
ENDMDL
