MODEL 1
REMARK VINA RESULT:     -11.2      0.000      0.000
REMARK SMILES O=C(Cc1ccccc1-c1ccn(C(F)F)c(=O)c1)NCCCCNC(=O)c1ccc(-c2c3nc(c(-c4ccc(S(=O)(=O)[O-])cc4)c4ccc([nH]4)c(-c4ccc(S(=O)(=O)[O-])cc4)c4nc(c(-c5ccc(S(=O)(=O)[O-])cc5)c5ccc2[nH]5)C=C4)C=C3)cc1
REMARK SMILES IDX 22 1 21 2 20 3 1 4 2 5 3 7 4 8 5 9 9 10 6 11 8 12 7 13 10 14
REMARK SMILES IDX 11 15 19 16 12 17 17 18 13 19 18 20 14 21 15 22 16 23 23 24
REMARK SMILES IDX 24 25 25 26 26 27 27 29 28 30 29 31 87 32 30 33 86 34 31 35
REMARK SMILES IDX 32 36 33 37 80 38 34 39 85 40 79 41 81 42 35 43 84 44 78 45
REMARK SMILES IDX 77 46 36 48 66 49 47 50 65 51 48 52 51 53 64 54 82 55 49 56
REMARK SMILES IDX 50 57 63 59 83 60 52 61 37 62 38 63 46 64 39 65 45 66 40 67
REMARK SMILES IDX 41 68 42 69 43 70 44 71 67 72 68 73 76 74 69 75 75 76 70 77
REMARK SMILES IDX 71 78 72 79 73 80 74 81 53 82 54 83 62 84 55 85 61 86 56 87
REMARK SMILES IDX 57 88 58 89 59 90 60 91
REMARK H PARENT 20 6 25 28 81 47 51 58
REMARK Flexibility Score: inf
ROOT
ATOM      1  C   UNL A   1      35.137  31.318  27.729  1.00  0.00     0.023 C 
ENDROOT
BRANCH   1   2
ATOM      2  C   UNL A   1      33.663  30.964  27.552  1.00  0.00     0.116 C 
BRANCH   2   3
ATOM      3  N   UNL A   1      33.419  30.248  26.317  1.00  0.00    -0.356 N 
ATOM      4  O   UNL A   1      31.672  28.982  27.110  1.00  0.00    -0.275 OA
ATOM      5  C   UNL A   1      32.410  29.317  26.189  1.00  0.00     0.224 C 
ATOM      6  H   UNL A   1      33.995  30.433  25.541  1.00  0.00     0.163 HD
BRANCH   5   7
ATOM      7  C   UNL A   1      32.281  28.736  24.794  1.00  0.00     0.136 C 
BRANCH   7   8
ATOM      8  C   UNL A   1      30.878  28.686  24.206  1.00  0.00    -0.031 A 
ATOM      9  C   UNL A   1      30.221  29.856  23.779  1.00  0.00     0.005 A 
ATOM     10  C   UNL A   1      30.222  27.443  24.022  1.00  0.00    -0.014 A 
ATOM     11  C   UNL A   1      28.961  29.805  23.179  1.00  0.00     0.000 A 
ATOM     12  C   UNL A   1      28.942  27.412  23.435  1.00  0.00     0.009 A 
ATOM     13  C   UNL A   1      28.321  28.585  23.009  1.00  0.00     0.001 A 
BRANCH  10  14
ATOM     14  C   UNL A   1      30.845  26.153  24.404  1.00  0.00    -0.011 A 
ATOM     15  C   UNL A   1      31.627  25.347  23.485  1.00  0.00     0.027 A 
ATOM     16  C   UNL A   1      30.643  25.698  25.654  1.00  0.00     0.080 A 
ATOM     17  C   UNL A   1      32.051  24.129  23.838  1.00  0.00     0.095 A 
ATOM     18  C   UNL A   1      31.170  24.374  26.083  1.00  0.00     0.255 A 
ATOM     19  N   UNL A   1      31.810  23.633  25.104  1.00  0.00    -0.258 N 
ATOM     20  O   UNL A   1      30.993  24.019  27.245  1.00  0.00    -0.269 OA
BRANCH  19  21
ATOM     21  C   UNL A   1      32.237  22.306  25.466  1.00  0.00     0.451 C 
ATOM     22  F   UNL A   1      31.179  21.490  25.686  1.00  0.00    -0.185 F 
ATOM     23  F   UNL A   1      32.999  21.756  24.489  1.00  0.00    -0.185 F 
ENDBRANCH  19  21
ENDBRANCH  10  14
ENDBRANCH   7   8
ENDBRANCH   5   7
ENDBRANCH   2   3
ENDBRANCH   1   2
BRANCH   1  24
ATOM     24  C   UNL A   1      35.402  32.659  28.420  1.00  0.00     0.023 C 
BRANCH  24  25
ATOM     25  C   UNL A   1      36.371  32.607  29.597  1.00  0.00     0.116 C 
BRANCH  25  26
ATOM     26  N   UNL A   1      36.064  31.534  30.528  1.00  0.00    -0.352 N 
ATOM     27  C   UNL A   1      36.778  30.395  30.815  1.00  0.00     0.251 C 
ATOM     28  H   UNL A   1      35.220  31.638  31.026  1.00  0.00     0.163 HD
ATOM     29  O   UNL A   1      36.270  29.518  31.510  1.00  0.00    -0.269 OA
BRANCH  27  30
ATOM     30  C   UNL A   1      38.142  30.210  30.269  1.00  0.00     0.039 A 
ATOM     31  C   UNL A   1      39.224  30.169  31.152  1.00  0.00     0.014 A 
ATOM     32  C   UNL A   1      38.358  30.079  28.894  1.00  0.00     0.014 A 
ATOM     33  C   UNL A   1      40.511  29.928  30.663  1.00  0.00     0.010 A 
ATOM     34  C   UNL A   1      39.630  29.763  28.418  1.00  0.00     0.010 A 
ATOM     35  C   UNL A   1      40.721  29.683  29.296  1.00  0.00    -0.014 A 
BRANCH  35  36
ATOM     36  C   UNL A   1      42.068  29.329  28.772  1.00  0.00     0.031 A 
ATOM     37  C   UNL A   1      42.361  27.928  28.306  1.00  0.00     0.074 A 
ATOM     38  C   UNL A   1      43.049  30.256  28.774  1.00  0.00     0.049 A 
ATOM     39  N   UNL A   1      43.486  27.424  27.865  1.00  0.00    -0.248 NA
ATOM     40  C   UNL A   1      41.253  26.961  28.361  1.00  0.00     0.031 C 
ATOM     41  C   UNL A   1      42.906  31.640  29.231  1.00  0.00     0.029 A 
ATOM     42  N   UNL A   1      44.362  30.172  28.381  1.00  0.00    -0.354 N 
ATOM     43  C   UNL A   1      43.227  26.082  27.610  1.00  0.00     0.074 A 
ATOM     44  C   UNL A   1      41.852  25.839  27.989  1.00  0.00     0.031 C 
ATOM     45  C   UNL A   1      44.074  32.282  29.063  1.00  0.00     0.029 A 
ATOM     46  C   UNL A   1      45.062  31.347  28.532  1.00  0.00     0.049 A 
ATOM     47  H   UNL A   1      44.766  29.348  28.024  1.00  0.00     0.167 HD
ATOM     48  C   UNL A   1      44.052  25.141  27.091  1.00  0.00     0.031 A 
ATOM     49  C   UNL A   1      46.352  31.642  28.281  1.00  0.00     0.031 A 
ATOM     50  C   UNL A   1      45.419  25.387  26.708  1.00  0.00     0.049 A 
ATOM     51  C   UNL A   1      47.256  30.572  27.729  1.00  0.00     0.074 A 
ATOM     52  C   UNL A   1      46.315  24.513  26.118  1.00  0.00     0.029 A 
ATOM     53  N   UNL A   1      46.088  26.589  26.882  1.00  0.00    -0.354 N 
ATOM     54  N   UNL A   1      46.970  29.327  27.427  1.00  0.00    -0.248 NA
ATOM     55  C   UNL A   1      48.653  30.949  27.474  1.00  0.00     0.031 C 
ATOM     56  C   UNL A   1      47.546  25.167  25.996  1.00  0.00     0.029 A 
ATOM     57  C   UNL A   1      47.396  26.470  26.443  1.00  0.00     0.049 A 
ATOM     58  H   UNL A   1      45.692  27.406  27.262  1.00  0.00     0.167 HD
ATOM     59  C   UNL A   1      48.144  28.784  26.917  1.00  0.00     0.074 A 
ATOM     60  C   UNL A   1      49.138  29.839  26.937  1.00  0.00     0.031 C 
ATOM     61  C   UNL A   1      48.378  27.525  26.467  1.00  0.00     0.031 A 
BRANCH  48  62
ATOM     62  C   UNL A   1      43.505  23.746  26.920  1.00  0.00    -0.014 A 
ATOM     63  C   UNL A   1      43.353  22.881  28.019  1.00  0.00     0.010 A 
ATOM     64  C   UNL A   1      43.091  23.311  25.647  1.00  0.00     0.010 A 
ATOM     65  C   UNL A   1      42.840  21.592  27.841  1.00  0.00     0.020 A 
ATOM     66  C   UNL A   1      42.548  22.036  25.470  1.00  0.00     0.020 A 
ATOM     67  C   UNL A   1      42.442  21.177  26.566  1.00  0.00     0.054 A 
BRANCH  67  68
ATOM     68  S   UNL A   1      41.759  19.509  26.369  1.00  0.00     0.124 S 
ATOM     69  O   UNL A   1      40.330  19.783  26.237  1.00  0.00    -0.237 OA
ATOM     70  O   UNL A   1      42.421  19.033  25.158  1.00  0.00    -0.237 OA
ATOM     71  O   UNL A   1      42.149  18.826  27.599  1.00  0.00    -0.744 OA
ENDBRANCH  67  68
ENDBRANCH  48  62
BRANCH  49  72
ATOM     72  C   UNL A   1      46.867  33.016  28.537  1.00  0.00    -0.014 A 
ATOM     73  C   UNL A   1      47.397  33.357  29.794  1.00  0.00     0.010 A 
ATOM     74  C   UNL A   1      46.837  33.991  27.523  1.00  0.00     0.010 A 
ATOM     75  C   UNL A   1      47.868  34.651  30.038  1.00  0.00     0.020 A 
ATOM     76  C   UNL A   1      47.336  35.277  27.753  1.00  0.00     0.020 A 
ATOM     77  C   UNL A   1      47.838  35.602  29.015  1.00  0.00     0.054 A 
BRANCH  77  78
ATOM     78  S   UNL A   1      48.501  37.258  29.341  1.00  0.00     0.124 S 
ATOM     79  O   UNL A   1      47.386  37.902  30.028  1.00  0.00    -0.237 OA
ATOM     80  O   UNL A   1      49.671  36.971  30.166  1.00  0.00    -0.237 OA
ATOM     81  O   UNL A   1      48.799  37.776  28.008  1.00  0.00    -0.744 OA
ENDBRANCH  77  78
ENDBRANCH  49  72
BRANCH  61  82
ATOM     82  C   UNL A   1      49.748  27.222  25.921  1.00  0.00    -0.014 A 
ATOM     83  C   UNL A   1      50.793  26.786  26.756  1.00  0.00     0.010 A 
ATOM     84  C   UNL A   1      49.978  27.325  24.536  1.00  0.00     0.010 A 
ATOM     85  C   UNL A   1      52.050  26.489  26.220  1.00  0.00     0.020 A 
ATOM     86  C   UNL A   1      51.223  26.998  23.992  1.00  0.00     0.020 A 
ATOM     87  C   UNL A   1      52.256  26.595  24.841  1.00  0.00     0.054 A 
BRANCH  87  88
ATOM     88  S   UNL A   1      53.882  26.160  24.166  1.00  0.00     0.124 S 
ATOM     89  O   UNL A   1      53.624  26.160  22.729  1.00  0.00    -0.237 OA
ATOM     90  O   UNL A   1      54.731  27.244  24.653  1.00  0.00    -0.237 OA
ATOM     91  O   UNL A   1      54.160  24.848  24.748  1.00  0.00    -0.744 OA
ENDBRANCH  87  88
ENDBRANCH  61  82
ENDBRANCH  35  36
ENDBRANCH  27  30
ENDBRANCH  25  26
ENDBRANCH  24  25
ENDBRANCH   1  24
TORSDOF 17
ENDMDL
MODEL 2
REMARK VINA RESULT:     -11.1      1.162      8.284
REMARK SMILES O=C(Cc1ccccc1-c1ccn(C(F)F)c(=O)c1)NCCCCNC(=O)c1ccc(-c2c3nc(c(-c4ccc(S(=O)(=O)[O-])cc4)c4ccc([nH]4)c(-c4ccc(S(=O)(=O)[O-])cc4)c4nc(c(-c5ccc(S(=O)(=O)[O-])cc5)c5ccc2[nH]5)C=C4)C=C3)cc1
REMARK SMILES IDX 22 1 21 2 20 3 1 4 2 5 3 7 4 8 5 9 9 10 6 11 8 12 7 13 10 14
REMARK SMILES IDX 11 15 19 16 12 17 17 18 13 19 18 20 14 21 15 22 16 23 23 24
REMARK SMILES IDX 24 25 25 26 26 27 27 29 28 30 29 31 87 32 30 33 86 34 31 35
REMARK SMILES IDX 32 36 33 37 80 38 34 39 85 40 79 41 81 42 35 43 84 44 78 45
REMARK SMILES IDX 77 46 36 48 66 49 47 50 65 51 48 52 51 53 64 54 82 55 49 56
REMARK SMILES IDX 50 57 63 59 83 60 52 61 37 62 38 63 46 64 39 65 45 66 40 67
REMARK SMILES IDX 41 68 42 69 43 70 44 71 67 72 68 73 76 74 69 75 75 76 70 77
REMARK SMILES IDX 71 78 72 79 73 80 74 81 53 82 54 83 62 84 55 85 61 86 56 87
REMARK SMILES IDX 57 88 58 89 59 90 60 91
REMARK H PARENT 20 6 25 28 81 47 51 58
REMARK Flexibility Score: inf
ROOT
ATOM      1  C   UNL A   1      34.863  30.909  27.584  1.00  0.00     0.023 C 
ENDROOT
BRANCH   1   2
ATOM      2  C   UNL A   1      33.366  30.686  27.390  1.00  0.00     0.116 C 
BRANCH   2   3
ATOM      3  N   UNL A   1      33.032  30.404  26.009  1.00  0.00    -0.356 N 
ATOM      4  O   UNL A   1      31.649  28.622  26.452  1.00  0.00    -0.275 OA
ATOM      5  C   UNL A   1      32.167  29.393  25.650  1.00  0.00     0.224 C 
ATOM      6  H   UNL A   1      33.437  30.956  25.302  1.00  0.00     0.163 HD
BRANCH   5   7
ATOM      7  C   UNL A   1      31.898  29.313  24.159  1.00  0.00     0.136 C 
BRANCH   7   8
ATOM      8  C   UNL A   1      30.437  29.311  23.732  1.00  0.00    -0.031 A 
ATOM      9  C   UNL A   1      29.648  30.475  23.815  1.00  0.00     0.005 A 
ATOM     10  C   UNL A   1      29.852  28.143  23.181  1.00  0.00    -0.014 A 
ATOM     11  C   UNL A   1      28.328  30.493  23.361  1.00  0.00     0.000 A 
ATOM     12  C   UNL A   1      28.513  28.173  22.749  1.00  0.00     0.009 A 
ATOM     13  C   UNL A   1      27.760  29.343  22.831  1.00  0.00     0.001 A 
BRANCH  10  14
ATOM     14  C   UNL A   1      30.610  26.879  23.017  1.00  0.00    -0.011 A 
ATOM     15  C   UNL A   1      30.441  25.734  23.892  1.00  0.00     0.027 A 
ATOM     16  C   UNL A   1      31.519  26.810  22.028  1.00  0.00     0.080 A 
ATOM     17  C   UNL A   1      31.244  24.671  23.786  1.00  0.00     0.095 A 
ATOM     18  C   UNL A   1      32.372  25.603  21.853  1.00  0.00     0.255 A 
ATOM     19  N   UNL A   1      32.213  24.608  22.802  1.00  0.00    -0.258 N 
ATOM     20  O   UNL A   1      33.161  25.571  20.912  1.00  0.00    -0.269 OA
BRANCH  19  21
ATOM     21  C   UNL A   1      33.099  23.476  22.716  1.00  0.00     0.451 C 
ATOM     22  F   UNL A   1      32.939  22.813  21.546  1.00  0.00    -0.185 F 
ATOM     23  F   UNL A   1      34.395  23.863  22.810  1.00  0.00    -0.185 F 
ENDBRANCH  19  21
ENDBRANCH  10  14
ENDBRANCH   7   8
ENDBRANCH   5   7
ENDBRANCH   2   3
ENDBRANCH   1   2
BRANCH   1  24
ATOM     24  C   UNL A   1      35.264  32.348  27.925  1.00  0.00     0.023 C 
BRANCH  24  25
ATOM     25  C   UNL A   1      36.383  32.488  28.952  1.00  0.00     0.116 C 
BRANCH  25  26
ATOM     26  N   UNL A   1      36.042  31.897  30.236  1.00  0.00    -0.352 N 
ATOM     27  C   UNL A   1      36.652  30.868  30.914  1.00  0.00     0.251 C 
ATOM     28  H   UNL A   1      35.260  32.292  30.686  1.00  0.00     0.163 HD
ATOM     29  O   UNL A   1      36.112  30.394  31.912  1.00  0.00    -0.269 OA
BRANCH  27  30
ATOM     30  C   UNL A   1      37.936  30.312  30.432  1.00  0.00     0.039 A 
ATOM     31  C   UNL A   1      38.146  30.190  29.056  1.00  0.00     0.014 A 
ATOM     32  C   UNL A   1      38.931  29.909  31.327  1.00  0.00     0.014 A 
ATOM     33  C   UNL A   1      39.377  29.731  28.578  1.00  0.00     0.010 A 
ATOM     34  C   UNL A   1      40.183  29.525  30.849  1.00  0.00     0.010 A 
ATOM     35  C   UNL A   1      40.421  29.431  29.469  1.00  0.00    -0.014 A 
BRANCH  35  36
ATOM     36  C   UNL A   1      41.768  29.034  28.976  1.00  0.00     0.031 A 
ATOM     37  C   UNL A   1      42.872  30.053  28.868  1.00  0.00     0.074 A 
ATOM     38  C   UNL A   1      41.982  27.767  28.566  1.00  0.00     0.049 A 
ATOM     39  N   UNL A   1      44.091  29.903  28.416  1.00  0.00    -0.248 NA
ATOM     40  C   UNL A   1      42.559  31.424  29.304  1.00  0.00     0.031 C 
ATOM     41  C   UNL A   1      40.987  26.691  28.587  1.00  0.00     0.029 A 
ATOM     42  N   UNL A   1      43.104  27.168  28.049  1.00  0.00    -0.354 N 
ATOM     43  C   UNL A   1      44.683  31.158  28.495  1.00  0.00     0.074 A 
ATOM     44  C   UNL A   1      43.675  32.068  28.994  1.00  0.00     0.031 C 
ATOM     45  C   UNL A   1      41.553  25.560  28.134  1.00  0.00     0.029 A 
ATOM     46  C   UNL A   1      42.933  25.837  27.747  1.00  0.00     0.049 A 
ATOM     47  H   UNL A   1      43.952  27.647  27.908  1.00  0.00     0.167 HD
ATOM     48  C   UNL A   1      45.954  31.519  28.196  1.00  0.00     0.031 A 
ATOM     49  C   UNL A   1      43.784  24.939  27.212  1.00  0.00     0.031 A 
ATOM     50  C   UNL A   1      46.958  30.609  27.707  1.00  0.00     0.049 A 
ATOM     51  C   UNL A   1      45.183  25.371  26.865  1.00  0.00     0.074 A 
ATOM     52  C   UNL A   1      48.290  30.868  27.433  1.00  0.00     0.029 A 
ATOM     53  N   UNL A   1      46.741  29.272  27.411  1.00  0.00    -0.354 N 
ATOM     54  N   UNL A   1      45.744  26.547  27.015  1.00  0.00    -0.248 NA
ATOM     55  C   UNL A   1      46.068  24.351  26.285  1.00  0.00     0.031 C 
ATOM     56  C   UNL A   1      48.861  29.704  26.909  1.00  0.00     0.029 A 
ATOM     57  C   UNL A   1      47.906  28.701  26.925  1.00  0.00     0.049 A 
ATOM     58  H   UNL A   1      45.886  28.799  27.529  1.00  0.00     0.167 HD
ATOM     59  C   UNL A   1      47.057  26.399  26.579  1.00  0.00     0.074 A 
ATOM     60  C   UNL A   1      47.209  25.016  26.173  1.00  0.00     0.031 C 
ATOM     61  C   UNL A   1      48.048  27.324  26.523  1.00  0.00     0.031 A 
BRANCH  48  62
ATOM     62  C   UNL A   1      46.333  32.968  28.376  1.00  0.00    -0.014 A 
ATOM     63  C   UNL A   1      46.162  33.902  27.337  1.00  0.00     0.010 A 
ATOM     64  C   UNL A   1      46.821  33.411  29.619  1.00  0.00     0.010 A 
ATOM     65  C   UNL A   1      46.515  35.242  27.524  1.00  0.00     0.020 A 
ATOM     66  C   UNL A   1      47.145  34.756  29.820  1.00  0.00     0.020 A 
ATOM     67  C   UNL A   1      47.006  35.660  28.765  1.00  0.00     0.054 A 
BRANCH  67  68
ATOM     68  S   UNL A   1      47.435  37.408  28.985  1.00  0.00     0.124 S 
ATOM     69  O   UNL A   1      48.880  37.393  28.770  1.00  0.00    -0.237 OA
ATOM     70  O   UNL A   1      46.653  38.063  27.939  1.00  0.00    -0.237 OA
ATOM     71  O   UNL A   1      47.013  37.701  30.351  1.00  0.00    -0.744 OA
ENDBRANCH  67  68
ENDBRANCH  48  62
BRANCH  49  72
ATOM     72  C   UNL A   1      43.341  23.536  26.983  1.00  0.00    -0.014 A 
ATOM     73  C   UNL A   1      42.961  23.107  25.699  1.00  0.00     0.010 A 
ATOM     74  C   UNL A   1      43.301  22.616  28.048  1.00  0.00     0.010 A 
ATOM     75  C   UNL A   1      42.533  21.793  25.487  1.00  0.00     0.020 A 
ATOM     76  C   UNL A   1      42.903  21.293  27.834  1.00  0.00     0.020 A 
ATOM     77  C   UNL A   1      42.509  20.893  26.555  1.00  0.00     0.054 A 
BRANCH  77  78
ATOM     78  S   UNL A   1      41.998  19.181  26.244  1.00  0.00     0.124 S 
ATOM     79  O   UNL A   1      40.605  19.349  25.842  1.00  0.00    -0.237 OA
ATOM     80  O   UNL A   1      42.916  18.766  25.187  1.00  0.00    -0.237 OA
ATOM     81  O   UNL A   1      42.203  18.524  27.532  1.00  0.00    -0.744 OA
ENDBRANCH  77  78
ENDBRANCH  49  72
BRANCH  61  82
ATOM     82  C   UNL A   1      49.401  26.867  26.044  1.00  0.00    -0.014 A 
ATOM     83  C   UNL A   1      49.804  27.041  24.708  1.00  0.00     0.010 A 
ATOM     84  C   UNL A   1      50.306  26.305  26.963  1.00  0.00     0.010 A 
ATOM     85  C   UNL A   1      51.074  26.630  24.293  1.00  0.00     0.020 A 
ATOM     86  C   UNL A   1      51.588  25.923  26.560  1.00  0.00     0.020 A 
ATOM     87  C   UNL A   1      51.959  26.075  25.223  1.00  0.00     0.054 A 
BRANCH  87  88
ATOM     88  S   UNL A   1      53.618  25.594  24.670  1.00  0.00     0.124 S 
ATOM     89  O   UNL A   1      53.681  26.195  23.341  1.00  0.00    -0.237 OA
ATOM     90  O   UNL A   1      54.481  26.203  25.678  1.00  0.00    -0.237 OA
ATOM     91  O   UNL A   1      53.581  24.133  24.691  1.00  0.00    -0.744 OA
ENDBRANCH  87  88
ENDBRANCH  61  82
ENDBRANCH  35  36
ENDBRANCH  27  30
ENDBRANCH  25  26
ENDBRANCH  24  25
ENDBRANCH   1  24
TORSDOF 17
ENDMDL
MODEL 3
REMARK VINA RESULT:     -11.1      6.617     11.702
REMARK SMILES O=C(Cc1ccccc1-c1ccn(C(F)F)c(=O)c1)NCCCCNC(=O)c1ccc(-c2c3nc(c(-c4ccc(S(=O)(=O)[O-])cc4)c4ccc([nH]4)c(-c4ccc(S(=O)(=O)[O-])cc4)c4nc(c(-c5ccc(S(=O)(=O)[O-])cc5)c5ccc2[nH]5)C=C4)C=C3)cc1
REMARK SMILES IDX 22 1 21 2 20 3 1 4 2 5 3 7 4 8 5 9 9 10 6 11 8 12 7 13 10 14
REMARK SMILES IDX 11 15 19 16 12 17 17 18 13 19 18 20 14 21 15 22 16 23 23 24
REMARK SMILES IDX 24 25 25 26 26 27 27 29 28 30 29 31 87 32 30 33 86 34 31 35
REMARK SMILES IDX 32 36 33 37 80 38 34 39 85 40 79 41 81 42 35 43 84 44 78 45
REMARK SMILES IDX 77 46 36 48 66 49 47 50 65 51 48 52 51 53 64 54 82 55 49 56
REMARK SMILES IDX 50 57 63 59 83 60 52 61 37 62 38 63 46 64 39 65 45 66 40 67
REMARK SMILES IDX 41 68 42 69 43 70 44 71 67 72 68 73 76 74 69 75 75 76 70 77
REMARK SMILES IDX 71 78 72 79 73 80 74 81 53 82 54 83 62 84 55 85 61 86 56 87
REMARK SMILES IDX 57 88 58 89 59 90 60 91
REMARK H PARENT 20 6 25 28 81 47 51 58
REMARK Flexibility Score: inf
ROOT
ATOM      1  C   UNL A   1      38.050  21.911  25.593  1.00  0.00     0.023 C 
ENDROOT
BRANCH   1   2
ATOM      2  C   UNL A   1      37.230  23.191  25.453  1.00  0.00     0.116 C 
BRANCH   2   3
ATOM      3  N   UNL A   1      35.921  22.941  24.885  1.00  0.00    -0.356 N 
ATOM      4  O   UNL A   1      36.584  23.056  22.687  1.00  0.00    -0.275 OA
ATOM      5  C   UNL A   1      35.707  22.870  23.526  1.00  0.00     0.224 C 
ATOM      6  H   UNL A   1      35.157  22.818  25.493  1.00  0.00     0.163 HD
BRANCH   5   7
ATOM      7  C   UNL A   1      34.279  22.530  23.143  1.00  0.00     0.136 C 
BRANCH   7   8
ATOM      8  C   UNL A   1      33.198  22.919  24.141  1.00  0.00    -0.031 A 
ATOM      9  C   UNL A   1      32.899  24.270  24.408  1.00  0.00     0.005 A 
ATOM     10  C   UNL A   1      32.423  21.921  24.785  1.00  0.00    -0.014 A 
ATOM     11  C   UNL A   1      31.863  24.628  25.272  1.00  0.00     0.000 A 
ATOM     12  C   UNL A   1      31.397  22.302  25.670  1.00  0.00     0.009 A 
ATOM     13  C   UNL A   1      31.115  23.646  25.905  1.00  0.00     0.001 A 
BRANCH  10  14
ATOM     14  C   UNL A   1      32.635  20.474  24.542  1.00  0.00    -0.011 A 
ATOM     15  C   UNL A   1      33.217  19.583  25.528  1.00  0.00     0.027 A 
ATOM     16  C   UNL A   1      32.300  19.978  23.338  1.00  0.00     0.080 A 
ATOM     17  C   UNL A   1      33.512  18.317  25.212  1.00  0.00     0.095 A 
ATOM     18  C   UNL A   1      32.558  18.553  22.996  1.00  0.00     0.255 A 
ATOM     19  N   UNL A   1      33.215  17.810  23.962  1.00  0.00    -0.258 N 
ATOM     20  O   UNL A   1      32.200  18.137  21.897  1.00  0.00    -0.269 OA
BRANCH  19  21
ATOM     21  C   UNL A   1      33.569  16.458  23.616  1.00  0.00     0.451 C 
ATOM     22  F   UNL A   1      34.514  16.429  22.646  1.00  0.00    -0.185 F 
ATOM     23  F   UNL A   1      34.047  15.788  24.693  1.00  0.00    -0.185 F 
ENDBRANCH  19  21
ENDBRANCH  10  14
ENDBRANCH   7   8
ENDBRANCH   5   7
ENDBRANCH   2   3
ENDBRANCH   1   2
BRANCH   1  24
ATOM     24  C   UNL A   1      39.302  22.036  26.466  1.00  0.00     0.023 C 
BRANCH  24  25
ATOM     25  C   UNL A   1      39.746  23.463  26.771  1.00  0.00     0.116 C 
BRANCH  25  26
ATOM     26  N   UNL A   1      40.936  23.849  26.030  1.00  0.00    -0.352 N 
ATOM     27  C   UNL A   1      41.671  25.009  26.100  1.00  0.00     0.251 C 
ATOM     28  H   UNL A   1      41.264  23.183  25.383  1.00  0.00     0.163 HD
ATOM     29  O   UNL A   1      42.550  25.223  25.268  1.00  0.00    -0.269 OA
BRANCH  27  30
ATOM     30  C   UNL A   1      41.389  26.010  27.154  1.00  0.00     0.039 A 
ATOM     31  C   UNL A   1      40.393  25.739  28.095  1.00  0.00     0.014 A 
ATOM     32  C   UNL A   1      42.099  27.213  27.216  1.00  0.00     0.014 A 
ATOM     33  C   UNL A   1      40.157  26.641  29.137  1.00  0.00     0.010 A 
ATOM     34  C   UNL A   1      41.915  28.072  28.298  1.00  0.00     0.010 A 
ATOM     35  C   UNL A   1      40.943  27.797  29.272  1.00  0.00    -0.014 A 
BRANCH  35  36
ATOM     36  C   UNL A   1      40.772  28.718  30.428  1.00  0.00     0.031 A 
ATOM     37  C   UNL A   1      41.627  28.565  31.658  1.00  0.00     0.074 A 
ATOM     38  C   UNL A   1      39.803  29.656  30.396  1.00  0.00     0.049 A 
ATOM     39  N   UNL A   1      41.588  29.240  32.779  1.00  0.00    -0.248 NA
ATOM     40  C   UNL A   1      42.644  27.500  31.636  1.00  0.00     0.031 C 
ATOM     41  C   UNL A   1      38.884  29.887  29.279  1.00  0.00     0.029 A 
ATOM     42  N   UNL A   1      39.426  30.589  31.331  1.00  0.00    -0.354 N 
ATOM     43  C   UNL A   1      42.557  28.673  33.598  1.00  0.00     0.074 A 
ATOM     44  C   UNL A   1      43.135  27.568  32.865  1.00  0.00     0.031 C 
ATOM     45  C   UNL A   1      38.073  30.914  29.581  1.00  0.00     0.029 A 
ATOM     46  C   UNL A   1      38.379  31.385  30.928  1.00  0.00     0.049 A 
ATOM     47  H   UNL A   1      39.865  30.679  32.207  1.00  0.00     0.167 HD
ATOM     48  C   UNL A   1      42.943  29.048  34.842  1.00  0.00     0.031 A 
ATOM     49  C   UNL A   1      37.731  32.378  31.569  1.00  0.00     0.031 A 
ATOM     50  C   UNL A   1      42.371  30.152  35.567  1.00  0.00     0.049 A 
ATOM     51  C   UNL A   1      38.163  32.757  32.960  1.00  0.00     0.074 A 
ATOM     52  C   UNL A   1      42.737  30.646  36.808  1.00  0.00     0.029 A 
ATOM     53  N   UNL A   1      41.311  30.929  35.125  1.00  0.00    -0.354 N 
ATOM     54  N   UNL A   1      39.130  32.255  33.689  1.00  0.00    -0.248 NA
ATOM     55  C   UNL A   1      37.421  33.847  33.610  1.00  0.00     0.031 C 
ATOM     56  C   UNL A   1      41.855  31.678  37.144  1.00  0.00     0.029 A 
ATOM     57  C   UNL A   1      40.987  31.876  36.082  1.00  0.00     0.049 A 
ATOM     58  H   UNL A   1      40.856  30.822  34.258  1.00  0.00     0.167 HD
ATOM     59  C   UNL A   1      39.134  32.988  34.871  1.00  0.00     0.074 A 
ATOM     60  C   UNL A   1      38.082  33.978  34.752  1.00  0.00     0.031 C 
ATOM     61  C   UNL A   1      39.938  32.857  35.955  1.00  0.00     0.031 A 
BRANCH  48  62
ATOM     62  C   UNL A   1      44.031  28.244  35.510  1.00  0.00    -0.014 A 
ATOM     63  C   UNL A   1      45.388  28.589  35.365  1.00  0.00     0.010 A 
ATOM     64  C   UNL A   1      43.687  27.155  36.333  1.00  0.00     0.010 A 
ATOM     65  C   UNL A   1      46.382  27.834  35.996  1.00  0.00     0.020 A 
ATOM     66  C   UNL A   1      44.676  26.418  36.990  1.00  0.00     0.020 A 
ATOM     67  C   UNL A   1      46.019  26.751  36.803  1.00  0.00     0.054 A 
BRANCH  67  68
ATOM     68  S   UNL A   1      47.329  25.804  37.626  1.00  0.00     0.124 S 
ATOM     69  O   UNL A   1      46.710  24.487  37.756  1.00  0.00    -0.237 OA
ATOM     70  O   UNL A   1      48.431  25.887  36.671  1.00  0.00    -0.237 OA
ATOM     71  O   UNL A   1      47.539  26.518  38.881  1.00  0.00    -0.744 OA
ENDBRANCH  67  68
ENDBRANCH  48  62
BRANCH  49  72
ATOM     72  C   UNL A   1      36.612  33.094  30.897  1.00  0.00    -0.014 A 
ATOM     73  C   UNL A   1      35.292  32.953  31.362  1.00  0.00     0.010 A 
ATOM     74  C   UNL A   1      36.858  33.925  29.788  1.00  0.00     0.010 A 
ATOM     75  C   UNL A   1      34.240  33.615  30.723  1.00  0.00     0.020 A 
ATOM     76  C   UNL A   1      35.812  34.614  29.166  1.00  0.00     0.020 A 
ATOM     77  C   UNL A   1      34.506  34.444  29.630  1.00  0.00     0.054 A 
BRANCH  77  78
ATOM     78  S   UNL A   1      33.130  35.331  28.849  1.00  0.00     0.124 S 
ATOM     79  O   UNL A   1      32.512  34.283  28.043  1.00  0.00    -0.237 OA
ATOM     80  O   UNL A   1      32.355  35.783  30.001  1.00  0.00    -0.237 OA
ATOM     81  O   UNL A   1      33.792  36.393  28.096  1.00  0.00    -0.744 OA
ENDBRANCH  77  78
ENDBRANCH  49  72
BRANCH  61  82
ATOM     82  C   UNL A   1      39.745  33.830  37.089  1.00  0.00    -0.014 A 
ATOM     83  C   UNL A   1      39.022  33.480  38.243  1.00  0.00     0.010 A 
ATOM     84  C   UNL A   1      40.347  35.101  37.019  1.00  0.00     0.010 A 
ATOM     85  C   UNL A   1      38.877  34.393  39.292  1.00  0.00     0.020 A 
ATOM     86  C   UNL A   1      40.232  36.004  38.078  1.00  0.00     0.020 A 
ATOM     87  C   UNL A   1      39.485  35.649  39.203  1.00  0.00     0.054 A 
BRANCH  87  88
ATOM     88  S   UNL A   1      39.321  36.798  40.596  1.00  0.00     0.124 S 
ATOM     89  O   UNL A   1      40.616  36.662  41.256  1.00  0.00    -0.237 OA
ATOM     90  O   UNL A   1      39.085  38.077  39.930  1.00  0.00    -0.237 OA
ATOM     91  O   UNL A   1      38.182  36.274  41.347  1.00  0.00    -0.744 OA
ENDBRANCH  87  88
ENDBRANCH  61  82
ENDBRANCH  35  36
ENDBRANCH  27  30
ENDBRANCH  25  26
ENDBRANCH  24  25
ENDBRANCH   1  24
TORSDOF 17
ENDMDL
