MODEL 1
REMARK VINA RESULT:     -12.1      0.000      0.000
REMARK SMILES NS(=O)(=O)c1ccc(N2N=C(C(=O)NCCCCNC(=O)c3ccc(-c4c5nc(c(-c6ccc(S(=O)(=O)[O-])cc6)c6ccc([nH]6)c(-c6ccc(S(=O)(=O)[O-])cc6)c6nc(c(-c7ccc(S(=O)(=O)[O-])cc7)c7ccc4[nH]7)C=C6)C=C5)cc3)C[C@H]2c2ccco2)cc1
REMARK SMILES IDX 16 1 15 2 14 3 12 4 13 5 11 7 9 8 10 9 83 10 82 11 8 12 5 13
REMARK SMILES IDX 6 14 90 15 7 16 89 17 2 18 3 19 4 20 1 21 84 24 85 25 88 26
REMARK SMILES IDX 86 27 87 28 17 29 18 30 19 31 20 32 21 34 22 35 23 36 81 37
REMARK SMILES IDX 24 38 80 39 25 40 26 41 27 42 74 43 28 44 79 45 73 46 75 47
REMARK SMILES IDX 29 48 78 49 72 50 71 51 30 53 60 54 41 55 59 56 42 57 45 58
REMARK SMILES IDX 58 59 76 60 43 61 44 62 57 64 77 65 46 66 31 67 32 68 40 69
REMARK SMILES IDX 33 70 39 71 34 72 35 73 36 74 37 75 38 76 61 77 62 78 70 79
REMARK SMILES IDX 63 80 69 81 64 82 65 83 66 84 67 85 68 86 47 87 48 88 56 89
REMARK SMILES IDX 49 90 55 91 50 92 51 93 52 94 53 95 54 96
REMARK H PARENT 14 6 1 22 1 23 19 33 75 52 45 63
REMARK Flexibility Score: inf
ROOT
ATOM      1  C   UNL A   1      31.407  28.154  25.763  1.00  0.00     0.023 C 
ENDROOT
BRANCH   1   2
ATOM      2  C   UNL A   1      31.005  26.845  25.093  1.00  0.00     0.116 C 
BRANCH   2   3
ATOM      3  N   UNL A   1      30.483  25.896  26.057  1.00  0.00    -0.351 N 
ATOM      4  C   UNL A   1      30.737  24.578  26.345  1.00  0.00     0.267 C 
ATOM      5  O   UNL A   1      30.031  24.033  27.191  1.00  0.00    -0.268 OA
ATOM      6  H   UNL A   1      29.789  26.286  26.638  1.00  0.00     0.163 HD
BRANCH   4   7
ATOM      7  C   UNL A   1      31.864  23.773  25.718  1.00  0.00     0.128 C 
ATOM      8  N   UNL A   1      33.111  22.086  25.322  1.00  0.00    -0.254 N 
ATOM      9  N   UNL A   1      31.913  22.480  25.836  1.00  0.00    -0.171 NA
ATOM     10  C   UNL A   1      33.820  23.150  24.606  1.00  0.00     0.180 C 
ATOM     11  C   UNL A   1      32.994  24.386  24.969  1.00  0.00     0.099 C 
BRANCH   8  12
ATOM     12  C   UNL A   1      33.337  20.744  25.043  1.00  0.00     0.060 A 
ATOM     13  C   UNL A   1      33.737  18.012  24.554  1.00  0.00     0.082 A 
ATOM     14  C   UNL A   1      34.838  18.865  24.647  1.00  0.00     0.024 A 
ATOM     15  C   UNL A   1      32.439  18.510  24.671  1.00  0.00     0.024 A 
ATOM     16  C   UNL A   1      34.631  20.229  24.878  1.00  0.00     0.029 A 
ATOM     17  C   UNL A   1      32.250  19.868  24.915  1.00  0.00     0.029 A 
BRANCH  13  18
ATOM     18  S   UNL A   1      33.965  16.281  24.305  1.00  0.00     0.238 S 
ATOM     19  O   UNL A   1      34.441  16.040  22.964  1.00  0.00    -0.207 OA
ATOM     20  O   UNL A   1      32.849  15.569  24.881  1.00  0.00    -0.207 OA
BRANCH  18  21
ATOM     21  N   UNL A   1      35.285  15.946  25.297  1.00  0.00    -0.225 NA
ATOM     22  H   UNL A   1      35.339  16.645  26.039  1.00  0.00     0.137 HD
ATOM     23  H   UNL A   1      36.141  15.971  24.743  1.00  0.00     0.137 HD
ENDBRANCH  18  21
ENDBRANCH  13  18
ENDBRANCH   8  12
BRANCH  10  24
ATOM     24  C   UNL A   1      35.285  23.330  24.896  1.00  0.00     0.128 A 
ATOM     25  C   UNL A   1      36.409  23.324  24.091  1.00  0.00     0.048 A 
ATOM     26  O   UNL A   1      35.661  23.565  26.189  1.00  0.00    -0.467 OA
ATOM     27  C   UNL A   1      37.520  23.546  24.941  1.00  0.00     0.042 A 
ATOM     28  C   UNL A   1      37.009  23.701  26.207  1.00  0.00     0.195 A 
ENDBRANCH  10  24
ENDBRANCH   4   7
ENDBRANCH   2   3
ENDBRANCH   1   2
BRANCH   1  29
ATOM     29  C   UNL A   1      32.039  27.978  27.142  1.00  0.00     0.023 C 
BRANCH  29  30
ATOM     30  C   UNL A   1      33.429  28.587  27.296  1.00  0.00     0.116 C 
BRANCH  30  31
ATOM     31  N   UNL A   1      33.407  29.992  27.683  1.00  0.00    -0.352 N 
ATOM     32  C   UNL A   1      34.420  30.738  28.240  1.00  0.00     0.251 C 
ATOM     33  H   UNL A   1      32.559  30.467  27.528  1.00  0.00     0.163 HD
ATOM     34  O   UNL A   1      34.215  31.887  28.615  1.00  0.00    -0.269 OA
BRANCH  32  35
ATOM     35  C   UNL A   1      35.745  30.113  28.410  1.00  0.00     0.039 A 
ATOM     36  C   UNL A   1      36.641  30.116  27.340  1.00  0.00     0.014 A 
ATOM     37  C   UNL A   1      36.123  29.609  29.659  1.00  0.00     0.014 A 
ATOM     38  C   UNL A   1      37.955  29.689  27.546  1.00  0.00     0.010 A 
ATOM     39  C   UNL A   1      37.448  29.256  29.879  1.00  0.00     0.010 A 
ATOM     40  C   UNL A   1      38.379  29.300  28.828  1.00  0.00    -0.014 A 
BRANCH  40  41
ATOM     41  C   UNL A   1      39.792  28.942  29.109  1.00  0.00     0.031 A 
ATOM     42  C   UNL A   1      40.726  29.983  29.661  1.00  0.00     0.074 A 
ATOM     43  C   UNL A   1      40.254  27.719  28.781  1.00  0.00     0.049 A 
ATOM     44  N   UNL A   1      42.018  29.913  29.852  1.00  0.00    -0.248 NA
ATOM     45  C   UNL A   1      40.135  31.283  30.017  1.00  0.00     0.031 C 
ATOM     46  C   UNL A   1      39.454  26.632  28.210  1.00  0.00     0.029 A 
ATOM     47  N   UNL A   1      41.518  27.189  28.866  1.00  0.00    -0.354 N 
ATOM     48  C   UNL A   1      42.397  31.162  30.327  1.00  0.00     0.074 A 
ATOM     49  C   UNL A   1      41.207  31.986  30.350  1.00  0.00     0.031 C 
ATOM     50  C   UNL A   1      40.241  25.562  28.015  1.00  0.00     0.029 A 
ATOM     51  C   UNL A   1      41.609  25.897  28.399  1.00  0.00     0.049 A 
ATOM     52  H   UNL A   1      42.286  27.686  29.228  1.00  0.00     0.167 HD
ATOM     53  C   UNL A   1      43.621  31.582  30.725  1.00  0.00     0.031 A 
ATOM     54  C   UNL A   1      42.675  25.082  28.278  1.00  0.00     0.031 A 
ATOM     55  C   UNL A   1      44.797  30.756  30.712  1.00  0.00     0.049 A 
ATOM     56  C   UNL A   1      44.029  25.579  28.707  1.00  0.00     0.074 A 
ATOM     57  C   UNL A   1      46.074  31.072  31.143  1.00  0.00     0.029 A 
ATOM     58  N   UNL A   1      44.842  29.451  30.247  1.00  0.00    -0.354 N 
ATOM     59  N   UNL A   1      44.358  26.747  29.205  1.00  0.00    -0.248 NA
ATOM     60  C   UNL A   1      45.155  24.645  28.564  1.00  0.00     0.031 C 
ATOM     61  C   UNL A   1      46.902  29.973  30.893  1.00  0.00     0.029 A 
ATOM     62  C   UNL A   1      46.129  28.954  30.361  1.00  0.00     0.049 A 
ATOM     63  H   UNL A   1      44.073  28.951  29.889  1.00  0.00     0.167 HD
ATOM     64  C   UNL A   1      45.722  26.678  29.464  1.00  0.00     0.074 A 
ATOM     65  C   UNL A   1      46.156  25.351  29.076  1.00  0.00     0.031 C 
ATOM     66  C   UNL A   1      46.541  27.625  29.981  1.00  0.00     0.031 A 
BRANCH  53  67
ATOM     67  C   UNL A   1      43.745  33.003  31.205  1.00  0.00    -0.014 A 
ATOM     68  C   UNL A   1      43.706  33.312  32.577  1.00  0.00     0.010 A 
ATOM     69  C   UNL A   1      43.937  34.042  30.275  1.00  0.00     0.010 A 
ATOM     70  C   UNL A   1      43.809  34.637  33.008  1.00  0.00     0.020 A 
ATOM     71  C   UNL A   1      44.071  35.366  30.704  1.00  0.00     0.020 A 
ATOM     72  C   UNL A   1      43.988  35.656  32.067  1.00  0.00     0.054 A 
BRANCH  72  73
ATOM     73  S   UNL A   1      44.136  37.365  32.657  1.00  0.00     0.124 S 
ATOM     74  O   UNL A   1      45.477  37.368  33.234  1.00  0.00    -0.237 OA
ATOM     75  O   UNL A   1      43.978  38.142  31.429  1.00  0.00    -0.237 OA
ATOM     76  O   UNL A   1      43.043  37.496  33.618  1.00  0.00    -0.744 OA
ENDBRANCH  72  73
ENDBRANCH  53  67
BRANCH  54  77
ATOM     77  C   UNL A   1      42.502  23.707  27.735  1.00  0.00    -0.014 A 
ATOM     78  C   UNL A   1      42.275  22.624  28.602  1.00  0.00     0.010 A 
ATOM     79  C   UNL A   1      42.559  23.472  26.349  1.00  0.00     0.010 A 
ATOM     80  C   UNL A   1      42.123  21.329  28.095  1.00  0.00     0.020 A 
ATOM     81  C   UNL A   1      42.381  22.184  25.836  1.00  0.00     0.020 A 
ATOM     82  C   UNL A   1      42.175  21.117  26.715  1.00  0.00     0.054 A 
BRANCH  82  83
ATOM     83  S   UNL A   1      41.928  19.437  26.078  1.00  0.00     0.124 S 
ATOM     84  O   UNL A   1      42.364  18.618  27.204  1.00  0.00    -0.237 OA
ATOM     85  O   UNL A   1      40.495  19.415  25.795  1.00  0.00    -0.237 OA
ATOM     86  O   UNL A   1      42.789  19.389  24.897  1.00  0.00    -0.744 OA
ENDBRANCH  82  83
ENDBRANCH  54  77
BRANCH  66  87
ATOM     87  C   UNL A   1      47.983  27.259  30.207  1.00  0.00    -0.014 A 
ATOM     88  C   UNL A   1      48.959  27.498  29.224  1.00  0.00     0.010 A 
ATOM     89  C   UNL A   1      48.377  26.751  31.459  1.00  0.00     0.010 A 
ATOM     90  C   UNL A   1      50.304  27.222  29.486  1.00  0.00     0.020 A 
ATOM     91  C   UNL A   1      49.723  26.500  31.733  1.00  0.00     0.020 A 
ATOM     92  C   UNL A   1      50.678  26.730  30.741  1.00  0.00     0.054 A 
BRANCH  92  93
ATOM     93  S   UNL A   1      52.438  26.455  31.082  1.00  0.00     0.124 S 
ATOM     94  O   UNL A   1      52.419  25.158  31.754  1.00  0.00    -0.237 OA
ATOM     95  O   UNL A   1      53.028  26.461  29.744  1.00  0.00    -0.237 OA
ATOM     96  O   UNL A   1      52.810  27.588  31.925  1.00  0.00    -0.744 OA
ENDBRANCH  92  93
ENDBRANCH  66  87
ENDBRANCH  40  41
ENDBRANCH  32  35
ENDBRANCH  30  31
ENDBRANCH  29  30
ENDBRANCH   1  29
TORSDOF 18
ENDMDL
MODEL 2
REMARK VINA RESULT:     -11.4      3.096      4.390
REMARK SMILES NS(=O)(=O)c1ccc(N2N=C(C(=O)NCCCCNC(=O)c3ccc(-c4c5nc(c(-c6ccc(S(=O)(=O)[O-])cc6)c6ccc([nH]6)c(-c6ccc(S(=O)(=O)[O-])cc6)c6nc(c(-c7ccc(S(=O)(=O)[O-])cc7)c7ccc4[nH]7)C=C6)C=C5)cc3)C[C@H]2c2ccco2)cc1
REMARK SMILES IDX 16 1 15 2 14 3 12 4 13 5 11 7 9 8 10 9 83 10 82 11 8 12 5 13
REMARK SMILES IDX 6 14 90 15 7 16 89 17 2 18 3 19 4 20 1 21 84 24 85 25 88 26
REMARK SMILES IDX 86 27 87 28 17 29 18 30 19 31 20 32 21 34 22 35 23 36 81 37
REMARK SMILES IDX 24 38 80 39 25 40 26 41 27 42 74 43 28 44 79 45 73 46 75 47
REMARK SMILES IDX 29 48 78 49 72 50 71 51 30 53 60 54 41 55 59 56 42 57 45 58
REMARK SMILES IDX 58 59 76 60 43 61 44 62 57 64 77 65 46 66 31 67 32 68 40 69
REMARK SMILES IDX 33 70 39 71 34 72 35 73 36 74 37 75 38 76 61 77 62 78 70 79
REMARK SMILES IDX 63 80 69 81 64 82 65 83 66 84 67 85 68 86 47 87 48 88 56 89
REMARK SMILES IDX 49 90 55 91 50 92 51 93 52 94 53 95 54 96
REMARK H PARENT 14 6 1 22 1 23 19 33 75 52 45 63
REMARK Flexibility Score: inf
ROOT
ATOM      1  C   UNL A   1      34.069  27.800  26.509  1.00  0.00     0.023 C 
ENDROOT
BRANCH   1   2
ATOM      2  C   UNL A   1      32.744  27.726  25.758  1.00  0.00     0.116 C 
BRANCH   2   3
ATOM      3  N   UNL A   1      32.949  27.429  24.354  1.00  0.00    -0.351 N 
ATOM      4  C   UNL A   1      33.488  26.373  23.662  1.00  0.00     0.267 C 
ATOM      5  O   UNL A   1      33.594  26.484  22.443  1.00  0.00    -0.268 OA
ATOM      6  H   UNL A   1      32.628  28.148  23.762  1.00  0.00     0.163 HD
BRANCH   4   7
ATOM      7  C   UNL A   1      33.915  25.064  24.308  1.00  0.00     0.128 C 
ATOM      8  N   UNL A   1      35.188  23.425  24.807  1.00  0.00    -0.254 N 
ATOM      9  N   UNL A   1      35.162  24.696  24.321  1.00  0.00    -0.171 NA
ATOM     10  C   UNL A   1      33.908  22.985  25.370  1.00  0.00     0.180 C 
ATOM     11  C   UNL A   1      32.963  24.103  24.927  1.00  0.00     0.099 C 
BRANCH   8  12
ATOM     12  C   UNL A   1      36.393  22.862  25.211  1.00  0.00     0.060 A 
ATOM     13  C   UNL A   1      38.869  21.807  25.996  1.00  0.00     0.082 A 
ATOM     14  C   UNL A   1      38.019  21.047  25.190  1.00  0.00     0.024 A 
ATOM     15  C   UNL A   1      38.486  23.072  26.439  1.00  0.00     0.024 A 
ATOM     16  C   UNL A   1      36.780  21.574  24.812  1.00  0.00     0.029 A 
ATOM     17  C   UNL A   1      37.254  23.589  26.044  1.00  0.00     0.029 A 
BRANCH  13  18
ATOM     18  S   UNL A   1      40.456  21.189  26.454  1.00  0.00     0.238 S 
ATOM     19  O   UNL A   1      40.576  21.174  27.893  1.00  0.00    -0.207 OA
ATOM     20  O   UNL A   1      41.457  21.767  25.590  1.00  0.00    -0.207 OA
BRANCH  18  21
ATOM     21  N   UNL A   1      40.350  19.566  26.015  1.00  0.00    -0.225 NA
ATOM     22  H   UNL A   1      40.588  19.464  25.028  1.00  0.00     0.137 HD
ATOM     23  H   UNL A   1      39.398  19.234  26.170  1.00  0.00     0.137 HD
ENDBRANCH  18  21
ENDBRANCH  13  18
ENDBRANCH   8  12
BRANCH  10  24
ATOM     24  C   UNL A   1      33.407  21.621  24.985  1.00  0.00     0.128 A 
ATOM     25  C   UNL A   1      32.805  21.128  23.842  1.00  0.00     0.048 A 
ATOM     26  O   UNL A   1      33.551  20.604  25.889  1.00  0.00    -0.467 OA
ATOM     27  C   UNL A   1      32.555  19.754  24.072  1.00  0.00     0.042 A 
ATOM     28  C   UNL A   1      33.041  19.481  25.328  1.00  0.00     0.195 A 
ENDBRANCH  10  24
ENDBRANCH   4   7
ENDBRANCH   2   3
ENDBRANCH   1   2
BRANCH   1  29
ATOM     29  C   UNL A   1      34.582  29.222  26.726  1.00  0.00     0.023 C 
BRANCH  29  30
ATOM     30  C   UNL A   1      35.941  29.319  27.412  1.00  0.00     0.116 C 
BRANCH  30  31
ATOM     31  N   UNL A   1      35.850  29.464  28.860  1.00  0.00    -0.352 N 
ATOM     32  C   UNL A   1      36.825  29.229  29.801  1.00  0.00     0.251 C 
ATOM     33  H   UNL A   1      34.981  29.768  29.207  1.00  0.00     0.163 HD
ATOM     34  O   UNL A   1      36.564  29.291  30.998  1.00  0.00    -0.269 OA
BRANCH  32  35
ATOM     35  C   UNL A   1      38.178  28.864  29.340  1.00  0.00     0.039 A 
ATOM     36  C   UNL A   1      38.610  29.301  28.087  1.00  0.00     0.014 A 
ATOM     37  C   UNL A   1      39.041  28.169  30.192  1.00  0.00     0.014 A 
ATOM     38  C   UNL A   1      39.944  29.113  27.719  1.00  0.00     0.010 A 
ATOM     39  C   UNL A   1      40.383  28.051  29.855  1.00  0.00     0.010 A 
ATOM     40  C   UNL A   1      40.850  28.529  28.620  1.00  0.00    -0.014 A 
BRANCH  40  41
ATOM     41  C   UNL A   1      42.297  28.410  28.307  1.00  0.00     0.031 A 
ATOM     42  C   UNL A   1      43.200  29.595  28.510  1.00  0.00     0.074 A 
ATOM     43  C   UNL A   1      42.775  27.276  27.757  1.00  0.00     0.049 A 
ATOM     44  N   UNL A   1      44.457  29.739  28.178  1.00  0.00    -0.248 NA
ATOM     45  C   UNL A   1      42.604  30.784  29.142  1.00  0.00     0.031 C 
ATOM     46  C   UNL A   1      41.993  26.068  27.483  1.00  0.00     0.029 A 
ATOM     47  N   UNL A   1      44.036  26.961  27.313  1.00  0.00    -0.354 N 
ATOM     48  C   UNL A   1      44.794  31.038  28.538  1.00  0.00     0.074 A 
ATOM     49  C   UNL A   1      43.598  31.655  29.070  1.00  0.00     0.031 C 
ATOM     50  C   UNL A   1      42.795  25.140  26.936  1.00  0.00     0.029 A 
ATOM     51  C   UNL A   1      44.133  25.698  26.776  1.00  0.00     0.049 A 
ATOM     52  H   UNL A   1      44.798  27.581  27.375  1.00  0.00     0.167 HD
ATOM     53  C   UNL A   1      45.996  31.656  28.451  1.00  0.00     0.031 A 
ATOM     54  C   UNL A   1      45.178  25.068  26.203  1.00  0.00     0.031 A 
ATOM     55  C   UNL A   1      47.184  31.034  27.935  1.00  0.00     0.049 A 
ATOM     56  C   UNL A   1      46.498  25.784  26.099  1.00  0.00     0.074 A 
ATOM     57  C   UNL A   1      48.462  31.560  27.852  1.00  0.00     0.029 A 
ATOM     58  N   UNL A   1      47.244  29.750  27.416  1.00  0.00    -0.354 N 
ATOM     59  N   UNL A   1      46.811  26.994  26.494  1.00  0.00    -0.248 NA
ATOM     60  C   UNL A   1      47.606  25.046  25.476  1.00  0.00     0.031 C 
ATOM     61  C   UNL A   1      49.283  30.609  27.237  1.00  0.00     0.029 A 
ATOM     62  C   UNL A   1      48.531  29.472  26.992  1.00  0.00     0.049 A 
ATOM     63  H   UNL A   1      46.482  29.128  27.359  1.00  0.00     0.167 HD
ATOM     64  C   UNL A   1      48.160  27.152  26.197  1.00  0.00     0.074 A 
ATOM     65  C   UNL A   1      48.605  25.911  25.597  1.00  0.00     0.031 C 
ATOM     66  C   UNL A   1      48.960  28.226  26.407  1.00  0.00     0.031 A 
BRANCH  53  67
ATOM     67  C   UNL A   1      46.077  33.083  28.924  1.00  0.00    -0.014 A 
ATOM     68  C   UNL A   1      46.402  33.388  30.259  1.00  0.00     0.010 A 
ATOM     69  C   UNL A   1      45.860  34.135  28.016  1.00  0.00     0.010 A 
ATOM     70  C   UNL A   1      46.462  34.716  30.688  1.00  0.00     0.020 A 
ATOM     71  C   UNL A   1      45.949  35.467  28.434  1.00  0.00     0.020 A 
ATOM     72  C   UNL A   1      46.231  35.747  29.772  1.00  0.00     0.054 A 
BRANCH  72  73
ATOM     73  S   UNL A   1      46.333  37.462  30.353  1.00  0.00     0.124 S 
ATOM     74  O   UNL A   1      47.716  37.805  30.036  1.00  0.00    -0.237 OA
ATOM     75  O   UNL A   1      45.318  38.134  29.545  1.00  0.00    -0.237 OA
ATOM     76  O   UNL A   1      46.026  37.364  31.778  1.00  0.00    -0.744 OA
ENDBRANCH  72  73
ENDBRANCH  53  67
BRANCH  54  77
ATOM     77  C   UNL A   1      45.020  23.678  25.694  1.00  0.00    -0.014 A 
ATOM     78  C   UNL A   1      45.230  22.580  26.547  1.00  0.00     0.010 A 
ATOM     79  C   UNL A   1      44.654  23.443  24.356  1.00  0.00     0.010 A 
ATOM     80  C   UNL A   1      45.093  21.274  26.068  1.00  0.00     0.020 A 
ATOM     81  C   UNL A   1      44.489  22.139  23.880  1.00  0.00     0.020 A 
ATOM     82  C   UNL A   1      44.722  21.061  24.737  1.00  0.00     0.054 A 
BRANCH  82  83
ATOM     83  S   UNL A   1      44.503  19.358  24.151  1.00  0.00     0.124 S 
ATOM     84  O   UNL A   1      43.185  19.023  24.678  1.00  0.00    -0.237 OA
ATOM     85  O   UNL A   1      44.586  19.511  22.700  1.00  0.00    -0.237 OA
ATOM     86  O   UNL A   1      45.623  18.641  24.759  1.00  0.00    -0.744 OA
ENDBRANCH  82  83
ENDBRANCH  54  77
BRANCH  66  87
ATOM     87  C   UNL A   1      50.412  28.103  26.033  1.00  0.00    -0.014 A 
ATOM     88  C   UNL A   1      51.332  27.461  26.881  1.00  0.00     0.010 A 
ATOM     89  C   UNL A   1      50.840  28.557  24.772  1.00  0.00     0.010 A 
ATOM     90  C   UNL A   1      52.659  27.288  26.478  1.00  0.00     0.020 A 
ATOM     91  C   UNL A   1      52.158  28.362  24.356  1.00  0.00     0.020 A 
ATOM     92  C   UNL A   1      53.062  27.735  25.214  1.00  0.00     0.054 A 
BRANCH  92  93
ATOM     93  S   UNL A   1      54.770  27.429  24.685  1.00  0.00     0.124 S 
ATOM     94  O   UNL A   1      55.534  27.899  25.837  1.00  0.00    -0.237 OA
ATOM     95  O   UNL A   1      54.784  25.984  24.468  1.00  0.00    -0.237 OA
ATOM     96  O   UNL A   1      54.908  28.236  23.475  1.00  0.00    -0.744 OA
ENDBRANCH  92  93
ENDBRANCH  66  87
ENDBRANCH  40  41
ENDBRANCH  32  35
ENDBRANCH  30  31
ENDBRANCH  29  30
ENDBRANCH   1  29
TORSDOF 18
ENDMDL
MODEL 3
REMARK VINA RESULT:     -11.0      4.284      9.277
REMARK SMILES NS(=O)(=O)c1ccc(N2N=C(C(=O)NCCCCNC(=O)c3ccc(-c4c5nc(c(-c6ccc(S(=O)(=O)[O-])cc6)c6ccc([nH]6)c(-c6ccc(S(=O)(=O)[O-])cc6)c6nc(c(-c7ccc(S(=O)(=O)[O-])cc7)c7ccc4[nH]7)C=C6)C=C5)cc3)C[C@H]2c2ccco2)cc1
REMARK SMILES IDX 16 1 15 2 14 3 12 4 13 5 11 7 9 8 10 9 83 10 82 11 8 12 5 13
REMARK SMILES IDX 6 14 90 15 7 16 89 17 2 18 3 19 4 20 1 21 84 24 85 25 88 26
REMARK SMILES IDX 86 27 87 28 17 29 18 30 19 31 20 32 21 34 22 35 23 36 81 37
REMARK SMILES IDX 24 38 80 39 25 40 26 41 27 42 74 43 28 44 79 45 73 46 75 47
REMARK SMILES IDX 29 48 78 49 72 50 71 51 30 53 60 54 41 55 59 56 42 57 45 58
REMARK SMILES IDX 58 59 76 60 43 61 44 62 57 64 77 65 46 66 31 67 32 68 40 69
REMARK SMILES IDX 33 70 39 71 34 72 35 73 36 74 37 75 38 76 61 77 62 78 70 79
REMARK SMILES IDX 63 80 69 81 64 82 65 83 66 84 67 85 68 86 47 87 48 88 56 89
REMARK SMILES IDX 49 90 55 91 50 92 51 93 52 94 53 95 54 96
REMARK H PARENT 14 6 1 22 1 23 19 33 75 52 45 63
REMARK Flexibility Score: inf
ROOT
ATOM      1  C   UNL A   1      33.675  28.600  26.872  1.00  0.00     0.023 C 
ENDROOT
BRANCH   1   2
ATOM      2  C   UNL A   1      32.620  27.618  26.376  1.00  0.00     0.116 C 
BRANCH   2   3
ATOM      3  N   UNL A   1      32.719  27.415  24.944  1.00  0.00    -0.351 N 
ATOM      4  C   UNL A   1      33.228  26.421  24.146  1.00  0.00     0.267 C 
ATOM      5  O   UNL A   1      33.233  26.610  22.931  1.00  0.00    -0.268 OA
ATOM      6  H   UNL A   1      32.334  28.160  24.426  1.00  0.00     0.163 HD
BRANCH   4   7
ATOM      7  C   UNL A   1      33.738  25.087  24.670  1.00  0.00     0.128 C 
ATOM      8  N   UNL A   1      35.097  23.472  24.984  1.00  0.00    -0.254 N 
ATOM      9  N   UNL A   1      34.997  24.773  24.597  1.00  0.00    -0.171 NA
ATOM     10  C   UNL A   1      33.866  22.938  25.572  1.00  0.00     0.180 C 
ATOM     11  C   UNL A   1      32.856  24.044  25.259  1.00  0.00     0.099 C 
BRANCH   8  12
ATOM     12  C   UNL A   1      36.343  22.934  25.287  1.00  0.00     0.060 A 
ATOM     13  C   UNL A   1      38.810  21.770  25.934  1.00  0.00     0.082 A 
ATOM     14  C   UNL A   1      38.545  23.085  26.321  1.00  0.00     0.024 A 
ATOM     15  C   UNL A   1      37.874  21.041  25.202  1.00  0.00     0.024 A 
ATOM     16  C   UNL A   1      37.316  23.664  25.984  1.00  0.00     0.029 A 
ATOM     17  C   UNL A   1      36.650  21.627  24.885  1.00  0.00     0.029 A 
BRANCH  13  18
ATOM     18  S   UNL A   1      40.332  20.998  26.379  1.00  0.00     0.238 S 
ATOM     19  O   UNL A   1      40.434  19.712  25.730  1.00  0.00    -0.207 OA
ATOM     20  O   UNL A   1      40.560  21.183  27.792  1.00  0.00    -0.207 OA
BRANCH  18  21
ATOM     21  N   UNL A   1      41.469  21.966  25.598  1.00  0.00    -0.225 NA
ATOM     22  H   UNL A   1      41.001  22.772  25.183  1.00  0.00     0.137 HD
ATOM     23  H   UNL A   1      41.928  21.425  24.865  1.00  0.00     0.137 HD
ENDBRANCH  18  21
ENDBRANCH  13  18
ENDBRANCH   8  12
BRANCH  10  24
ATOM     24  C   UNL A   1      33.401  21.585  25.110  1.00  0.00     0.128 A 
ATOM     25  C   UNL A   1      32.926  21.118  23.898  1.00  0.00     0.048 A 
ATOM     26  O   UNL A   1      33.435  20.552  26.005  1.00  0.00    -0.467 OA
ATOM     27  C   UNL A   1      32.641  19.742  24.075  1.00  0.00     0.042 A 
ATOM     28  C   UNL A   1      32.982  19.444  25.371  1.00  0.00     0.195 A 
ENDBRANCH  10  24
ENDBRANCH   4   7
ENDBRANCH   2   3
ENDBRANCH   1   2
BRANCH   1  29
ATOM     29  C   UNL A   1      33.361  30.061  26.560  1.00  0.00     0.023 C 
BRANCH  29  30
ATOM     30  C   UNL A   1      34.081  31.078  27.440  1.00  0.00     0.116 C 
BRANCH  30  31
ATOM     31  N   UNL A   1      33.361  32.338  27.579  1.00  0.00    -0.352 N 
ATOM     32  C   UNL A   1      33.605  33.364  28.462  1.00  0.00     0.251 C 
ATOM     33  H   UNL A   1      32.604  32.470  26.964  1.00  0.00     0.163 HD
ATOM     34  O   UNL A   1      32.840  34.320  28.533  1.00  0.00    -0.269 OA
BRANCH  32  35
ATOM     35  C   UNL A   1      34.782  33.270  29.345  1.00  0.00     0.039 A 
ATOM     36  C   UNL A   1      34.740  32.411  30.444  1.00  0.00     0.014 A 
ATOM     37  C   UNL A   1      35.952  33.966  29.025  1.00  0.00     0.014 A 
ATOM     38  C   UNL A   1      35.906  32.182  31.179  1.00  0.00     0.010 A 
ATOM     39  C   UNL A   1      37.125  33.679  29.710  1.00  0.00     0.010 A 
ATOM     40  C   UNL A   1      37.116  32.778  30.788  1.00  0.00    -0.014 A 
BRANCH  40  41
ATOM     41  C   UNL A   1      38.396  32.475  31.478  1.00  0.00     0.031 A 
ATOM     42  C   UNL A   1      39.347  31.479  30.875  1.00  0.00     0.074 A 
ATOM     43  C   UNL A   1      38.655  33.021  32.683  1.00  0.00     0.049 A 
ATOM     44  N   UNL A   1      40.446  30.980  31.378  1.00  0.00    -0.248 NA
ATOM     45  C   UNL A   1      39.001  30.952  29.545  1.00  0.00     0.031 C 
ATOM     46  C   UNL A   1      37.797  33.977  33.387  1.00  0.00     0.029 A 
ATOM     47  N   UNL A   1      39.713  32.834  33.539  1.00  0.00    -0.354 N 
ATOM     48  C   UNL A   1      40.909  30.066  30.440  1.00  0.00     0.074 A 
ATOM     49  C   UNL A   1      39.947  30.045  29.359  1.00  0.00     0.031 C 
ATOM     50  C   UNL A   1      38.371  34.307  34.555  1.00  0.00     0.029 A 
ATOM     51  C   UNL A   1      39.611  33.552  34.709  1.00  0.00     0.049 A 
ATOM     52  H   UNL A   1      40.472  32.243  33.334  1.00  0.00     0.167 HD
ATOM     53  C   UNL A   1      42.042  29.325  30.466  1.00  0.00     0.031 A 
ATOM     54  C   UNL A   1      40.415  33.585  35.789  1.00  0.00     0.031 A 
ATOM     55  C   UNL A   1      43.001  29.361  31.536  1.00  0.00     0.049 A 
ATOM     56  C   UNL A   1      41.658  32.736  35.804  1.00  0.00     0.074 A 
ATOM     57  C   UNL A   1      44.205  28.686  31.633  1.00  0.00     0.029 A 
ATOM     58  N   UNL A   1      42.867  30.112  32.693  1.00  0.00    -0.354 N 
ATOM     59  N   UNL A   1      42.107  31.918  34.883  1.00  0.00    -0.248 NA
ATOM     60  C   UNL A   1      42.505  32.819  37.002  1.00  0.00     0.031 C 
ATOM     61  C   UNL A   1      44.776  28.992  32.872  1.00  0.00     0.029 A 
ATOM     62  C   UNL A   1      43.957  29.902  33.520  1.00  0.00     0.049 A 
ATOM     63  H   UNL A   1      42.110  30.707  32.897  1.00  0.00     0.167 HD
ATOM     64  C   UNL A   1      43.305  31.413  35.375  1.00  0.00     0.074 A 
ATOM     65  C   UNL A   1      43.515  32.023  36.672  1.00  0.00     0.031 C 
ATOM     66  C   UNL A   1      44.156  30.528  34.804  1.00  0.00     0.031 A 
BRANCH  53  67
ATOM     67  C   UNL A   1      42.299  28.410  29.299  1.00  0.00    -0.014 A 
ATOM     68  C   UNL A   1      43.014  28.855  28.172  1.00  0.00     0.010 A 
ATOM     69  C   UNL A   1      41.850  27.077  29.342  1.00  0.00     0.010 A 
ATOM     70  C   UNL A   1      43.234  27.999  27.090  1.00  0.00     0.020 A 
ATOM     71  C   UNL A   1      42.095  26.208  28.274  1.00  0.00     0.020 A 
ATOM     72  C   UNL A   1      42.770  26.681  27.148  1.00  0.00     0.054 A 
BRANCH  72  73
ATOM     73  S   UNL A   1      43.086  25.588  25.735  1.00  0.00     0.124 S 
ATOM     74  O   UNL A   1      44.328  26.139  25.201  1.00  0.00    -0.237 OA
ATOM     75  O   UNL A   1      43.202  24.275  26.367  1.00  0.00    -0.237 OA
ATOM     76  O   UNL A   1      41.909  25.766  24.889  1.00  0.00    -0.744 OA
ENDBRANCH  72  73
ENDBRANCH  53  67
BRANCH  54  77
ATOM     77  C   UNL A   1      40.076  34.462  36.944  1.00  0.00    -0.014 A 
ATOM     78  C   UNL A   1      39.365  33.947  38.042  1.00  0.00     0.010 A 
ATOM     79  C   UNL A   1      40.465  35.813  36.955  1.00  0.00     0.010 A 
ATOM     80  C   UNL A   1      39.036  34.771  39.123  1.00  0.00     0.020 A 
ATOM     81  C   UNL A   1      40.161  36.634  38.045  1.00  0.00     0.020 A 
ATOM     82  C   UNL A   1      39.438  36.109  39.119  1.00  0.00     0.054 A 
BRANCH  82  83
ATOM     83  S   UNL A   1      39.041  37.147  40.553  1.00  0.00     0.124 S 
ATOM     84  O   UNL A   1      38.247  38.211  39.948  1.00  0.00    -0.237 OA
ATOM     85  O   UNL A   1      38.309  36.223  41.417  1.00  0.00    -0.237 OA
ATOM     86  O   UNL A   1      40.353  37.551  41.056  1.00  0.00    -0.744 OA
ENDBRANCH  82  83
ENDBRANCH  54  77
BRANCH  66  87
ATOM     87  C   UNL A   1      45.422  30.193  35.545  1.00  0.00    -0.014 A 
ATOM     88  C   UNL A   1      45.487  29.092  36.417  1.00  0.00     0.010 A 
ATOM     89  C   UNL A   1      46.587  30.941  35.293  1.00  0.00     0.010 A 
ATOM     90  C   UNL A   1      46.695  28.754  37.035  1.00  0.00     0.020 A 
ATOM     91  C   UNL A   1      47.801  30.589  35.888  1.00  0.00     0.020 A 
ATOM     92  C   UNL A   1      47.846  29.501  36.761  1.00  0.00     0.054 A 
BRANCH  92  93
ATOM     93  S   UNL A   1      49.416  28.994  37.514  1.00  0.00     0.124 S 
ATOM     94  O   UNL A   1      49.436  29.788  38.740  1.00  0.00    -0.237 OA
ATOM     95  O   UNL A   1      49.232  27.556  37.700  1.00  0.00    -0.237 OA
ATOM     96  O   UNL A   1      50.415  29.363  36.515  1.00  0.00    -0.744 OA
ENDBRANCH  92  93
ENDBRANCH  66  87
ENDBRANCH  40  41
ENDBRANCH  32  35
ENDBRANCH  30  31
ENDBRANCH  29  30
ENDBRANCH   1  29
TORSDOF 18
ENDMDL
