MODEL 1
REMARK VINA RESULT:     -13.1      0.000      0.000
REMARK SMILES NS(=O)(=O)c1ccc(-n2nc(C(=O)NCCCCNC(=O)c3ccc(-c4c5nc(c(-c6ccc(S(=O)(=O)[O-])cc6)c6ccc([nH]6)c(-c6ccc(S(=O)(=O)[O-])cc6)c6nc(c(-c7ccc(S(=O)(=O)[O-])cc7)c7ccc4[nH]7)C=C6)C=C5)cc3)c(Cl)c2-c2ccc(Cl)cc2)cc1
REMARK SMILES IDX 16 1 15 2 14 3 12 4 13 5 11 7 9 8 10 9 84 10 82 11 83 12
REMARK SMILES IDX 8 13 5 14 6 15 93 16 7 17 92 18 2 19 3 20 4 21 1 22 85 25
REMARK SMILES IDX 86 26 91 27 87 28 90 29 88 30 89 31 17 32 18 33 19 34 20 35
REMARK SMILES IDX 21 37 22 38 23 39 81 40 24 41 80 42 25 43 26 44 27 45 74 46
REMARK SMILES IDX 28 47 79 48 73 49 75 50 29 51 78 52 72 53 71 54 30 56 60 57
REMARK SMILES IDX 41 58 59 59 42 60 45 61 58 62 76 63 43 64 44 65 57 67 77 68
REMARK SMILES IDX 46 69 31 70 32 71 40 72 33 73 39 74 34 75 35 76 36 77 37 78
REMARK SMILES IDX 38 79 61 80 62 81 70 82 63 83 69 84 64 85 65 86 66 87 67 88
REMARK SMILES IDX 68 89 47 90 48 91 56 92 49 93 55 94 50 95 51 96 52 97 53 98
REMARK SMILES IDX 54 99
REMARK H PARENT 14 6 1 23 1 24 19 36 75 55 45 66
REMARK Flexibility Score: inf
ROOT
ATOM      1  C   UNL A   1      32.027  30.150  25.555  1.00  0.00     0.023 C 
ENDROOT
BRANCH   1   2
ATOM      2  C   UNL A   1      31.596  28.695  25.824  1.00  0.00     0.116 C 
BRANCH   2   3
ATOM      3  N   UNL A   1      30.628  28.232  24.840  1.00  0.00    -0.351 N 
ATOM      4  C   UNL A   1      30.547  27.120  24.022  1.00  0.00     0.273 C 
ATOM      5  O   UNL A   1      29.550  27.080  23.295  1.00  0.00    -0.267 OA
ATOM      6  H   UNL A   1      29.865  28.845  24.735  1.00  0.00     0.163 HD
BRANCH   4   7
ATOM      7  C   UNL A   1      31.530  26.011  24.041  1.00  0.00     0.169 A 
ATOM      8  N   UNL A   1      32.188  23.959  24.216  1.00  0.00    -0.231 N 
ATOM      9  N   UNL A   1      31.092  24.725  24.011  1.00  0.00    -0.160 NA
ATOM     10  C   UNL A   1      33.331  24.715  24.338  1.00  0.00     0.094 A 
ATOM     11  C   UNL A   1      32.942  25.990  23.980  1.00  0.00     0.100 A 
ATOM     12  Cl  UNL A   1      34.059  27.168  23.487  1.00  0.00    -0.079 Cl
BRANCH   8  13
ATOM     13  C   UNL A   1      32.153  22.549  24.096  1.00  0.00     0.065 A 
ATOM     14  C   UNL A   1      32.550  19.815  23.779  1.00  0.00     0.082 A 
ATOM     15  C   UNL A   1      32.213  20.597  22.667  1.00  0.00     0.024 A 
ATOM     16  C   UNL A   1      32.641  20.387  25.053  1.00  0.00     0.024 A 
ATOM     17  C   UNL A   1      31.987  21.970  22.829  1.00  0.00     0.030 A 
ATOM     18  C   UNL A   1      32.465  21.761  25.209  1.00  0.00     0.030 A 
BRANCH  14  19
ATOM     19  S   UNL A   1      32.889  18.087  23.637  1.00  0.00     0.238 S 
ATOM     20  O   UNL A   1      34.191  17.817  24.192  1.00  0.00    -0.207 OA
ATOM     21  O   UNL A   1      32.503  17.657  22.309  1.00  0.00    -0.207 OA
BRANCH  19  22
ATOM     22  N   UNL A   1      31.804  17.338  24.679  1.00  0.00    -0.225 NA
ATOM     23  H   UNL A   1      32.161  17.384  25.634  1.00  0.00     0.137 HD
ATOM     24  H   UNL A   1      31.690  16.361  24.407  1.00  0.00     0.137 HD
ENDBRANCH  19  22
ENDBRANCH  14  19
ENDBRANCH   8  13
BRANCH  10  25
ATOM     25  C   UNL A   1      34.705  24.258  24.491  1.00  0.00     0.002 A 
ATOM     26  C   UNL A   1      35.284  23.524  23.447  1.00  0.00     0.012 A 
ATOM     27  C   UNL A   1      35.314  24.284  25.751  1.00  0.00     0.012 A 
ATOM     28  C   UNL A   1      36.433  22.768  23.679  1.00  0.00     0.021 A 
ATOM     29  C   UNL A   1      36.461  23.524  25.981  1.00  0.00     0.021 A 
ATOM     30  C   UNL A   1      37.002  22.754  24.952  1.00  0.00     0.041 A 
ATOM     31  Cl  UNL A   1      38.349  21.734  25.271  1.00  0.00    -0.084 Cl
ENDBRANCH  10  25
ENDBRANCH   4   7
ENDBRANCH   2   3
ENDBRANCH   1   2
BRANCH   1  32
ATOM     32  C   UNL A   1      31.569  31.235  26.531  1.00  0.00     0.023 C 
BRANCH  32  33
ATOM     33  C   UNL A   1      32.696  31.961  27.250  1.00  0.00     0.116 C 
BRANCH  33  34
ATOM     34  N   UNL A   1      32.491  33.415  27.382  1.00  0.00    -0.352 N 
ATOM     35  C   UNL A   1      33.062  34.272  28.318  1.00  0.00     0.251 C 
ATOM     36  H   UNL A   1      31.879  33.829  26.732  1.00  0.00     0.163 HD
ATOM     37  O   UNL A   1      32.554  35.348  28.604  1.00  0.00    -0.269 OA
BRANCH  35  38
ATOM     38  C   UNL A   1      34.334  33.850  28.927  1.00  0.00     0.039 A 
ATOM     39  C   UNL A   1      34.454  33.314  30.213  1.00  0.00     0.014 A 
ATOM     40  C   UNL A   1      35.419  33.901  28.067  1.00  0.00     0.014 A 
ATOM     41  C   UNL A   1      35.680  32.755  30.582  1.00  0.00     0.010 A 
ATOM     42  C   UNL A   1      36.474  33.083  28.315  1.00  0.00     0.010 A 
ATOM     43  C   UNL A   1      36.681  32.637  29.609  1.00  0.00    -0.014 A 
BRANCH  43  44
ATOM     44  C   UNL A   1      37.977  32.025  29.843  1.00  0.00     0.031 A 
ATOM     45  C   UNL A   1      38.110  30.626  29.372  1.00  0.00     0.074 A 
ATOM     46  C   UNL A   1      39.055  32.775  30.173  1.00  0.00     0.049 A 
ATOM     47  N   UNL A   1      38.195  29.562  30.095  1.00  0.00    -0.248 NA
ATOM     48  C   UNL A   1      37.989  30.358  27.929  1.00  0.00     0.031 C 
ATOM     49  C   UNL A   1      39.160  34.239  30.306  1.00  0.00     0.029 A 
ATOM     50  N   UNL A   1      40.343  32.386  30.312  1.00  0.00    -0.354 N 
ATOM     51  C   UNL A   1      38.380  28.510  29.205  1.00  0.00     0.074 A 
ATOM     52  C   UNL A   1      38.027  29.023  27.905  1.00  0.00     0.031 C 
ATOM     53  C   UNL A   1      40.458  34.611  30.235  1.00  0.00     0.029 A 
ATOM     54  C   UNL A   1      41.276  33.415  30.248  1.00  0.00     0.049 A 
ATOM     55  H   UNL A   1      40.601  31.446  30.449  1.00  0.00     0.167 HD
ATOM     56  C   UNL A   1      39.059  27.385  29.565  1.00  0.00     0.031 A 
ATOM     57  C   UNL A   1      42.624  33.279  30.167  1.00  0.00     0.031 A 
ATOM     58  C   UNL A   1      39.303  27.345  30.986  1.00  0.00     0.049 A 
ATOM     59  C   UNL A   1      42.934  31.912  30.668  1.00  0.00     0.074 A 
ATOM     60  C   UNL A   1      38.496  27.378  32.107  1.00  0.00     0.029 A 
ATOM     61  N   UNL A   1      40.558  27.718  31.418  1.00  0.00    -0.354 N 
ATOM     62  N   UNL A   1      42.688  31.531  31.894  1.00  0.00    -0.248 NA
ATOM     63  C   UNL A   1      43.020  30.837  29.691  1.00  0.00     0.031 C 
ATOM     64  C   UNL A   1      39.167  28.257  33.009  1.00  0.00     0.029 A 
ATOM     65  C   UNL A   1      40.383  28.631  32.430  1.00  0.00     0.049 A 
ATOM     66  H   UNL A   1      41.418  27.391  31.068  1.00  0.00     0.167 HD
ATOM     67  C   UNL A   1      42.163  30.250  31.775  1.00  0.00     0.074 A 
ATOM     68  C   UNL A   1      42.471  29.846  30.401  1.00  0.00     0.031 C 
ATOM     69  C   UNL A   1      41.275  29.747  32.687  1.00  0.00     0.031 A 
BRANCH  56  70
ATOM     70  C   UNL A   1      39.843  26.528  28.605  1.00  0.00    -0.014 A 
ATOM     71  C   UNL A   1      39.270  25.325  28.146  1.00  0.00     0.010 A 
ATOM     72  C   UNL A   1      41.215  26.724  28.344  1.00  0.00     0.010 A 
ATOM     73  C   UNL A   1      40.048  24.342  27.520  1.00  0.00     0.020 A 
ATOM     74  C   UNL A   1      41.989  25.772  27.679  1.00  0.00     0.020 A 
ATOM     75  C   UNL A   1      41.406  24.570  27.302  1.00  0.00     0.054 A 
BRANCH  75  76
ATOM     76  S   UNL A   1      42.422  23.253  26.591  1.00  0.00     0.124 S 
ATOM     77  O   UNL A   1      43.546  23.206  27.523  1.00  0.00    -0.237 OA
ATOM     78  O   UNL A   1      41.516  22.109  26.632  1.00  0.00    -0.237 OA
ATOM     79  O   UNL A   1      42.736  23.748  25.253  1.00  0.00    -0.744 OA
ENDBRANCH  75  76
ENDBRANCH  56  70
BRANCH  57  80
ATOM     80  C   UNL A   1      43.546  34.090  29.326  1.00  0.00    -0.014 A 
ATOM     81  C   UNL A   1      44.872  34.352  29.722  1.00  0.00     0.010 A 
ATOM     82  C   UNL A   1      43.198  34.393  27.991  1.00  0.00     0.010 A 
ATOM     83  C   UNL A   1      45.821  34.843  28.803  1.00  0.00     0.020 A 
ATOM     84  C   UNL A   1      44.134  34.887  27.074  1.00  0.00     0.020 A 
ATOM     85  C   UNL A   1      45.449  35.090  27.478  1.00  0.00     0.054 A 
BRANCH  85  86
ATOM     86  S   UNL A   1      46.713  35.560  26.255  1.00  0.00     0.124 S 
ATOM     87  O   UNL A   1      46.358  36.944  25.958  1.00  0.00    -0.237 OA
ATOM     88  O   UNL A   1      47.956  35.369  26.995  1.00  0.00    -0.237 OA
ATOM     89  O   UNL A   1      46.496  34.616  25.159  1.00  0.00    -0.744 OA
ENDBRANCH  85  86
ENDBRANCH  57  80
BRANCH  69  90
ATOM     90  C   UNL A   1      41.012  30.522  33.964  1.00  0.00    -0.014 A 
ATOM     91  C   UNL A   1      41.798  30.409  35.129  1.00  0.00     0.010 A 
ATOM     92  C   UNL A   1      40.047  31.543  33.914  1.00  0.00     0.010 A 
ATOM     93  C   UNL A   1      41.612  31.282  36.215  1.00  0.00     0.020 A 
ATOM     94  C   UNL A   1      39.866  32.425  34.983  1.00  0.00     0.020 A 
ATOM     95  C   UNL A   1      40.644  32.288  36.133  1.00  0.00     0.054 A 
BRANCH  95  96
ATOM     96  S   UNL A   1      40.436  33.448  37.515  1.00  0.00     0.124 S 
ATOM     97  O   UNL A   1      39.861  34.620  36.862  1.00  0.00    -0.237 OA
ATOM     98  O   UNL A   1      39.539  32.726  38.414  1.00  0.00    -0.237 OA
ATOM     99  O   UNL A   1      41.795  33.629  38.026  1.00  0.00    -0.744 OA
ENDBRANCH  95  96
ENDBRANCH  69  90
ENDBRANCH  43  44
ENDBRANCH  35  38
ENDBRANCH  33  34
ENDBRANCH  32  33
ENDBRANCH   1  32
TORSDOF 18
ENDMDL
MODEL 2
REMARK VINA RESULT:     -12.9      2.871      6.842
REMARK SMILES NS(=O)(=O)c1ccc(-n2nc(C(=O)NCCCCNC(=O)c3ccc(-c4c5nc(c(-c6ccc(S(=O)(=O)[O-])cc6)c6ccc([nH]6)c(-c6ccc(S(=O)(=O)[O-])cc6)c6nc(c(-c7ccc(S(=O)(=O)[O-])cc7)c7ccc4[nH]7)C=C6)C=C5)cc3)c(Cl)c2-c2ccc(Cl)cc2)cc1
REMARK SMILES IDX 16 1 15 2 14 3 12 4 13 5 11 7 9 8 10 9 84 10 82 11 83 12
REMARK SMILES IDX 8 13 5 14 6 15 93 16 7 17 92 18 2 19 3 20 4 21 1 22 85 25
REMARK SMILES IDX 86 26 91 27 87 28 90 29 88 30 89 31 17 32 18 33 19 34 20 35
REMARK SMILES IDX 21 37 22 38 23 39 81 40 24 41 80 42 25 43 26 44 27 45 74 46
REMARK SMILES IDX 28 47 79 48 73 49 75 50 29 51 78 52 72 53 71 54 30 56 60 57
REMARK SMILES IDX 41 58 59 59 42 60 45 61 58 62 76 63 43 64 44 65 57 67 77 68
REMARK SMILES IDX 46 69 31 70 32 71 40 72 33 73 39 74 34 75 35 76 36 77 37 78
REMARK SMILES IDX 38 79 61 80 62 81 70 82 63 83 69 84 64 85 65 86 66 87 67 88
REMARK SMILES IDX 68 89 47 90 48 91 56 92 49 93 55 94 50 95 51 96 52 97 53 98
REMARK SMILES IDX 54 99
REMARK H PARENT 14 6 1 23 1 24 19 36 75 55 45 66
REMARK Flexibility Score: inf
ROOT
ATOM      1  C   UNL A   1      31.832  28.821  25.938  1.00  0.00     0.023 C 
ENDROOT
BRANCH   1   2
ATOM      2  C   UNL A   1      31.540  29.048  24.441  1.00  0.00     0.116 C 
BRANCH   2   3
ATOM      3  N   UNL A   1      30.367  28.302  24.006  1.00  0.00    -0.351 N 
ATOM      4  C   UNL A   1      30.139  26.980  23.672  1.00  0.00     0.273 C 
ATOM      5  O   UNL A   1      28.980  26.720  23.334  1.00  0.00    -0.267 OA
ATOM      6  H   UNL A   1      29.560  28.863  23.934  1.00  0.00     0.163 HD
BRANCH   4   7
ATOM      7  C   UNL A   1      31.168  25.917  23.769  1.00  0.00     0.169 A 
ATOM      8  N   UNL A   1      31.913  23.914  24.097  1.00  0.00    -0.231 N 
ATOM      9  N   UNL A   1      30.785  24.615  23.843  1.00  0.00    -0.160 NA
ATOM     10  C   UNL A   1      33.024  24.725  24.150  1.00  0.00     0.094 A 
ATOM     11  C   UNL A   1      32.579  25.951  23.698  1.00  0.00     0.100 A 
ATOM     12  Cl  UNL A   1      33.642  27.132  23.104  1.00  0.00    -0.079 Cl
BRANCH   8  13
ATOM     13  C   UNL A   1      31.937  22.499  24.087  1.00  0.00     0.065 A 
ATOM     14  C   UNL A   1      32.454  19.768  24.028  1.00  0.00     0.082 A 
ATOM     15  C   UNL A   1      32.200  20.448  22.831  1.00  0.00     0.024 A 
ATOM     16  C   UNL A   1      32.402  20.438  25.256  1.00  0.00     0.024 A 
ATOM     17  C   UNL A   1      31.913  21.819  22.861  1.00  0.00     0.030 A 
ATOM     18  C   UNL A   1      32.167  21.812  25.284  1.00  0.00     0.030 A 
BRANCH  14  19
ATOM     19  S   UNL A   1      32.863  18.049  24.058  1.00  0.00     0.238 S 
ATOM     20  O   UNL A   1      31.935  17.360  24.918  1.00  0.00    -0.207 OA
ATOM     21  O   UNL A   1      34.299  17.928  24.203  1.00  0.00    -0.207 OA
BRANCH  19  22
ATOM     22  N   UNL A   1      32.524  17.488  22.510  1.00  0.00    -0.225 NA
ATOM     23  H   UNL A   1      31.942  18.169  22.021  1.00  0.00     0.137 HD
ATOM     24  H   UNL A   1      32.027  16.599  22.572  1.00  0.00     0.137 HD
ENDBRANCH  19  22
ENDBRANCH  14  19
ENDBRANCH   8  13
BRANCH  10  25
ATOM     25  C   UNL A   1      34.417  24.339  24.326  1.00  0.00     0.002 A 
ATOM     26  C   UNL A   1      35.036  23.596  23.312  1.00  0.00     0.012 A 
ATOM     27  C   UNL A   1      35.016  24.439  25.587  1.00  0.00     0.012 A 
ATOM     28  C   UNL A   1      36.217  22.904  23.576  1.00  0.00     0.021 A 
ATOM     29  C   UNL A   1      36.195  23.743  25.849  1.00  0.00     0.021 A 
ATOM     30  C   UNL A   1      36.778  22.963  24.851  1.00  0.00     0.041 A 
ATOM     31  Cl  UNL A   1      38.169  22.019  25.213  1.00  0.00    -0.084 Cl
ENDBRANCH  10  25
ENDBRANCH   4   7
ENDBRANCH   2   3
ENDBRANCH   1   2
BRANCH   1  32
ATOM     32  C   UNL A   1      33.288  28.866  26.407  1.00  0.00     0.023 C 
BRANCH  32  33
ATOM     33  C   UNL A   1      33.532  29.727  27.637  1.00  0.00     0.116 C 
BRANCH  33  34
ATOM     34  N   UNL A   1      33.922  31.116  27.335  1.00  0.00    -0.352 N 
ATOM     35  C   UNL A   1      35.047  31.801  27.786  1.00  0.00     0.251 C 
ATOM     36  H   UNL A   1      33.315  31.620  26.746  1.00  0.00     0.163 HD
ATOM     37  O   UNL A   1      35.091  33.023  27.817  1.00  0.00    -0.269 OA
BRANCH  35  38
ATOM     38  C   UNL A   1      36.208  30.991  28.187  1.00  0.00     0.039 A 
ATOM     39  C   UNL A   1      36.485  29.711  27.696  1.00  0.00     0.014 A 
ATOM     40  C   UNL A   1      37.106  31.653  29.010  1.00  0.00     0.014 A 
ATOM     41  C   UNL A   1      37.728  29.146  27.992  1.00  0.00     0.010 A 
ATOM     42  C   UNL A   1      38.399  31.241  29.012  1.00  0.00     0.010 A 
ATOM     43  C   UNL A   1      38.683  29.936  28.646  1.00  0.00    -0.014 A 
BRANCH  43  44
ATOM     44  C   UNL A   1      40.030  29.493  28.960  1.00  0.00     0.031 A 
ATOM     45  C   UNL A   1      40.269  29.156  30.383  1.00  0.00     0.074 A 
ATOM     46  C   UNL A   1      40.889  29.122  27.981  1.00  0.00     0.049 A 
ATOM     47  N   UNL A   1      40.979  29.815  31.234  1.00  0.00    -0.248 NA
ATOM     48  C   UNL A   1      39.518  28.035  30.974  1.00  0.00     0.031 C 
ATOM     49  C   UNL A   1      40.660  29.042  26.527  1.00  0.00     0.029 A 
ATOM     50  N   UNL A   1      42.124  28.583  28.102  1.00  0.00    -0.354 N 
ATOM     51  C   UNL A   1      40.961  29.066  32.405  1.00  0.00     0.074 A 
ATOM     52  C   UNL A   1      39.886  28.118  32.255  1.00  0.00     0.031 C 
ATOM     53  C   UNL A   1      41.599  28.251  25.961  1.00  0.00     0.029 A 
ATOM     54  C   UNL A   1      42.594  27.934  26.966  1.00  0.00     0.049 A 
ATOM     55  H   UNL A   1      42.651  28.646  28.932  1.00  0.00     0.167 HD
ATOM     56  C   UNL A   1      41.996  29.107  33.292  1.00  0.00     0.031 A 
ATOM     57  C   UNL A   1      43.702  27.154  26.881  1.00  0.00     0.031 A 
ATOM     58  C   UNL A   1      42.918  30.172  32.980  1.00  0.00     0.049 A 
ATOM     59  C   UNL A   1      44.565  27.534  28.033  1.00  0.00     0.074 A 
ATOM     60  C   UNL A   1      42.804  31.542  32.845  1.00  0.00     0.029 A 
ATOM     61  N   UNL A   1      44.073  29.826  32.311  1.00  0.00    -0.354 N 
ATOM     62  N   UNL A   1      45.074  28.729  28.176  1.00  0.00    -0.248 NA
ATOM     63  C   UNL A   1      44.429  26.767  29.262  1.00  0.00     0.031 C 
ATOM     64  C   UNL A   1      43.580  31.857  31.689  1.00  0.00     0.029 A 
ATOM     65  C   UNL A   1      44.196  30.684  31.246  1.00  0.00     0.049 A 
ATOM     66  H   UNL A   1      44.694  29.100  32.552  1.00  0.00     0.167 HD
ATOM     67  C   UNL A   1      44.916  29.029  29.524  1.00  0.00     0.074 A 
ATOM     68  C   UNL A   1      44.588  27.749  30.156  1.00  0.00     0.031 C 
ATOM     69  C   UNL A   1      44.770  30.318  29.964  1.00  0.00     0.031 A 
BRANCH  56  70
ATOM     70  C   UNL A   1      42.387  27.960  34.187  1.00  0.00    -0.014 A 
ATOM     71  C   UNL A   1      42.506  28.191  35.572  1.00  0.00     0.010 A 
ATOM     72  C   UNL A   1      42.895  26.740  33.696  1.00  0.00     0.010 A 
ATOM     73  C   UNL A   1      43.160  27.277  36.408  1.00  0.00     0.020 A 
ATOM     74  C   UNL A   1      43.508  25.800  34.527  1.00  0.00     0.020 A 
ATOM     75  C   UNL A   1      43.668  26.093  35.874  1.00  0.00     0.054 A 
BRANCH  75  76
ATOM     76  S   UNL A   1      44.605  24.971  36.940  1.00  0.00     0.124 S 
ATOM     77  O   UNL A   1      44.361  23.680  36.303  1.00  0.00    -0.237 OA
ATOM     78  O   UNL A   1      45.963  25.492  36.818  1.00  0.00    -0.237 OA
ATOM     79  O   UNL A   1      43.988  25.151  38.252  1.00  0.00    -0.744 OA
ENDBRANCH  75  76
ENDBRANCH  56  70
BRANCH  57  80
ATOM     80  C   UNL A   1      43.831  25.879  26.124  1.00  0.00    -0.014 A 
ATOM     81  C   UNL A   1      44.986  25.575  25.378  1.00  0.00     0.010 A 
ATOM     82  C   UNL A   1      42.912  24.830  26.351  1.00  0.00     0.010 A 
ATOM     83  C   UNL A   1      45.234  24.263  24.927  1.00  0.00     0.020 A 
ATOM     84  C   UNL A   1      43.150  23.526  25.901  1.00  0.00     0.020 A 
ATOM     85  C   UNL A   1      44.322  23.242  25.208  1.00  0.00     0.054 A 
BRANCH  85  86
ATOM     86  S   UNL A   1      44.726  21.521  24.775  1.00  0.00     0.124 S 
ATOM     87  O   UNL A   1      43.613  20.783  25.363  1.00  0.00    -0.237 OA
ATOM     88  O   UNL A   1      44.759  21.561  23.316  1.00  0.00    -0.237 OA
ATOM     89  O   UNL A   1      46.023  21.301  25.414  1.00  0.00    -0.744 OA
ENDBRANCH  85  86
ENDBRANCH  57  80
BRANCH  69  90
ATOM     90  C   UNL A   1      44.988  31.458  28.988  1.00  0.00    -0.014 A 
ATOM     91  C   UNL A   1      46.221  32.123  28.818  1.00  0.00     0.010 A 
ATOM     92  C   UNL A   1      43.956  31.736  28.075  1.00  0.00     0.010 A 
ATOM     93  C   UNL A   1      46.406  33.048  27.776  1.00  0.00     0.020 A 
ATOM     94  C   UNL A   1      44.138  32.642  27.026  1.00  0.00     0.020 A 
ATOM     95  C   UNL A   1      45.359  33.301  26.884  1.00  0.00     0.054 A 
BRANCH  95  96
ATOM     96  S   UNL A   1      45.613  34.459  25.508  1.00  0.00     0.124 S 
ATOM     97  O   UNL A   1      47.054  34.384  25.291  1.00  0.00    -0.237 OA
ATOM     98  O   UNL A   1      44.787  33.888  24.446  1.00  0.00    -0.237 OA
ATOM     99  O   UNL A   1      45.132  35.736  26.033  1.00  0.00    -0.744 OA
ENDBRANCH  95  96
ENDBRANCH  69  90
ENDBRANCH  43  44
ENDBRANCH  35  38
ENDBRANCH  33  34
ENDBRANCH  32  33
ENDBRANCH   1  32
TORSDOF 18
ENDMDL
MODEL 3
REMARK VINA RESULT:     -11.9      3.478      7.490
REMARK SMILES NS(=O)(=O)c1ccc(-n2nc(C(=O)NCCCCNC(=O)c3ccc(-c4c5nc(c(-c6ccc(S(=O)(=O)[O-])cc6)c6ccc([nH]6)c(-c6ccc(S(=O)(=O)[O-])cc6)c6nc(c(-c7ccc(S(=O)(=O)[O-])cc7)c7ccc4[nH]7)C=C6)C=C5)cc3)c(Cl)c2-c2ccc(Cl)cc2)cc1
REMARK SMILES IDX 16 1 15 2 14 3 12 4 13 5 11 7 9 8 10 9 84 10 82 11 83 12
REMARK SMILES IDX 8 13 5 14 6 15 93 16 7 17 92 18 2 19 3 20 4 21 1 22 85 25
REMARK SMILES IDX 86 26 91 27 87 28 90 29 88 30 89 31 17 32 18 33 19 34 20 35
REMARK SMILES IDX 21 37 22 38 23 39 81 40 24 41 80 42 25 43 26 44 27 45 74 46
REMARK SMILES IDX 28 47 79 48 73 49 75 50 29 51 78 52 72 53 71 54 30 56 60 57
REMARK SMILES IDX 41 58 59 59 42 60 45 61 58 62 76 63 43 64 44 65 57 67 77 68
REMARK SMILES IDX 46 69 31 70 32 71 40 72 33 73 39 74 34 75 35 76 36 77 37 78
REMARK SMILES IDX 38 79 61 80 62 81 70 82 63 83 69 84 64 85 65 86 66 87 67 88
REMARK SMILES IDX 68 89 47 90 48 91 56 92 49 93 55 94 50 95 51 96 52 97 53 98
REMARK SMILES IDX 54 99
REMARK H PARENT 14 6 1 23 1 24 19 36 75 55 45 66
REMARK Flexibility Score: inf
ROOT
ATOM      1  C   UNL A   1      33.063  28.769  24.947  1.00  0.00     0.023 C 
ENDROOT
BRANCH   1   2
ATOM      2  C   UNL A   1      32.218  27.645  24.317  1.00  0.00     0.116 C 
BRANCH   2   3
ATOM      3  N   UNL A   1      32.674  27.321  22.973  1.00  0.00    -0.351 N 
ATOM      4  C   UNL A   1      33.279  26.214  22.405  1.00  0.00     0.273 C 
ATOM      5  O   UNL A   1      33.530  26.318  21.201  1.00  0.00    -0.267 OA
ATOM      6  H   UNL A   1      32.519  28.048  22.328  1.00  0.00     0.163 HD
BRANCH   4   7
ATOM      7  C   UNL A   1      33.555  24.957  23.142  1.00  0.00     0.169 A 
ATOM      8  N   UNL A   1      34.787  23.411  24.015  1.00  0.00    -0.231 N 
ATOM      9  N   UNL A   1      34.824  24.675  23.537  1.00  0.00    -0.160 NA
ATOM     10  C   UNL A   1      33.517  22.881  23.976  1.00  0.00     0.094 A 
ATOM     11  C   UNL A   1      32.706  23.950  23.655  1.00  0.00     0.100 A 
ATOM     12  Cl  UNL A   1      31.039  23.944  23.970  1.00  0.00    -0.079 Cl
BRANCH   8  13
ATOM     13  C   UNL A   1      35.896  22.820  24.665  1.00  0.00     0.065 A 
ATOM     14  C   UNL A   1      38.331  21.843  25.589  1.00  0.00     0.082 A 
ATOM     15  C   UNL A   1      37.555  21.059  24.726  1.00  0.00     0.024 A 
ATOM     16  C   UNL A   1      37.871  23.090  26.028  1.00  0.00     0.024 A 
ATOM     17  C   UNL A   1      36.316  21.538  24.280  1.00  0.00     0.030 A 
ATOM     18  C   UNL A   1      36.662  23.590  25.547  1.00  0.00     0.030 A 
BRANCH  14  19
ATOM     19  S   UNL A   1      39.920  21.317  26.155  1.00  0.00     0.238 S 
ATOM     20  O   UNL A   1      40.937  22.055  25.450  1.00  0.00    -0.207 OA
ATOM     21  O   UNL A   1      39.917  19.870  26.230  1.00  0.00    -0.207 OA
BRANCH  19  22
ATOM     22  N   UNL A   1      40.018  21.845  27.747  1.00  0.00    -0.225 NA
ATOM     23  H   UNL A   1      40.930  22.273  27.907  1.00  0.00     0.137 HD
ATOM     24  H   UNL A   1      39.900  21.051  28.376  1.00  0.00     0.137 HD
ENDBRANCH  19  22
ENDBRANCH  14  19
ENDBRANCH   8  13
BRANCH  10  25
ATOM     25  C   UNL A   1      33.062  21.587  24.465  1.00  0.00     0.002 A 
ATOM     26  C   UNL A   1      33.303  21.259  25.806  1.00  0.00     0.012 A 
ATOM     27  C   UNL A   1      32.680  20.592  23.558  1.00  0.00     0.012 A 
ATOM     28  C   UNL A   1      33.223  19.931  26.225  1.00  0.00     0.021 A 
ATOM     29  C   UNL A   1      32.604  19.265  23.979  1.00  0.00     0.021 A 
ATOM     30  C   UNL A   1      32.896  18.938  25.303  1.00  0.00     0.041 A 
ATOM     31  Cl  UNL A   1      32.909  17.288  25.788  1.00  0.00    -0.084 Cl
ENDBRANCH  10  25
ENDBRANCH   4   7
ENDBRANCH   2   3
ENDBRANCH   1   2
BRANCH   1  32
ATOM     32  C   UNL A   1      33.463  28.638  26.418  1.00  0.00     0.023 C 
BRANCH  32  33
ATOM     33  C   UNL A   1      34.728  29.390  26.801  1.00  0.00     0.116 C 
BRANCH  33  34
ATOM     34  N   UNL A   1      34.495  30.772  27.260  1.00  0.00    -0.352 N 
ATOM     35  C   UNL A   1      34.972  31.374  28.421  1.00  0.00     0.251 C 
ATOM     36  H   UNL A   1      33.935  31.334  26.678  1.00  0.00     0.163 HD
ATOM     37  O   UNL A   1      34.427  32.354  28.911  1.00  0.00    -0.269 OA
BRANCH  35  38
ATOM     38  C   UNL A   1      36.192  30.808  29.017  1.00  0.00     0.039 A 
ATOM     39  C   UNL A   1      36.258  29.560  29.646  1.00  0.00     0.014 A 
ATOM     40  C   UNL A   1      37.335  31.559  28.794  1.00  0.00     0.014 A 
ATOM     41  C   UNL A   1      37.518  29.052  29.972  1.00  0.00     0.010 A 
ATOM     42  C   UNL A   1      38.535  30.925  28.817  1.00  0.00     0.010 A 
ATOM     43  C   UNL A   1      38.653  29.748  29.536  1.00  0.00    -0.014 A 
BRANCH  43  44
ATOM     44  C   UNL A   1      40.017  29.300  29.756  1.00  0.00     0.031 A 
ATOM     45  C   UNL A   1      40.372  29.026  31.168  1.00  0.00     0.074 A 
ATOM     46  C   UNL A   1      40.785  28.872  28.727  1.00  0.00     0.049 A 
ATOM     47  N   UNL A   1      41.159  29.713  31.925  1.00  0.00    -0.248 NA
ATOM     48  C   UNL A   1      39.663  27.945  31.873  1.00  0.00     0.031 C 
ATOM     49  C   UNL A   1      40.433  28.729  27.303  1.00  0.00     0.029 A 
ATOM     50  N   UNL A   1      42.021  28.322  28.769  1.00  0.00    -0.354 N 
ATOM     51  C   UNL A   1      41.233  29.020  33.127  1.00  0.00     0.074 A 
ATOM     52  C   UNL A   1      40.139  28.081  33.113  1.00  0.00     0.031 C 
ATOM     53  C   UNL A   1      41.312  27.899  26.698  1.00  0.00     0.029 A 
ATOM     54  C   UNL A   1      42.386  27.614  27.629  1.00  0.00     0.049 A 
ATOM     55  H   UNL A   1      42.617  28.416  29.547  1.00  0.00     0.167 HD
ATOM     56  C   UNL A   1      42.339  29.086  33.920  1.00  0.00     0.031 A 
ATOM     57  C   UNL A   1      43.474  26.816  27.488  1.00  0.00     0.031 A 
ATOM     58  C   UNL A   1      43.243  30.122  33.482  1.00  0.00     0.049 A 
ATOM     59  C   UNL A   1      44.436  27.236  28.543  1.00  0.00     0.074 A 
ATOM     60  C   UNL A   1      43.132  31.486  33.293  1.00  0.00     0.029 A 
ATOM     61  N   UNL A   1      44.333  29.729  32.735  1.00  0.00    -0.354 N 
ATOM     62  N   UNL A   1      44.968  28.429  28.587  1.00  0.00    -0.248 NA
ATOM     63  C   UNL A   1      44.397  26.528  29.815  1.00  0.00     0.031 C 
ATOM     64  C   UNL A   1      43.810  31.736  32.062  1.00  0.00     0.029 A 
ATOM     65  C   UNL A   1      44.374  30.535  31.624  1.00  0.00     0.049 A 
ATOM     66  H   UNL A   1      44.965  29.007  32.957  1.00  0.00     0.167 HD
ATOM     67  C   UNL A   1      44.928  28.793  29.927  1.00  0.00     0.074 A 
ATOM     68  C   UNL A   1      44.642  27.548  30.645  1.00  0.00     0.031 C 
ATOM     69  C   UNL A   1      44.833  30.102  30.316  1.00  0.00     0.031 A 
BRANCH  56  70
ATOM     70  C   UNL A   1      42.794  27.976  34.833  1.00  0.00    -0.014 A 
ATOM     71  C   UNL A   1      43.326  28.310  36.093  1.00  0.00     0.010 A 
ATOM     72  C   UNL A   1      42.961  26.645  34.399  1.00  0.00     0.010 A 
ATOM     73  C   UNL A   1      44.047  27.376  36.849  1.00  0.00     0.020 A 
ATOM     74  C   UNL A   1      43.637  25.693  35.164  1.00  0.00     0.020 A 
ATOM     75  C   UNL A   1      44.207  26.076  36.370  1.00  0.00     0.054 A 
BRANCH  75  76
ATOM     76  S   UNL A   1      45.230  24.910  37.300  1.00  0.00     0.124 S 
ATOM     77  O   UNL A   1      44.780  25.142  38.669  1.00  0.00    -0.237 OA
ATOM     78  O   UNL A   1      44.847  23.628  36.714  1.00  0.00    -0.237 OA
ATOM     79  O   UNL A   1      46.595  25.341  37.006  1.00  0.00    -0.744 OA
ENDBRANCH  75  76
ENDBRANCH  56  70
BRANCH  57  80
ATOM     80  C   UNL A   1      43.526  25.505  26.784  1.00  0.00    -0.014 A 
ATOM     81  C   UNL A   1      43.911  25.405  25.433  1.00  0.00     0.010 A 
ATOM     82  C   UNL A   1      43.446  24.305  27.525  1.00  0.00     0.010 A 
ATOM     83  C   UNL A   1      44.255  24.161  24.866  1.00  0.00     0.020 A 
ATOM     84  C   UNL A   1      43.781  23.065  26.967  1.00  0.00     0.020 A 
ATOM     85  C   UNL A   1      44.205  23.000  25.644  1.00  0.00     0.054 A 
BRANCH  85  86
ATOM     86  S   UNL A   1      44.812  21.426  24.961  1.00  0.00     0.124 S 
ATOM     87  O   UNL A   1      43.923  20.453  25.588  1.00  0.00    -0.237 OA
ATOM     88  O   UNL A   1      44.633  21.614  23.524  1.00  0.00    -0.237 OA
ATOM     89  O   UNL A   1      46.204  21.372  25.407  1.00  0.00    -0.744 OA
ENDBRANCH  85  86
ENDBRANCH  57  80
BRANCH  69  90
ATOM     90  C   UNL A   1      44.980  31.193  29.273  1.00  0.00    -0.014 A 
ATOM     91  C   UNL A   1      46.189  31.869  29.005  1.00  0.00     0.010 A 
ATOM     92  C   UNL A   1      43.897  31.405  28.401  1.00  0.00     0.010 A 
ATOM     93  C   UNL A   1      46.303  32.740  27.909  1.00  0.00     0.020 A 
ATOM     94  C   UNL A   1      44.008  32.258  27.299  1.00  0.00     0.020 A 
ATOM     95  C   UNL A   1      45.208  32.928  27.060  1.00  0.00     0.054 A 
BRANCH  95  96
ATOM     96  S   UNL A   1      45.369  34.016  25.615  1.00  0.00     0.124 S 
ATOM     97  O   UNL A   1      46.816  34.119  25.454  1.00  0.00    -0.237 OA
ATOM     98  O   UNL A   1      44.672  33.272  24.568  1.00  0.00    -0.237 OA
ATOM     99  O   UNL A   1      44.703  35.250  26.031  1.00  0.00    -0.744 OA
ENDBRANCH  95  96
ENDBRANCH  69  90
ENDBRANCH  43  44
ENDBRANCH  35  38
ENDBRANCH  33  34
ENDBRANCH  32  33
ENDBRANCH   1  32
TORSDOF 18
ENDMDL
