MODEL 1
REMARK VINA RESULT:     -12.8      0.000      0.000
REMARK SMILES Cc1ccc2nc(NC(=O)[C@H]3CC=CC[C@@H]3C(=O)NCCCCNC(=O)c3ccc(-c4c5nc(c(-c6ccc(S(=O)(=O)[O-])cc6)c6ccc([nH]6)c(-c6ccc(S(=O)(=O)[O-])cc6)c6nc(c(-c7ccc(S(=O)(=O)[O-])cc7)c7ccc4[nH]7)C=C6)C=C5)cc3)sc2c1
REMARK SMILES IDX 22 1 21 2 20 3 19 4 17 5 18 6 16 8 11 9 12 10 13 11 15 12
REMARK SMILES IDX 14 13 9 14 8 15 10 17 7 18 1 19 2 20 3 21 89 22 4 23 88 24
REMARK SMILES IDX 5 25 87 26 6 27 23 28 24 29 25 30 26 32 27 33 28 34 86 35
REMARK SMILES IDX 29 36 85 37 30 38 31 39 32 40 79 41 33 42 84 43 78 44 80 45
REMARK SMILES IDX 34 46 83 47 77 48 76 49 35 51 65 52 46 53 64 54 47 55 50 56
REMARK SMILES IDX 63 57 81 58 48 59 49 60 62 62 82 63 51 64 36 65 37 66 45 67
REMARK SMILES IDX 38 68 44 69 39 70 40 71 41 72 42 73 43 74 66 75 67 76 75 77
REMARK SMILES IDX 68 78 74 79 69 80 70 81 71 82 72 83 73 84 52 85 53 86 61 87
REMARK SMILES IDX 54 88 60 89 55 90 56 91 57 92 58 93 59 94
REMARK H PARENT 19 7 8 16 24 31 80 50 50 61
REMARK Flexibility Score: inf
ROOT
ATOM      1  C   UNL A   1      39.604  22.211  26.515  1.00  0.00     0.023 C 
ENDROOT
BRANCH   1   2
ATOM      2  C   UNL A   1      38.260  22.034  25.808  1.00  0.00     0.023 C 
BRANCH   2   3
ATOM      3  C   UNL A   1      37.417  23.304  25.713  1.00  0.00     0.116 C 
BRANCH   3   4
ATOM      4  N   UNL A   1      36.225  23.262  26.543  1.00  0.00    -0.356 N 
ATOM      5  C   UNL A   1      34.947  22.872  26.242  1.00  0.00     0.224 C 
ATOM      6  O   UNL A   1      34.125  22.837  27.158  1.00  0.00    -0.275 OA
ATOM      7  H   UNL A   1      36.357  23.561  27.471  1.00  0.00     0.163 HD
BRANCH   5   8
ATOM      8  C   UNL A   1      34.620  22.448  24.812  1.00  0.00     0.095 C 
ATOM      9  C   UNL A   1      33.292  23.092  24.315  1.00  0.00     0.095 C 
ATOM     10  C   UNL A   1      32.065  22.160  24.223  1.00  0.00     0.041 C 
ATOM     11  C   UNL A   1      32.206  20.814  24.857  1.00  0.00    -0.030 C 
ATOM     12  C   UNL A   1      34.673  20.916  24.730  1.00  0.00     0.041 C 
ATOM     13  C   UNL A   1      33.390  20.240  25.083  1.00  0.00    -0.030 C 
BRANCH   9  14
ATOM     14  C   UNL A   1      33.589  23.795  22.975  1.00  0.00     0.230 C 
ATOM     15  N   UNL A   1      33.694  25.162  22.901  1.00  0.00    -0.302 N 
ATOM     16  H   UNL A   1      34.082  25.540  22.080  1.00  0.00     0.172 HD
ATOM     17  O   UNL A   1      33.893  23.149  21.966  1.00  0.00    -0.274 OA
BRANCH  15  18
ATOM     18  C   UNL A   1      33.308  26.038  23.872  1.00  0.00     0.190 A 
ATOM     19  C   UNL A   1      31.634  31.282  26.548  1.00  0.00     0.044 C 
ATOM     20  C   UNL A   1      32.174  29.908  26.261  1.00  0.00    -0.050 A 
ATOM     21  C   UNL A   1      33.383  29.516  26.842  1.00  0.00     0.006 A 
ATOM     22  C   UNL A   1      31.534  29.076  25.320  1.00  0.00     0.024 A 
ATOM     23  C   UNL A   1      33.999  28.321  26.473  1.00  0.00     0.030 A 
ATOM     24  C   UNL A   1      32.191  27.901  24.916  1.00  0.00     0.057 A 
ATOM     25  C   UNL A   1      33.420  27.532  25.466  1.00  0.00     0.084 A 
ATOM     26  S   UNL A   1      31.762  26.734  23.706  1.00  0.00    -0.097 S 
ATOM     27  N   UNL A   1      34.007  26.430  24.895  1.00  0.00    -0.220 NA
ENDBRANCH  15  18
ENDBRANCH   9  14
ENDBRANCH   5   8
ENDBRANCH   3   4
ENDBRANCH   2   3
ENDBRANCH   1   2
BRANCH   1  28
ATOM     28  C   UNL A   1      39.959  23.629  26.935  1.00  0.00     0.116 C 
BRANCH  28  29
ATOM     29  N   UNL A   1      40.786  24.313  25.960  1.00  0.00    -0.352 N 
ATOM     30  C   UNL A   1      41.265  25.602  25.960  1.00  0.00     0.251 C 
ATOM     31  H   UNL A   1      41.042  23.773  25.178  1.00  0.00     0.163 HD
ATOM     32  O   UNL A   1      41.819  26.027  24.949  1.00  0.00    -0.269 OA
BRANCH  30  33
ATOM     33  C   UNL A   1      41.105  26.488  27.142  1.00  0.00     0.039 A 
ATOM     34  C   UNL A   1      40.111  26.177  28.075  1.00  0.00     0.014 A 
ATOM     35  C   UNL A   1      41.877  27.640  27.322  1.00  0.00     0.014 A 
ATOM     36  C   UNL A   1      39.914  26.995  29.191  1.00  0.00     0.010 A 
ATOM     37  C   UNL A   1      41.738  28.408  28.480  1.00  0.00     0.010 A 
ATOM     38  C   UNL A   1      40.738  28.110  29.416  1.00  0.00    -0.014 A 
BRANCH  38  39
ATOM     39  C   UNL A   1      40.532  28.982  30.604  1.00  0.00     0.031 A 
ATOM     40  C   UNL A   1      41.394  28.818  31.831  1.00  0.00     0.074 A 
ATOM     41  C   UNL A   1      39.560  29.917  30.588  1.00  0.00     0.049 A 
ATOM     42  N   UNL A   1      41.369  29.491  32.953  1.00  0.00    -0.248 NA
ATOM     43  C   UNL A   1      42.397  27.740  31.806  1.00  0.00     0.031 C 
ATOM     44  C   UNL A   1      38.618  30.141  29.488  1.00  0.00     0.029 A 
ATOM     45  N   UNL A   1      39.205  30.857  31.522  1.00  0.00    -0.354 N 
ATOM     46  C   UNL A   1      42.338  28.914  33.767  1.00  0.00     0.074 A 
ATOM     47  C   UNL A   1      42.894  27.800  33.033  1.00  0.00     0.031 C 
ATOM     48  C   UNL A   1      37.821  31.178  29.796  1.00  0.00     0.029 A 
ATOM     49  C   UNL A   1      38.174  31.673  31.122  1.00  0.00     0.049 A 
ATOM     50  H   UNL A   1      39.648  30.939  32.398  1.00  0.00     0.167 HD
ATOM     51  C   UNL A   1      42.752  29.292  35.001  1.00  0.00     0.031 A 
ATOM     52  C   UNL A   1      37.584  32.711  31.746  1.00  0.00     0.031 A 
ATOM     53  C   UNL A   1      42.218  30.415  35.724  1.00  0.00     0.049 A 
ATOM     54  C   UNL A   1      38.088  33.136  33.098  1.00  0.00     0.074 A 
ATOM     55  C   UNL A   1      42.600  30.905  36.961  1.00  0.00     0.029 A 
ATOM     56  N   UNL A   1      41.194  31.231  35.269  1.00  0.00    -0.354 N 
ATOM     57  N   UNL A   1      39.044  32.607  33.824  1.00  0.00    -0.248 NA
ATOM     58  C   UNL A   1      37.445  34.311  33.704  1.00  0.00     0.031 C 
ATOM     59  C   UNL A   1      41.784  32.000  37.268  1.00  0.00     0.029 A 
ATOM     60  C   UNL A   1      40.926  32.217  36.203  1.00  0.00     0.049 A 
ATOM     61  H   UNL A   1      40.727  31.125  34.409  1.00  0.00     0.167 HD
ATOM     62  C   UNL A   1      39.127  33.394  34.968  1.00  0.00     0.074 A 
ATOM     63  C   UNL A   1      38.144  34.450  34.822  1.00  0.00     0.031 C 
ATOM     64  C   UNL A   1      39.937  33.252  36.046  1.00  0.00     0.031 A 
BRANCH  51  65
ATOM     65  C   UNL A   1      43.853  28.486  35.641  1.00  0.00    -0.014 A 
ATOM     66  C   UNL A   1      43.555  27.382  36.461  1.00  0.00     0.010 A 
ATOM     67  C   UNL A   1      45.199  28.807  35.389  1.00  0.00     0.010 A 
ATOM     68  C   UNL A   1      44.581  26.637  37.047  1.00  0.00     0.020 A 
ATOM     69  C   UNL A   1      46.230  28.047  35.952  1.00  0.00     0.020 A 
ATOM     70  C   UNL A   1      45.913  26.975  36.790  1.00  0.00     0.054 A 
BRANCH  70  71
ATOM     71  S   UNL A   1      47.225  25.972  37.541  1.00  0.00     0.124 S 
ATOM     72  O   UNL A   1      47.405  26.630  38.832  1.00  0.00    -0.237 OA
ATOM     73  O   UNL A   1      46.623  24.642  37.591  1.00  0.00    -0.237 OA
ATOM     74  O   UNL A   1      48.343  26.111  36.610  1.00  0.00    -0.744 OA
ENDBRANCH  70  71
ENDBRANCH  51  65
BRANCH  52  75
ATOM     75  C   UNL A   1      36.463  33.436  31.088  1.00  0.00    -0.014 A 
ATOM     76  C   UNL A   1      35.277  33.713  31.791  1.00  0.00     0.010 A 
ATOM     77  C   UNL A   1      36.579  33.858  29.751  1.00  0.00     0.010 A 
ATOM     78  C   UNL A   1      34.219  34.377  31.163  1.00  0.00     0.020 A 
ATOM     79  C   UNL A   1      35.534  34.546  29.128  1.00  0.00     0.020 A 
ATOM     80  C   UNL A   1      34.355  34.789  29.834  1.00  0.00     0.054 A 
BRANCH  80  81
ATOM     81  S   UNL A   1      32.992  35.693  29.049  1.00  0.00     0.124 S 
ATOM     82  O   UNL A   1      32.407  34.671  28.186  1.00  0.00    -0.237 OA
ATOM     83  O   UNL A   1      32.178  36.098  30.194  1.00  0.00    -0.237 OA
ATOM     84  O   UNL A   1      33.666  36.790  28.358  1.00  0.00    -0.744 OA
ENDBRANCH  80  81
ENDBRANCH  52  75
BRANCH  64  85
ATOM     85  C   UNL A   1      39.800  34.274  37.141  1.00  0.00    -0.014 A 
ATOM     86  C   UNL A   1      38.992  34.027  38.265  1.00  0.00     0.010 A 
ATOM     87  C   UNL A   1      40.502  35.490  37.051  1.00  0.00     0.010 A 
ATOM     88  C   UNL A   1      38.848  34.999  39.258  1.00  0.00     0.020 A 
ATOM     89  C   UNL A   1      40.380  36.454  38.056  1.00  0.00     0.020 A 
ATOM     90  C   UNL A   1      39.537  36.210  39.142  1.00  0.00     0.054 A 
BRANCH  90  91
ATOM     91  S   UNL A   1      39.342  37.456  40.446  1.00  0.00     0.124 S 
ATOM     92  O   UNL A   1      39.007  36.631  41.603  1.00  0.00    -0.237 OA
ATOM     93  O   UNL A   1      40.656  38.092  40.486  1.00  0.00    -0.237 OA
ATOM     94  O   UNL A   1      38.261  38.306  39.951  1.00  0.00    -0.744 OA
ENDBRANCH  90  91
ENDBRANCH  64  85
ENDBRANCH  38  39
ENDBRANCH  30  33
ENDBRANCH  28  29
ENDBRANCH   1  28
TORSDOF 16
ENDMDL
MODEL 2
REMARK VINA RESULT:     -12.7      6.232     12.173
REMARK SMILES Cc1ccc2nc(NC(=O)[C@H]3CC=CC[C@@H]3C(=O)NCCCCNC(=O)c3ccc(-c4c5nc(c(-c6ccc(S(=O)(=O)[O-])cc6)c6ccc([nH]6)c(-c6ccc(S(=O)(=O)[O-])cc6)c6nc(c(-c7ccc(S(=O)(=O)[O-])cc7)c7ccc4[nH]7)C=C6)C=C5)cc3)sc2c1
REMARK SMILES IDX 22 1 21 2 20 3 19 4 17 5 18 6 16 8 11 9 12 10 13 11 15 12
REMARK SMILES IDX 14 13 9 14 8 15 10 17 7 18 1 19 2 20 3 21 89 22 4 23 88 24
REMARK SMILES IDX 5 25 87 26 6 27 23 28 24 29 25 30 26 32 27 33 28 34 86 35
REMARK SMILES IDX 29 36 85 37 30 38 31 39 32 40 79 41 33 42 84 43 78 44 80 45
REMARK SMILES IDX 34 46 83 47 77 48 76 49 35 51 65 52 46 53 64 54 47 55 50 56
REMARK SMILES IDX 63 57 81 58 48 59 49 60 62 62 82 63 51 64 36 65 37 66 45 67
REMARK SMILES IDX 38 68 44 69 39 70 40 71 41 72 42 73 43 74 66 75 67 76 75 77
REMARK SMILES IDX 68 78 74 79 69 80 70 81 71 82 72 83 73 84 52 85 53 86 61 87
REMARK SMILES IDX 54 88 60 89 55 90 56 91 57 92 58 93 59 94
REMARK H PARENT 19 7 8 16 24 31 80 50 50 61
REMARK Flexibility Score: inf
ROOT
ATOM      1  C   UNL A   1      34.352  31.655  28.154  1.00  0.00     0.023 C 
ENDROOT
BRANCH   1   2
ATOM      2  C   UNL A   1      33.564  30.820  27.144  1.00  0.00     0.023 C 
BRANCH   2   3
ATOM      3  C   UNL A   1      34.022  29.368  27.022  1.00  0.00     0.116 C 
BRANCH   3   4
ATOM      4  N   UNL A   1      34.299  28.970  25.651  1.00  0.00    -0.356 N 
ATOM      5  C   UNL A   1      33.492  28.378  24.717  1.00  0.00     0.224 C 
ATOM      6  O   UNL A   1      33.940  28.228  23.581  1.00  0.00    -0.275 OA
ATOM      7  H   UNL A   1      35.216  29.158  25.346  1.00  0.00     0.163 HD
BRANCH   5   8
ATOM      8  C   UNL A   1      32.068  27.989  25.110  1.00  0.00     0.095 C 
ATOM      9  C   UNL A   1      31.705  26.563  24.601  1.00  0.00     0.095 C 
ATOM     10  C   UNL A   1      30.743  26.484  23.397  1.00  0.00     0.041 C 
ATOM     11  C   UNL A   1      30.464  27.769  22.686  1.00  0.00    -0.030 C 
ATOM     12  C   UNL A   1      31.113  29.105  24.662  1.00  0.00     0.041 C 
ATOM     13  C   UNL A   1      30.624  28.964  23.260  1.00  0.00    -0.030 C 
BRANCH   9  14
ATOM     14  C   UNL A   1      31.191  25.754  25.809  1.00  0.00     0.230 C 
ATOM     15  N   UNL A   1      31.955  24.764  26.375  1.00  0.00    -0.302 N 
ATOM     16  H   UNL A   1      31.674  24.425  27.255  1.00  0.00     0.172 HD
ATOM     17  O   UNL A   1      30.152  26.073  26.398  1.00  0.00    -0.274 OA
BRANCH  15  18
ATOM     18  C   UNL A   1      33.072  24.213  25.820  1.00  0.00     0.190 A 
ATOM     19  C   UNL A   1      37.643  20.270  24.811  1.00  0.00     0.044 C 
ATOM     20  C   UNL A   1      36.783  21.501  24.906  1.00  0.00    -0.050 A 
ATOM     21  C   UNL A   1      37.362  22.705  25.316  1.00  0.00     0.006 A 
ATOM     22  C   UNL A   1      35.391  21.410  24.707  1.00  0.00     0.024 A 
ATOM     23  C   UNL A   1      36.571  23.824  25.576  1.00  0.00     0.030 A 
ATOM     24  C   UNL A   1      34.600  22.528  25.024  1.00  0.00     0.057 A 
ATOM     25  C   UNL A   1      35.175  23.718  25.474  1.00  0.00     0.084 A 
ATOM     26  S   UNL A   1      32.876  22.721  25.024  1.00  0.00    -0.097 S 
ATOM     27  N   UNL A   1      34.282  24.686  25.864  1.00  0.00    -0.220 NA
ENDBRANCH  15  18
ENDBRANCH   9  14
ENDBRANCH   5   8
ENDBRANCH   3   4
ENDBRANCH   2   3
ENDBRANCH   1   2
BRANCH   1  28
ATOM     28  C   UNL A   1      35.675  31.066  28.623  1.00  0.00     0.116 C 
BRANCH  28  29
ATOM     29  N   UNL A   1      35.647  30.664  30.016  1.00  0.00    -0.352 N 
ATOM     30  C   UNL A   1      36.568  29.949  30.745  1.00  0.00     0.251 C 
ATOM     31  H   UNL A   1      34.846  30.943  30.515  1.00  0.00     0.163 HD
ATOM     32  O   UNL A   1      36.269  29.580  31.878  1.00  0.00    -0.269 OA
BRANCH  30  33
ATOM     33  C   UNL A   1      37.898  29.599  30.182  1.00  0.00     0.039 A 
ATOM     34  C   UNL A   1      38.901  29.180  31.062  1.00  0.00     0.014 A 
ATOM     35  C   UNL A   1      38.190  29.725  28.820  1.00  0.00     0.014 A 
ATOM     36  C   UNL A   1      40.173  28.860  30.576  1.00  0.00     0.010 A 
ATOM     37  C   UNL A   1      39.433  29.324  28.326  1.00  0.00     0.010 A 
ATOM     38  C   UNL A   1      40.448  28.910  29.200  1.00  0.00    -0.014 A 
BRANCH  38  39
ATOM     39  C   UNL A   1      41.800  28.570  28.680  1.00  0.00     0.031 A 
ATOM     40  C   UNL A   1      42.875  29.625  28.602  1.00  0.00     0.074 A 
ATOM     41  C   UNL A   1      42.062  27.313  28.266  1.00  0.00     0.049 A 
ATOM     42  N   UNL A   1      44.112  29.513  28.189  1.00  0.00    -0.248 NA
ATOM     43  C   UNL A   1      42.507  30.989  29.015  1.00  0.00     0.031 C 
ATOM     44  C   UNL A   1      41.095  26.212  28.234  1.00  0.00     0.029 A 
ATOM     45  N   UNL A   1      43.220  26.748  27.796  1.00  0.00    -0.354 N 
ATOM     46  C   UNL A   1      44.663  30.787  28.281  1.00  0.00     0.074 A 
ATOM     47  C   UNL A   1      43.610  31.668  28.734  1.00  0.00     0.031 C 
ATOM     48  C   UNL A   1      41.711  25.098  27.808  1.00  0.00     0.029 A 
ATOM     49  C   UNL A   1      43.106  25.408  27.509  1.00  0.00     0.049 A 
ATOM     50  H   UNL A   1      44.057  27.255  27.677  1.00  0.00     0.167 HD
ATOM     51  C   UNL A   1      45.935  31.187  28.040  1.00  0.00     0.031 A 
ATOM     52  C   UNL A   1      44.021  24.525  27.066  1.00  0.00     0.031 A 
ATOM     53  C   UNL A   1      46.991  30.308  27.614  1.00  0.00     0.049 A 
ATOM     54  C   UNL A   1      45.436  24.983  26.845  1.00  0.00     0.074 A 
ATOM     55  C   UNL A   1      48.323  30.608  27.386  1.00  0.00     0.029 A 
ATOM     56  N   UNL A   1      46.837  28.954  27.362  1.00  0.00    -0.354 N 
ATOM     57  N   UNL A   1      45.945  26.184  26.991  1.00  0.00    -0.248 NA
ATOM     58  C   UNL A   1      46.403  23.963  26.418  1.00  0.00     0.031 C 
ATOM     59  C   UNL A   1      48.969  29.439  26.965  1.00  0.00     0.029 A 
ATOM     60  C   UNL A   1      48.048  28.405  26.975  1.00  0.00     0.049 A 
ATOM     61  H   UNL A   1      45.992  28.456  27.447  1.00  0.00     0.167 HD
ATOM     62  C   UNL A   1      47.296  26.060  26.688  1.00  0.00     0.074 A 
ATOM     63  C   UNL A   1      47.528  24.663  26.378  1.00  0.00     0.031 C 
ATOM     64  C   UNL A   1      48.257  27.015  26.659  1.00  0.00     0.031 A 
BRANCH  51  65
ATOM     65  C   UNL A   1      46.257  32.643  28.251  1.00  0.00    -0.014 A 
ATOM     66  C   UNL A   1      46.589  33.131  29.529  1.00  0.00     0.010 A 
ATOM     67  C   UNL A   1      46.272  33.528  27.157  1.00  0.00     0.010 A 
ATOM     68  C   UNL A   1      46.891  34.482  29.716  1.00  0.00     0.020 A 
ATOM     69  C   UNL A   1      46.601  34.876  27.336  1.00  0.00     0.020 A 
ATOM     70  C   UNL A   1      46.893  35.347  28.618  1.00  0.00     0.054 A 
BRANCH  70  71
ATOM     71  S   UNL A   1      47.319  37.090  28.885  1.00  0.00     0.124 S 
ATOM     72  O   UNL A   1      46.272  37.775  28.131  1.00  0.00    -0.237 OA
ATOM     73  O   UNL A   1      47.236  37.222  30.338  1.00  0.00    -0.237 OA
ATOM     74  O   UNL A   1      48.665  37.207  28.329  1.00  0.00    -0.744 OA
ENDBRANCH  70  71
ENDBRANCH  51  65
BRANCH  52  75
ATOM     75  C   UNL A   1      43.632  23.109  26.823  1.00  0.00    -0.014 A 
ATOM     76  C   UNL A   1      43.998  22.459  25.631  1.00  0.00     0.010 A 
ATOM     77  C   UNL A   1      42.893  22.400  27.788  1.00  0.00     0.010 A 
ATOM     78  C   UNL A   1      43.614  21.136  25.397  1.00  0.00     0.020 A 
ATOM     79  C   UNL A   1      42.531  21.068  27.571  1.00  0.00     0.020 A 
ATOM     80  C   UNL A   1      42.882  20.448  26.370  1.00  0.00     0.054 A 
BRANCH  80  81
ATOM     81  S   UNL A   1      42.434  18.716  26.073  1.00  0.00     0.124 S 
ATOM     82  O   UNL A   1      41.021  18.823  25.723  1.00  0.00    -0.237 OA
ATOM     83  O   UNL A   1      43.330  18.337  24.983  1.00  0.00    -0.237 OA
ATOM     84  O   UNL A   1      42.717  18.069  27.352  1.00  0.00    -0.744 OA
ENDBRANCH  80  81
ENDBRANCH  52  75
BRANCH  64  85
ATOM     85  C   UNL A   1      49.648  26.573  26.295  1.00  0.00    -0.014 A 
ATOM     86  C   UNL A   1      50.144  26.748  24.990  1.00  0.00     0.010 A 
ATOM     87  C   UNL A   1      50.474  25.992  27.274  1.00  0.00     0.010 A 
ATOM     88  C   UNL A   1      51.425  26.302  24.658  1.00  0.00     0.020 A 
ATOM     89  C   UNL A   1      51.766  25.568  26.950  1.00  0.00     0.020 A 
ATOM     90  C   UNL A   1      52.225  25.707  25.639  1.00  0.00     0.054 A 
BRANCH  90  91
ATOM     91  S   UNL A   1      53.888  25.142  25.187  1.00  0.00     0.124 S 
ATOM     92  O   UNL A   1      54.172  25.952  24.007  1.00  0.00    -0.237 OA
ATOM     93  O   UNL A   1      54.674  25.464  26.376  1.00  0.00    -0.237 OA
ATOM     94  O   UNL A   1      53.711  23.713  24.937  1.00  0.00    -0.744 OA
ENDBRANCH  90  91
ENDBRANCH  64  85
ENDBRANCH  38  39
ENDBRANCH  30  33
ENDBRANCH  28  29
ENDBRANCH   1  28
TORSDOF 16
ENDMDL
MODEL 3
REMARK VINA RESULT:     -12.4      5.946      8.130
REMARK SMILES Cc1ccc2nc(NC(=O)[C@H]3CC=CC[C@@H]3C(=O)NCCCCNC(=O)c3ccc(-c4c5nc(c(-c6ccc(S(=O)(=O)[O-])cc6)c6ccc([nH]6)c(-c6ccc(S(=O)(=O)[O-])cc6)c6nc(c(-c7ccc(S(=O)(=O)[O-])cc7)c7ccc4[nH]7)C=C6)C=C5)cc3)sc2c1
REMARK SMILES IDX 22 1 21 2 20 3 19 4 17 5 18 6 16 8 11 9 12 10 13 11 15 12
REMARK SMILES IDX 14 13 9 14 8 15 10 17 7 18 1 19 2 20 3 21 89 22 4 23 88 24
REMARK SMILES IDX 5 25 87 26 6 27 23 28 24 29 25 30 26 32 27 33 28 34 86 35
REMARK SMILES IDX 29 36 85 37 30 38 31 39 32 40 79 41 33 42 84 43 78 44 80 45
REMARK SMILES IDX 34 46 83 47 77 48 76 49 35 51 65 52 46 53 64 54 47 55 50 56
REMARK SMILES IDX 63 57 81 58 48 59 49 60 62 62 82 63 51 64 36 65 37 66 45 67
REMARK SMILES IDX 38 68 44 69 39 70 40 71 41 72 42 73 43 74 66 75 67 76 75 77
REMARK SMILES IDX 68 78 74 79 69 80 70 81 71 82 72 83 73 84 52 85 53 86 61 87
REMARK SMILES IDX 54 88 60 89 55 90 56 91 57 92 58 93 59 94
REMARK H PARENT 19 7 8 16 24 31 80 50 50 61
REMARK Flexibility Score: inf
ROOT
ATOM      1  C   UNL A   1      38.394  19.568  25.021  1.00  0.00     0.023 C 
ENDROOT
BRANCH   1   2
ATOM      2  C   UNL A   1      37.074  20.339  24.977  1.00  0.00     0.023 C 
BRANCH   2   3
ATOM      3  C   UNL A   1      37.195  21.828  25.292  1.00  0.00     0.116 C 
BRANCH   3   4
ATOM      4  N   UNL A   1      36.248  22.278  26.299  1.00  0.00    -0.356 N 
ATOM      5  C   UNL A   1      34.916  22.580  26.194  1.00  0.00     0.224 C 
ATOM      6  O   UNL A   1      34.304  22.851  27.227  1.00  0.00    -0.275 OA
ATOM      7  H   UNL A   1      36.625  22.381  27.202  1.00  0.00     0.163 HD
BRANCH   5   8
ATOM      8  C   UNL A   1      34.248  22.512  24.822  1.00  0.00     0.095 C 
ATOM      9  C   UNL A   1      33.277  23.709  24.600  1.00  0.00     0.095 C 
ATOM     10  C   UNL A   1      31.768  23.396  24.675  1.00  0.00     0.041 C 
ATOM     11  C   UNL A   1      31.396  22.047  25.201  1.00  0.00    -0.030 C 
ATOM     12  C   UNL A   1      33.621  21.121  24.651  1.00  0.00     0.041 C 
ATOM     13  C   UNL A   1      32.233  21.007  25.186  1.00  0.00    -0.030 C 
BRANCH   9  14
ATOM     14  C   UNL A   1      33.665  24.382  23.268  1.00  0.00     0.230 C 
ATOM     15  N   UNL A   1      33.750  25.748  23.165  1.00  0.00    -0.302 N 
ATOM     16  H   UNL A   1      34.194  26.113  22.366  1.00  0.00     0.172 HD
ATOM     17  O   UNL A   1      34.059  23.717  22.305  1.00  0.00    -0.274 OA
BRANCH  15  18
ATOM     18  C   UNL A   1      33.272  26.641  24.078  1.00  0.00     0.190 A 
ATOM     19  C   UNL A   1      31.403  31.942  26.501  1.00  0.00     0.044 C 
ATOM     20  C   UNL A   1      31.947  30.556  26.289  1.00  0.00    -0.050 A 
ATOM     21  C   UNL A   1      33.075  30.151  27.007  1.00  0.00     0.006 A 
ATOM     22  C   UNL A   1      31.403  29.726  25.289  1.00  0.00     0.024 A 
ATOM     23  C   UNL A   1      33.707  28.941  26.720  1.00  0.00     0.030 A 
ATOM     24  C   UNL A   1      32.079  28.535  24.973  1.00  0.00     0.057 A 
ATOM     25  C   UNL A   1      33.231  28.151  25.662  1.00  0.00     0.084 A 
ATOM     26  S   UNL A   1      31.769  27.363  23.732  1.00  0.00    -0.097 S 
ATOM     27  N   UNL A   1      33.859  27.033  25.170  1.00  0.00    -0.220 NA
ENDBRANCH  15  18
ENDBRANCH   9  14
ENDBRANCH   5   8
ENDBRANCH   3   4
ENDBRANCH   2   3
ENDBRANCH   1   2
BRANCH   1  28
ATOM     28  C   UNL A   1      39.510  20.195  25.845  1.00  0.00     0.116 C 
BRANCH  28  29
ATOM     29  N   UNL A   1      40.598  19.273  26.108  1.00  0.00    -0.352 N 
ATOM     30  C   UNL A   1      41.912  19.529  26.424  1.00  0.00     0.251 C 
ATOM     31  H   UNL A   1      40.361  18.320  26.050  1.00  0.00     0.163 HD
ATOM     32  O   UNL A   1      42.707  18.594  26.449  1.00  0.00    -0.269 OA
BRANCH  30  33
ATOM     33  C   UNL A   1      42.385  20.908  26.710  1.00  0.00     0.039 A 
ATOM     34  C   UNL A   1      42.713  21.735  25.631  1.00  0.00     0.014 A 
ATOM     35  C   UNL A   1      42.560  21.383  28.014  1.00  0.00     0.014 A 
ATOM     36  C   UNL A   1      43.182  23.033  25.857  1.00  0.00     0.010 A 
ATOM     37  C   UNL A   1      42.945  22.707  28.237  1.00  0.00     0.010 A 
ATOM     38  C   UNL A   1      43.285  23.540  27.162  1.00  0.00    -0.014 A 
BRANCH  38  39
ATOM     39  C   UNL A   1      43.782  24.921  27.406  1.00  0.00     0.031 A 
ATOM     40  C   UNL A   1      45.230  25.265  27.159  1.00  0.00     0.074 A 
ATOM     41  C   UNL A   1      42.936  25.867  27.861  1.00  0.00     0.049 A 
ATOM     42  N   UNL A   1      45.841  26.414  27.304  1.00  0.00    -0.248 NA
ATOM     43  C   UNL A   1      46.113  24.173  26.719  1.00  0.00     0.031 C 
ATOM     44  C   UNL A   1      41.525  25.653  28.196  1.00  0.00     0.029 A 
ATOM     45  N   UNL A   1      43.137  27.201  28.117  1.00  0.00    -0.354 N 
ATOM     46  C   UNL A   1      47.175  26.180  26.985  1.00  0.00     0.074 A 
ATOM     47  C   UNL A   1      47.297  24.769  26.696  1.00  0.00     0.031 C 
ATOM     48  C   UNL A   1      40.981  26.821  28.574  1.00  0.00     0.029 A 
ATOM     49  C   UNL A   1      42.006  27.860  28.537  1.00  0.00     0.049 A 
ATOM     50  H   UNL A   1      44.010  27.644  28.009  1.00  0.00     0.167 HD
ATOM     51  C   UNL A   1      48.202  27.061  26.911  1.00  0.00     0.031 A 
ATOM     52  C   UNL A   1      41.810  29.156  28.846  1.00  0.00     0.031 A 
ATOM     53  C   UNL A   1      48.079  28.470  27.174  1.00  0.00     0.049 A 
ATOM     54  C   UNL A   1      42.955  30.122  28.717  1.00  0.00     0.074 A 
ATOM     55  C   UNL A   1      49.050  29.452  27.083  1.00  0.00     0.029 A 
ATOM     56  N   UNL A   1      46.909  29.099  27.569  1.00  0.00    -0.354 N 
ATOM     57  N   UNL A   1      44.196  29.885  28.362  1.00  0.00    -0.248 NA
ATOM     58  C   UNL A   1      42.668  31.533  29.012  1.00  0.00     0.031 C 
ATOM     59  C   UNL A   1      48.474  30.673  27.454  1.00  0.00     0.029 A 
ATOM     60  C   UNL A   1      47.134  30.455  27.732  1.00  0.00     0.049 A 
ATOM     61  H   UNL A   1      46.045  28.649  27.711  1.00  0.00     0.167 HD
ATOM     62  C   UNL A   1      44.834  31.120  28.376  1.00  0.00     0.074 A 
ATOM     63  C   UNL A   1      43.835  32.103  28.748  1.00  0.00     0.031 C 
ATOM     64  C   UNL A   1      46.131  31.416  28.114  1.00  0.00     0.031 A 
BRANCH  51  65
ATOM     65  C   UNL A   1      49.551  26.523  26.510  1.00  0.00    -0.014 A 
ATOM     66  C   UNL A   1      50.426  25.982  27.471  1.00  0.00     0.010 A 
ATOM     67  C   UNL A   1      49.934  26.515  25.156  1.00  0.00     0.010 A 
ATOM     68  C   UNL A   1      51.674  25.481  27.091  1.00  0.00     0.020 A 
ATOM     69  C   UNL A   1      51.171  25.989  24.769  1.00  0.00     0.020 A 
ATOM     70  C   UNL A   1      52.039  25.489  25.742  1.00  0.00     0.054 A 
BRANCH  70  71
ATOM     71  S   UNL A   1      53.652  24.804  25.274  1.00  0.00     0.124 S 
ATOM     72  O   UNL A   1      53.318  23.408  25.003  1.00  0.00    -0.237 OA
ATOM     73  O   UNL A   1      54.014  25.602  24.106  1.00  0.00    -0.237 OA
ATOM     74  O   UNL A   1      54.480  25.027  26.458  1.00  0.00    -0.744 OA
ENDBRANCH  70  71
ENDBRANCH  51  65
BRANCH  52  75
ATOM     75  C   UNL A   1      40.467  29.621  29.289  1.00  0.00    -0.014 A 
ATOM     76  C   UNL A   1      40.194  29.828  30.653  1.00  0.00     0.010 A 
ATOM     77  C   UNL A   1      39.453  29.862  28.345  1.00  0.00     0.010 A 
ATOM     78  C   UNL A   1      38.926  30.246  31.067  1.00  0.00     0.020 A 
ATOM     79  C   UNL A   1      38.192  30.307  28.753  1.00  0.00     0.020 A 
ATOM     80  C   UNL A   1      37.932  30.482  30.113  1.00  0.00     0.054 A 
BRANCH  80  81
ATOM     81  S   UNL A   1      36.307  31.072  30.662  1.00  0.00     0.124 S 
ATOM     82  O   UNL A   1      36.627  32.394  31.192  1.00  0.00    -0.237 OA
ATOM     83  O   UNL A   1      35.528  31.055  29.426  1.00  0.00    -0.237 OA
ATOM     84  O   UNL A   1      35.903  30.078  31.654  1.00  0.00    -0.744 OA
ENDBRANCH  80  81
ENDBRANCH  52  75
BRANCH  64  85
ATOM     85  C   UNL A   1      46.534  32.862  28.207  1.00  0.00    -0.014 A 
ATOM     86  C   UNL A   1      46.842  33.450  29.447  1.00  0.00     0.010 A 
ATOM     87  C   UNL A   1      46.620  33.638  27.037  1.00  0.00     0.010 A 
ATOM     88  C   UNL A   1      47.181  34.802  29.522  1.00  0.00     0.020 A 
ATOM     89  C   UNL A   1      46.985  34.986  27.106  1.00  0.00     0.020 A 
ATOM     90  C   UNL A   1      47.242  35.563  28.351  1.00  0.00     0.054 A 
BRANCH  90  91
ATOM     91  S   UNL A   1      47.692  37.317  28.470  1.00  0.00     0.124 S 
ATOM     92  O   UNL A   1      47.147  37.680  29.774  1.00  0.00    -0.237 OA
ATOM     93  O   UNL A   1      49.150  37.284  28.384  1.00  0.00    -0.237 OA
ATOM     94  O   UNL A   1      47.022  37.923  27.321  1.00  0.00    -0.744 OA
ENDBRANCH  90  91
ENDBRANCH  64  85
ENDBRANCH  38  39
ENDBRANCH  30  33
ENDBRANCH  28  29
ENDBRANCH   1  28
TORSDOF 16
ENDMDL
