MODEL 1
REMARK VINA RESULT:     -10.7      0.000      0.000
REMARK SMILES O=C(NCCCCNC(=O)[C@@H]1C=C[C@@H]([NH+]2CC3(CCOCC3)C2)C1)c1ccc(-c2c3nc(c(-c4ccc(S(=O)(=O)[O-])cc4)c4ccc([nH]4)c(-c4ccc(S(=O)(=O)[O-])cc4)c4nc(c(-c5ccc(S(=O)(=O)[O-])cc5)c5ccc2[nH]5)C=C4)C=C3)cc1
REMARK SMILES IDX 4 1 3 2 1 3 2 4 25 6 26 7 84 8 27 9 83 10 28 11 29 12 30 13
REMARK SMILES IDX 77 14 31 15 82 16 76 17 78 18 32 19 81 20 75 21 74 22 33 24
REMARK SMILES IDX 63 25 44 26 62 27 45 28 48 29 61 30 79 31 46 32 47 33 60 35
REMARK SMILES IDX 80 36 49 37 34 38 35 39 43 40 36 41 42 42 37 43 38 44 39 45
REMARK SMILES IDX 40 46 41 47 64 48 65 49 73 50 66 51 72 52 67 53 68 54 69 55
REMARK SMILES IDX 70 56 71 57 50 58 51 59 59 60 52 61 58 62 53 63 54 64 55 65
REMARK SMILES IDX 56 66 57 67 5 68 6 69 7 70 8 71 9 72 10 74 11 75 12 76 24 77
REMARK SMILES IDX 13 78 14 79 15 80 16 81 23 82 17 84 18 85 22 86 19 87 21 88
REMARK SMILES IDX 20 89
REMARK H PARENT 3 5 78 23 48 34 8 73 15 83
REMARK Flexibility Score: inf
ROOT
ATOM      1  C   UNL A   1      34.277  28.089  26.791  1.00  0.00     0.116 C 
ENDROOT
BRANCH   1   2
ATOM      2  N   UNL A   1      33.784  29.395  27.205  1.00  0.00    -0.352 N 
ATOM      3  O   UNL A   1      33.911  31.373  28.298  1.00  0.00    -0.269 OA
ATOM      4  C   UNL A   1      34.468  30.353  27.923  1.00  0.00     0.251 C 
ATOM      5  H   UNL A   1      32.861  29.617  26.945  1.00  0.00     0.163 HD
BRANCH   4   6
ATOM      6  C   UNL A   1      35.882  30.087  28.263  1.00  0.00     0.039 A 
ATOM      7  C   UNL A   1      36.875  30.262  27.297  1.00  0.00     0.014 A 
ATOM      8  C   UNL A   1      36.198  29.591  29.529  1.00  0.00     0.014 A 
ATOM      9  C   UNL A   1      38.162  29.810  27.550  1.00  0.00     0.010 A 
ATOM     10  C   UNL A   1      37.515  29.219  29.810  1.00  0.00     0.010 A 
ATOM     11  C   UNL A   1      38.501  29.300  28.814  1.00  0.00    -0.014 A 
BRANCH  11  12
ATOM     12  C   UNL A   1      39.914  28.951  29.090  1.00  0.00     0.031 A 
ATOM     13  C   UNL A   1      40.489  27.621  28.686  1.00  0.00     0.074 A 
ATOM     14  C   UNL A   1      40.687  29.874  29.695  1.00  0.00     0.049 A 
ATOM     15  N   UNL A   1      41.707  27.175  28.850  1.00  0.00    -0.248 NA
ATOM     16  C   UNL A   1      39.586  26.669  28.019  1.00  0.00     0.031 C 
ATOM     17  C   UNL A   1      40.227  31.197  30.138  1.00  0.00     0.029 A 
ATOM     18  N   UNL A   1      42.015  29.859  30.027  1.00  0.00    -0.354 N 
ATOM     19  C   UNL A   1      41.716  25.885  28.332  1.00  0.00     0.074 A 
ATOM     20  C   UNL A   1      40.376  25.614  27.856  1.00  0.00     0.031 C 
ATOM     21  C   UNL A   1      41.267  31.879  30.638  1.00  0.00     0.029 A 
ATOM     22  C   UNL A   1      42.446  31.024  30.617  1.00  0.00     0.049 A 
ATOM     23  H   UNL A   1      42.605  29.089  29.859  1.00  0.00     0.167 HD
ATOM     24  C   UNL A   1      42.749  25.011  28.265  1.00  0.00     0.031 A 
ATOM     25  C   UNL A   1      43.650  31.361  31.111  1.00  0.00     0.031 A 
ATOM     26  C   UNL A   1      44.081  25.297  28.734  1.00  0.00     0.049 A 
ATOM     27  C   UNL A   1      44.768  30.364  31.037  1.00  0.00     0.074 A 
ATOM     28  C   UNL A   1      45.204  24.490  28.673  1.00  0.00     0.029 A 
ATOM     29  N   UNL A   1      44.470  26.475  29.352  1.00  0.00    -0.354 N 
ATOM     30  N   UNL A   1      44.761  29.162  30.514  1.00  0.00    -0.248 NA
ATOM     31  C   UNL A   1      46.052  30.766  31.623  1.00  0.00     0.031 C 
ATOM     32  C   UNL A   1      46.260  25.160  29.298  1.00  0.00     0.029 A 
ATOM     33  C   UNL A   1      45.808  26.406  29.701  1.00  0.00     0.049 A 
ATOM     34  H   UNL A   1      43.882  27.247  29.517  1.00  0.00     0.167 HD
ATOM     35  C   UNL A   1      46.044  28.664  30.701  1.00  0.00     0.074 A 
ATOM     36  C   UNL A   1      46.805  29.708  31.359  1.00  0.00     0.031 C 
ATOM     37  C   UNL A   1      46.545  27.452  30.364  1.00  0.00     0.031 A 
BRANCH  24  38
ATOM     38  C   UNL A   1      42.488  23.646  27.686  1.00  0.00    -0.014 A 
ATOM     39  C   UNL A   1      42.738  23.369  26.330  1.00  0.00     0.010 A 
ATOM     40  C   UNL A   1      42.076  22.600  28.533  1.00  0.00     0.010 A 
ATOM     41  C   UNL A   1      42.568  22.074  25.830  1.00  0.00     0.020 A 
ATOM     42  C   UNL A   1      41.923  21.300  28.041  1.00  0.00     0.020 A 
ATOM     43  C   UNL A   1      42.162  21.047  26.689  1.00  0.00     0.054 A 
BRANCH  43  44
ATOM     44  S   UNL A   1      42.001  19.365  26.025  1.00  0.00     0.124 S 
ATOM     45  O   UNL A   1      40.563  19.274  25.785  1.00  0.00    -0.237 OA
ATOM     46  O   UNL A   1      42.835  19.412  24.828  1.00  0.00    -0.237 OA
ATOM     47  O   UNL A   1      42.508  18.517  27.100  1.00  0.00    -0.744 OA
ENDBRANCH  43  44
ENDBRANCH  24  38
BRANCH  25  48
ATOM     48  C   UNL A   1      43.840  32.688  31.753  1.00  0.00    -0.014 A 
ATOM     49  C   UNL A   1      43.632  32.858  33.132  1.00  0.00     0.010 A 
ATOM     50  C   UNL A   1      44.249  33.791  30.979  1.00  0.00     0.010 A 
ATOM     51  C   UNL A   1      43.809  34.112  33.723  1.00  0.00     0.020 A 
ATOM     52  C   UNL A   1      44.457  35.038  31.572  1.00  0.00     0.020 A 
ATOM     53  C   UNL A   1      44.219  35.194  32.938  1.00  0.00     0.054 A 
BRANCH  53  54
ATOM     54  S   UNL A   1      44.482  36.805  33.727  1.00  0.00     0.124 S 
ATOM     55  O   UNL A   1      44.744  36.424  35.112  1.00  0.00    -0.237 OA
ATOM     56  O   UNL A   1      45.625  37.340  32.991  1.00  0.00    -0.237 OA
ATOM     57  O   UNL A   1      43.221  37.506  33.496  1.00  0.00    -0.744 OA
ENDBRANCH  53  54
ENDBRANCH  25  48
BRANCH  37  58
ATOM     58  C   UNL A   1      47.990  27.200  30.689  1.00  0.00    -0.014 A 
ATOM     59  C   UNL A   1      49.007  27.542  29.781  1.00  0.00     0.010 A 
ATOM     60  C   UNL A   1      48.336  26.639  31.932  1.00  0.00     0.010 A 
ATOM     61  C   UNL A   1      50.345  27.294  30.095  1.00  0.00     0.020 A 
ATOM     62  C   UNL A   1      49.675  26.413  32.260  1.00  0.00     0.020 A 
ATOM     63  C   UNL A   1      50.670  26.728  31.332  1.00  0.00     0.054 A 
BRANCH  63  64
ATOM     64  S   UNL A   1      52.415  26.443  31.732  1.00  0.00     0.124 S 
ATOM     65  O   UNL A   1      53.028  26.407  30.406  1.00  0.00    -0.237 OA
ATOM     66  O   UNL A   1      52.753  27.607  32.548  1.00  0.00    -0.237 OA
ATOM     67  O   UNL A   1      52.403  25.170  32.448  1.00  0.00    -0.744 OA
ENDBRANCH  63  64
ENDBRANCH  37  58
ENDBRANCH  11  12
ENDBRANCH   4   6
ENDBRANCH   1   2
BRANCH   1  68
ATOM     68  C   UNL A   1      33.223  27.216  26.131  1.00  0.00     0.023 C 
BRANCH  68  69
ATOM     69  C   UNL A   1      31.787  27.504  26.569  1.00  0.00     0.023 C 
BRANCH  69  70
ATOM     70  C   UNL A   1      30.697  26.805  25.751  1.00  0.00     0.116 C 
BRANCH  70  71
ATOM     71  N   UNL A   1      30.172  25.622  26.395  1.00  0.00    -0.356 N 
ATOM     72  C   UNL A   1      30.664  24.356  26.472  1.00  0.00     0.227 C 
ATOM     73  H   UNL A   1      29.313  25.755  26.859  1.00  0.00     0.163 HD
ATOM     74  O   UNL A   1      30.120  23.601  27.287  1.00  0.00    -0.274 OA
BRANCH  72  75
ATOM     75  C   UNL A   1      31.812  23.822  25.599  1.00  0.00     0.107 C 
ATOM     76  C   UNL A   1      31.494  22.866  24.494  1.00  0.00    -0.012 C 
ATOM     77  C   UNL A   1      32.952  23.130  26.344  1.00  0.00     0.087 C 
ATOM     78  C   UNL A   1      32.184  21.722  24.607  1.00  0.00     0.033 C 
ATOM     79  C   UNL A   1      32.957  21.654  25.892  1.00  0.00     0.208 C 
BRANCH  79  80
ATOM     80  N   UNL A   1      34.187  20.865  25.818  1.00  0.00    -0.328 N 
ATOM     81  C   UNL A   1      35.279  21.476  26.594  1.00  0.00     0.275 C 
ATOM     82  C   UNL A   1      34.954  20.955  24.575  1.00  0.00     0.275 C 
ATOM     83  H   UNL A   1      33.803  19.951  26.061  1.00  0.00     0.348 HD
ATOM     84  C   UNL A   1      36.040  21.816  25.286  1.00  0.00     0.073 C 
ATOM     85  C   UNL A   1      37.445  21.211  25.155  1.00  0.00     0.047 C 
ATOM     86  C   UNL A   1      36.085  23.306  24.914  1.00  0.00     0.047 C 
ATOM     87  C   UNL A   1      38.446  22.050  25.942  1.00  0.00     0.161 C 
ATOM     88  C   UNL A   1      37.169  24.015  25.714  1.00  0.00     0.161 C 
ATOM     89  O   UNL A   1      38.434  23.400  25.478  1.00  0.00    -0.381 OA
ENDBRANCH  79  80
ENDBRANCH  72  75
ENDBRANCH  70  71
ENDBRANCH  69  70
ENDBRANCH  68  69
ENDBRANCH   1  68
TORSDOF 15
ENDMDL
MODEL 2
REMARK VINA RESULT:     -10.7      1.648      2.369
REMARK SMILES O=C(NCCCCNC(=O)[C@@H]1C=C[C@@H]([NH+]2CC3(CCOCC3)C2)C1)c1ccc(-c2c3nc(c(-c4ccc(S(=O)(=O)[O-])cc4)c4ccc([nH]4)c(-c4ccc(S(=O)(=O)[O-])cc4)c4nc(c(-c5ccc(S(=O)(=O)[O-])cc5)c5ccc2[nH]5)C=C4)C=C3)cc1
REMARK SMILES IDX 4 1 3 2 1 3 2 4 25 6 26 7 84 8 27 9 83 10 28 11 29 12 30 13
REMARK SMILES IDX 77 14 31 15 82 16 76 17 78 18 32 19 81 20 75 21 74 22 33 24
REMARK SMILES IDX 63 25 44 26 62 27 45 28 48 29 61 30 79 31 46 32 47 33 60 35
REMARK SMILES IDX 80 36 49 37 34 38 35 39 43 40 36 41 42 42 37 43 38 44 39 45
REMARK SMILES IDX 40 46 41 47 64 48 65 49 73 50 66 51 72 52 67 53 68 54 69 55
REMARK SMILES IDX 70 56 71 57 50 58 51 59 59 60 52 61 58 62 53 63 54 64 55 65
REMARK SMILES IDX 56 66 57 67 5 68 6 69 7 70 8 71 9 72 10 74 11 75 12 76 24 77
REMARK SMILES IDX 13 78 14 79 15 80 16 81 23 82 17 84 18 85 22 86 19 87 21 88
REMARK SMILES IDX 20 89
REMARK H PARENT 3 5 78 23 48 34 8 73 15 83
REMARK Flexibility Score: inf
ROOT
ATOM      1  C   UNL A   1      33.806  28.138  27.048  1.00  0.00     0.116 C 
ENDROOT
BRANCH   1   2
ATOM      2  N   UNL A   1      33.537  29.527  27.389  1.00  0.00    -0.352 N 
ATOM      3  O   UNL A   1      34.031  31.538  28.302  1.00  0.00    -0.269 OA
ATOM      4  C   UNL A   1      34.407  30.424  27.971  1.00  0.00     0.251 C 
ATOM      5  H   UNL A   1      32.634  29.861  27.184  1.00  0.00     0.163 HD
BRANCH   4   6
ATOM      6  C   UNL A   1      35.795  29.982  28.221  1.00  0.00     0.039 A 
ATOM      7  C   UNL A   1      36.156  29.504  29.483  1.00  0.00     0.014 A 
ATOM      8  C   UNL A   1      36.748  30.118  27.210  1.00  0.00     0.014 A 
ATOM      9  C   UNL A   1      37.496  29.293  29.776  1.00  0.00     0.010 A 
ATOM     10  C   UNL A   1      38.086  29.820  27.485  1.00  0.00     0.010 A 
ATOM     11  C   UNL A   1      38.473  29.431  28.777  1.00  0.00    -0.014 A 
BRANCH  11  12
ATOM     12  C   UNL A   1      39.875  29.071  29.091  1.00  0.00     0.031 A 
ATOM     13  C   UNL A   1      40.451  27.739  28.701  1.00  0.00     0.074 A 
ATOM     14  C   UNL A   1      40.637  29.989  29.719  1.00  0.00     0.049 A 
ATOM     15  N   UNL A   1      41.662  27.283  28.898  1.00  0.00    -0.248 NA
ATOM     16  C   UNL A   1      39.561  26.794  28.008  1.00  0.00     0.031 C 
ATOM     17  C   UNL A   1      40.175  31.314  30.151  1.00  0.00     0.029 A 
ATOM     18  N   UNL A   1      41.956  29.964  30.087  1.00  0.00    -0.354 N 
ATOM     19  C   UNL A   1      41.676  25.995  28.378  1.00  0.00     0.074 A 
ATOM     20  C   UNL A   1      40.348  25.734  27.865  1.00  0.00     0.031 C 
ATOM     21  C   UNL A   1      41.206  31.989  30.680  1.00  0.00     0.029 A 
ATOM     22  C   UNL A   1      42.379  31.125  30.690  1.00  0.00     0.049 A 
ATOM     23  H   UNL A   1      42.545  29.190  29.934  1.00  0.00     0.167 HD
ATOM     24  C   UNL A   1      42.704  25.113  28.338  1.00  0.00     0.031 A 
ATOM     25  C   UNL A   1      43.571  31.453  31.218  1.00  0.00     0.031 A 
ATOM     26  C   UNL A   1      44.025  25.389  28.844  1.00  0.00     0.049 A 
ATOM     27  C   UNL A   1      44.683  30.448  31.174  1.00  0.00     0.074 A 
ATOM     28  C   UNL A   1      45.143  24.574  28.813  1.00  0.00     0.029 A 
ATOM     29  N   UNL A   1      44.405  26.564  29.474  1.00  0.00    -0.354 N 
ATOM     30  N   UNL A   1      44.682  29.247  30.648  1.00  0.00    -0.248 NA
ATOM     31  C   UNL A   1      45.954  30.840  31.795  1.00  0.00     0.031 C 
ATOM     32  C   UNL A   1      46.187  25.237  29.468  1.00  0.00     0.029 A 
ATOM     33  C   UNL A   1      45.733  26.485  29.860  1.00  0.00     0.049 A 
ATOM     34  H   UNL A   1      43.818  27.340  29.625  1.00  0.00     0.167 HD
ATOM     35  C   UNL A   1      45.956  28.740  30.870  1.00  0.00     0.074 A 
ATOM     36  C   UNL A   1      46.706  29.777  31.550  1.00  0.00     0.031 C 
ATOM     37  C   UNL A   1      46.458  27.524  30.545  1.00  0.00     0.031 A 
BRANCH  24  38
ATOM     38  C   UNL A   1      42.449  23.750  27.750  1.00  0.00    -0.014 A 
ATOM     39  C   UNL A   1      42.725  23.477  26.398  1.00  0.00     0.010 A 
ATOM     40  C   UNL A   1      42.019  22.703  28.586  1.00  0.00     0.010 A 
ATOM     41  C   UNL A   1      42.559  22.184  25.891  1.00  0.00     0.020 A 
ATOM     42  C   UNL A   1      41.871  21.406  28.087  1.00  0.00     0.020 A 
ATOM     43  C   UNL A   1      42.134  21.155  26.740  1.00  0.00     0.054 A 
BRANCH  43  44
ATOM     44  S   UNL A   1      41.980  19.477  26.067  1.00  0.00     0.124 S 
ATOM     45  O   UNL A   1      40.543  19.383  25.822  1.00  0.00    -0.237 OA
ATOM     46  O   UNL A   1      42.818  19.532  24.873  1.00  0.00    -0.237 OA
ATOM     47  O   UNL A   1      42.486  18.625  27.140  1.00  0.00    -0.744 OA
ENDBRANCH  43  44
ENDBRANCH  24  38
BRANCH  25  48
ATOM     48  C   UNL A   1      43.752  32.778  31.867  1.00  0.00    -0.014 A 
ATOM     49  C   UNL A   1      44.208  33.883  31.130  1.00  0.00     0.010 A 
ATOM     50  C   UNL A   1      43.449  32.940  33.232  1.00  0.00     0.010 A 
ATOM     51  C   UNL A   1      44.379  35.123  31.752  1.00  0.00     0.020 A 
ATOM     52  C   UNL A   1      43.590  34.184  33.849  1.00  0.00     0.020 A 
ATOM     53  C   UNL A   1      44.070  35.265  33.108  1.00  0.00     0.054 A 
BRANCH  53  54
ATOM     54  S   UNL A   1      44.261  36.889  33.890  1.00  0.00     0.124 S 
ATOM     55  O   UNL A   1      45.118  36.578  35.030  1.00  0.00    -0.237 OA
ATOM     56  O   UNL A   1      44.878  37.684  32.831  1.00  0.00    -0.237 OA
ATOM     57  O   UNL A   1      42.889  37.270  34.221  1.00  0.00    -0.744 OA
ENDBRANCH  53  54
ENDBRANCH  25  48
BRANCH  37  58
ATOM     58  C   UNL A   1      47.892  27.262  30.909  1.00  0.00    -0.014 A 
ATOM     59  C   UNL A   1      48.940  27.678  30.069  1.00  0.00     0.010 A 
ATOM     60  C   UNL A   1      48.194  26.615  32.121  1.00  0.00     0.010 A 
ATOM     61  C   UNL A   1      50.267  27.420  30.419  1.00  0.00     0.020 A 
ATOM     62  C   UNL A   1      49.522  26.377  32.485  1.00  0.00     0.020 A 
ATOM     63  C   UNL A   1      50.549  26.767  31.624  1.00  0.00     0.054 A 
BRANCH  63  64
ATOM     64  S   UNL A   1      52.280  26.470  32.072  1.00  0.00     0.124 S 
ATOM     65  O   UNL A   1      52.150  25.505  33.161  1.00  0.00    -0.237 OA
ATOM     66  O   UNL A   1      52.849  25.945  30.833  1.00  0.00    -0.237 OA
ATOM     67  O   UNL A   1      52.768  27.790  32.464  1.00  0.00    -0.744 OA
ENDBRANCH  63  64
ENDBRANCH  37  58
ENDBRANCH  11  12
ENDBRANCH   4   6
ENDBRANCH   1   2
BRANCH   1  68
ATOM     68  C   UNL A   1      33.716  27.842  25.560  1.00  0.00     0.023 C 
BRANCH  68  69
ATOM     69  C   UNL A   1      33.221  29.008  24.705  1.00  0.00     0.023 C 
BRANCH  69  70
ATOM     70  C   UNL A   1      33.290  28.788  23.190  1.00  0.00     0.116 C 
BRANCH  70  71
ATOM     71  N   UNL A   1      32.148  29.323  22.484  1.00  0.00    -0.356 N 
ATOM     72  C   UNL A   1      30.914  28.796  22.257  1.00  0.00     0.227 C 
ATOM     73  H   UNL A   1      32.285  30.221  22.103  1.00  0.00     0.163 HD
ATOM     74  O   UNL A   1      30.053  29.572  21.824  1.00  0.00    -0.274 OA
BRANCH  72  75
ATOM     75  C   UNL A   1      30.552  27.318  22.480  1.00  0.00     0.107 C 
ATOM     76  C   UNL A   1      30.394  26.816  23.879  1.00  0.00    -0.012 C 
ATOM     77  C   UNL A   1      31.495  26.297  21.845  1.00  0.00     0.087 C 
ATOM     78  C   UNL A   1      31.199  25.775  24.132  1.00  0.00     0.033 C 
ATOM     79  C   UNL A   1      32.147  25.507  23.000  1.00  0.00     0.208 C 
BRANCH  79  80
ATOM     80  N   UNL A   1      32.542  24.105  22.861  1.00  0.00    -0.328 N 
ATOM     81  C   UNL A   1      32.300  23.341  24.097  1.00  0.00     0.275 C 
ATOM     82  C   UNL A   1      33.977  23.815  22.906  1.00  0.00     0.275 C 
ATOM     83  H   UNL A   1      32.052  23.887  21.993  1.00  0.00     0.348 HD
ATOM     84  C   UNL A   1      33.827  23.203  24.331  1.00  0.00     0.073 C 
ATOM     85  C   UNL A   1      34.363  21.766  24.408  1.00  0.00     0.047 C 
ATOM     86  C   UNL A   1      34.396  24.028  25.494  1.00  0.00     0.047 C 
ATOM     87  C   UNL A   1      34.110  21.194  25.798  1.00  0.00     0.161 C 
ATOM     88  C   UNL A   1      34.144  23.316  26.816  1.00  0.00     0.161 C 
ATOM     89  O   UNL A   1      34.724  22.014  26.792  1.00  0.00    -0.381 OA
ENDBRANCH  79  80
ENDBRANCH  72  75
ENDBRANCH  70  71
ENDBRANCH  69  70
ENDBRANCH  68  69
ENDBRANCH   1  68
TORSDOF 15
ENDMDL
MODEL 3
REMARK VINA RESULT:     -10.6      3.211      9.647
REMARK SMILES O=C(NCCCCNC(=O)[C@@H]1C=C[C@@H]([NH+]2CC3(CCOCC3)C2)C1)c1ccc(-c2c3nc(c(-c4ccc(S(=O)(=O)[O-])cc4)c4ccc([nH]4)c(-c4ccc(S(=O)(=O)[O-])cc4)c4nc(c(-c5ccc(S(=O)(=O)[O-])cc5)c5ccc2[nH]5)C=C4)C=C3)cc1
REMARK SMILES IDX 4 1 3 2 1 3 2 4 25 6 26 7 84 8 27 9 83 10 28 11 29 12 30 13
REMARK SMILES IDX 77 14 31 15 82 16 76 17 78 18 32 19 81 20 75 21 74 22 33 24
REMARK SMILES IDX 63 25 44 26 62 27 45 28 48 29 61 30 79 31 46 32 47 33 60 35
REMARK SMILES IDX 80 36 49 37 34 38 35 39 43 40 36 41 42 42 37 43 38 44 39 45
REMARK SMILES IDX 40 46 41 47 64 48 65 49 73 50 66 51 72 52 67 53 68 54 69 55
REMARK SMILES IDX 70 56 71 57 50 58 51 59 59 60 52 61 58 62 53 63 54 64 55 65
REMARK SMILES IDX 56 66 57 67 5 68 6 69 7 70 8 71 9 72 10 74 11 75 12 76 24 77
REMARK SMILES IDX 13 78 14 79 15 80 16 81 23 82 17 84 18 85 22 86 19 87 21 88
REMARK SMILES IDX 20 89
REMARK H PARENT 3 5 78 23 48 34 8 73 15 83
REMARK Flexibility Score: inf
ROOT
ATOM      1  C   UNL A   1      36.448  24.160  25.757  1.00  0.00     0.116 C 
ENDROOT
BRANCH   1   2
ATOM      2  N   UNL A   1      37.337  23.013  25.644  1.00  0.00    -0.352 N 
ATOM      3  O   UNL A   1      39.327  21.948  25.806  1.00  0.00    -0.269 OA
ATOM      4  C   UNL A   1      38.653  22.937  26.048  1.00  0.00     0.251 C 
ATOM      5  H   UNL A   1      36.957  22.204  25.231  1.00  0.00     0.163 HD
BRANCH   4   6
ATOM      6  C   UNL A   1      39.234  24.105  26.743  1.00  0.00     0.039 A 
ATOM      7  C   UNL A   1      38.976  24.307  28.100  1.00  0.00     0.014 A 
ATOM      8  C   UNL A   1      39.975  25.036  26.011  1.00  0.00     0.014 A 
ATOM      9  C   UNL A   1      39.340  25.507  28.694  1.00  0.00     0.010 A 
ATOM     10  C   UNL A   1      40.415  26.205  26.637  1.00  0.00     0.010 A 
ATOM     11  C   UNL A   1      40.079  26.461  27.975  1.00  0.00    -0.014 A 
BRANCH  11  12
ATOM     12  C   UNL A   1      40.563  27.671  28.679  1.00  0.00     0.031 A 
ATOM     13  C   UNL A   1      39.665  28.852  28.922  1.00  0.00     0.074 A 
ATOM     14  C   UNL A   1      41.835  27.676  29.124  1.00  0.00     0.049 A 
ATOM     15  N   UNL A   1      39.941  29.977  29.531  1.00  0.00    -0.248 NA
ATOM     16  C   UNL A   1      38.286  28.768  28.416  1.00  0.00     0.031 C 
ATOM     17  C   UNL A   1      42.797  26.583  28.936  1.00  0.00     0.029 A 
ATOM     18  N   UNL A   1      42.535  28.611  29.839  1.00  0.00    -0.354 N 
ATOM     19  C   UNL A   1      38.784  30.743  29.463  1.00  0.00     0.074 A 
ATOM     20  C   UNL A   1      37.803  29.961  28.743  1.00  0.00     0.031 C 
ATOM     21  C   UNL A   1      43.943  26.893  29.560  1.00  0.00     0.029 A 
ATOM     22  C   UNL A   1      43.823  28.227  30.131  1.00  0.00     0.049 A 
ATOM     23  H   UNL A   1      42.153  29.475  30.118  1.00  0.00     0.167 HD
ATOM     24  C   UNL A   1      38.568  31.988  29.955  1.00  0.00     0.031 A 
ATOM     25  C   UNL A   1      44.809  28.884  30.764  1.00  0.00     0.031 A 
ATOM     26  C   UNL A   1      39.552  32.753  30.679  1.00  0.00     0.049 A 
ATOM     27  C   UNL A   1      44.543  30.267  31.282  1.00  0.00     0.074 A 
ATOM     28  C   UNL A   1      39.413  34.005  31.251  1.00  0.00     0.029 A 
ATOM     29  N   UNL A   1      40.852  32.342  30.927  1.00  0.00    -0.354 N 
ATOM     30  N   UNL A   1      43.431  30.960  31.234  1.00  0.00    -0.248 NA
ATOM     31  C   UNL A   1      45.662  30.956  31.934  1.00  0.00     0.031 C 
ATOM     32  C   UNL A   1      40.645  34.373  31.803  1.00  0.00     0.029 A 
ATOM     33  C   UNL A   1      41.534  33.328  31.621  1.00  0.00     0.049 A 
ATOM     34  H   UNL A   1      41.234  31.477  30.652  1.00  0.00     0.167 HD
ATOM     35  C   UNL A   1      43.715  32.168  31.857  1.00  0.00     0.074 A 
ATOM     36  C   UNL A   1      45.094  32.097  32.298  1.00  0.00     0.031 C 
ATOM     37  C   UNL A   1      42.909  33.241  32.043  1.00  0.00     0.031 A 
BRANCH  24  38
ATOM     38  C   UNL A   1      37.225  32.624  29.712  1.00  0.00    -0.014 A 
ATOM     39  C   UNL A   1      36.169  32.467  30.627  1.00  0.00     0.010 A 
ATOM     40  C   UNL A   1      37.048  33.469  28.601  1.00  0.00     0.010 A 
ATOM     41  C   UNL A   1      34.955  33.132  30.426  1.00  0.00     0.020 A 
ATOM     42  C   UNL A   1      35.843  34.151  28.407  1.00  0.00     0.020 A 
ATOM     43  C   UNL A   1      34.800  33.972  29.317  1.00  0.00     0.054 A 
BRANCH  43  44
ATOM     44  S   UNL A   1      33.234  34.865  29.110  1.00  0.00     0.124 S 
ATOM     45  O   UNL A   1      32.704  34.861  30.470  1.00  0.00    -0.237 OA
ATOM     46  O   UNL A   1      33.670  36.166  28.609  1.00  0.00    -0.237 OA
ATOM     47  O   UNL A   1      32.494  34.049  28.151  1.00  0.00    -0.744 OA
ENDBRANCH  43  44
ENDBRANCH  24  38
BRANCH  25  48
ATOM     48  C   UNL A   1      46.147  28.252  30.905  1.00  0.00    -0.014 A 
ATOM     49  C   UNL A   1      47.126  28.410  29.911  1.00  0.00     0.010 A 
ATOM     50  C   UNL A   1      46.450  27.497  32.054  1.00  0.00     0.010 A 
ATOM     51  C   UNL A   1      48.379  27.806  30.052  1.00  0.00     0.020 A 
ATOM     52  C   UNL A   1      47.711  26.918  32.212  1.00  0.00     0.020 A 
ATOM     53  C   UNL A   1      48.662  27.063  31.202  1.00  0.00     0.054 A 
BRANCH  53  54
ATOM     54  S   UNL A   1      50.305  26.319  31.387  1.00  0.00     0.124 S 
ATOM     55  O   UNL A   1      49.992  24.894  31.398  1.00  0.00    -0.237 OA
ATOM     56  O   UNL A   1      51.011  26.804  30.204  1.00  0.00    -0.237 OA
ATOM     57  O   UNL A   1      50.784  26.867  32.654  1.00  0.00    -0.744 OA
ENDBRANCH  53  54
ENDBRANCH  25  48
BRANCH  37  58
ATOM     58  C   UNL A   1      43.500  34.416  32.768  1.00  0.00    -0.014 A 
ATOM     59  C   UNL A   1      44.098  35.476  32.063  1.00  0.00     0.010 A 
ATOM     60  C   UNL A   1      43.432  34.474  34.172  1.00  0.00     0.010 A 
ATOM     61  C   UNL A   1      44.650  36.558  32.752  1.00  0.00     0.020 A 
ATOM     62  C   UNL A   1      43.961  35.567  34.863  1.00  0.00     0.020 A 
ATOM     63  C   UNL A   1      44.580  36.594  34.149  1.00  0.00     0.054 A 
BRANCH  63  64
ATOM     64  S   UNL A   1      45.275  38.023  35.022  1.00  0.00     0.124 S 
ATOM     65  O   UNL A   1      45.721  38.867  33.916  1.00  0.00    -0.237 OA
ATOM     66  O   UNL A   1      44.131  38.529  35.776  1.00  0.00    -0.237 OA
ATOM     67  O   UNL A   1      46.343  37.446  35.835  1.00  0.00    -0.744 OA
ENDBRANCH  63  64
ENDBRANCH  37  58
ENDBRANCH  11  12
ENDBRANCH   4   6
ENDBRANCH   1   2
BRANCH   1  68
ATOM     68  C   UNL A   1      35.019  23.795  26.122  1.00  0.00     0.023 C 
BRANCH  68  69
ATOM     69  C   UNL A   1      33.972  24.191  25.081  1.00  0.00     0.023 C 
BRANCH  69  70
ATOM     70  C   UNL A   1      32.515  24.096  25.545  1.00  0.00     0.116 C 
BRANCH  70  71
ATOM     71  N   UNL A   1      32.146  25.135  26.481  1.00  0.00    -0.356 N 
ATOM     72  C   UNL A   1      31.739  26.416  26.275  1.00  0.00     0.227 C 
ATOM     73  H   UNL A   1      32.197  24.870  27.428  1.00  0.00     0.163 HD
ATOM     74  O   UNL A   1      31.264  27.009  27.251  1.00  0.00    -0.274 OA
BRANCH  72  75
ATOM     75  C   UNL A   1      31.862  27.156  24.932  1.00  0.00     0.107 C 
ATOM     76  C   UNL A   1      32.030  28.641  24.939  1.00  0.00    -0.012 C 
ATOM     77  C   UNL A   1      30.721  26.936  23.940  1.00  0.00     0.087 C 
ATOM     78  C   UNL A   1      31.081  29.256  24.219  1.00  0.00     0.033 C 
ATOM     79  C   UNL A   1      30.026  28.300  23.742  1.00  0.00     0.208 C 
BRANCH  79  80
ATOM     80  N   UNL A   1      29.393  28.678  22.478  1.00  0.00    -0.328 N 
ATOM     81  C   UNL A   1      29.835  30.005  22.018  1.00  0.00     0.275 C 
ATOM     82  C   UNL A   1      27.996  29.112  22.543  1.00  0.00     0.275 C 
ATOM     83  H   UNL A   1      29.592  27.832  21.943  1.00  0.00     0.348 HD
ATOM     84  C   UNL A   1      28.425  30.589  22.294  1.00  0.00     0.073 C 
ATOM     85  C   UNL A   1      27.711  31.208  21.084  1.00  0.00     0.047 C 
ATOM     86  C   UNL A   1      28.326  31.543  23.493  1.00  0.00     0.047 C 
ATOM     87  C   UNL A   1      28.236  32.619  20.840  1.00  0.00     0.161 C 
ATOM     88  C   UNL A   1      28.810  32.932  23.101  1.00  0.00     0.161 C 
ATOM     89  O   UNL A   1      28.047  33.426  22.002  1.00  0.00    -0.381 OA
ENDBRANCH  79  80
ENDBRANCH  72  75
ENDBRANCH  70  71
ENDBRANCH  69  70
ENDBRANCH  68  69
ENDBRANCH   1  68
TORSDOF 15
ENDMDL
