MODEL 1
REMARK VINA RESULT:     -10.6      0.000      0.000
REMARK SMILES Cc1cc(CNC(=O)C[C@H](C)CC(=O)NCCCCNC(=O)c2ccc(-c3c4nc(c(-c5ccc(S(=O)(=O)[O-])cc5)c5ccc([nH]5)c(-c5ccc(S(=O)(=O)[O-])cc5)c5nc(c(-c6ccc(S(=O)(=O)[O-])cc6)c6ccc3[nH]6)C=C5)C=C4)cc2)cc(C)c1F
REMARK SMILES IDX 16 1 15 2 13 3 14 4 12 6 10 7 11 8 9 9 7 10 6 11 8 13 5 14
REMARK SMILES IDX 4 15 1 16 2 17 3 18 86 19 84 20 87 21 83 22 85 23 17 24
REMARK SMILES IDX 18 25 19 26 20 27 21 28 22 30 23 31 24 32 82 33 25 34 81 35
REMARK SMILES IDX 26 36 27 37 28 38 75 39 29 40 80 41 74 42 76 43 30 44 79 45
REMARK SMILES IDX 73 46 72 47 31 49 61 50 42 51 60 52 43 53 46 54 59 55 77 56
REMARK SMILES IDX 44 57 45 58 58 60 78 61 47 62 32 63 33 64 41 65 34 66 40 67
REMARK SMILES IDX 35 68 36 69 37 70 38 71 39 72 62 73 63 74 71 75 64 76 70 77
REMARK SMILES IDX 65 78 66 79 67 80 68 81 69 82 48 83 49 84 57 85 50 86 56 87
REMARK SMILES IDX 51 88 52 89 53 90 54 91 55 92
REMARK H PARENT 15 5 6 12 20 29 76 48 46 59
REMARK Flexibility Score: inf
ROOT
ATOM      1  C   UNL A   1      33.923  21.474  26.346  1.00  0.00     0.116 C 
ENDROOT
BRANCH   1   2
ATOM      2  N   UNL A   1      33.317  20.705  25.278  1.00  0.00    -0.356 N 
ATOM      3  C   UNL A   1      32.907  21.100  24.038  1.00  0.00     0.220 C 
ATOM      4  O   UNL A   1      32.396  20.267  23.289  1.00  0.00    -0.275 OA
ATOM      5  H   UNL A   1      33.178  19.751  25.477  1.00  0.00     0.163 HD
BRANCH   3   6
ATOM      6  C   UNL A   1      33.058  22.550  23.604  1.00  0.00     0.103 C 
BRANCH   6   7
ATOM      7  C   UNL A   1      31.726  23.307  23.553  1.00  0.00     0.004 C 
ATOM      8  C   UNL A   1      31.035  23.549  24.895  1.00  0.00     0.009 C 
BRANCH   7   9
ATOM      9  C   UNL A   1      31.741  24.596  22.713  1.00  0.00     0.103 C 
BRANCH   9  10
ATOM     10  C   UNL A   1      32.979  25.357  22.252  1.00  0.00     0.220 C 
ATOM     11  N   UNL A   1      33.724  26.195  23.001  1.00  0.00    -0.352 N 
ATOM     12  H   UNL A   1      34.284  26.793  22.455  1.00  0.00     0.163 HD
ATOM     13  O   UNL A   1      33.277  25.323  21.050  1.00  0.00    -0.275 OA
BRANCH  11  14
ATOM     14  C   UNL A   1      33.893  26.419  24.420  1.00  0.00     0.151 C 
BRANCH  14  15
ATOM     15  C   UNL A   1      33.263  27.738  24.839  1.00  0.00    -0.028 A 
ATOM     16  C   UNL A   1      33.843  30.524  27.394  1.00  0.00     0.047 C 
ATOM     17  C   UNL A   1      33.221  29.700  26.307  1.00  0.00    -0.015 A 
ATOM     18  C   UNL A   1      33.823  28.512  25.876  1.00  0.00     0.012 A 
ATOM     19  C   UNL A   1      32.056  30.130  25.673  1.00  0.00     0.129 A 
ATOM     20  C   UNL A   1      31.466  29.385  24.648  1.00  0.00    -0.015 A 
ATOM     21  F   UNL A   1      31.492  31.284  26.063  1.00  0.00    -0.206 F 
ATOM     22  C   UNL A   1      32.071  28.182  24.245  1.00  0.00     0.012 A 
ATOM     23  C   UNL A   1      30.202  29.856  23.989  1.00  0.00     0.047 C 
ENDBRANCH  14  15
ENDBRANCH  11  14
ENDBRANCH   9  10
ENDBRANCH   7   9
ENDBRANCH   6   7
ENDBRANCH   3   6
ENDBRANCH   1   2
BRANCH   1  24
ATOM     24  C   UNL A   1      35.369  21.851  26.034  1.00  0.00     0.023 C 
BRANCH  24  25
ATOM     25  C   UNL A   1      35.636  23.352  26.028  1.00  0.00     0.023 C 
BRANCH  25  26
ATOM     26  C   UNL A   1      36.921  23.751  25.318  1.00  0.00     0.116 C 
BRANCH  26  27
ATOM     27  N   UNL A   1      37.992  22.781  25.511  1.00  0.00    -0.352 N 
ATOM     28  C   UNL A   1      39.213  22.975  26.114  1.00  0.00     0.251 C 
ATOM     29  H   UNL A   1      37.819  21.875  25.168  1.00  0.00     0.163 HD
ATOM     30  O   UNL A   1      40.076  22.113  26.074  1.00  0.00    -0.269 OA
BRANCH  28  31
ATOM     31  C   UNL A   1      39.450  24.265  26.792  1.00  0.00     0.039 A 
ATOM     32  C   UNL A   1      39.007  24.441  28.103  1.00  0.00     0.014 A 
ATOM     33  C   UNL A   1      40.191  25.255  26.140  1.00  0.00     0.014 A 
ATOM     34  C   UNL A   1      39.359  25.604  28.788  1.00  0.00     0.010 A 
ATOM     35  C   UNL A   1      40.600  26.376  26.847  1.00  0.00     0.010 A 
ATOM     36  C   UNL A   1      40.176  26.566  28.171  1.00  0.00    -0.014 A 
BRANCH  36  37
ATOM     37  C   UNL A   1      40.546  27.821  28.862  1.00  0.00     0.031 A 
ATOM     38  C   UNL A   1      41.909  27.930  29.487  1.00  0.00     0.074 A 
ATOM     39  C   UNL A   1      39.655  28.824  28.979  1.00  0.00     0.049 A 
ATOM     40  N   UNL A   1      42.406  28.897  30.210  1.00  0.00    -0.248 NA
ATOM     41  C   UNL A   1      42.820  26.789  29.294  1.00  0.00     0.031 C 
ATOM     42  C   UNL A   1      38.292  28.819  28.439  1.00  0.00     0.029 A 
ATOM     43  N   UNL A   1      39.763  30.043  29.597  1.00  0.00    -0.354 N 
ATOM     44  C   UNL A   1      43.678  28.473  30.573  1.00  0.00     0.074 A 
ATOM     45  C   UNL A   1      43.860  27.146  30.033  1.00  0.00     0.031 C 
ATOM     46  C   UNL A   1      37.704  29.993  28.726  1.00  0.00     0.029 A 
ATOM     47  C   UNL A   1      38.633  30.818  29.494  1.00  0.00     0.049 A 
ATOM     48  H   UNL A   1      40.575  30.336  30.071  1.00  0.00     0.167 HD
ATOM     49  C   UNL A   1      44.622  29.141  31.274  1.00  0.00     0.031 A 
ATOM     50  C   UNL A   1      38.377  32.056  29.961  1.00  0.00     0.031 A 
ATOM     51  C   UNL A   1      44.451  30.473  31.780  1.00  0.00     0.049 A 
ATOM     52  C   UNL A   1      39.447  32.787  30.724  1.00  0.00     0.074 A 
ATOM     53  C   UNL A   1      45.363  31.254  32.467  1.00  0.00     0.029 A 
ATOM     54  N   UNL A   1      43.298  31.228  31.637  1.00  0.00    -0.354 N 
ATOM     55  N   UNL A   1      40.651  32.377  31.044  1.00  0.00    -0.248 NA
ATOM     56  C   UNL A   1      39.130  34.147  31.181  1.00  0.00     0.031 C 
ATOM     57  C   UNL A   1      44.750  32.475  32.762  1.00  0.00     0.029 A 
ATOM     58  C   UNL A   1      43.472  32.466  32.224  1.00  0.00     0.049 A 
ATOM     59  H   UNL A   1      42.477  30.927  31.185  1.00  0.00     0.167 HD
ATOM     60  C   UNL A   1      41.245  33.438  31.717  1.00  0.00     0.074 A 
ATOM     61  C   UNL A   1      40.270  34.508  31.759  1.00  0.00     0.031 C 
ATOM     62  C   UNL A   1      42.490  33.518  32.246  1.00  0.00     0.031 A 
BRANCH  49  63
ATOM     63  C   UNL A   1      45.929  28.443  31.513  1.00  0.00    -0.014 A 
ATOM     64  C   UNL A   1      46.109  27.625  32.643  1.00  0.00     0.010 A 
ATOM     65  C   UNL A   1      46.973  28.572  30.580  1.00  0.00     0.010 A 
ATOM     66  C   UNL A   1      47.323  26.967  32.850  1.00  0.00     0.020 A 
ATOM     67  C   UNL A   1      48.182  27.897  30.774  1.00  0.00     0.020 A 
ATOM     68  C   UNL A   1      48.351  27.105  31.912  1.00  0.00     0.054 A 
BRANCH  68  69
ATOM     69  S   UNL A   1      49.903  26.215  32.201  1.00  0.00     0.124 S 
ATOM     70  O   UNL A   1      50.660  26.525  30.990  1.00  0.00    -0.237 OA
ATOM     71  O   UNL A   1      50.397  26.834  33.426  1.00  0.00    -0.237 OA
ATOM     72  O   UNL A   1      49.487  24.821  32.330  1.00  0.00    -0.744 OA
ENDBRANCH  68  69
ENDBRANCH  49  63
BRANCH  50  73
ATOM     73  C   UNL A   1      37.065  32.691  29.674  1.00  0.00    -0.014 A 
ATOM     74  C   UNL A   1      36.054  32.695  30.652  1.00  0.00     0.010 A 
ATOM     75  C   UNL A   1      36.836  33.339  28.448  1.00  0.00     0.010 A 
ATOM     76  C   UNL A   1      34.840  33.343  30.411  1.00  0.00     0.020 A 
ATOM     77  C   UNL A   1      35.628  34.002  28.210  1.00  0.00     0.020 A 
ATOM     78  C   UNL A   1      34.639  34.003  29.196  1.00  0.00     0.054 A 
BRANCH  78  79
ATOM     79  S   UNL A   1      33.079  34.894  28.943  1.00  0.00     0.124 S 
ATOM     80  O   UNL A   1      32.410  34.069  27.941  1.00  0.00    -0.237 OA
ATOM     81  O   UNL A   1      32.491  34.868  30.280  1.00  0.00    -0.237 OA
ATOM     82  O   UNL A   1      33.506  36.213  28.482  1.00  0.00    -0.744 OA
ENDBRANCH  78  79
ENDBRANCH  50  73
BRANCH  62  83
ATOM     83  C   UNL A   1      42.895  34.811  32.893  1.00  0.00    -0.014 A 
ATOM     84  C   UNL A   1      42.727  35.010  34.272  1.00  0.00     0.010 A 
ATOM     85  C   UNL A   1      43.565  35.784  32.128  1.00  0.00     0.010 A 
ATOM     86  C   UNL A   1      43.226  36.165  34.881  1.00  0.00     0.020 A 
ATOM     87  C   UNL A   1      44.080  36.931  32.736  1.00  0.00     0.020 A 
ATOM     88  C   UNL A   1      43.908  37.112  34.109  1.00  0.00     0.054 A 
BRANCH  88  89
ATOM     89  S   UNL A   1      44.606  38.565  34.941  1.00  0.00     0.124 S 
ATOM     90  O   UNL A   1      43.991  39.666  34.204  1.00  0.00    -0.237 OA
ATOM     91  O   UNL A   1      44.143  38.393  36.316  1.00  0.00    -0.237 OA
ATOM     92  O   UNL A   1      46.047  38.418  34.750  1.00  0.00    -0.744 OA
ENDBRANCH  88  89
ENDBRANCH  62  83
ENDBRANCH  36  37
ENDBRANCH  28  31
ENDBRANCH  26  27
ENDBRANCH  25  26
ENDBRANCH  24  25
ENDBRANCH   1  24
TORSDOF 19
ENDMDL
MODEL 2
REMARK VINA RESULT:     -10.4      4.467     11.340
REMARK SMILES Cc1cc(CNC(=O)C[C@H](C)CC(=O)NCCCCNC(=O)c2ccc(-c3c4nc(c(-c5ccc(S(=O)(=O)[O-])cc5)c5ccc([nH]5)c(-c5ccc(S(=O)(=O)[O-])cc5)c5nc(c(-c6ccc(S(=O)(=O)[O-])cc6)c6ccc3[nH]6)C=C5)C=C4)cc2)cc(C)c1F
REMARK SMILES IDX 16 1 15 2 13 3 14 4 12 6 10 7 11 8 9 9 7 10 6 11 8 13 5 14
REMARK SMILES IDX 4 15 1 16 2 17 3 18 86 19 84 20 87 21 83 22 85 23 17 24
REMARK SMILES IDX 18 25 19 26 20 27 21 28 22 30 23 31 24 32 82 33 25 34 81 35
REMARK SMILES IDX 26 36 27 37 28 38 75 39 29 40 80 41 74 42 76 43 30 44 79 45
REMARK SMILES IDX 73 46 72 47 31 49 61 50 42 51 60 52 43 53 46 54 59 55 77 56
REMARK SMILES IDX 44 57 45 58 58 60 78 61 47 62 32 63 33 64 41 65 34 66 40 67
REMARK SMILES IDX 35 68 36 69 37 70 38 71 39 72 62 73 63 74 71 75 64 76 70 77
REMARK SMILES IDX 65 78 66 79 67 80 68 81 69 82 48 83 49 84 57 85 50 86 56 87
REMARK SMILES IDX 51 88 52 89 53 90 54 91 55 92
REMARK H PARENT 15 5 6 12 20 29 76 48 46 59
REMARK Flexibility Score: inf
ROOT
ATOM      1  C   UNL A   1      34.734  33.646  30.842  1.00  0.00     0.116 C 
ENDROOT
BRANCH   1   2
ATOM      2  N   UNL A   1      35.048  34.274  32.110  1.00  0.00    -0.356 N 
ATOM      3  C   UNL A   1      36.255  34.468  32.716  1.00  0.00     0.220 C 
ATOM      4  O   UNL A   1      36.283  35.020  33.817  1.00  0.00    -0.275 OA
ATOM      5  H   UNL A   1      34.271  34.612  32.612  1.00  0.00     0.163 HD
BRANCH   3   6
ATOM      6  C   UNL A   1      37.535  33.989  32.051  1.00  0.00     0.103 C 
BRANCH   6   7
ATOM      7  C   UNL A   1      38.355  33.038  32.931  1.00  0.00     0.004 C 
ATOM      8  C   UNL A   1      39.598  33.634  33.593  1.00  0.00     0.009 C 
BRANCH   7   9
ATOM      9  C   UNL A   1      37.537  32.226  33.950  1.00  0.00     0.103 C 
BRANCH   9  10
ATOM     10  C   UNL A   1      38.076  31.156  34.892  1.00  0.00     0.220 C 
ATOM     11  N   UNL A   1      38.761  30.052  34.535  1.00  0.00    -0.352 N 
ATOM     12  H   UNL A   1      38.762  29.363  35.238  1.00  0.00     0.163 HD
ATOM     13  O   UNL A   1      37.762  31.213  36.089  1.00  0.00    -0.275 OA
BRANCH  11  14
ATOM     14  C   UNL A   1      39.497  29.643  33.358  1.00  0.00     0.151 C 
BRANCH  14  15
ATOM     15  C   UNL A   1      40.944  29.331  33.704  1.00  0.00    -0.028 A 
ATOM     16  C   UNL A   1      43.857  30.915  35.611  1.00  0.00     0.047 C 
ATOM     17  C   UNL A   1      43.061  29.970  34.761  1.00  0.00    -0.015 A 
ATOM     18  C   UNL A   1      41.713  30.221  34.482  1.00  0.00     0.012 A 
ATOM     19  C   UNL A   1      43.640  28.799  34.274  1.00  0.00     0.129 A 
ATOM     20  C   UNL A   1      42.914  27.897  33.491  1.00  0.00    -0.015 A 
ATOM     21  F   UNL A   1      44.925  28.540  34.565  1.00  0.00    -0.206 F 
ATOM     22  C   UNL A   1      41.567  28.177  33.201  1.00  0.00     0.012 A 
ATOM     23  C   UNL A   1      43.559  26.650  32.962  1.00  0.00     0.047 C 
ENDBRANCH  14  15
ENDBRANCH  11  14
ENDBRANCH   9  10
ENDBRANCH   7   9
ENDBRANCH   6   7
ENDBRANCH   3   6
ENDBRANCH   1   2
BRANCH   1  24
ATOM     24  C   UNL A   1      33.988  34.588  29.902  1.00  0.00     0.023 C 
BRANCH  24  25
ATOM     25  C   UNL A   1      33.707  34.001  28.524  1.00  0.00     0.023 C 
BRANCH  25  26
ATOM     26  C   UNL A   1      34.607  32.834  28.151  1.00  0.00     0.116 C 
BRANCH  26  27
ATOM     27  N   UNL A   1      33.856  31.624  27.840  1.00  0.00    -0.352 N 
ATOM     28  C   UNL A   1      34.327  30.336  27.738  1.00  0.00     0.251 C 
ATOM     29  H   UNL A   1      32.892  31.744  27.685  1.00  0.00     0.163 HD
ATOM     30  O   UNL A   1      33.612  29.438  27.324  1.00  0.00    -0.269 OA
BRANCH  28  31
ATOM     31  C   UNL A   1      35.728  30.081  28.127  1.00  0.00     0.039 A 
ATOM     32  C   UNL A   1      36.013  29.672  29.430  1.00  0.00     0.014 A 
ATOM     33  C   UNL A   1      36.734  30.169  27.160  1.00  0.00     0.014 A 
ATOM     34  C   UNL A   1      37.317  29.293  29.752  1.00  0.00     0.010 A 
ATOM     35  C   UNL A   1      38.012  29.723  27.465  1.00  0.00     0.010 A 
ATOM     36  C   UNL A   1      38.317  29.296  28.766  1.00  0.00    -0.014 A 
BRANCH  36  37
ATOM     37  C   UNL A   1      39.713  28.924  29.082  1.00  0.00     0.031 A 
ATOM     38  C   UNL A   1      40.599  29.936  29.753  1.00  0.00     0.074 A 
ATOM     39  C   UNL A   1      40.198  27.720  28.720  1.00  0.00     0.049 A 
ATOM     40  N   UNL A   1      41.871  29.853  30.041  1.00  0.00    -0.248 NA
ATOM     41  C   UNL A   1      39.978  31.219  30.125  1.00  0.00     0.031 C 
ATOM     42  C   UNL A   1      39.439  26.669  28.036  1.00  0.00     0.029 A 
ATOM     43  N   UNL A   1      41.449  27.182  28.874  1.00  0.00    -0.354 N 
ATOM     44  C   UNL A   1      42.204  31.076  30.608  1.00  0.00     0.074 A 
ATOM     45  C   UNL A   1      41.018  31.900  30.582  1.00  0.00     0.031 C 
ATOM     46  C   UNL A   1      40.236  25.602  27.857  1.00  0.00     0.029 A 
ATOM     47  C   UNL A   1      41.564  25.903  28.384  1.00  0.00     0.049 A 
ATOM     48  H   UNL A   1      42.195  27.665  29.297  1.00  0.00     0.167 HD
ATOM     49  C   UNL A   1      43.388  31.469  31.129  1.00  0.00     0.031 A 
ATOM     50  C   UNL A   1      42.621  25.067  28.366  1.00  0.00     0.031 A 
ATOM     51  C   UNL A   1      44.555  30.636  31.185  1.00  0.00     0.049 A 
ATOM     52  C   UNL A   1      43.923  25.519  28.965  1.00  0.00     0.074 A 
ATOM     53  C   UNL A   1      45.793  30.928  31.730  1.00  0.00     0.029 A 
ATOM     54  N   UNL A   1      44.623  29.342  30.694  1.00  0.00    -0.354 N 
ATOM     55  N   UNL A   1      44.216  26.674  29.514  1.00  0.00    -0.248 NA
ATOM     56  C   UNL A   1      45.034  24.557  28.953  1.00  0.00     0.031 C 
ATOM     57  C   UNL A   1      46.618  29.815  31.546  1.00  0.00     0.029 A 
ATOM     58  C   UNL A   1      45.882  28.820  30.921  1.00  0.00     0.049 A 
ATOM     59  H   UNL A   1      43.885  28.866  30.249  1.00  0.00     0.167 HD
ATOM     60  C   UNL A   1      45.537  26.568  29.934  1.00  0.00     0.074 A 
ATOM     61  C   UNL A   1      45.986  25.239  29.578  1.00  0.00     0.031 C 
ATOM     62  C   UNL A   1      46.304  27.491  30.566  1.00  0.00     0.031 A 
BRANCH  49  63
ATOM     63  C   UNL A   1      43.467  32.857  31.697  1.00  0.00    -0.014 A 
ATOM     64  C   UNL A   1      43.196  33.091  33.057  1.00  0.00     0.010 A 
ATOM     65  C   UNL A   1      43.854  33.930  30.875  1.00  0.00     0.010 A 
ATOM     66  C   UNL A   1      43.286  34.382  33.581  1.00  0.00     0.020 A 
ATOM     67  C   UNL A   1      43.966  35.220  31.402  1.00  0.00     0.020 A 
ATOM     68  C   UNL A   1      43.675  35.438  32.750  1.00  0.00     0.054 A 
BRANCH  68  69
ATOM     69  S   UNL A   1      43.807  37.096  33.471  1.00  0.00     0.124 S 
ATOM     70  O   UNL A   1      42.594  37.171  34.283  1.00  0.00    -0.237 OA
ATOM     71  O   UNL A   1      45.058  37.015  34.217  1.00  0.00    -0.237 OA
ATOM     72  O   UNL A   1      43.828  37.980  32.309  1.00  0.00    -0.744 OA
ENDBRANCH  68  69
ENDBRANCH  49  63
BRANCH  50  73
ATOM     73  C   UNL A   1      42.466  23.702  27.801  1.00  0.00    -0.014 A 
ATOM     74  C   UNL A   1      42.786  23.456  26.454  1.00  0.00     0.010 A 
ATOM     75  C   UNL A   1      42.051  22.632  28.614  1.00  0.00     0.010 A 
ATOM     76  C   UNL A   1      42.701  22.163  25.931  1.00  0.00     0.020 A 
ATOM     77  C   UNL A   1      41.980  21.335  28.098  1.00  0.00     0.020 A 
ATOM     78  C   UNL A   1      42.309  21.108  26.760  1.00  0.00     0.054 A 
BRANCH  78  79
ATOM     79  S   UNL A   1      42.276  19.430  26.068  1.00  0.00     0.124 S 
ATOM     80  O   UNL A   1      42.735  18.623  27.194  1.00  0.00    -0.237 OA
ATOM     81  O   UNL A   1      40.869  19.275  25.709  1.00  0.00    -0.237 OA
ATOM     82  O   UNL A   1      43.197  19.506  24.937  1.00  0.00    -0.744 OA
ENDBRANCH  78  79
ENDBRANCH  50  73
BRANCH  62  83
ATOM     83  C   UNL A   1      47.702  27.098  30.947  1.00  0.00    -0.014 A 
ATOM     84  C   UNL A   1      48.789  27.404  30.112  1.00  0.00     0.010 A 
ATOM     85  C   UNL A   1      47.938  26.530  32.212  1.00  0.00     0.010 A 
ATOM     86  C   UNL A   1      50.094  27.148  30.538  1.00  0.00     0.020 A 
ATOM     87  C   UNL A   1      49.242  26.288  32.648  1.00  0.00     0.020 A 
ATOM     88  C   UNL A   1      50.312  26.601  31.807  1.00  0.00     0.054 A 
BRANCH  88  89
ATOM     89  S   UNL A   1      52.021  26.349  32.360  1.00  0.00     0.124 S 
ATOM     90  O   UNL A   1      51.834  25.850  33.720  1.00  0.00    -0.237 OA
ATOM     91  O   UNL A   1      52.521  25.372  31.396  1.00  0.00    -0.237 OA
ATOM     92  O   UNL A   1      52.620  27.678  32.262  1.00  0.00    -0.744 OA
ENDBRANCH  88  89
ENDBRANCH  62  83
ENDBRANCH  36  37
ENDBRANCH  28  31
ENDBRANCH  26  27
ENDBRANCH  25  26
ENDBRANCH  24  25
ENDBRANCH   1  24
TORSDOF 19
ENDMDL
MODEL 3
REMARK VINA RESULT:     -10.3      2.864      9.208
REMARK SMILES Cc1cc(CNC(=O)C[C@H](C)CC(=O)NCCCCNC(=O)c2ccc(-c3c4nc(c(-c5ccc(S(=O)(=O)[O-])cc5)c5ccc([nH]5)c(-c5ccc(S(=O)(=O)[O-])cc5)c5nc(c(-c6ccc(S(=O)(=O)[O-])cc6)c6ccc3[nH]6)C=C5)C=C4)cc2)cc(C)c1F
REMARK SMILES IDX 16 1 15 2 13 3 14 4 12 6 10 7 11 8 9 9 7 10 6 11 8 13 5 14
REMARK SMILES IDX 4 15 1 16 2 17 3 18 86 19 84 20 87 21 83 22 85 23 17 24
REMARK SMILES IDX 18 25 19 26 20 27 21 28 22 30 23 31 24 32 82 33 25 34 81 35
REMARK SMILES IDX 26 36 27 37 28 38 75 39 29 40 80 41 74 42 76 43 30 44 79 45
REMARK SMILES IDX 73 46 72 47 31 49 61 50 42 51 60 52 43 53 46 54 59 55 77 56
REMARK SMILES IDX 44 57 45 58 58 60 78 61 47 62 32 63 33 64 41 65 34 66 40 67
REMARK SMILES IDX 35 68 36 69 37 70 38 71 39 72 62 73 63 74 71 75 64 76 70 77
REMARK SMILES IDX 65 78 66 79 67 80 68 81 69 82 48 83 49 84 57 85 50 86 56 87
REMARK SMILES IDX 51 88 52 89 53 90 54 91 55 92
REMARK H PARENT 15 5 6 12 20 29 76 48 46 59
REMARK Flexibility Score: inf
ROOT
ATOM      1  C   UNL A   1      31.497  26.062  26.317  1.00  0.00     0.116 C 
ENDROOT
BRANCH   1   2
ATOM      2  N   UNL A   1      30.146  26.298  25.847  1.00  0.00    -0.356 N 
ATOM      3  C   UNL A   1      29.593  26.064  24.622  1.00  0.00     0.220 C 
ATOM      4  O   UNL A   1      28.412  26.361  24.439  1.00  0.00    -0.275 OA
ATOM      5  H   UNL A   1      29.535  26.688  26.513  1.00  0.00     0.163 HD
BRANCH   3   6
ATOM      6  C   UNL A   1      30.430  25.469  23.501  1.00  0.00     0.103 C 
BRANCH   6   7
ATOM      7  C   UNL A   1      30.965  26.520  22.523  1.00  0.00     0.004 C 
ATOM      8  C   UNL A   1      30.837  27.979  22.963  1.00  0.00     0.009 C 
BRANCH   7   9
ATOM      9  C   UNL A   1      32.376  26.243  21.975  1.00  0.00     0.103 C 
BRANCH   9  10
ATOM     10  C   UNL A   1      32.761  25.146  20.989  1.00  0.00     0.220 C 
ATOM     11  N   UNL A   1      32.874  23.831  21.264  1.00  0.00    -0.352 N 
ATOM     12  H   UNL A   1      33.402  23.348  20.588  1.00  0.00     0.163 HD
ATOM     13  O   UNL A   1      33.135  25.479  19.856  1.00  0.00    -0.275 OA
BRANCH  11  14
ATOM     14  C   UNL A   1      32.399  22.964  22.320  1.00  0.00     0.151 C 
BRANCH  14  15
ATOM     15  C   UNL A   1      33.340  22.999  23.514  1.00  0.00    -0.028 A 
ATOM     16  C   UNL A   1      33.153  22.904  27.333  1.00  0.00     0.047 C 
ATOM     17  C   UNL A   1      33.695  23.010  25.939  1.00  0.00    -0.015 A 
ATOM     18  C   UNL A   1      32.843  22.924  24.832  1.00  0.00     0.012 A 
ATOM     19  C   UNL A   1      35.066  23.147  25.722  1.00  0.00     0.129 A 
ATOM     20  C   UNL A   1      35.595  23.234  24.431  1.00  0.00    -0.015 A 
ATOM     21  F   UNL A   1      35.889  23.199  26.781  1.00  0.00    -0.206 F 
ATOM     22  C   UNL A   1      34.721  23.171  23.331  1.00  0.00     0.012 A 
ATOM     23  C   UNL A   1      37.071  23.398  24.218  1.00  0.00     0.047 C 
ENDBRANCH  14  15
ENDBRANCH  11  14
ENDBRANCH   9  10
ENDBRANCH   7   9
ENDBRANCH   6   7
ENDBRANCH   3   6
ENDBRANCH   1   2
BRANCH   1  24
ATOM     24  C   UNL A   1      32.236  27.363  26.620  1.00  0.00     0.023 C 
BRANCH  24  25
ATOM     25  C   UNL A   1      33.351  27.692  25.634  1.00  0.00     0.023 C 
BRANCH  25  26
ATOM     26  C   UNL A   1      34.478  28.524  26.227  1.00  0.00     0.116 C 
BRANCH  26  27
ATOM     27  N   UNL A   1      34.021  29.818  26.716  1.00  0.00    -0.352 N 
ATOM     28  C   UNL A   1      34.614  30.628  27.656  1.00  0.00     0.251 C 
ATOM     29  H   UNL A   1      33.183  30.155  26.324  1.00  0.00     0.163 HD
ATOM     30  O   UNL A   1      34.043  31.619  28.081  1.00  0.00    -0.269 OA
BRANCH  28  31
ATOM     31  C   UNL A   1      35.954  30.248  28.146  1.00  0.00     0.039 A 
ATOM     32  C   UNL A   1      36.075  29.594  29.372  1.00  0.00     0.014 A 
ATOM     33  C   UNL A   1      37.069  30.471  27.333  1.00  0.00     0.014 A 
ATOM     34  C   UNL A   1      37.323  29.109  29.763  1.00  0.00     0.010 A 
ATOM     35  C   UNL A   1      38.293  29.925  27.690  1.00  0.00     0.010 A 
ATOM     36  C   UNL A   1      38.433  29.253  28.914  1.00  0.00    -0.014 A 
BRANCH  36  37
ATOM     37  C   UNL A   1      39.775  28.772  29.310  1.00  0.00     0.031 A 
ATOM     38  C   UNL A   1      40.663  29.680  30.114  1.00  0.00     0.074 A 
ATOM     39  C   UNL A   1      40.213  27.564  28.907  1.00  0.00     0.049 A 
ATOM     40  N   UNL A   1      41.900  29.497  30.491  1.00  0.00    -0.248 NA
ATOM     41  C   UNL A   1      40.092  30.976  30.522  1.00  0.00     0.031 C 
ATOM     42  C   UNL A   1      39.451  26.609  28.098  1.00  0.00     0.029 A 
ATOM     43  N   UNL A   1      41.413  26.936  29.120  1.00  0.00    -0.354 N 
ATOM     44  C   UNL A   1      42.259  30.658  31.163  1.00  0.00     0.074 A 
ATOM     45  C   UNL A   1      41.131  31.558  31.102  1.00  0.00     0.031 C 
ATOM     46  C   UNL A   1      40.193  25.505  27.910  1.00  0.00     0.029 A 
ATOM     47  C   UNL A   1      41.491  25.685  28.556  1.00  0.00     0.049 A 
ATOM     48  H   UNL A   1      42.151  27.343  29.630  1.00  0.00     0.167 HD
ATOM     49  C   UNL A   1      43.419  30.941  31.798  1.00  0.00     0.031 A 
ATOM     50  C   UNL A   1      42.493  24.785  28.563  1.00  0.00     0.031 A 
ATOM     51  C   UNL A   1      44.526  30.032  31.887  1.00  0.00     0.049 A 
ATOM     52  C   UNL A   1      43.768  25.114  29.288  1.00  0.00     0.074 A 
ATOM     53  C   UNL A   1      45.730  30.208  32.544  1.00  0.00     0.029 A 
ATOM     54  N   UNL A   1      44.555  28.769  31.317  1.00  0.00    -0.354 N 
ATOM     55  N   UNL A   1      44.085  26.211  29.934  1.00  0.00    -0.248 NA
ATOM     56  C   UNL A   1      44.817  24.084  29.297  1.00  0.00     0.031 C 
ATOM     57  C   UNL A   1      46.500  29.057  32.349  1.00  0.00     0.029 A 
ATOM     58  C   UNL A   1      45.758  28.153  31.605  1.00  0.00     0.049 A 
ATOM     59  H   UNL A   1      43.828  28.370  30.786  1.00  0.00     0.167 HD
ATOM     60  C   UNL A   1      45.358  25.994  30.446  1.00  0.00     0.074 A 
ATOM     61  C   UNL A   1      45.755  24.662  30.037  1.00  0.00     0.031 C 
ATOM     62  C   UNL A   1      46.126  26.823  31.194  1.00  0.00     0.031 A 
BRANCH  49  63
ATOM     63  C   UNL A   1      43.535  32.282  32.462  1.00  0.00    -0.014 A 
ATOM     64  C   UNL A   1      43.940  33.412  31.729  1.00  0.00     0.010 A 
ATOM     65  C   UNL A   1      43.198  32.424  33.819  1.00  0.00     0.010 A 
ATOM     66  C   UNL A   1      44.031  34.659  32.350  1.00  0.00     0.020 A 
ATOM     67  C   UNL A   1      43.267  33.676  34.438  1.00  0.00     0.020 A 
ATOM     68  C   UNL A   1      43.690  34.784  33.700  1.00  0.00     0.054 A 
BRANCH  68  69
ATOM     69  S   UNL A   1      43.795  36.423  34.466  1.00  0.00     0.124 S 
ATOM     70  O   UNL A   1      44.799  37.083  33.634  1.00  0.00    -0.237 OA
ATOM     71  O   UNL A   1      42.432  36.925  34.323  1.00  0.00    -0.237 OA
ATOM     72  O   UNL A   1      44.216  36.141  35.836  1.00  0.00    -0.744 OA
ENDBRANCH  68  69
ENDBRANCH  49  63
BRANCH  50  73
ATOM     73  C   UNL A   1      42.303  23.471  27.897  1.00  0.00    -0.014 A 
ATOM     74  C   UNL A   1      43.148  23.086  26.841  1.00  0.00     0.010 A 
ATOM     75  C   UNL A   1      41.314  22.577  28.345  1.00  0.00     0.010 A 
ATOM     76  C   UNL A   1      43.014  21.826  26.251  1.00  0.00     0.020 A 
ATOM     77  C   UNL A   1      41.188  21.310  27.767  1.00  0.00     0.020 A 
ATOM     78  C   UNL A   1      42.041  20.942  26.725  1.00  0.00     0.054 A 
BRANCH  78  79
ATOM     79  S   UNL A   1      41.940  19.289  25.984  1.00  0.00     0.124 S 
ATOM     80  O   UNL A   1      42.803  19.421  24.815  1.00  0.00    -0.237 OA
ATOM     81  O   UNL A   1      42.452  18.440  27.057  1.00  0.00    -0.237 OA
ATOM     82  O   UNL A   1      40.516  19.128  25.696  1.00  0.00    -0.744 OA
ENDBRANCH  78  79
ENDBRANCH  50  73
BRANCH  62  83
ATOM     83  C   UNL A   1      47.463  26.318  31.654  1.00  0.00    -0.014 A 
ATOM     84  C   UNL A   1      47.618  25.744  32.926  1.00  0.00     0.010 A 
ATOM     85  C   UNL A   1      48.543  26.306  30.751  1.00  0.00     0.010 A 
ATOM     86  C   UNL A   1      48.835  25.163  33.290  1.00  0.00     0.020 A 
ATOM     87  C   UNL A   1      49.756  25.711  31.106  1.00  0.00     0.020 A 
ATOM     88  C   UNL A   1      49.892  25.141  32.373  1.00  0.00     0.054 A 
BRANCH  88  89
ATOM     89  S   UNL A   1      51.434  24.315  32.850  1.00  0.00     0.124 S 
ATOM     90  O   UNL A   1      51.313  23.024  32.177  1.00  0.00    -0.237 OA
ATOM     91  O   UNL A   1      52.452  25.212  32.308  1.00  0.00    -0.237 OA
ATOM     92  O   UNL A   1      51.367  24.264  34.308  1.00  0.00    -0.744 OA
ENDBRANCH  88  89
ENDBRANCH  62  83
ENDBRANCH  36  37
ENDBRANCH  28  31
ENDBRANCH  26  27
ENDBRANCH  25  26
ENDBRANCH  24  25
ENDBRANCH   1  24
TORSDOF 19
ENDMDL
