MODEL 1
REMARK VINA RESULT:     -10.5      0.000      0.000
REMARK SMILES O=C(NC[C@@H]1CC[C@@H](C(=O)NCCCCNC(=O)c2ccc(-c3c4nc(c(-c5ccc(S(=O)(=O)[O-])cc5)c5ccc([nH]5)c(-c5ccc(S(=O)(=O)[O-])cc5)c5nc(c(-c6ccc(S(=O)(=O)[O-])cc6)c6ccc3[nH]6)C=C5)C=C4)cc2)O1)NC1CC1
REMARK SMILES IDX 13 1 12 2 11 3 9 4 10 5 8 7 5 8 6 9 79 10 7 11 4 12 3 13
REMARK SMILES IDX 1 14 2 15 80 16 81 19 82 20 83 21 14 22 15 23 16 24 17 25
REMARK SMILES IDX 18 27 19 28 20 29 78 30 21 31 77 32 22 33 23 34 24 35 71 36
REMARK SMILES IDX 25 37 76 38 70 39 72 40 26 41 75 42 69 43 68 44 27 46 57 47
REMARK SMILES IDX 38 48 56 49 39 50 42 51 55 52 73 53 40 54 41 55 54 57 74 58
REMARK SMILES IDX 43 59 28 60 29 61 37 62 30 63 36 64 31 65 32 66 33 67 34 68
REMARK SMILES IDX 35 69 58 70 59 71 67 72 60 73 66 74 61 75 62 76 63 77 64 78
REMARK SMILES IDX 65 79 44 80 45 81 53 82 46 83 52 84 47 85 48 86 49 87 50 88
REMARK SMILES IDX 51 89
REMARK H PARENT 11 6 3 17 80 18 16 26 72 45 42 56
REMARK Flexibility Score: inf
ROOT
ATOM      1  C   UNL A   1      31.625  28.384  25.452  1.00  0.00     0.023 C 
ENDROOT
BRANCH   1   2
ATOM      2  C   UNL A   1      30.998  27.289  24.583  1.00  0.00     0.116 C 
BRANCH   2   3
ATOM      3  N   UNL A   1      31.700  27.175  23.323  1.00  0.00    -0.354 N 
ATOM      4  C   UNL A   1      32.627  26.278  22.886  1.00  0.00     0.249 C 
ATOM      5  O   UNL A   1      33.170  26.546  21.808  1.00  0.00    -0.272 OA
ATOM      6  H   UNL A   1      31.464  27.867  22.664  1.00  0.00     0.163 HD
BRANCH   4   7
ATOM      7  C   UNL A   1      32.925  24.951  23.630  1.00  0.00     0.207 C 
ATOM      8  C   UNL A   1      32.899  22.822  22.653  1.00  0.00     0.138 C 
ATOM      9  C   UNL A   1      34.127  22.894  23.530  1.00  0.00     0.037 C 
ATOM     10  O   UNL A   1      32.070  23.901  23.105  1.00  0.00    -0.363 OA
ATOM     11  C   UNL A   1      34.340  24.387  23.577  1.00  0.00     0.045 C 
BRANCH   8  12
ATOM     12  C   UNL A   1      32.171  21.479  22.683  1.00  0.00     0.149 C 
BRANCH  12  13
ATOM     13  N   UNL A   1      32.034  20.919  24.021  1.00  0.00    -0.336 N 
ATOM     14  O   UNL A   1      32.426  19.569  25.752  1.00  0.00    -0.249 OA
ATOM     15  C   UNL A   1      32.544  19.775  24.546  1.00  0.00     0.315 C 
ATOM     16  N   UNL A   1      33.197  18.940  23.689  1.00  0.00    -0.335 N 
ATOM     17  H   UNL A   1      31.488  21.455  24.642  1.00  0.00     0.165 HD
ATOM     18  H   UNL A   1      33.182  19.148  22.726  1.00  0.00     0.165 HD
BRANCH  16  19
ATOM     19  C   UNL A   1      33.901  17.778  24.125  1.00  0.00     0.084 C 
ATOM     20  C   UNL A   1      33.194  16.453  24.232  1.00  0.00     0.027 C 
ATOM     21  C   UNL A   1      34.221  16.668  23.160  1.00  0.00     0.027 C 
ENDBRANCH  16  19
ENDBRANCH  12  13
ENDBRANCH   8  12
ENDBRANCH   4   7
ENDBRANCH   2   3
ENDBRANCH   1   2
BRANCH   1  22
ATOM     22  C   UNL A   1      32.158  27.893  26.801  1.00  0.00     0.023 C 
BRANCH  22  23
ATOM     23  C   UNL A   1      33.509  28.469  27.213  1.00  0.00     0.116 C 
BRANCH  23  24
ATOM     24  N   UNL A   1      33.477  29.907  27.430  1.00  0.00    -0.352 N 
ATOM     25  C   UNL A   1      34.463  30.717  27.938  1.00  0.00     0.251 C 
ATOM     26  H   UNL A   1      32.638  30.359  27.180  1.00  0.00     0.163 HD
ATOM     27  O   UNL A   1      34.233  31.902  28.156  1.00  0.00    -0.269 OA
BRANCH  25  28
ATOM     28  C   UNL A   1      35.784  30.139  28.259  1.00  0.00     0.039 A 
ATOM     29  C   UNL A   1      36.772  30.131  27.271  1.00  0.00     0.014 A 
ATOM     30  C   UNL A   1      36.057  29.641  29.536  1.00  0.00     0.014 A 
ATOM     31  C   UNL A   1      38.058  29.686  27.585  1.00  0.00     0.010 A 
ATOM     32  C   UNL A   1      37.354  29.256  29.863  1.00  0.00     0.010 A 
ATOM     33  C   UNL A   1      38.368  29.278  28.894  1.00  0.00    -0.014 A 
BRANCH  33  34
ATOM     34  C   UNL A   1      39.750  28.888  29.271  1.00  0.00     0.031 A 
ATOM     35  C   UNL A   1      40.652  29.878  29.957  1.00  0.00     0.074 A 
ATOM     36  C   UNL A   1      40.217  27.673  28.923  1.00  0.00     0.049 A 
ATOM     37  N   UNL A   1      41.908  29.746  30.297  1.00  0.00    -0.248 NA
ATOM     38  C   UNL A   1      40.079  31.197  30.276  1.00  0.00     0.031 C 
ATOM     39  C   UNL A   1      39.458  26.644  28.206  1.00  0.00     0.029 A 
ATOM     40  N   UNL A   1      41.449  27.100  29.110  1.00  0.00    -0.354 N 
ATOM     41  C   UNL A   1      42.284  30.969  30.842  1.00  0.00     0.074 A 
ATOM     42  C   UNL A   1      41.132  31.841  30.759  1.00  0.00     0.031 C 
ATOM     43  C   UNL A   1      40.236  25.563  28.030  1.00  0.00     0.029 A 
ATOM     44  C   UNL A   1      41.557  25.831  28.589  1.00  0.00     0.049 A 
ATOM     45  H   UNL A   1      42.189  27.554  29.576  1.00  0.00     0.167 HD
ATOM     46  C   UNL A   1      43.475  31.328  31.375  1.00  0.00     0.031 A 
ATOM     47  C   UNL A   1      42.603  24.984  28.554  1.00  0.00     0.031 A 
ATOM     48  C   UNL A   1      44.605  30.446  31.492  1.00  0.00     0.049 A 
ATOM     49  C   UNL A   1      43.906  25.400  29.181  1.00  0.00     0.074 A 
ATOM     50  C   UNL A   1      45.823  30.689  32.104  1.00  0.00     0.029 A 
ATOM     51  N   UNL A   1      44.659  29.157  30.989  1.00  0.00    -0.354 N 
ATOM     52  N   UNL A   1      44.209  26.528  29.777  1.00  0.00    -0.248 NA
ATOM     53  C   UNL A   1      45.005  24.424  29.141  1.00  0.00     0.031 C 
ATOM     54  C   UNL A   1      46.631  29.561  31.930  1.00  0.00     0.029 A 
ATOM     55  C   UNL A   1      45.899  28.599  31.254  1.00  0.00     0.049 A 
ATOM     56  H   UNL A   1      43.926  28.704  30.514  1.00  0.00     0.167 HD
ATOM     57  C   UNL A   1      45.523  26.385  30.209  1.00  0.00     0.074 A 
ATOM     58  C   UNL A   1      45.951  25.058  29.819  1.00  0.00     0.031 C 
ATOM     59  C   UNL A   1      46.305  27.274  30.870  1.00  0.00     0.031 A 
BRANCH  46  60
ATOM     60  C   UNL A   1      43.626  32.738  31.876  1.00  0.00    -0.014 A 
ATOM     61  C   UNL A   1      44.255  33.725  31.095  1.00  0.00     0.010 A 
ATOM     62  C   UNL A   1      43.064  33.100  33.114  1.00  0.00     0.010 A 
ATOM     63  C   UNL A   1      44.340  35.042  31.556  1.00  0.00     0.020 A 
ATOM     64  C   UNL A   1      43.126  34.420  33.567  1.00  0.00     0.020 A 
ATOM     65  C   UNL A   1      43.775  35.381  32.788  1.00  0.00     0.054 A 
BRANCH  65  66
ATOM     66  S   UNL A   1      43.855  37.108  33.336  1.00  0.00     0.124 S 
ATOM     67  O   UNL A   1      43.852  37.826  32.064  1.00  0.00    -0.237 OA
ATOM     68  O   UNL A   1      42.643  37.247  34.139  1.00  0.00    -0.237 OA
ATOM     69  O   UNL A   1      45.107  37.177  34.086  1.00  0.00    -0.744 OA
ENDBRANCH  65  66
ENDBRANCH  46  60
BRANCH  47  70
ATOM     70  C   UNL A   1      42.469  23.649  27.909  1.00  0.00    -0.014 A 
ATOM     71  C   UNL A   1      42.150  22.514  28.675  1.00  0.00     0.010 A 
ATOM     72  C   UNL A   1      42.684  23.503  26.526  1.00  0.00     0.010 A 
ATOM     73  C   UNL A   1      42.085  21.251  28.079  1.00  0.00     0.020 A 
ATOM     74  C   UNL A   1      42.594  22.246  25.922  1.00  0.00     0.020 A 
ATOM     75  C   UNL A   1      42.314  21.124  26.706  1.00  0.00     0.054 A 
BRANCH  75  76
ATOM     76  S   UNL A   1      42.209  19.481  25.946  1.00  0.00     0.124 S 
ATOM     77  O   UNL A   1      40.802  19.413  25.565  1.00  0.00    -0.237 OA
ATOM     78  O   UNL A   1      43.160  19.580  24.841  1.00  0.00    -0.237 OA
ATOM     79  O   UNL A   1      42.612  18.582  27.025  1.00  0.00    -0.744 OA
ENDBRANCH  75  76
ENDBRANCH  47  70
BRANCH  59  80
ATOM     80  C   UNL A   1      47.690  26.827  31.253  1.00  0.00    -0.014 A 
ATOM     81  C   UNL A   1      47.947  26.248  32.507  1.00  0.00     0.010 A 
ATOM     82  C   UNL A   1      48.735  26.939  30.318  1.00  0.00     0.010 A 
ATOM     83  C   UNL A   1      49.235  25.813  32.832  1.00  0.00     0.020 A 
ATOM     84  C   UNL A   1      50.018  26.483  30.630  1.00  0.00     0.020 A 
ATOM     85  C   UNL A   1      50.263  25.935  31.890  1.00  0.00     0.054 A 
BRANCH  85  86
ATOM     86  S   UNL A   1      51.916  25.323  32.316  1.00  0.00     0.124 S 
ATOM     87  O   UNL A   1      52.769  26.114  31.436  1.00  0.00    -0.237 OA
ATOM     88  O   UNL A   1      52.019  25.635  33.739  1.00  0.00    -0.237 OA
ATOM     89  O   UNL A   1      51.848  23.897  32.002  1.00  0.00    -0.744 OA
ENDBRANCH  85  86
ENDBRANCH  59  80
ENDBRANCH  33  34
ENDBRANCH  25  28
ENDBRANCH  23  24
ENDBRANCH  22  23
ENDBRANCH   1  22
TORSDOF 17
ENDMDL
MODEL 2
REMARK VINA RESULT:     -10.5      1.721      2.348
REMARK SMILES O=C(NC[C@@H]1CC[C@@H](C(=O)NCCCCNC(=O)c2ccc(-c3c4nc(c(-c5ccc(S(=O)(=O)[O-])cc5)c5ccc([nH]5)c(-c5ccc(S(=O)(=O)[O-])cc5)c5nc(c(-c6ccc(S(=O)(=O)[O-])cc6)c6ccc3[nH]6)C=C5)C=C4)cc2)O1)NC1CC1
REMARK SMILES IDX 13 1 12 2 11 3 9 4 10 5 8 7 5 8 6 9 79 10 7 11 4 12 3 13
REMARK SMILES IDX 1 14 2 15 80 16 81 19 82 20 83 21 14 22 15 23 16 24 17 25
REMARK SMILES IDX 18 27 19 28 20 29 78 30 21 31 77 32 22 33 23 34 24 35 71 36
REMARK SMILES IDX 25 37 76 38 70 39 72 40 26 41 75 42 69 43 68 44 27 46 57 47
REMARK SMILES IDX 38 48 56 49 39 50 42 51 55 52 73 53 40 54 41 55 54 57 74 58
REMARK SMILES IDX 43 59 28 60 29 61 37 62 30 63 36 64 31 65 32 66 33 67 34 68
REMARK SMILES IDX 35 69 58 70 59 71 67 72 60 73 66 74 61 75 62 76 63 77 64 78
REMARK SMILES IDX 65 79 44 80 45 81 53 82 46 83 52 84 47 85 48 86 49 87 50 88
REMARK SMILES IDX 51 89
REMARK H PARENT 11 6 3 17 80 18 16 26 72 45 42 56
REMARK Flexibility Score: inf
ROOT
ATOM      1  C   UNL A   1      33.543  28.639  24.131  1.00  0.00     0.023 C 
ENDROOT
BRANCH   1   2
ATOM      2  C   UNL A   1      33.139  28.181  22.726  1.00  0.00     0.116 C 
BRANCH   2   3
ATOM      3  N   UNL A   1      32.047  28.986  22.222  1.00  0.00    -0.354 N 
ATOM      4  C   UNL A   1      30.698  28.866  22.365  1.00  0.00     0.249 C 
ATOM      5  O   UNL A   1      30.012  29.622  21.668  1.00  0.00    -0.272 OA
ATOM      6  H   UNL A   1      32.330  29.758  21.681  1.00  0.00     0.163 HD
BRANCH   4   7
ATOM      7  C   UNL A   1      30.047  27.915  23.402  1.00  0.00     0.207 C 
ATOM      8  C   UNL A   1      30.967  25.890  24.137  1.00  0.00     0.138 C 
ATOM      9  C   UNL A   1      30.442  26.610  25.357  1.00  0.00     0.037 C 
ATOM     10  O   UNL A   1      30.323  26.537  23.032  1.00  0.00    -0.363 OA
ATOM     11  C   UNL A   1      30.463  28.035  24.863  1.00  0.00     0.045 C 
BRANCH   8  12
ATOM     12  C   UNL A   1      30.738  24.379  24.139  1.00  0.00     0.149 C 
BRANCH  12  13
ATOM     13  N   UNL A   1      30.237  23.867  25.407  1.00  0.00    -0.336 N 
ATOM     14  O   UNL A   1      30.296  22.960  27.443  1.00  0.00    -0.249 OA
ATOM     15  C   UNL A   1      30.875  23.164  26.379  1.00  0.00     0.315 C 
ATOM     16  N   UNL A   1      32.151  22.761  26.113  1.00  0.00    -0.335 N 
ATOM     17  H   UNL A   1      29.289  24.061  25.588  1.00  0.00     0.165 HD
ATOM     18  H   UNL A   1      32.511  22.905  25.208  1.00  0.00     0.165 HD
BRANCH  16  19
ATOM     19  C   UNL A   1      32.986  22.141  27.089  1.00  0.00     0.084 C 
ATOM     20  C   UNL A   1      34.326  21.577  26.700  1.00  0.00     0.027 C 
ATOM     21  C   UNL A   1      34.253  22.810  27.551  1.00  0.00     0.027 C 
ENDBRANCH  16  19
ENDBRANCH  12  13
ENDBRANCH   8  12
ENDBRANCH   4   7
ENDBRANCH   2   3
ENDBRANCH   1   2
BRANCH   1  22
ATOM     22  C   UNL A   1      34.128  27.533  25.014  1.00  0.00     0.023 C 
BRANCH  22  23
ATOM     23  C   UNL A   1      34.119  27.825  26.510  1.00  0.00     0.116 C 
BRANCH  23  24
ATOM     24  N   UNL A   1      33.634  29.158  26.831  1.00  0.00    -0.352 N 
ATOM     25  C   UNL A   1      34.274  30.157  27.525  1.00  0.00     0.251 C 
ATOM     26  H   UNL A   1      32.729  29.374  26.509  1.00  0.00     0.163 HD
ATOM     27  O   UNL A   1      33.677  31.193  27.800  1.00  0.00    -0.269 OA
BRANCH  25  28
ATOM     28  C   UNL A   1      35.668  29.954  27.971  1.00  0.00     0.039 A 
ATOM     29  C   UNL A   1      35.901  29.560  29.290  1.00  0.00     0.014 A 
ATOM     30  C   UNL A   1      36.734  30.118  27.083  1.00  0.00     0.014 A 
ATOM     31  C   UNL A   1      37.202  29.262  29.702  1.00  0.00     0.010 A 
ATOM     32  C   UNL A   1      38.021  29.762  27.478  1.00  0.00     0.010 A 
ATOM     33  C   UNL A   1      38.267  29.327  28.788  1.00  0.00    -0.014 A 
BRANCH  33  34
ATOM     34  C   UNL A   1      39.642  28.927  29.180  1.00  0.00     0.031 A 
ATOM     35  C   UNL A   1      40.550  29.915  29.861  1.00  0.00     0.074 A 
ATOM     36  C   UNL A   1      40.099  27.703  28.849  1.00  0.00     0.049 A 
ATOM     37  N   UNL A   1      41.802  29.775  30.213  1.00  0.00    -0.248 NA
ATOM     38  C   UNL A   1      39.988  31.243  30.162  1.00  0.00     0.031 C 
ATOM     39  C   UNL A   1      39.335  26.674  28.138  1.00  0.00     0.029 A 
ATOM     40  N   UNL A   1      41.324  27.120  29.052  1.00  0.00    -0.354 N 
ATOM     41  C   UNL A   1      42.186  30.999  30.747  1.00  0.00     0.074 A 
ATOM     42  C   UNL A   1      41.044  31.882  30.645  1.00  0.00     0.031 C 
ATOM     43  C   UNL A   1      40.103  25.583  27.980  1.00  0.00     0.029 A 
ATOM     44  C   UNL A   1      41.422  25.845  28.545  1.00  0.00     0.049 A 
ATOM     45  H   UNL A   1      42.065  27.572  29.518  1.00  0.00     0.167 HD
ATOM     46  C   UNL A   1      43.377  31.352  31.284  1.00  0.00     0.031 A 
ATOM     47  C   UNL A   1      42.460  24.986  28.528  1.00  0.00     0.031 A 
ATOM     48  C   UNL A   1      44.497  30.460  31.420  1.00  0.00     0.049 A 
ATOM     49  C   UNL A   1      43.763  25.396  29.160  1.00  0.00     0.074 A 
ATOM     50  C   UNL A   1      45.713  30.697  32.038  1.00  0.00     0.029 A 
ATOM     51  N   UNL A   1      44.542  29.164  30.931  1.00  0.00    -0.354 N 
ATOM     52  N   UNL A   1      44.073  26.527  29.745  1.00  0.00    -0.248 NA
ATOM     53  C   UNL A   1      44.851  24.408  29.139  1.00  0.00     0.031 C 
ATOM     54  C   UNL A   1      46.510  29.559  31.883  1.00  0.00     0.029 A 
ATOM     55  C   UNL A   1      45.773  28.597  31.211  1.00  0.00     0.049 A 
ATOM     56  H   UNL A   1      43.807  28.714  30.456  1.00  0.00     0.167 HD
ATOM     57  C   UNL A   1      45.382  26.376  30.189  1.00  0.00     0.074 A 
ATOM     58  C   UNL A   1      45.800  25.040  29.817  1.00  0.00     0.031 C 
ATOM     59  C   UNL A   1      46.168  27.263  30.846  1.00  0.00     0.031 A 
BRANCH  46  60
ATOM     60  C   UNL A   1      43.539  32.766  31.771  1.00  0.00    -0.014 A 
ATOM     61  C   UNL A   1      43.948  33.793  30.901  1.00  0.00     0.010 A 
ATOM     62  C   UNL A   1      43.205  33.086  33.099  1.00  0.00     0.010 A 
ATOM     63  C   UNL A   1      44.043  35.110  31.358  1.00  0.00     0.020 A 
ATOM     64  C   UNL A   1      43.275  34.406  33.554  1.00  0.00     0.020 A 
ATOM     65  C   UNL A   1      43.706  35.408  32.682  1.00  0.00     0.054 A 
BRANCH  65  66
ATOM     66  S   UNL A   1      43.789  37.134  33.233  1.00  0.00     0.124 S 
ATOM     67  O   UNL A   1      43.785  37.855  31.962  1.00  0.00    -0.237 OA
ATOM     68  O   UNL A   1      42.577  37.273  34.037  1.00  0.00    -0.237 OA
ATOM     69  O   UNL A   1      45.041  37.200  33.982  1.00  0.00    -0.744 OA
ENDBRANCH  65  66
ENDBRANCH  46  60
BRANCH  47  70
ATOM     70  C   UNL A   1      42.316  23.646  27.897  1.00  0.00    -0.014 A 
ATOM     71  C   UNL A   1      41.907  22.537  28.659  1.00  0.00     0.010 A 
ATOM     72  C   UNL A   1      42.614  23.466  26.533  1.00  0.00     0.010 A 
ATOM     73  C   UNL A   1      41.833  21.267  28.080  1.00  0.00     0.020 A 
ATOM     74  C   UNL A   1      42.515  22.202  25.944  1.00  0.00     0.020 A 
ATOM     75  C   UNL A   1      42.143  21.106  26.726  1.00  0.00     0.054 A 
BRANCH  75  76
ATOM     76  S   UNL A   1      42.024  19.455  25.987  1.00  0.00     0.124 S 
ATOM     77  O   UNL A   1      42.879  19.587  24.812  1.00  0.00    -0.237 OA
ATOM     78  O   UNL A   1      42.538  18.593  27.050  1.00  0.00    -0.237 OA
ATOM     79  O   UNL A   1      40.596  19.307  25.713  1.00  0.00    -0.744 OA
ENDBRANCH  75  76
ENDBRANCH  47  70
BRANCH  59  80
ATOM     80  C   UNL A   1      47.545  26.807  31.244  1.00  0.00    -0.014 A 
ATOM     81  C   UNL A   1      48.653  27.019  30.405  1.00  0.00     0.010 A 
ATOM     82  C   UNL A   1      47.739  26.208  32.501  1.00  0.00     0.010 A 
ATOM     83  C   UNL A   1      49.929  26.614  30.806  1.00  0.00     0.020 A 
ATOM     84  C   UNL A   1      49.016  25.824  32.917  1.00  0.00     0.020 A 
ATOM     85  C   UNL A   1      50.102  26.017  32.060  1.00  0.00     0.054 A 
BRANCH  85  86
ATOM     86  S   UNL A   1      51.773  25.540  32.580  1.00  0.00     0.124 S 
ATOM     87  O   UNL A   1      51.521  24.309  33.321  1.00  0.00    -0.237 OA
ATOM     88  O   UNL A   1      52.471  25.377  31.307  1.00  0.00    -0.237 OA
ATOM     89  O   UNL A   1      52.220  26.674  33.386  1.00  0.00    -0.744 OA
ENDBRANCH  85  86
ENDBRANCH  59  80
ENDBRANCH  33  34
ENDBRANCH  25  28
ENDBRANCH  23  24
ENDBRANCH  22  23
ENDBRANCH   1  22
TORSDOF 17
ENDMDL
MODEL 3
REMARK VINA RESULT:     -10.2      4.549      6.674
REMARK SMILES O=C(NC[C@@H]1CC[C@@H](C(=O)NCCCCNC(=O)c2ccc(-c3c4nc(c(-c5ccc(S(=O)(=O)[O-])cc5)c5ccc([nH]5)c(-c5ccc(S(=O)(=O)[O-])cc5)c5nc(c(-c6ccc(S(=O)(=O)[O-])cc6)c6ccc3[nH]6)C=C5)C=C4)cc2)O1)NC1CC1
REMARK SMILES IDX 13 1 12 2 11 3 9 4 10 5 8 7 5 8 6 9 79 10 7 11 4 12 3 13
REMARK SMILES IDX 1 14 2 15 80 16 81 19 82 20 83 21 14 22 15 23 16 24 17 25
REMARK SMILES IDX 18 27 19 28 20 29 78 30 21 31 77 32 22 33 23 34 24 35 71 36
REMARK SMILES IDX 25 37 76 38 70 39 72 40 26 41 75 42 69 43 68 44 27 46 57 47
REMARK SMILES IDX 38 48 56 49 39 50 42 51 55 52 73 53 40 54 41 55 54 57 74 58
REMARK SMILES IDX 43 59 28 60 29 61 37 62 30 63 36 64 31 65 32 66 33 67 34 68
REMARK SMILES IDX 35 69 58 70 59 71 67 72 60 73 66 74 61 75 62 76 63 77 64 78
REMARK SMILES IDX 65 79 44 80 45 81 53 82 46 83 52 84 47 85 48 86 49 87 50 88
REMARK SMILES IDX 51 89
REMARK H PARENT 11 6 3 17 80 18 16 26 72 45 42 56
REMARK Flexibility Score: inf
ROOT
ATOM      1  C   UNL A   1      31.813  29.514  27.298  1.00  0.00     0.023 C 
ENDROOT
BRANCH   1   2
ATOM      2  C   UNL A   1      32.628  28.220  27.197  1.00  0.00     0.116 C 
BRANCH   2   3
ATOM      3  N   UNL A   1      31.759  27.065  27.265  1.00  0.00    -0.354 N 
ATOM      4  C   UNL A   1      31.230  26.276  26.289  1.00  0.00     0.249 C 
ATOM      5  O   UNL A   1      30.380  25.458  26.658  1.00  0.00    -0.272 OA
ATOM      6  H   UNL A   1      31.506  26.802  28.180  1.00  0.00     0.163 HD
BRANCH   4   7
ATOM      7  C   UNL A   1      31.722  26.319  24.819  1.00  0.00     0.207 C 
ATOM      8  C   UNL A   1      32.360  28.257  23.668  1.00  0.00     0.138 C 
ATOM      9  C   UNL A   1      33.386  27.193  23.352  1.00  0.00     0.037 C 
ATOM     10  O   UNL A   1      31.236  27.531  24.184  1.00  0.00    -0.363 OA
ATOM     11  C   UNL A   1      33.222  26.293  24.552  1.00  0.00     0.045 C 
BRANCH   8  12
ATOM     12  C   UNL A   1      31.982  29.150  22.487  1.00  0.00     0.149 C 
BRANCH  12  13
ATOM     13  N   UNL A   1      30.613  28.959  22.026  1.00  0.00    -0.336 N 
ATOM     14  O   UNL A   1      28.495  29.473  21.556  1.00  0.00    -0.249 OA
ATOM     15  C   UNL A   1      29.527  29.764  22.156  1.00  0.00     0.315 C 
ATOM     16  N   UNL A   1      29.674  30.880  22.926  1.00  0.00    -0.335 N 
ATOM     17  H   UNL A   1      30.451  28.115  21.546  1.00  0.00     0.165 HD
ATOM     18  H   UNL A   1      30.513  30.999  23.427  1.00  0.00     0.165 HD
BRANCH  16  19
ATOM     19  C   UNL A   1      28.665  31.884  23.035  1.00  0.00     0.084 C 
ATOM     20  C   UNL A   1      29.044  33.330  23.204  1.00  0.00     0.027 C 
ATOM     21  C   UNL A   1      28.434  32.863  21.916  1.00  0.00     0.027 C 
ENDBRANCH  16  19
ENDBRANCH  12  13
ENDBRANCH   8  12
ENDBRANCH   4   7
ENDBRANCH   2   3
ENDBRANCH   1   2
BRANCH   1  22
ATOM     22  C   UNL A   1      32.441  30.715  26.585  1.00  0.00     0.023 C 
BRANCH  22  23
ATOM     23  C   UNL A   1      33.412  31.535  27.427  1.00  0.00     0.116 C 
BRANCH  23  24
ATOM     24  N   UNL A   1      32.966  32.902  27.647  1.00  0.00    -0.352 N 
ATOM     25  C   UNL A   1      33.458  33.830  28.532  1.00  0.00     0.251 C 
ATOM     26  H   UNL A   1      32.213  33.202  27.088  1.00  0.00     0.163 HD
ATOM     27  O   UNL A   1      32.894  34.912  28.665  1.00  0.00    -0.269 OA
BRANCH  25  28
ATOM     28  C   UNL A   1      34.643  33.498  29.350  1.00  0.00     0.039 A 
ATOM     29  C   UNL A   1      34.484  32.655  30.452  1.00  0.00     0.014 A 
ATOM     30  C   UNL A   1      35.907  33.987  29.010  1.00  0.00     0.014 A 
ATOM     31  C   UNL A   1      35.606  32.245  31.175  1.00  0.00     0.010 A 
ATOM     32  C   UNL A   1      37.030  33.528  29.693  1.00  0.00     0.010 A 
ATOM     33  C   UNL A   1      36.892  32.651  30.778  1.00  0.00    -0.014 A 
BRANCH  33  34
ATOM     34  C   UNL A   1      38.105  32.154  31.476  1.00  0.00     0.031 A 
ATOM     35  C   UNL A   1      38.476  32.704  32.827  1.00  0.00     0.074 A 
ATOM     36  C   UNL A   1      38.913  31.270  30.858  1.00  0.00     0.049 A 
ATOM     37  N   UNL A   1      39.531  32.448  33.557  1.00  0.00    -0.248 NA
ATOM     38  C   UNL A   1      37.559  33.690  33.424  1.00  0.00     0.031 C 
ATOM     39  C   UNL A   1      38.691  30.704  29.524  1.00  0.00     0.029 A 
ATOM     40  N   UNL A   1      40.094  30.702  31.263  1.00  0.00    -0.354 N 
ATOM     41  C   UNL A   1      39.422  33.259  34.680  1.00  0.00     0.074 A 
ATOM     42  C   UNL A   1      38.213  34.039  34.522  1.00  0.00     0.031 C 
ATOM     43  C   UNL A   1      39.694  29.860  29.230  1.00  0.00     0.029 A 
ATOM     44  C   UNL A   1      40.647  29.849  30.336  1.00  0.00     0.049 A 
ATOM     45  H   UNL A   1      40.509  30.888  32.137  1.00  0.00     0.167 HD
ATOM     46  C   UNL A   1      40.245  33.338  35.751  1.00  0.00     0.031 A 
ATOM     47  C   UNL A   1      41.795  29.146  30.366  1.00  0.00     0.031 A 
ATOM     48  C   UNL A   1      41.425  32.532  35.923  1.00  0.00     0.049 A 
ATOM     49  C   UNL A   1      42.675  29.231  31.584  1.00  0.00     0.074 A 
ATOM     50  C   UNL A   1      42.270  32.471  37.017  1.00  0.00     0.029 A 
ATOM     51  N   UNL A   1      41.926  31.651  34.979  1.00  0.00    -0.354 N 
ATOM     52  N   UNL A   1      42.502  29.933  32.677  1.00  0.00    -0.248 NA
ATOM     53  C   UNL A   1      43.901  28.419  31.576  1.00  0.00     0.031 C 
ATOM     54  C   UNL A   1      43.309  31.586  36.717  1.00  0.00     0.029 A 
ATOM     55  C   UNL A   1      43.084  31.059  35.455  1.00  0.00     0.049 A 
ATOM     56  H   UNL A   1      41.520  31.471  34.101  1.00  0.00     0.167 HD
ATOM     57  C   UNL A   1      43.580  29.624  33.498  1.00  0.00     0.074 A 
ATOM     58  C   UNL A   1      44.392  28.662  32.783  1.00  0.00     0.031 C 
ATOM     59  C   UNL A   1      43.872  30.095  34.736  1.00  0.00     0.031 A 
BRANCH  46  60
ATOM     60  C   UNL A   1      39.906  34.329  36.830  1.00  0.00    -0.014 A 
ATOM     61  C   UNL A   1      39.203  33.937  37.983  1.00  0.00     0.010 A 
ATOM     62  C   UNL A   1      40.364  35.656  36.724  1.00  0.00     0.010 A 
ATOM     63  C   UNL A   1      38.942  34.861  38.999  1.00  0.00     0.020 A 
ATOM     64  C   UNL A   1      40.126  36.576  37.749  1.00  0.00     0.020 A 
ATOM     65  C   UNL A   1      39.405  36.174  38.876  1.00  0.00     0.054 A 
BRANCH  65  66
ATOM     66  S   UNL A   1      39.098  37.337  40.233  1.00  0.00     0.124 S 
ATOM     67  O   UNL A   1      38.417  36.487  41.207  1.00  0.00    -0.237 OA
ATOM     68  O   UNL A   1      40.445  37.762  40.604  1.00  0.00    -0.237 OA
ATOM     69  O   UNL A   1      38.267  38.372  39.623  1.00  0.00    -0.744 OA
ENDBRANCH  65  66
ENDBRANCH  46  60
BRANCH  47  70
ATOM     70  C   UNL A   1      42.184  28.290  29.212  1.00  0.00    -0.014 A 
ATOM     71  C   UNL A   1      41.714  26.968  29.113  1.00  0.00     0.010 A 
ATOM     72  C   UNL A   1      43.047  28.786  28.218  1.00  0.00     0.010 A 
ATOM     73  C   UNL A   1      42.130  26.145  28.062  1.00  0.00     0.020 A 
ATOM     74  C   UNL A   1      43.443  27.975  27.151  1.00  0.00     0.020 A 
ATOM     75  C   UNL A   1      42.997  26.653  27.089  1.00  0.00     0.054 A 
BRANCH  75  76
ATOM     76  S   UNL A   1      43.512  25.577  25.724  1.00  0.00     0.124 S 
ATOM     77  O   UNL A   1      44.790  26.167  25.339  1.00  0.00    -0.237 OA
ATOM     78  O   UNL A   1      43.586  24.265  26.362  1.00  0.00    -0.237 OA
ATOM     79  O   UNL A   1      42.433  25.726  24.749  1.00  0.00    -0.744 OA
ENDBRANCH  75  76
ENDBRANCH  47  70
BRANCH  59  80
ATOM     80  C   UNL A   1      45.098  29.546  35.414  1.00  0.00    -0.014 A 
ATOM     81  C   UNL A   1      46.345  30.182  35.291  1.00  0.00     0.010 A 
ATOM     82  C   UNL A   1      44.984  28.408  36.233  1.00  0.00     0.010 A 
ATOM     83  C   UNL A   1      47.465  29.673  35.953  1.00  0.00     0.020 A 
ATOM     84  C   UNL A   1      46.095  27.910  36.917  1.00  0.00     0.020 A 
ATOM     85  C   UNL A   1      47.332  28.538  36.762  1.00  0.00     0.054 A 
BRANCH  85  86
ATOM     86  S   UNL A   1      48.790  27.920  37.648  1.00  0.00     0.124 S 
ATOM     87  O   UNL A   1      48.195  26.976  38.589  1.00  0.00    -0.237 OA
ATOM     88  O   UNL A   1      49.588  27.325  36.579  1.00  0.00    -0.237 OA
ATOM     89  O   UNL A   1      49.363  29.123  38.249  1.00  0.00    -0.744 OA
ENDBRANCH  85  86
ENDBRANCH  59  80
ENDBRANCH  33  34
ENDBRANCH  25  28
ENDBRANCH  23  24
ENDBRANCH  22  23
ENDBRANCH   1  22
TORSDOF 17
ENDMDL
