MODEL 1
REMARK VINA RESULT:     -13.7      0.000      0.000
REMARK SMILES O=C(Cn1cc(/C=C2\SC(N3CCOCC3)=[NH+]C2=O)c2ccccc21)NCCCCNC(=O)c1ccc(-c2c3nc(c(-c4ccc(S(=O)(=O)[O-])cc4)c4ccc([nH]4)c(-c4ccc(S(=O)(=O)[O-])cc4)c4nc(c(-c5ccc(S(=O)(=O)[O-])cc5)c5ccc2[nH]5)C=C4)C=C3)cc1
REMARK SMILES IDX 29 1 28 2 27 3 26 4 1 5 2 6 3 8 4 9 5 10 25 11 6 12 20 13
REMARK SMILES IDX 24 14 21 15 23 16 22 17 7 18 8 19 9 20 18 21 10 22 17 23
REMARK SMILES IDX 19 24 11 25 12 27 16 28 13 29 15 30 14 31 30 32 31 33 32 34
REMARK SMILES IDX 33 36 34 37 35 38 93 39 36 40 92 41 37 42 38 43 39 44 86 45
REMARK SMILES IDX 40 46 91 47 85 48 87 49 41 50 90 51 84 52 83 53 42 55 72 56
REMARK SMILES IDX 53 57 71 58 54 59 57 60 70 61 88 62 55 63 56 64 69 66 89 67
REMARK SMILES IDX 58 68 43 69 44 70 52 71 45 72 51 73 46 74 47 75 48 76 49 77
REMARK SMILES IDX 50 78 73 79 74 80 82 81 75 82 81 83 76 84 77 85 78 86 79 87
REMARK SMILES IDX 80 88 59 89 60 90 68 91 61 92 67 93 62 94 63 95 64 96 65 97
REMARK SMILES IDX 66 98
REMARK H PARENT 26 7 17 26 31 35 87 54 57 65
REMARK Flexibility Score: inf
ROOT
ATOM      1  C   UNL A   1      41.489  21.986  27.310  1.00  0.00     0.023 C 
ENDROOT
BRANCH   1   2
ATOM      2  C   UNL A   1      40.325  22.932  27.644  1.00  0.00     0.023 C 
BRANCH   2   3
ATOM      3  C   UNL A   1      39.276  23.111  26.550  1.00  0.00     0.116 C 
BRANCH   3   4
ATOM      4  N   UNL A   1      38.533  21.896  26.268  1.00  0.00    -0.355 N 
ATOM      5  O   UNL A   1      37.446  22.715  24.417  1.00  0.00    -0.273 OA
ATOM      6  C   UNL A   1      37.698  21.781  25.176  1.00  0.00     0.239 C 
ATOM      7  H   UNL A   1      38.628  21.129  26.878  1.00  0.00     0.163 HD
BRANCH   6   8
ATOM      8  C   UNL A   1      37.056  20.424  24.979  1.00  0.00     0.222 C 
BRANCH   8   9
ATOM      9  N   UNL A   1      35.615  20.398  25.206  1.00  0.00    -0.337 N 
ATOM     10  C   UNL A   1      34.923  21.443  25.770  1.00  0.00     0.095 A 
ATOM     11  C   UNL A   1      34.736  19.393  24.844  1.00  0.00     0.049 A 
ATOM     12  C   UNL A   1      33.588  21.110  25.785  1.00  0.00     0.001 A 
ATOM     13  C   UNL A   1      33.455  19.803  25.242  1.00  0.00     0.007 A 
ATOM     14  C   UNL A   1      34.947  18.160  24.205  1.00  0.00     0.027 A 
ATOM     15  C   UNL A   1      32.363  18.938  25.020  1.00  0.00     0.011 A 
ATOM     16  C   UNL A   1      33.847  17.321  24.001  1.00  0.00     0.002 A 
ATOM     17  C   UNL A   1      32.573  17.700  24.407  1.00  0.00     0.001 A 
BRANCH  12  18
ATOM     18  C   UNL A   1      32.561  21.971  26.270  1.00  0.00     0.034 C 
ATOM     19  C   UNL A   1      32.247  23.170  25.760  1.00  0.00     0.110 C 
ATOM     20  S   UNL A   1      32.898  23.924  24.361  1.00  0.00     0.006 SA
ATOM     21  C   UNL A   1      31.251  24.085  26.391  1.00  0.00     0.346 C 
ATOM     22  C   UNL A   1      32.033  25.396  24.764  1.00  0.00     0.319 C 
ATOM     23  N   UNL A   1      31.279  25.338  25.808  1.00  0.00    -0.200 N 
ATOM     24  O   UNL A   1      30.522  23.754  27.306  1.00  0.00    -0.240 OA
ATOM     25  N   UNL A   1      32.264  26.508  24.004  1.00  0.00    -0.251 N 
ATOM     26  H   UNL A   1      30.774  26.109  26.156  1.00  0.00     0.316 HD
ATOM     27  C   UNL A   1      32.273  26.524  22.541  1.00  0.00     0.265 C 
ATOM     28  C   UNL A   1      32.485  27.822  24.612  1.00  0.00     0.265 C 
ATOM     29  C   UNL A   1      33.570  27.167  22.040  1.00  0.00     0.206 C 
ATOM     30  C   UNL A   1      33.787  28.413  24.040  1.00  0.00     0.206 C 
ATOM     31  O   UNL A   1      33.747  28.480  22.601  1.00  0.00    -0.373 OA
ENDBRANCH  12  18
ENDBRANCH   8   9
ENDBRANCH   6   8
ENDBRANCH   3   4
ENDBRANCH   2   3
ENDBRANCH   1   2
BRANCH   1  32
ATOM     32  C   UNL A   1      41.722  21.719  25.823  1.00  0.00     0.116 C 
BRANCH  32  33
ATOM     33  N   UNL A   1      42.909  22.356  25.290  1.00  0.00    -0.352 N 
ATOM     34  C   UNL A   1      43.509  23.577  25.437  1.00  0.00     0.251 C 
ATOM     35  H   UNL A   1      43.403  21.770  24.673  1.00  0.00     0.163 HD
ATOM     36  O   UNL A   1      44.643  23.664  24.955  1.00  0.00    -0.269 OA
BRANCH  34  37
ATOM     37  C   UNL A   1      42.911  24.787  26.076  1.00  0.00     0.039 A 
ATOM     38  C   UNL A   1      41.950  25.624  25.514  1.00  0.00     0.014 A 
ATOM     39  C   UNL A   1      43.433  25.135  27.342  1.00  0.00     0.014 A 
ATOM     40  C   UNL A   1      41.565  26.799  26.171  1.00  0.00     0.010 A 
ATOM     41  C   UNL A   1      43.051  26.306  27.999  1.00  0.00     0.010 A 
ATOM     42  C   UNL A   1      42.139  27.164  27.397  1.00  0.00    -0.014 A 
BRANCH  42  43
ATOM     43  C   UNL A   1      41.708  28.419  28.022  1.00  0.00     0.031 A 
ATOM     44  C   UNL A   1      42.641  29.575  27.887  1.00  0.00     0.074 A 
ATOM     45  C   UNL A   1      40.529  28.625  28.644  1.00  0.00     0.049 A 
ATOM     46  N   UNL A   1      43.310  30.164  28.825  1.00  0.00    -0.248 NA
ATOM     47  C   UNL A   1      42.910  30.096  26.541  1.00  0.00     0.031 C 
ATOM     48  C   UNL A   1      39.345  27.762  28.688  1.00  0.00     0.029 A 
ATOM     49  N   UNL A   1      40.123  29.733  29.335  1.00  0.00    -0.354 N 
ATOM     50  C   UNL A   1      43.978  31.229  28.225  1.00  0.00     0.074 A 
ATOM     51  C   UNL A   1      43.772  31.081  26.803  1.00  0.00     0.031 C 
ATOM     52  C   UNL A   1      38.296  28.463  29.182  1.00  0.00     0.029 A 
ATOM     53  C   UNL A   1      38.770  29.758  29.639  1.00  0.00     0.049 A 
ATOM     54  H   UNL A   1      40.741  30.454  29.596  1.00  0.00     0.167 HD
ATOM     55  C   UNL A   1      44.546  32.238  28.946  1.00  0.00     0.031 A 
ATOM     56  C   UNL A   1      38.084  30.782  30.206  1.00  0.00     0.031 A 
ATOM     57  C   UNL A   1      44.681  31.900  30.338  1.00  0.00     0.049 A 
ATOM     58  C   UNL A   1      39.055  31.609  30.956  1.00  0.00     0.074 A 
ATOM     59  C   UNL A   1      45.369  30.931  31.039  1.00  0.00     0.029 A 
ATOM     60  N   UNL A   1      43.759  32.414  31.217  1.00  0.00    -0.354 N 
ATOM     61  N   UNL A   1      39.671  31.206  32.031  1.00  0.00    -0.248 NA
ATOM     62  C   UNL A   1      39.626  32.779  30.311  1.00  0.00     0.031 C 
ATOM     63  C   UNL A   1      44.511  30.579  32.122  1.00  0.00     0.029 A 
ATOM     64  C   UNL A   1      43.374  31.386  32.042  1.00  0.00     0.049 A 
ATOM     65  H   UNL A   1      43.435  33.343  31.248  1.00  0.00     0.167 HD
ATOM     66  C   UNL A   1      40.928  31.784  31.954  1.00  0.00     0.074 A 
ATOM     67  C   UNL A   1      40.798  32.832  30.947  1.00  0.00     0.031 C 
ATOM     68  C   UNL A   1      42.019  31.184  32.517  1.00  0.00     0.031 A 
BRANCH  55  69
ATOM     69  C   UNL A   1      44.754  33.643  28.440  1.00  0.00    -0.014 A 
ATOM     70  C   UNL A   1      43.713  34.427  27.906  1.00  0.00     0.010 A 
ATOM     71  C   UNL A   1      45.972  34.304  28.711  1.00  0.00     0.010 A 
ATOM     72  C   UNL A   1      43.872  35.789  27.636  1.00  0.00     0.020 A 
ATOM     73  C   UNL A   1      46.131  35.680  28.486  1.00  0.00     0.020 A 
ATOM     74  C   UNL A   1      45.077  36.413  27.943  1.00  0.00     0.054 A 
BRANCH  74  75
ATOM     75  S   UNL A   1      45.202  38.203  27.702  1.00  0.00     0.124 S 
ATOM     76  O   UNL A   1      46.523  38.333  27.096  1.00  0.00    -0.237 OA
ATOM     77  O   UNL A   1      44.072  38.480  26.818  1.00  0.00    -0.237 OA
ATOM     78  O   UNL A   1      45.079  38.742  29.054  1.00  0.00    -0.744 OA
ENDBRANCH  74  75
ENDBRANCH  55  69
BRANCH  56  79
ATOM     79  C   UNL A   1      36.767  31.324  29.786  1.00  0.00    -0.014 A 
ATOM     80  C   UNL A   1      36.603  31.838  28.485  1.00  0.00     0.010 A 
ATOM     81  C   UNL A   1      35.802  31.661  30.757  1.00  0.00     0.010 A 
ATOM     82  C   UNL A   1      35.582  32.747  28.191  1.00  0.00     0.020 A 
ATOM     83  C   UNL A   1      34.777  32.577  30.471  1.00  0.00     0.020 A 
ATOM     84  C   UNL A   1      34.706  33.149  29.199  1.00  0.00     0.054 A 
BRANCH  84  85
ATOM     85  S   UNL A   1      33.557  34.510  28.844  1.00  0.00     0.124 S 
ATOM     86  O   UNL A   1      32.625  33.882  27.911  1.00  0.00    -0.237 OA
ATOM     87  O   UNL A   1      33.012  34.815  30.164  1.00  0.00    -0.237 OA
ATOM     88  O   UNL A   1      34.413  35.546  28.271  1.00  0.00    -0.744 OA
ENDBRANCH  84  85
ENDBRANCH  56  79
BRANCH  68  89
ATOM     89  C   UNL A   1      41.805  30.028  33.478  1.00  0.00    -0.014 A 
ATOM     90  C   UNL A   1      41.783  30.313  34.856  1.00  0.00     0.010 A 
ATOM     91  C   UNL A   1      41.793  28.676  33.081  1.00  0.00     0.010 A 
ATOM     92  C   UNL A   1      41.772  29.288  35.806  1.00  0.00     0.020 A 
ATOM     93  C   UNL A   1      41.753  27.641  34.028  1.00  0.00     0.020 A 
ATOM     94  C   UNL A   1      41.767  27.956  35.388  1.00  0.00     0.054 A 
BRANCH  94  95
ATOM     95  S   UNL A   1      41.797  26.656  36.652  1.00  0.00     0.124 S 
ATOM     96  O   UNL A   1      43.047  26.938  37.356  1.00  0.00    -0.237 OA
ATOM     97  O   UNL A   1      40.580  26.918  37.417  1.00  0.00    -0.237 OA
ATOM     98  O   UNL A   1      41.787  25.412  35.884  1.00  0.00    -0.744 OA
ENDBRANCH  94  95
ENDBRANCH  68  89
ENDBRANCH  42  43
ENDBRANCH  34  37
ENDBRANCH  32  33
ENDBRANCH   1  32
TORSDOF 16
ENDMDL
MODEL 2
REMARK VINA RESULT:     -13.7      1.312      2.039
REMARK SMILES O=C(Cn1cc(/C=C2\SC(N3CCOCC3)=[NH+]C2=O)c2ccccc21)NCCCCNC(=O)c1ccc(-c2c3nc(c(-c4ccc(S(=O)(=O)[O-])cc4)c4ccc([nH]4)c(-c4ccc(S(=O)(=O)[O-])cc4)c4nc(c(-c5ccc(S(=O)(=O)[O-])cc5)c5ccc2[nH]5)C=C4)C=C3)cc1
REMARK SMILES IDX 29 1 28 2 27 3 26 4 1 5 2 6 3 8 4 9 5 10 25 11 6 12 20 13
REMARK SMILES IDX 24 14 21 15 23 16 22 17 7 18 8 19 9 20 18 21 10 22 17 23
REMARK SMILES IDX 19 24 11 25 12 27 16 28 13 29 15 30 14 31 30 32 31 33 32 34
REMARK SMILES IDX 33 36 34 37 35 38 93 39 36 40 92 41 37 42 38 43 39 44 86 45
REMARK SMILES IDX 40 46 91 47 85 48 87 49 41 50 90 51 84 52 83 53 42 55 72 56
REMARK SMILES IDX 53 57 71 58 54 59 57 60 70 61 88 62 55 63 56 64 69 66 89 67
REMARK SMILES IDX 58 68 43 69 44 70 52 71 45 72 51 73 46 74 47 75 48 76 49 77
REMARK SMILES IDX 50 78 73 79 74 80 82 81 75 82 81 83 76 84 77 85 78 86 79 87
REMARK SMILES IDX 80 88 59 89 60 90 68 91 61 92 67 93 62 94 63 95 64 96 65 97
REMARK SMILES IDX 66 98
REMARK H PARENT 26 7 17 26 31 35 87 54 57 65
REMARK Flexibility Score: inf
ROOT
ATOM      1  C   UNL A   1      40.982  21.660  27.252  1.00  0.00     0.023 C 
ENDROOT
BRANCH   1   2
ATOM      2  C   UNL A   1      40.425  22.975  27.817  1.00  0.00     0.023 C 
BRANCH   2   3
ATOM      3  C   UNL A   1      39.568  23.802  26.862  1.00  0.00     0.116 C 
BRANCH   3   4
ATOM      4  N   UNL A   1      38.961  23.009  25.809  1.00  0.00    -0.355 N 
ATOM      5  O   UNL A   1      36.790  23.377  26.467  1.00  0.00    -0.273 OA
ATOM      6  C   UNL A   1      37.593  22.897  25.667  1.00  0.00     0.239 C 
ATOM      7  H   UNL A   1      39.546  22.533  25.174  1.00  0.00     0.163 HD
BRANCH   6   8
ATOM      8  C   UNL A   1      37.118  22.097  24.473  1.00  0.00     0.222 C 
BRANCH   8   9
ATOM      9  N   UNL A   1      35.722  22.322  24.111  1.00  0.00    -0.337 N 
ATOM     10  C   UNL A   1      35.281  23.462  23.485  1.00  0.00     0.095 A 
ATOM     11  C   UNL A   1      34.671  21.435  24.268  1.00  0.00     0.049 A 
ATOM     12  C   UNL A   1      33.934  23.321  23.243  1.00  0.00     0.001 A 
ATOM     13  C   UNL A   1      33.523  22.066  23.767  1.00  0.00     0.007 A 
ATOM     14  C   UNL A   1      34.623  20.138  24.806  1.00  0.00     0.027 A 
ATOM     15  C   UNL A   1      32.288  21.387  23.836  1.00  0.00     0.011 A 
ATOM     16  C   UNL A   1      33.385  19.491  24.865  1.00  0.00     0.002 A 
ATOM     17  C   UNL A   1      32.232  20.106  24.394  1.00  0.00     0.001 A 
BRANCH  12  18
ATOM     18  C   UNL A   1      33.141  24.299  22.574  1.00  0.00     0.034 C 
ATOM     19  C   UNL A   1      32.979  25.570  22.967  1.00  0.00     0.110 C 
ATOM     20  S   UNL A   1      33.744  26.374  24.277  1.00  0.00     0.006 SA
ATOM     21  C   UNL A   1      32.031  26.511  22.300  1.00  0.00     0.346 C 
ATOM     22  C   UNL A   1      32.696  27.758  24.027  1.00  0.00     0.319 C 
ATOM     23  N   UNL A   1      31.881  27.674  23.031  1.00  0.00    -0.200 N 
ATOM     24  O   UNL A   1      31.466  26.262  21.253  1.00  0.00    -0.240 OA
ATOM     25  N   UNL A   1      32.757  28.785  24.926  1.00  0.00    -0.251 N 
ATOM     26  H   UNL A   1      31.218  28.369  22.812  1.00  0.00     0.316 HD
ATOM     27  C   UNL A   1      33.999  29.396  25.402  1.00  0.00     0.265 C 
ATOM     28  C   UNL A   1      31.546  29.402  25.472  1.00  0.00     0.265 C 
ATOM     29  C   UNL A   1      34.012  29.412  26.933  1.00  0.00     0.206 C 
ATOM     30  C   UNL A   1      31.648  29.406  27.008  1.00  0.00     0.206 C 
ATOM     31  O   UNL A   1      32.845  30.070  27.455  1.00  0.00    -0.373 OA
ENDBRANCH  12  18
ENDBRANCH   8   9
ENDBRANCH   6   8
ENDBRANCH   3   4
ENDBRANCH   2   3
ENDBRANCH   1   2
BRANCH   1  32
ATOM     32  C   UNL A   1      42.504  21.585  27.121  1.00  0.00     0.116 C 
BRANCH  32  33
ATOM     33  N   UNL A   1      43.015  22.126  25.878  1.00  0.00    -0.352 N 
ATOM     34  C   UNL A   1      43.377  23.368  25.431  1.00  0.00     0.251 C 
ATOM     35  H   UNL A   1      43.131  21.434  25.188  1.00  0.00     0.163 HD
ATOM     36  O   UNL A   1      43.966  23.383  24.346  1.00  0.00    -0.269 OA
BRANCH  34  37
ATOM     37  C   UNL A   1      43.093  24.670  26.106  1.00  0.00     0.039 A 
ATOM     38  C   UNL A   1      43.522  25.048  27.377  1.00  0.00     0.014 A 
ATOM     39  C   UNL A   1      42.253  25.558  25.399  1.00  0.00     0.014 A 
ATOM     40  C   UNL A   1      43.079  26.249  27.943  1.00  0.00     0.010 A 
ATOM     41  C   UNL A   1      41.810  26.756  25.962  1.00  0.00     0.010 A 
ATOM     42  C   UNL A   1      42.195  27.091  27.255  1.00  0.00    -0.014 A 
BRANCH  42  43
ATOM     43  C   UNL A   1      41.751  28.324  27.914  1.00  0.00     0.031 A 
ATOM     44  C   UNL A   1      42.686  29.484  27.837  1.00  0.00     0.074 A 
ATOM     45  C   UNL A   1      40.560  28.509  28.521  1.00  0.00     0.049 A 
ATOM     46  N   UNL A   1      43.337  30.041  28.807  1.00  0.00    -0.248 NA
ATOM     47  C   UNL A   1      42.980  30.051  26.515  1.00  0.00     0.031 C 
ATOM     48  C   UNL A   1      39.376  27.645  28.512  1.00  0.00     0.029 A 
ATOM     49  N   UNL A   1      40.141  29.592  29.242  1.00  0.00    -0.354 N 
ATOM     50  C   UNL A   1      44.015  31.126  28.256  1.00  0.00     0.074 A 
ATOM     51  C   UNL A   1      43.836  31.027  26.827  1.00  0.00     0.031 C 
ATOM     52  C   UNL A   1      38.318  28.328  29.011  1.00  0.00     0.029 A 
ATOM     53  C   UNL A   1      38.782  29.607  29.521  1.00  0.00     0.049 A 
ATOM     54  H   UNL A   1      40.754  30.303  29.539  1.00  0.00     0.167 HD
ATOM     55  C   UNL A   1      44.568  32.109  29.022  1.00  0.00     0.031 A 
ATOM     56  C   UNL A   1      38.085  30.610  30.110  1.00  0.00     0.031 A 
ATOM     57  C   UNL A   1      44.678  31.724  30.404  1.00  0.00     0.049 A 
ATOM     58  C   UNL A   1      39.042  31.411  30.906  1.00  0.00     0.074 A 
ATOM     59  C   UNL A   1      45.353  30.731  31.085  1.00  0.00     0.029 A 
ATOM     60  N   UNL A   1      43.739  32.207  31.283  1.00  0.00    -0.354 N 
ATOM     61  N   UNL A   1      39.637  30.971  31.978  1.00  0.00    -0.248 NA
ATOM     62  C   UNL A   1      39.623  32.602  30.312  1.00  0.00     0.031 C 
ATOM     63  C   UNL A   1      44.475  30.342  32.138  1.00  0.00     0.029 A 
ATOM     64  C   UNL A   1      43.340  31.151  32.065  1.00  0.00     0.049 A 
ATOM     65  H   UNL A   1      43.414  33.134  31.340  1.00  0.00     0.167 HD
ATOM     66  C   UNL A   1      40.895  31.551  31.945  1.00  0.00     0.074 A 
ATOM     67  C   UNL A   1      40.783  32.634  30.972  1.00  0.00     0.031 C 
ATOM     68  C   UNL A   1      41.976  30.932  32.507  1.00  0.00     0.031 A 
BRANCH  55  69
ATOM     69  C   UNL A   1      44.785  33.531  28.569  1.00  0.00    -0.014 A 
ATOM     70  C   UNL A   1      43.729  34.442  28.373  1.00  0.00     0.010 A 
ATOM     71  C   UNL A   1      46.093  34.064  28.558  1.00  0.00     0.010 A 
ATOM     72  C   UNL A   1      43.953  35.804  28.157  1.00  0.00     0.020 A 
ATOM     73  C   UNL A   1      46.329  35.436  28.387  1.00  0.00     0.020 A 
ATOM     74  C   UNL A   1      45.254  36.298  28.181  1.00  0.00     0.054 A 
BRANCH  74  75
ATOM     75  S   UNL A   1      45.495  38.086  28.029  1.00  0.00     0.124 S 
ATOM     76  O   UNL A   1      44.996  38.566  29.314  1.00  0.00    -0.237 OA
ATOM     77  O   UNL A   1      46.939  38.192  27.835  1.00  0.00    -0.237 OA
ATOM     78  O   UNL A   1      44.683  38.445  26.870  1.00  0.00    -0.744 OA
ENDBRANCH  74  75
ENDBRANCH  55  69
BRANCH  56  79
ATOM     79  C   UNL A   1      36.776  31.167  29.684  1.00  0.00    -0.014 A 
ATOM     80  C   UNL A   1      36.618  31.666  28.377  1.00  0.00     0.010 A 
ATOM     81  C   UNL A   1      35.817  31.531  30.652  1.00  0.00     0.010 A 
ATOM     82  C   UNL A   1      35.610  32.585  28.072  1.00  0.00     0.020 A 
ATOM     83  C   UNL A   1      34.806  32.458  30.354  1.00  0.00     0.020 A 
ATOM     84  C   UNL A   1      34.741  33.014  29.075  1.00  0.00     0.054 A 
BRANCH  84  85
ATOM     85  S   UNL A   1      33.613  34.387  28.703  1.00  0.00     0.124 S 
ATOM     86  O   UNL A   1      33.137  34.755  30.034  1.00  0.00    -0.237 OA
ATOM     87  O   UNL A   1      34.496  35.357  28.063  1.00  0.00    -0.237 OA
ATOM     88  O   UNL A   1      32.611  33.785  27.826  1.00  0.00    -0.744 OA
ENDBRANCH  84  85
ENDBRANCH  56  79
BRANCH  68  89
ATOM     89  C   UNL A   1      41.745  29.744  33.423  1.00  0.00    -0.014 A 
ATOM     90  C   UNL A   1      41.740  29.974  34.812  1.00  0.00     0.010 A 
ATOM     91  C   UNL A   1      41.699  28.409  32.973  1.00  0.00     0.010 A 
ATOM     92  C   UNL A   1      41.715  28.912  35.721  1.00  0.00     0.020 A 
ATOM     93  C   UNL A   1      41.644  27.339  33.879  1.00  0.00     0.020 A 
ATOM     94  C   UNL A   1      41.677  27.599  35.250  1.00  0.00     0.054 A 
BRANCH  94  95
ATOM     95  S   UNL A   1      41.690  26.249  36.461  1.00  0.00     0.124 S 
ATOM     96  O   UNL A   1      40.783  26.750  37.493  1.00  0.00    -0.237 OA
ATOM     97  O   UNL A   1      41.186  25.115  35.688  1.00  0.00    -0.237 OA
ATOM     98  O   UNL A   1      43.091  26.146  36.865  1.00  0.00    -0.744 OA
ENDBRANCH  94  95
ENDBRANCH  68  89
ENDBRANCH  42  43
ENDBRANCH  34  37
ENDBRANCH  32  33
ENDBRANCH   1  32
TORSDOF 16
ENDMDL
MODEL 3
REMARK VINA RESULT:     -13.4      2.961      9.890
REMARK SMILES O=C(Cn1cc(/C=C2\SC(N3CCOCC3)=[NH+]C2=O)c2ccccc21)NCCCCNC(=O)c1ccc(-c2c3nc(c(-c4ccc(S(=O)(=O)[O-])cc4)c4ccc([nH]4)c(-c4ccc(S(=O)(=O)[O-])cc4)c4nc(c(-c5ccc(S(=O)(=O)[O-])cc5)c5ccc2[nH]5)C=C4)C=C3)cc1
REMARK SMILES IDX 29 1 28 2 27 3 26 4 1 5 2 6 3 8 4 9 5 10 25 11 6 12 20 13
REMARK SMILES IDX 24 14 21 15 23 16 22 17 7 18 8 19 9 20 18 21 10 22 17 23
REMARK SMILES IDX 19 24 11 25 12 27 16 28 13 29 15 30 14 31 30 32 31 33 32 34
REMARK SMILES IDX 33 36 34 37 35 38 93 39 36 40 92 41 37 42 38 43 39 44 86 45
REMARK SMILES IDX 40 46 91 47 85 48 87 49 41 50 90 51 84 52 83 53 42 55 72 56
REMARK SMILES IDX 53 57 71 58 54 59 57 60 70 61 88 62 55 63 56 64 69 66 89 67
REMARK SMILES IDX 58 68 43 69 44 70 52 71 45 72 51 73 46 74 47 75 48 76 49 77
REMARK SMILES IDX 50 78 73 79 74 80 82 81 75 82 81 83 76 84 77 85 78 86 79 87
REMARK SMILES IDX 80 88 59 89 60 90 68 91 61 92 67 93 62 94 63 95 64 96 65 97
REMARK SMILES IDX 66 98
REMARK H PARENT 26 7 17 26 31 35 87 54 57 65
REMARK Flexibility Score: inf
ROOT
ATOM      1  C   UNL A   1      35.471  33.185  29.089  1.00  0.00     0.023 C 
ENDROOT
BRANCH   1   2
ATOM      2  C   UNL A   1      35.622  32.173  27.943  1.00  0.00     0.023 C 
BRANCH   2   3
ATOM      3  C   UNL A   1      34.961  30.814  28.161  1.00  0.00     0.116 C 
BRANCH   3   4
ATOM      4  N   UNL A   1      34.658  30.122  26.921  1.00  0.00    -0.355 N 
ATOM      5  O   UNL A   1      32.399  30.535  26.973  1.00  0.00    -0.273 OA
ATOM      6  C   UNL A   1      33.384  30.079  26.395  1.00  0.00     0.239 C 
ATOM      7  H   UNL A   1      35.388  29.668  26.440  1.00  0.00     0.163 HD
BRANCH   6   8
ATOM      8  C   UNL A   1      33.248  29.385  25.056  1.00  0.00     0.222 C 
BRANCH   8   9
ATOM      9  N   UNL A   1      32.127  28.454  24.968  1.00  0.00    -0.337 N 
ATOM     10  C   UNL A   1      32.001  27.352  25.778  1.00  0.00     0.095 A 
ATOM     11  C   UNL A   1      31.023  28.561  24.142  1.00  0.00     0.049 A 
ATOM     12  C   UNL A   1      30.812  26.731  25.469  1.00  0.00     0.001 A 
ATOM     13  C   UNL A   1      30.200  27.457  24.410  1.00  0.00     0.007 A 
ATOM     14  C   UNL A   1      30.670  29.524  23.182  1.00  0.00     0.027 A 
ATOM     15  C   UNL A   1      29.007  27.301  23.673  1.00  0.00     0.011 A 
ATOM     16  C   UNL A   1      29.485  29.342  22.464  1.00  0.00     0.002 A 
ATOM     17  C   UNL A   1      28.667  28.244  22.699  1.00  0.00     0.001 A 
BRANCH  12  18
ATOM     18  C   UNL A   1      30.327  25.567  26.133  1.00  0.00     0.034 C 
ATOM     19  C   UNL A   1      31.041  24.459  26.380  1.00  0.00     0.110 C 
ATOM     20  S   UNL A   1      32.710  24.191  26.076  1.00  0.00     0.006 SA
ATOM     21  C   UNL A   1      30.443  23.221  26.961  1.00  0.00     0.346 C 
ATOM     22  C   UNL A   1      32.508  22.504  26.509  1.00  0.00     0.319 C 
ATOM     23  N   UNL A   1      31.328  22.161  26.901  1.00  0.00    -0.200 N 
ATOM     24  O   UNL A   1      29.317  23.171  27.416  1.00  0.00    -0.240 OA
ATOM     25  N   UNL A   1      33.570  21.662  26.339  1.00  0.00    -0.251 N 
ATOM     26  H   UNL A   1      31.081  21.236  27.134  1.00  0.00     0.316 HD
ATOM     27  C   UNL A   1      34.935  21.952  26.781  1.00  0.00     0.265 C 
ATOM     28  C   UNL A   1      33.416  20.344  25.720  1.00  0.00     0.265 C 
ATOM     29  C   UNL A   1      35.907  21.758  25.613  1.00  0.00     0.206 C 
ATOM     30  C   UNL A   1      34.442  20.215  24.579  1.00  0.00     0.206 C 
ATOM     31  O   UNL A   1      35.784  20.440  25.050  1.00  0.00    -0.373 OA
ENDBRANCH  12  18
ENDBRANCH   8   9
ENDBRANCH   6   8
ENDBRANCH   3   4
ENDBRANCH   2   3
ENDBRANCH   1   2
BRANCH   1  32
ATOM     32  C   UNL A   1      34.210  33.039  29.942  1.00  0.00     0.116 C 
BRANCH  32  33
ATOM     33  N   UNL A   1      34.468  32.951  31.364  1.00  0.00    -0.352 N 
ATOM     34  C   UNL A   1      35.447  32.400  32.145  1.00  0.00     0.251 C 
ATOM     35  H   UNL A   1      33.771  33.395  31.899  1.00  0.00     0.163 HD
ATOM     36  O   UNL A   1      35.408  32.721  33.337  1.00  0.00    -0.269 OA
BRANCH  34  37
ATOM     37  C   UNL A   1      36.502  31.443  31.698  1.00  0.00     0.039 A 
ATOM     38  C   UNL A   1      36.333  30.078  31.474  1.00  0.00     0.014 A 
ATOM     39  C   UNL A   1      37.801  31.980  31.559  1.00  0.00     0.014 A 
ATOM     40  C   UNL A   1      37.437  29.269  31.178  1.00  0.00     0.010 A 
ATOM     41  C   UNL A   1      38.903  31.175  31.264  1.00  0.00     0.010 A 
ATOM     42  C   UNL A   1      38.730  29.806  31.107  1.00  0.00    -0.014 A 
BRANCH  42  43
ATOM     43  C   UNL A   1      39.845  28.899  30.815  1.00  0.00     0.031 A 
ATOM     44  C   UNL A   1      40.735  28.559  31.963  1.00  0.00     0.074 A 
ATOM     45  C   UNL A   1      40.091  28.310  29.626  1.00  0.00     0.049 A 
ATOM     46  N   UNL A   1      41.975  28.889  32.126  1.00  0.00    -0.248 NA
ATOM     47  C   UNL A   1      40.157  27.819  33.091  1.00  0.00     0.031 C 
ATOM     48  C   UNL A   1      39.247  28.260  28.428  1.00  0.00     0.029 A 
ATOM     49  N   UNL A   1      41.170  27.550  29.270  1.00  0.00    -0.354 N 
ATOM     50  C   UNL A   1      42.393  28.279  33.307  1.00  0.00     0.074 A 
ATOM     51  C   UNL A   1      41.208  27.714  33.908  1.00  0.00     0.031 C 
ATOM     52  C   UNL A   1      39.746  27.342  27.565  1.00  0.00     0.029 A 
ATOM     53  C   UNL A   1      41.022  26.866  28.072  1.00  0.00     0.049 A 
ATOM     54  H   UNL A   1      41.986  27.493  29.818  1.00  0.00     0.167 HD
ATOM     55  C   UNL A   1      43.709  28.165  33.647  1.00  0.00     0.031 A 
ATOM     56  C   UNL A   1      41.878  25.955  27.545  1.00  0.00     0.031 A 
ATOM     57  C   UNL A   1      44.550  29.027  32.858  1.00  0.00     0.049 A 
ATOM     58  C   UNL A   1      43.216  26.216  28.120  1.00  0.00     0.074 A 
ATOM     59  C   UNL A   1      44.650  30.392  32.685  1.00  0.00     0.029 A 
ATOM     60  N   UNL A   1      45.247  28.466  31.816  1.00  0.00    -0.354 N 
ATOM     61  N   UNL A   1      43.922  27.279  27.857  1.00  0.00    -0.248 NA
ATOM     62  C   UNL A   1      43.640  25.458  29.284  1.00  0.00     0.031 C 
ATOM     63  C   UNL A   1      44.974  30.567  31.308  1.00  0.00     0.029 A 
ATOM     64  C   UNL A   1      45.097  29.300  30.735  1.00  0.00     0.049 A 
ATOM     65  H   UNL A   1      45.758  27.625  31.839  1.00  0.00     0.167 HD
ATOM     66  C   UNL A   1      44.585  27.563  29.040  1.00  0.00     0.074 A 
ATOM     67  C   UNL A   1      44.469  26.346  29.836  1.00  0.00     0.031 C 
ATOM     68  C   UNL A   1      44.930  28.844  29.369  1.00  0.00     0.031 A 
BRANCH  55  69
ATOM     69  C   UNL A   1      44.278  27.082  34.529  1.00  0.00    -0.014 A 
ATOM     70  C   UNL A   1      44.500  25.766  34.078  1.00  0.00     0.010 A 
ATOM     71  C   UNL A   1      44.832  27.428  35.781  1.00  0.00     0.010 A 
ATOM     72  C   UNL A   1      45.215  24.833  34.835  1.00  0.00     0.020 A 
ATOM     73  C   UNL A   1      45.590  26.514  36.529  1.00  0.00     0.020 A 
ATOM     74  C   UNL A   1      45.771  25.218  36.051  1.00  0.00     0.054 A 
BRANCH  74  75
ATOM     75  S   UNL A   1      46.801  24.022  36.939  1.00  0.00     0.124 S 
ATOM     76  O   UNL A   1      46.979  22.976  35.936  1.00  0.00    -0.237 OA
ATOM     77  O   UNL A   1      47.993  24.806  37.251  1.00  0.00    -0.237 OA
ATOM     78  O   UNL A   1      45.982  23.651  38.090  1.00  0.00    -0.744 OA
ENDBRANCH  74  75
ENDBRANCH  55  69
BRANCH  56  79
ATOM     79  C   UNL A   1      41.536  24.640  26.945  1.00  0.00    -0.014 A 
ATOM     80  C   UNL A   1      40.604  23.800  27.583  1.00  0.00     0.010 A 
ATOM     81  C   UNL A   1      42.377  24.073  25.966  1.00  0.00     0.010 A 
ATOM     82  C   UNL A   1      40.588  22.423  27.340  1.00  0.00     0.020 A 
ATOM     83  C   UNL A   1      42.371  22.690  25.722  1.00  0.00     0.020 A 
ATOM     84  C   UNL A   1      41.506  21.870  26.447  1.00  0.00     0.054 A 
BRANCH  84  85
ATOM     85  S   UNL A   1      41.621  20.061  26.347  1.00  0.00     0.124 S 
ATOM     86  O   UNL A   1      42.699  19.881  25.378  1.00  0.00    -0.237 OA
ATOM     87  O   UNL A   1      41.944  19.688  27.721  1.00  0.00    -0.237 OA
ATOM     88  O   UNL A   1      40.294  19.654  25.888  1.00  0.00    -0.744 OA
ENDBRANCH  84  85
ENDBRANCH  56  79
BRANCH  68  89
ATOM     89  C   UNL A   1      44.847  29.922  28.303  1.00  0.00    -0.014 A 
ATOM     90  C   UNL A   1      46.032  30.280  27.634  1.00  0.00     0.010 A 
ATOM     91  C   UNL A   1      43.691  30.693  28.063  1.00  0.00     0.010 A 
ATOM     92  C   UNL A   1      46.073  31.382  26.774  1.00  0.00     0.020 A 
ATOM     93  C   UNL A   1      43.717  31.782  27.178  1.00  0.00     0.020 A 
ATOM     94  C   UNL A   1      44.917  32.133  26.557  1.00  0.00     0.054 A 
BRANCH  94  95
ATOM     95  S   UNL A   1      45.022  33.580  25.469  1.00  0.00     0.124 S 
ATOM     96  O   UNL A   1      46.463  33.817  25.407  1.00  0.00    -0.237 OA
ATOM     97  O   UNL A   1      44.418  33.099  24.229  1.00  0.00    -0.237 OA
ATOM     98  O   UNL A   1      44.255  34.609  26.169  1.00  0.00    -0.744 OA
ENDBRANCH  94  95
ENDBRANCH  68  89
ENDBRANCH  42  43
ENDBRANCH  34  37
ENDBRANCH  32  33
ENDBRANCH   1  32
TORSDOF 16
ENDMDL
