MODEL 1
REMARK VINA RESULT:     -11.7      0.000      0.000
REMARK SMILES CCOC(=O)c1ccc(NC(=O)[C@H]2CC=CC[C@@]2(C)C(=O)NCCCCNC(=O)c2ccc(-c3c4nc(c(-c5ccc(S(=O)(=O)[O-])cc5)c5ccc([nH]5)c(-c5ccc(S(=O)(=O)[O-])cc5)c5nc(c(-c6ccc(S(=O)(=O)[O-])cc6)c6ccc3[nH]6)C=C5)C=C4)cc2)cc1
REMARK SMILES IDX 23 1 22 2 20 3 21 4 18 6 13 7 14 8 15 9 17 10 19 11 16 12
REMARK SMILES IDX 11 13 10 14 12 16 9 17 6 18 7 19 91 20 8 21 90 22 4 23 5 24
REMARK SMILES IDX 3 25 2 26 1 27 24 28 25 29 26 30 27 31 28 32 29 34 30 35
REMARK SMILES IDX 31 36 89 37 32 38 88 39 33 40 34 41 35 42 82 43 36 44 87 45
REMARK SMILES IDX 81 46 83 47 37 48 86 49 80 50 79 51 38 53 68 54 49 55 67 56
REMARK SMILES IDX 50 57 53 58 66 59 84 60 51 61 52 62 65 64 85 65 54 66 39 67
REMARK SMILES IDX 40 68 48 69 41 70 47 71 42 72 43 73 44 74 45 75 46 76 69 77
REMARK SMILES IDX 70 78 78 79 71 80 77 81 72 82 73 83 74 84 75 85 76 86 55 87
REMARK SMILES IDX 56 88 64 89 57 90 63 91 58 92 59 93 60 94 61 95 62 96
REMARK H PARENT 22 5 10 15 27 33 83 52 53 63
REMARK Flexibility Score: inf
ROOT
ATOM      1  C   UNL A   1      31.623  26.029  26.206  1.00  0.00     0.116 C 
ENDROOT
BRANCH   1   2
ATOM      2  N   UNL A   1      32.916  25.376  26.241  1.00  0.00    -0.356 N 
ATOM      3  C   UNL A   1      33.379  24.253  25.623  1.00  0.00     0.227 C 
ATOM      4  O   UNL A   1      34.603  24.090  25.681  1.00  0.00    -0.274 OA
ATOM      5  H   UNL A   1      33.579  25.822  26.816  1.00  0.00     0.163 HD
BRANCH   3   6
ATOM      6  C   UNL A   1      32.463  23.185  24.959  1.00  0.00     0.062 C 
ATOM      7  C   UNL A   1      32.482  23.156  23.388  1.00  0.00     0.098 C 
ATOM      8  C   UNL A   1      32.327  21.809  22.653  1.00  0.00     0.041 C 
ATOM      9  C   UNL A   1      32.229  20.584  23.500  1.00  0.00    -0.030 C 
ATOM     10  C   UNL A   1      32.812  21.796  25.605  1.00  0.00     0.044 C 
ATOM     11  C   UNL A   1      31.010  23.480  25.449  1.00  0.00     0.023 C 
ATOM     12  C   UNL A   1      32.437  20.576  24.819  1.00  0.00    -0.030 C 
BRANCH   7  13
ATOM     13  C   UNL A   1      33.422  24.076  22.606  1.00  0.00     0.228 C 
ATOM     14  N   UNL A   1      33.256  25.374  22.269  1.00  0.00    -0.326 N 
ATOM     15  H   UNL A   1      33.826  25.635  21.509  1.00  0.00     0.169 HD
ATOM     16  O   UNL A   1      34.510  23.592  22.240  1.00  0.00    -0.274 OA
BRANCH  14  17
ATOM     17  C   UNL A   1      32.477  26.439  22.731  1.00  0.00     0.041 A 
ATOM     18  C   UNL A   1      30.729  28.588  23.049  1.00  0.00     0.060 A 
ATOM     19  C   UNL A   1      32.098  28.794  23.132  1.00  0.00     0.018 A 
ATOM     20  C   UNL A   1      30.208  27.307  22.920  1.00  0.00     0.018 A 
ATOM     21  C   UNL A   1      32.962  27.712  22.977  1.00  0.00     0.027 A 
ATOM     22  C   UNL A   1      31.089  26.228  22.781  1.00  0.00     0.027 A 
BRANCH  18  23
ATOM     23  C   UNL A   1      29.880  29.763  22.857  1.00  0.00     0.338 C 
ATOM     24  O   UNL A   1      29.495  30.453  23.793  1.00  0.00    -0.246 OA
BRANCH  23  25
ATOM     25  O   UNL A   1      29.509  29.852  21.559  1.00  0.00    -0.462 OA
BRANCH  25  26
ATOM     26  C   UNL A   1      28.166  30.299  21.369  1.00  0.00     0.230 C 
ATOM     27  C   UNL A   1      28.178  31.632  20.640  1.00  0.00     0.049 C 
ENDBRANCH  25  26
ENDBRANCH  23  25
ENDBRANCH  18  23
ENDBRANCH  14  17
ENDBRANCH   7  13
ENDBRANCH   3   6
ENDBRANCH   1   2
BRANCH   1  28
ATOM     28  C   UNL A   1      31.647  27.512  26.545  1.00  0.00     0.023 C 
BRANCH  28  29
ATOM     29  C   UNL A   1      32.865  27.986  27.338  1.00  0.00     0.023 C 
BRANCH  29  30
ATOM     30  C   UNL A   1      33.661  29.154  26.755  1.00  0.00     0.116 C 
BRANCH  30  31
ATOM     31  N   UNL A   1      33.600  30.385  27.536  1.00  0.00    -0.352 N 
ATOM     32  C   UNL A   1      34.573  30.933  28.345  1.00  0.00     0.251 C 
ATOM     33  H   UNL A   1      32.757  30.889  27.477  1.00  0.00     0.163 HD
ATOM     34  O   UNL A   1      34.364  31.966  28.971  1.00  0.00    -0.269 OA
BRANCH  32  35
ATOM     35  C   UNL A   1      35.862  30.227  28.486  1.00  0.00     0.039 A 
ATOM     36  C   UNL A   1      36.751  30.220  27.407  1.00  0.00     0.014 A 
ATOM     37  C   UNL A   1      36.227  29.666  29.712  1.00  0.00     0.014 A 
ATOM     38  C   UNL A   1      38.051  29.745  27.592  1.00  0.00     0.010 A 
ATOM     39  C   UNL A   1      37.541  29.253  29.910  1.00  0.00     0.010 A 
ATOM     40  C   UNL A   1      38.473  29.311  28.859  1.00  0.00    -0.014 A 
BRANCH  40  41
ATOM     41  C   UNL A   1      39.888  28.948  29.132  1.00  0.00     0.031 A 
ATOM     42  C   UNL A   1      40.837  29.983  29.667  1.00  0.00     0.074 A 
ATOM     43  C   UNL A   1      40.343  27.724  28.796  1.00  0.00     0.049 A 
ATOM     44  N   UNL A   1      42.133  29.910  29.828  1.00  0.00    -0.248 NA
ATOM     45  C   UNL A   1      40.256  31.283  30.039  1.00  0.00     0.031 C 
ATOM     46  C   UNL A   1      39.534  26.641  28.230  1.00  0.00     0.029 A 
ATOM     47  N   UNL A   1      41.607  27.190  28.863  1.00  0.00    -0.354 N 
ATOM     48  C   UNL A   1      42.527  31.160  30.286  1.00  0.00     0.074 A 
ATOM     49  C   UNL A   1      41.338  31.984  30.345  1.00  0.00     0.031 C 
ATOM     50  C   UNL A   1      40.317  25.571  28.017  1.00  0.00     0.029 A 
ATOM     51  C   UNL A   1      41.689  25.901  28.389  1.00  0.00     0.049 A 
ATOM     52  H   UNL A   1      42.381  27.683  29.217  1.00  0.00     0.167 HD
ATOM     53  C   UNL A   1      43.764  31.583  30.640  1.00  0.00     0.031 A 
ATOM     54  C   UNL A   1      42.751  25.080  28.255  1.00  0.00     0.031 A 
ATOM     55  C   UNL A   1      44.939  30.755  30.607  1.00  0.00     0.049 A 
ATOM     56  C   UNL A   1      44.112  25.565  28.674  1.00  0.00     0.074 A 
ATOM     57  C   UNL A   1      46.228  31.075  30.999  1.00  0.00     0.029 A 
ATOM     58  N   UNL A   1      44.968  29.441  30.166  1.00  0.00    -0.354 N 
ATOM     59  N   UNL A   1      44.456  26.736  29.152  1.00  0.00    -0.248 NA
ATOM     60  C   UNL A   1      45.227  24.614  28.544  1.00  0.00     0.031 C 
ATOM     61  C   UNL A   1      47.043  29.964  30.763  1.00  0.00     0.029 A 
ATOM     62  C   UNL A   1      46.254  28.938  30.268  1.00  0.00     0.049 A 
ATOM     63  H   UNL A   1      44.191  28.940  29.831  1.00  0.00     0.167 HD
ATOM     64  C   UNL A   1      45.820  26.653  29.410  1.00  0.00     0.074 A 
ATOM     65  C   UNL A   1      46.238  25.317  29.038  1.00  0.00     0.031 C 
ATOM     66  C   UNL A   1      46.649  27.599  29.913  1.00  0.00     0.031 A 
BRANCH  53  67
ATOM     67  C   UNL A   1      43.905  33.012  31.087  1.00  0.00    -0.014 A 
ATOM     68  C   UNL A   1      43.816  33.357  32.448  1.00  0.00     0.010 A 
ATOM     69  C   UNL A   1      44.151  34.021  30.140  1.00  0.00     0.010 A 
ATOM     70  C   UNL A   1      43.919  34.691  32.847  1.00  0.00     0.020 A 
ATOM     71  C   UNL A   1      44.282  35.354  30.537  1.00  0.00     0.020 A 
ATOM     72  C   UNL A   1      44.143  35.683  31.888  1.00  0.00     0.054 A 
BRANCH  72  73
ATOM     73  S   UNL A   1      44.276  37.407  32.432  1.00  0.00     0.124 S 
ATOM     74  O   UNL A   1      43.248  37.474  33.469  1.00  0.00    -0.237 OA
ATOM     75  O   UNL A   1      45.653  37.491  32.908  1.00  0.00    -0.237 OA
ATOM     76  O   UNL A   1      43.991  38.175  31.222  1.00  0.00    -0.744 OA
ENDBRANCH  72  73
ENDBRANCH  53  67
BRANCH  54  77
ATOM     77  C   UNL A   1      42.565  23.705  27.716  1.00  0.00    -0.014 A 
ATOM     78  C   UNL A   1      42.328  22.628  28.588  1.00  0.00     0.010 A 
ATOM     79  C   UNL A   1      42.609  23.467  26.330  1.00  0.00     0.010 A 
ATOM     80  C   UNL A   1      42.155  21.335  28.086  1.00  0.00     0.020 A 
ATOM     81  C   UNL A   1      42.414  22.179  25.824  1.00  0.00     0.020 A 
ATOM     82  C   UNL A   1      42.199  21.119  26.707  1.00  0.00     0.054 A 
BRANCH  82  83
ATOM     83  S   UNL A   1      41.919  19.441  26.073  1.00  0.00     0.124 S 
ATOM     84  O   UNL A   1      42.752  19.425  24.876  1.00  0.00    -0.237 OA
ATOM     85  O   UNL A   1      42.382  18.604  27.178  1.00  0.00    -0.237 OA
ATOM     86  O   UNL A   1      40.476  19.403  25.837  1.00  0.00    -0.744 OA
ENDBRANCH  82  83
ENDBRANCH  54  77
BRANCH  66  87
ATOM     87  C   UNL A   1      48.086  27.220  30.145  1.00  0.00    -0.014 A 
ATOM     88  C   UNL A   1      49.076  27.499  29.188  1.00  0.00     0.010 A 
ATOM     89  C   UNL A   1      48.460  26.665  31.382  1.00  0.00     0.010 A 
ATOM     90  C   UNL A   1      50.418  27.222  29.463  1.00  0.00     0.020 A 
ATOM     91  C   UNL A   1      49.802  26.406  31.668  1.00  0.00     0.020 A 
ATOM     92  C   UNL A   1      50.773  26.681  30.704  1.00  0.00     0.054 A 
BRANCH  92  93
ATOM     93  S   UNL A   1      52.529  26.408  31.070  1.00  0.00     0.124 S 
ATOM     94  O   UNL A   1      53.102  26.279  29.734  1.00  0.00    -0.237 OA
ATOM     95  O   UNL A   1      52.898  27.620  31.798  1.00  0.00    -0.237 OA
ATOM     96  O   UNL A   1      52.529  25.186  31.870  1.00  0.00    -0.744 OA
ENDBRANCH  92  93
ENDBRANCH  66  87
ENDBRANCH  40  41
ENDBRANCH  32  35
ENDBRANCH  30  31
ENDBRANCH  29  30
ENDBRANCH  28  29
ENDBRANCH   1  28
TORSDOF 19
ENDMDL
MODEL 2
REMARK VINA RESULT:     -11.6      1.374      3.888
REMARK SMILES CCOC(=O)c1ccc(NC(=O)[C@H]2CC=CC[C@@]2(C)C(=O)NCCCCNC(=O)c2ccc(-c3c4nc(c(-c5ccc(S(=O)(=O)[O-])cc5)c5ccc([nH]5)c(-c5ccc(S(=O)(=O)[O-])cc5)c5nc(c(-c6ccc(S(=O)(=O)[O-])cc6)c6ccc3[nH]6)C=C5)C=C4)cc2)cc1
REMARK SMILES IDX 23 1 22 2 20 3 21 4 18 6 13 7 14 8 15 9 17 10 19 11 16 12
REMARK SMILES IDX 11 13 10 14 12 16 9 17 6 18 7 19 91 20 8 21 90 22 4 23 5 24
REMARK SMILES IDX 3 25 2 26 1 27 24 28 25 29 26 30 27 31 28 32 29 34 30 35
REMARK SMILES IDX 31 36 89 37 32 38 88 39 33 40 34 41 35 42 82 43 36 44 87 45
REMARK SMILES IDX 81 46 83 47 37 48 86 49 80 50 79 51 38 53 68 54 49 55 67 56
REMARK SMILES IDX 50 57 53 58 66 59 84 60 51 61 52 62 65 64 85 65 54 66 39 67
REMARK SMILES IDX 40 68 48 69 41 70 47 71 42 72 43 73 44 74 45 75 46 76 69 77
REMARK SMILES IDX 70 78 78 79 71 80 77 81 72 82 73 83 74 84 75 85 76 86 55 87
REMARK SMILES IDX 56 88 64 89 57 90 63 91 58 92 59 93 60 94 61 95 62 96
REMARK H PARENT 22 5 10 15 27 33 83 52 53 63
REMARK Flexibility Score: inf
ROOT
ATOM      1  C   UNL A   1      33.458  28.405  23.643  1.00  0.00     0.116 C 
ENDROOT
BRANCH   1   2
ATOM      2  N   UNL A   1      32.432  28.887  22.740  1.00  0.00    -0.356 N 
ATOM      3  C   UNL A   1      31.089  28.660  22.693  1.00  0.00     0.227 C 
ATOM      4  O   UNL A   1      30.459  29.405  21.933  1.00  0.00    -0.274 OA
ATOM      5  H   UNL A   1      32.765  29.484  22.032  1.00  0.00     0.163 HD
BRANCH   3   6
ATOM      6  C   UNL A   1      30.375  27.506  23.454  1.00  0.00     0.062 C 
ATOM      7  C   UNL A   1      30.723  26.053  22.963  1.00  0.00     0.098 C 
ATOM      8  C   UNL A   1      30.781  24.902  23.988  1.00  0.00     0.041 C 
ATOM      9  C   UNL A   1      30.558  25.258  25.419  1.00  0.00    -0.030 C 
ATOM     10  C   UNL A   1      30.639  27.717  24.988  1.00  0.00     0.044 C 
ATOM     11  C   UNL A   1      28.842  27.748  23.292  1.00  0.00     0.023 C 
ATOM     12  C   UNL A   1      30.487  26.514  25.868  1.00  0.00    -0.030 C 
BRANCH   7  13
ATOM     13  C   UNL A   1      31.768  25.834  21.867  1.00  0.00     0.228 C 
ATOM     14  N   UNL A   1      33.039  25.390  21.980  1.00  0.00    -0.326 N 
ATOM     15  H   UNL A   1      33.591  25.646  21.205  1.00  0.00     0.169 HD
ATOM     16  O   UNL A   1      31.414  26.068  20.696  1.00  0.00    -0.274 OA
BRANCH  14  17
ATOM     17  C   UNL A   1      33.765  24.656  22.922  1.00  0.00     0.041 A 
ATOM     18  C   UNL A   1      35.667  23.620  24.678  1.00  0.00     0.060 A 
ATOM     19  C   UNL A   1      35.332  22.917  23.530  1.00  0.00     0.018 A 
ATOM     20  C   UNL A   1      34.988  24.781  25.026  1.00  0.00     0.018 A 
ATOM     21  C   UNL A   1      34.377  23.442  22.663  1.00  0.00     0.027 A 
ATOM     22  C   UNL A   1      34.020  25.287  24.151  1.00  0.00     0.027 A 
BRANCH  18  23
ATOM     23  C   UNL A   1      36.899  23.239  25.368  1.00  0.00     0.338 C 
ATOM     24  O   UNL A   1      37.271  23.790  26.397  1.00  0.00    -0.246 OA
BRANCH  23  25
ATOM     25  O   UNL A   1      37.573  22.329  24.629  1.00  0.00    -0.462 OA
BRANCH  25  26
ATOM     26  C   UNL A   1      38.044  21.208  25.379  1.00  0.00     0.230 C 
ATOM     27  C   UNL A   1      37.454  19.932  24.801  1.00  0.00     0.049 C 
ENDBRANCH  25  26
ENDBRANCH  23  25
ENDBRANCH  18  23
ENDBRANCH  14  17
ENDBRANCH   7  13
ENDBRANCH   3   6
ENDBRANCH   1   2
BRANCH   1  28
ATOM     28  C   UNL A   1      33.552  29.157  24.962  1.00  0.00     0.023 C 
BRANCH  28  29
ATOM     29  C   UNL A   1      34.029  28.333  26.158  1.00  0.00     0.023 C 
BRANCH  29  30
ATOM     30  C   UNL A   1      33.497  28.734  27.534  1.00  0.00     0.116 C 
BRANCH  30  31
ATOM     31  N   UNL A   1      33.593  30.158  27.834  1.00  0.00    -0.352 N 
ATOM     32  C   UNL A   1      34.700  30.875  28.238  1.00  0.00     0.251 C 
ATOM     33  H   UNL A   1      32.760  30.674  27.736  1.00  0.00     0.163 HD
ATOM     34  O   UNL A   1      34.619  32.073  28.488  1.00  0.00    -0.269 OA
BRANCH  32  35
ATOM     35  C   UNL A   1      35.983  30.164  28.413  1.00  0.00     0.039 A 
ATOM     36  C   UNL A   1      36.923  30.201  27.381  1.00  0.00     0.014 A 
ATOM     37  C   UNL A   1      36.288  29.554  29.632  1.00  0.00     0.014 A 
ATOM     38  C   UNL A   1      38.214  29.719  27.609  1.00  0.00     0.010 A 
ATOM     39  C   UNL A   1      37.591  29.134  29.877  1.00  0.00     0.010 A 
ATOM     40  C   UNL A   1      38.574  29.234  28.877  1.00  0.00    -0.014 A 
BRANCH  40  41
ATOM     41  C   UNL A   1      39.974  28.861  29.204  1.00  0.00     0.031 A 
ATOM     42  C   UNL A   1      40.897  29.877  29.817  1.00  0.00     0.074 A 
ATOM     43  C   UNL A   1      40.446  27.648  28.849  1.00  0.00     0.049 A 
ATOM     44  N   UNL A   1      42.183  29.796  30.037  1.00  0.00    -0.248 NA
ATOM     45  C   UNL A   1      40.298  31.164  30.204  1.00  0.00     0.031 C 
ATOM     46  C   UNL A   1      39.664  26.585  28.211  1.00  0.00     0.029 A 
ATOM     47  N   UNL A   1      41.705  27.110  28.958  1.00  0.00    -0.354 N 
ATOM     48  C   UNL A   1      42.555  31.030  30.554  1.00  0.00     0.074 A 
ATOM     49  C   UNL A   1      41.364  31.853  30.584  1.00  0.00     0.031 C 
ATOM     50  C   UNL A   1      40.457  25.522  27.999  1.00  0.00     0.029 A 
ATOM     51  C   UNL A   1      41.810  25.837  28.446  1.00  0.00     0.049 A 
ATOM     52  H   UNL A   1      42.461  27.591  29.365  1.00  0.00     0.167 HD
ATOM     53  C   UNL A   1      43.774  31.440  30.979  1.00  0.00     0.031 A 
ATOM     54  C   UNL A   1      42.877  25.021  28.336  1.00  0.00     0.031 A 
ATOM     55  C   UNL A   1      44.950  30.612  30.975  1.00  0.00     0.049 A 
ATOM     56  C   UNL A   1      44.217  25.489  28.834  1.00  0.00     0.074 A 
ATOM     57  C   UNL A   1      46.219  30.917  31.437  1.00  0.00     0.029 A 
ATOM     58  N   UNL A   1      45.000  29.313  30.493  1.00  0.00    -0.354 N 
ATOM     59  N   UNL A   1      44.537  26.644  29.366  1.00  0.00    -0.248 NA
ATOM     60  C   UNL A   1      45.337  24.542  28.726  1.00  0.00     0.031 C 
ATOM     61  C   UNL A   1      47.044  29.813  31.203  1.00  0.00     0.029 A 
ATOM     62  C   UNL A   1      46.280  28.805  30.638  1.00  0.00     0.049 A 
ATOM     63  H   UNL A   1      44.240  28.825  30.105  1.00  0.00     0.167 HD
ATOM     64  C   UNL A   1      45.887  26.551  29.685  1.00  0.00     0.074 A 
ATOM     65  C   UNL A   1      46.323  25.227  29.290  1.00  0.00     0.031 C 
ATOM     66  C   UNL A   1      46.692  27.478  30.258  1.00  0.00     0.031 A 
BRANCH  53  67
ATOM     67  C   UNL A   1      43.893  32.853  31.480  1.00  0.00    -0.014 A 
ATOM     68  C   UNL A   1      43.772  33.149  32.850  1.00  0.00     0.010 A 
ATOM     69  C   UNL A   1      44.151  33.897  30.574  1.00  0.00     0.010 A 
ATOM     70  C   UNL A   1      43.855  34.469  33.298  1.00  0.00     0.020 A 
ATOM     71  C   UNL A   1      44.262  35.216  31.022  1.00  0.00     0.020 A 
ATOM     72  C   UNL A   1      44.091  35.496  32.379  1.00  0.00     0.054 A 
BRANCH  72  73
ATOM     73  S   UNL A   1      44.198  37.201  32.987  1.00  0.00     0.124 S 
ATOM     74  O   UNL A   1      42.938  37.338  33.715  1.00  0.00    -0.237 OA
ATOM     75  O   UNL A   1      45.400  37.175  33.814  1.00  0.00    -0.237 OA
ATOM     76  O   UNL A   1      44.302  37.997  31.767  1.00  0.00    -0.744 OA
ENDBRANCH  72  73
ENDBRANCH  53  67
BRANCH  54  77
ATOM     77  C   UNL A   1      42.717  23.664  27.743  1.00  0.00    -0.014 A 
ATOM     78  C   UNL A   1      42.941  23.460  26.370  1.00  0.00     0.010 A 
ATOM     79  C   UNL A   1      42.357  22.569  28.549  1.00  0.00     0.010 A 
ATOM     80  C   UNL A   1      42.791  22.188  25.810  1.00  0.00     0.020 A 
ATOM     81  C   UNL A   1      42.227  21.292  27.996  1.00  0.00     0.020 A 
ATOM     82  C   UNL A   1      42.435  21.112  26.627  1.00  0.00     0.054 A 
BRANCH  82  83
ATOM     83  S   UNL A   1      42.297  19.459  25.888  1.00  0.00     0.124 S 
ATOM     84  O   UNL A   1      42.645  18.595  27.010  1.00  0.00    -0.237 OA
ATOM     85  O   UNL A   1      40.899  19.417  25.465  1.00  0.00    -0.237 OA
ATOM     86  O   UNL A   1      43.268  19.493  24.795  1.00  0.00    -0.744 OA
ENDBRANCH  82  83
ENDBRANCH  54  77
BRANCH  66  87
ATOM     87  C   UNL A   1      48.116  27.090  30.545  1.00  0.00    -0.014 A 
ATOM     88  C   UNL A   1      49.144  27.360  29.625  1.00  0.00     0.010 A 
ATOM     89  C   UNL A   1      48.439  26.536  31.797  1.00  0.00     0.010 A 
ATOM     90  C   UNL A   1      50.472  27.074  29.951  1.00  0.00     0.020 A 
ATOM     91  C   UNL A   1      49.768  26.269  32.134  1.00  0.00     0.020 A 
ATOM     92  C   UNL A   1      50.776  26.535  31.206  1.00  0.00     0.054 A 
BRANCH  92  93
ATOM     93  S   UNL A   1      52.515  26.250  31.638  1.00  0.00     0.124 S 
ATOM     94  O   UNL A   1      52.715  27.195  32.734  1.00  0.00    -0.237 OA
ATOM     95  O   UNL A   1      52.527  24.838  32.016  1.00  0.00    -0.237 OA
ATOM     96  O   UNL A   1      53.233  26.564  30.406  1.00  0.00    -0.744 OA
ENDBRANCH  92  93
ENDBRANCH  66  87
ENDBRANCH  40  41
ENDBRANCH  32  35
ENDBRANCH  30  31
ENDBRANCH  29  30
ENDBRANCH  28  29
ENDBRANCH   1  28
TORSDOF 19
ENDMDL
MODEL 3
REMARK VINA RESULT:     -11.0      4.659      9.899
REMARK SMILES CCOC(=O)c1ccc(NC(=O)[C@H]2CC=CC[C@@]2(C)C(=O)NCCCCNC(=O)c2ccc(-c3c4nc(c(-c5ccc(S(=O)(=O)[O-])cc5)c5ccc([nH]5)c(-c5ccc(S(=O)(=O)[O-])cc5)c5nc(c(-c6ccc(S(=O)(=O)[O-])cc6)c6ccc3[nH]6)C=C5)C=C4)cc2)cc1
REMARK SMILES IDX 23 1 22 2 20 3 21 4 18 6 13 7 14 8 15 9 17 10 19 11 16 12
REMARK SMILES IDX 11 13 10 14 12 16 9 17 6 18 7 19 91 20 8 21 90 22 4 23 5 24
REMARK SMILES IDX 3 25 2 26 1 27 24 28 25 29 26 30 27 31 28 32 29 34 30 35
REMARK SMILES IDX 31 36 89 37 32 38 88 39 33 40 34 41 35 42 82 43 36 44 87 45
REMARK SMILES IDX 81 46 83 47 37 48 86 49 80 50 79 51 38 53 68 54 49 55 67 56
REMARK SMILES IDX 50 57 53 58 66 59 84 60 51 61 52 62 65 64 85 65 54 66 39 67
REMARK SMILES IDX 40 68 48 69 41 70 47 71 42 72 43 73 44 74 45 75 46 76 69 77
REMARK SMILES IDX 70 78 78 79 71 80 77 81 72 82 73 83 74 84 75 85 76 86 55 87
REMARK SMILES IDX 56 88 64 89 57 90 63 91 58 92 59 93 60 94 61 95 62 96
REMARK H PARENT 22 5 10 15 27 33 83 52 53 63
REMARK Flexibility Score: inf
ROOT
ATOM      1  C   UNL A   1      35.659  23.142  25.744  1.00  0.00     0.116 C 
ENDROOT
BRANCH   1   2
ATOM      2  N   UNL A   1      34.838  24.336  25.735  1.00  0.00    -0.356 N 
ATOM      3  C   UNL A   1      33.495  24.509  25.588  1.00  0.00     0.227 C 
ATOM      4  O   UNL A   1      33.080  25.642  25.857  1.00  0.00    -0.274 OA
ATOM      5  H   UNL A   1      35.342  25.174  25.856  1.00  0.00     0.163 HD
BRANCH   3   6
ATOM      6  C   UNL A   1      32.533  23.416  25.039  1.00  0.00     0.062 C 
ATOM      7  C   UNL A   1      32.614  23.155  23.491  1.00  0.00     0.098 C 
ATOM      8  C   UNL A   1      32.396  21.727  22.951  1.00  0.00     0.041 C 
ATOM      9  C   UNL A   1      32.177  20.649  23.959  1.00  0.00    -0.030 C 
ATOM     10  C   UNL A   1      32.758  22.117  25.895  1.00  0.00     0.044 C 
ATOM     11  C   UNL A   1      31.086  23.871  25.407  1.00  0.00     0.023 C 
ATOM     12  C   UNL A   1      32.330  20.822  25.274  1.00  0.00    -0.030 C 
BRANCH   7  13
ATOM     13  C   UNL A   1      33.648  23.889  22.634  1.00  0.00     0.228 C 
ATOM     14  N   UNL A   1      33.545  25.087  22.018  1.00  0.00    -0.326 N 
ATOM     15  H   UNL A   1      34.193  25.181  21.282  1.00  0.00     0.169 HD
ATOM     16  O   UNL A   1      34.755  23.338  22.490  1.00  0.00    -0.274 OA
BRANCH  14  17
ATOM     17  C   UNL A   1      32.749  26.226  22.164  1.00  0.00     0.041 A 
ATOM     18  C   UNL A   1      31.325  28.447  23.066  1.00  0.00     0.060 A 
ATOM     19  C   UNL A   1      30.643  27.316  22.643  1.00  0.00     0.018 A 
ATOM     20  C   UNL A   1      32.705  28.535  22.943  1.00  0.00     0.018 A 
ATOM     21  C   UNL A   1      31.365  26.214  22.189  1.00  0.00     0.027 A 
ATOM     22  C   UNL A   1      33.415  27.425  22.471  1.00  0.00     0.027 A 
BRANCH  18  23
ATOM     23  C   UNL A   1      30.580  29.427  23.856  1.00  0.00     0.338 C 
ATOM     24  O   UNL A   1      31.020  29.898  24.898  1.00  0.00    -0.246 OA
BRANCH  23  25
ATOM     25  O   UNL A   1      29.344  29.592  23.332  1.00  0.00    -0.462 OA
BRANCH  25  26
ATOM     26  C   UNL A   1      29.248  30.673  22.402  1.00  0.00     0.230 C 
ATOM     27  C   UNL A   1      28.124  30.391  21.419  1.00  0.00     0.049 C 
ENDBRANCH  25  26
ENDBRANCH  23  25
ENDBRANCH  18  23
ENDBRANCH  14  17
ENDBRANCH   7  13
ENDBRANCH   3   6
ENDBRANCH   1   2
BRANCH   1  28
ATOM     28  C   UNL A   1      37.017  23.295  25.076  1.00  0.00     0.023 C 
BRANCH  28  29
ATOM     29  C   UNL A   1      38.226  22.999  25.964  1.00  0.00     0.023 C 
BRANCH  29  30
ATOM     30  C   UNL A   1      39.045  24.198  26.444  1.00  0.00     0.116 C 
BRANCH  30  31
ATOM     31  N   UNL A   1      40.487  24.059  26.276  1.00  0.00    -0.352 N 
ATOM     32  C   UNL A   1      41.489  24.844  26.805  1.00  0.00     0.251 C 
ATOM     33  H   UNL A   1      40.783  23.307  25.713  1.00  0.00     0.163 HD
ATOM     34  O   UNL A   1      42.667  24.622  26.547  1.00  0.00    -0.269 OA
BRANCH  32  35
ATOM     35  C   UNL A   1      41.118  25.994  27.655  1.00  0.00     0.039 A 
ATOM     36  C   UNL A   1      40.082  25.844  28.580  1.00  0.00     0.014 A 
ATOM     37  C   UNL A   1      41.861  27.175  27.603  1.00  0.00     0.014 A 
ATOM     38  C   UNL A   1      39.861  26.843  29.531  1.00  0.00     0.010 A 
ATOM     39  C   UNL A   1      41.681  28.139  28.590  1.00  0.00     0.010 A 
ATOM     40  C   UNL A   1      40.696  27.972  29.579  1.00  0.00    -0.014 A 
BRANCH  40  41
ATOM     41  C   UNL A   1      40.593  28.975  30.670  1.00  0.00     0.031 A 
ATOM     42  C   UNL A   1      41.454  28.842  31.894  1.00  0.00     0.074 A 
ATOM     43  C   UNL A   1      39.652  29.939  30.608  1.00  0.00     0.049 A 
ATOM     44  N   UNL A   1      41.410  29.521  33.011  1.00  0.00    -0.248 NA
ATOM     45  C   UNL A   1      42.478  27.786  31.870  1.00  0.00     0.031 C 
ATOM     46  C   UNL A   1      38.725  30.153  29.492  1.00  0.00     0.029 A 
ATOM     47  N   UNL A   1      39.305  30.911  31.515  1.00  0.00    -0.354 N 
ATOM     48  C   UNL A   1      42.374  28.953  33.835  1.00  0.00     0.074 A 
ATOM     49  C   UNL A   1      42.963  27.853  33.101  1.00  0.00     0.031 C 
ATOM     50  C   UNL A   1      37.928  31.196  29.776  1.00  0.00     0.029 A 
ATOM     51  C   UNL A   1      38.255  31.701  31.105  1.00  0.00     0.049 A 
ATOM     52  H   UNL A   1      39.765  31.031  32.376  1.00  0.00     0.167 HD
ATOM     53  C   UNL A   1      42.745  29.321  35.084  1.00  0.00     0.031 A 
ATOM     54  C   UNL A   1      37.617  32.708  31.734  1.00  0.00     0.031 A 
ATOM     55  C   UNL A   1      42.179  30.432  35.800  1.00  0.00     0.049 A 
ATOM     56  C   UNL A   1      38.061  33.113  33.114  1.00  0.00     0.074 A 
ATOM     57  C   UNL A   1      42.527  30.918  37.049  1.00  0.00     0.029 A 
ATOM     58  N   UNL A   1      41.151  31.234  35.329  1.00  0.00    -0.354 N 
ATOM     59  N   UNL A   1      39.008  32.594  33.857  1.00  0.00    -0.248 NA
ATOM     60  C   UNL A   1      37.357  34.245  33.736  1.00  0.00     0.031 C 
ATOM     61  C   UNL A   1      41.687  31.996  37.346  1.00  0.00     0.029 A 
ATOM     62  C   UNL A   1      40.847  32.208  36.265  1.00  0.00     0.049 A 
ATOM     63  H   UNL A   1      40.704  31.128  34.459  1.00  0.00     0.167 HD
ATOM     64  C   UNL A   1      39.036  33.355  35.020  1.00  0.00     0.074 A 
ATOM     65  C   UNL A   1      38.013  34.372  34.882  1.00  0.00     0.031 C 
ATOM     66  C   UNL A   1      39.839  33.225  36.103  1.00  0.00     0.031 A 
BRANCH  53  67
ATOM     67  C   UNL A   1      43.816  28.505  35.756  1.00  0.00    -0.014 A 
ATOM     68  C   UNL A   1      45.178  28.795  35.559  1.00  0.00     0.010 A 
ATOM     69  C   UNL A   1      43.457  27.448  36.611  1.00  0.00     0.010 A 
ATOM     70  C   UNL A   1      46.162  28.011  36.165  1.00  0.00     0.020 A 
ATOM     71  C   UNL A   1      44.438  26.678  37.241  1.00  0.00     0.020 A 
ATOM     72  C   UNL A   1      45.786  26.952  36.996  1.00  0.00     0.054 A 
BRANCH  72  73
ATOM     73  S   UNL A   1      47.083  25.951  37.773  1.00  0.00     0.124 S 
ATOM     74  O   UNL A   1      47.125  24.783  36.896  1.00  0.00    -0.237 OA
ATOM     75  O   UNL A   1      48.249  26.826  37.709  1.00  0.00    -0.237 OA
ATOM     76  O   UNL A   1      46.568  25.702  39.118  1.00  0.00    -0.744 OA
ENDBRANCH  72  73
ENDBRANCH  53  67
BRANCH  54  77
ATOM     77  C   UNL A   1      36.499  33.420  31.056  1.00  0.00    -0.014 A 
ATOM     78  C   UNL A   1      36.723  34.100  29.846  1.00  0.00     0.010 A 
ATOM     79  C   UNL A   1      35.204  33.408  31.606  1.00  0.00     0.010 A 
ATOM     80  C   UNL A   1      35.676  34.771  29.207  1.00  0.00     0.020 A 
ATOM     81  C   UNL A   1      34.151  34.059  30.958  1.00  0.00     0.020 A 
ATOM     82  C   UNL A   1      34.396  34.746  29.767  1.00  0.00     0.054 A 
BRANCH  82  83
ATOM     83  S   UNL A   1      33.041  35.579  28.893  1.00  0.00     0.124 S 
ATOM     84  O   UNL A   1      33.761  36.520  28.041  1.00  0.00    -0.237 OA
ATOM     85  O   UNL A   1      32.383  34.473  28.200  1.00  0.00    -0.237 OA
ATOM     86  O   UNL A   1      32.258  36.179  29.972  1.00  0.00    -0.744 OA
ENDBRANCH  82  83
ENDBRANCH  54  77
BRANCH  66  87
ATOM     87  C   UNL A   1      39.691  34.231  37.211  1.00  0.00    -0.014 A 
ATOM     88  C   UNL A   1      38.902  33.958  38.341  1.00  0.00     0.010 A 
ATOM     89  C   UNL A   1      40.433  35.425  37.160  1.00  0.00     0.010 A 
ATOM     90  C   UNL A   1      38.853  34.868  39.401  1.00  0.00     0.020 A 
ATOM     91  C   UNL A   1      40.402  36.327  38.226  1.00  0.00     0.020 A 
ATOM     92  C   UNL A   1      39.607  36.045  39.338  1.00  0.00     0.054 A 
BRANCH  92  93
ATOM     93  S   UNL A   1      39.592  37.171  40.760  1.00  0.00     0.124 S 
ATOM     94  O   UNL A   1      39.047  36.322  41.815  1.00  0.00    -0.237 OA
ATOM     95  O   UNL A   1      41.002  37.526  40.905  1.00  0.00    -0.237 OA
ATOM     96  O   UNL A   1      38.723  38.263  40.328  1.00  0.00    -0.744 OA
ENDBRANCH  92  93
ENDBRANCH  66  87
ENDBRANCH  40  41
ENDBRANCH  32  35
ENDBRANCH  30  31
ENDBRANCH  29  30
ENDBRANCH  28  29
ENDBRANCH   1  28
TORSDOF 19
ENDMDL
