MODEL 1
REMARK VINA RESULT:     -11.9      0.000      0.000
REMARK SMILES Cc1c(Cl)cc2c(c1C)O[C@@H](C(F)(F)F)C(C(=O)NCCCCNC(=O)c1ccc(-c3c4nc(c(-c5ccc(S(=O)(=O)[O-])cc5)c5ccc([nH]5)c(-c5ccc(S(=O)(=O)[O-])cc5)c5nc(c(-c6ccc(S(=O)(=O)[O-])cc6)c6ccc3[nH]6)C=C5)C=C4)cc1)=C2
REMARK SMILES IDX 22 1 21 2 20 3 19 4 17 5 18 6 16 8 1 9 2 10 3 11 8 12 4 13
REMARK SMILES IDX 5 14 7 15 9 16 6 17 10 18 87 19 11 20 12 21 13 22 14 23
REMARK SMILES IDX 15 24 23 25 24 26 25 27 26 29 27 30 28 31 86 32 29 33 85 34
REMARK SMILES IDX 30 35 31 36 32 37 79 38 33 39 84 40 78 41 80 42 34 43 83 44
REMARK SMILES IDX 77 45 76 46 35 48 65 49 46 50 64 51 47 52 50 53 63 54 81 55
REMARK SMILES IDX 48 56 49 57 62 59 82 60 51 61 36 62 37 63 45 64 38 65 44 66
REMARK SMILES IDX 39 67 40 68 41 69 42 70 43 71 66 72 67 73 75 74 68 75 74 76
REMARK SMILES IDX 69 77 70 78 71 79 72 80 73 81 52 82 53 83 61 84 54 85 60 86
REMARK SMILES IDX 55 87 56 88 57 89 58 90 59 91
REMARK H PARENT 19 7 24 28 80 47 50 58
REMARK Flexibility Score: inf
ROOT
ATOM      1  C   UNL A   1      33.934  28.561  25.826  1.00  0.00     0.023 C 
ENDROOT
BRANCH   1   2
ATOM      2  C   UNL A   1      32.954  29.207  24.843  1.00  0.00     0.023 C 
BRANCH   2   3
ATOM      3  C   UNL A   1      31.557  28.589  24.848  1.00  0.00     0.116 C 
BRANCH   3   4
ATOM      4  N   UNL A   1      31.124  28.243  23.506  1.00  0.00    -0.352 N 
ATOM      5  C   UNL A   1      31.022  27.108  22.778  1.00  0.00     0.251 C 
ATOM      6  O   UNL A   1      30.494  27.236  21.670  1.00  0.00    -0.270 OA
ATOM      7  H   UNL A   1      30.830  29.033  23.000  1.00  0.00     0.163 HD
BRANCH   5   8
ATOM      8  C   UNL A   1      31.496  25.760  23.212  1.00  0.00     0.067 C 
ATOM      9  C   UNL A   1      35.101  20.588  24.967  1.00  0.00     0.046 C 
ATOM     10  C   UNL A   1      34.457  21.840  24.427  1.00  0.00    -0.026 A 
ATOM     11  C   UNL A   1      35.286  22.883  23.954  1.00  0.00     0.045 A 
ATOM     12  C   UNL A   1      33.053  22.009  24.359  1.00  0.00    -0.004 A 
ATOM     13  Cl  UNL A   1      37.014  22.744  23.953  1.00  0.00    -0.084 Cl
ATOM     14  C   UNL A   1      34.751  24.075  23.464  1.00  0.00     0.032 A 
ATOM     15  C   UNL A   1      32.537  23.241  23.905  1.00  0.00     0.131 A 
ATOM     16  C   UNL A   1      32.068  20.962  24.816  1.00  0.00     0.049 C 
ATOM     17  C   UNL A   1      33.372  24.262  23.448  1.00  0.00     0.019 A 
ATOM     18  O   UNL A   1      31.172  23.397  23.896  1.00  0.00    -0.475 OA
ATOM     19  C   UNL A   1      32.791  25.502  22.950  1.00  0.00     0.025 C 
ATOM     20  C   UNL A   1      30.690  24.769  24.004  1.00  0.00     0.314 C 
BRANCH  20  21
ATOM     21  C   UNL A   1      30.498  25.153  25.481  1.00  0.00     0.429 C 
ATOM     22  F   UNL A   1      29.516  26.064  25.659  1.00  0.00    -0.167 F 
ATOM     23  F   UNL A   1      30.157  24.057  26.205  1.00  0.00    -0.167 F 
ATOM     24  F   UNL A   1      31.617  25.666  26.041  1.00  0.00    -0.167 F 
ENDBRANCH  20  21
ENDBRANCH   5   8
ENDBRANCH   3   4
ENDBRANCH   2   3
ENDBRANCH   1   2
BRANCH   1  25
ATOM     25  C   UNL A   1      33.617  28.791  27.299  1.00  0.00     0.116 C 
BRANCH  25  26
ATOM     26  N   UNL A   1      33.636  30.193  27.692  1.00  0.00    -0.352 N 
ATOM     27  C   UNL A   1      34.685  30.893  28.243  1.00  0.00     0.251 C 
ATOM     28  H   UNL A   1      32.804  30.698  27.547  1.00  0.00     0.163 HD
ATOM     29  O   UNL A   1      34.551  32.061  28.590  1.00  0.00    -0.269 OA
BRANCH  27  30
ATOM     30  C   UNL A   1      35.957  30.180  28.454  1.00  0.00     0.039 A 
ATOM     31  C   UNL A   1      36.934  30.242  27.459  1.00  0.00     0.014 A 
ATOM     32  C   UNL A   1      36.219  29.569  29.684  1.00  0.00     0.014 A 
ATOM     33  C   UNL A   1      38.213  29.758  27.732  1.00  0.00     0.010 A 
ATOM     34  C   UNL A   1      37.511  29.149  29.974  1.00  0.00     0.010 A 
ATOM     35  C   UNL A   1      38.521  29.249  29.005  1.00  0.00    -0.014 A 
BRANCH  35  36
ATOM     36  C   UNL A   1      39.901  28.829  29.343  1.00  0.00     0.031 A 
ATOM     37  C   UNL A   1      40.801  29.760  30.103  1.00  0.00     0.074 A 
ATOM     38  C   UNL A   1      40.357  27.633  28.919  1.00  0.00     0.049 A 
ATOM     39  N   UNL A   1      42.045  29.584  30.466  1.00  0.00    -0.248 NA
ATOM     40  C   UNL A   1      40.240  31.066  30.483  1.00  0.00     0.031 C 
ATOM     41  C   UNL A   1      39.591  26.662  28.132  1.00  0.00     0.029 A 
ATOM     42  N   UNL A   1      41.574  27.026  29.098  1.00  0.00    -0.354 N 
ATOM     43  C   UNL A   1      42.418  30.760  31.105  1.00  0.00     0.074 A 
ATOM     44  C   UNL A   1      41.288  31.660  31.033  1.00  0.00     0.031 C 
ATOM     45  C   UNL A   1      40.343  25.567  27.934  1.00  0.00     0.029 A 
ATOM     46  C   UNL A   1      41.650  25.766  28.553  1.00  0.00     0.049 A 
ATOM     47  H   UNL A   1      42.324  27.453  29.573  1.00  0.00     0.167 HD
ATOM     48  C   UNL A   1      43.587  31.055  31.718  1.00  0.00     0.031 A 
ATOM     49  C   UNL A   1      42.653  24.869  28.563  1.00  0.00     0.031 A 
ATOM     50  C   UNL A   1      44.698  30.151  31.810  1.00  0.00     0.049 A 
ATOM     51  C   UNL A   1      43.939  25.214  29.261  1.00  0.00     0.074 A 
ATOM     52  C   UNL A   1      45.908  30.338  32.454  1.00  0.00     0.029 A 
ATOM     53  N   UNL A   1      44.732  28.885  31.249  1.00  0.00    -0.354 N 
ATOM     54  N   UNL A   1      44.255  26.313  29.902  1.00  0.00    -0.248 NA
ATOM     55  C   UNL A   1      45.001  24.198  29.241  1.00  0.00     0.031 C 
ATOM     56  C   UNL A   1      46.685  29.191  32.260  1.00  0.00     0.029 A 
ATOM     57  C   UNL A   1      45.945  28.280  31.523  1.00  0.00     0.049 A 
ATOM     58  H   UNL A   1      44.001  28.476  30.731  1.00  0.00     0.167 HD
ATOM     59  C   UNL A   1      45.546  26.115  30.377  1.00  0.00     0.074 A 
ATOM     60  C   UNL A   1      45.949  24.788  29.957  1.00  0.00     0.031 C 
ATOM     61  C   UNL A   1      46.325  26.958  31.097  1.00  0.00     0.031 A 
BRANCH  48  62
ATOM     62  C   UNL A   1      43.703  32.413  32.352  1.00  0.00    -0.014 A 
ATOM     63  C   UNL A   1      44.206  33.503  31.620  1.00  0.00     0.010 A 
ATOM     64  C   UNL A   1      43.297  32.605  33.684  1.00  0.00     0.010 A 
ATOM     65  C   UNL A   1      44.346  34.755  32.225  1.00  0.00     0.020 A 
ATOM     66  C   UNL A   1      43.415  33.862  34.285  1.00  0.00     0.020 A 
ATOM     67  C   UNL A   1      43.957  34.923  33.556  1.00  0.00     0.054 A 
BRANCH  67  68
ATOM     68  S   UNL A   1      44.148  36.559  34.317  1.00  0.00     0.124 S 
ATOM     69  O   UNL A   1      45.319  37.080  33.616  1.00  0.00    -0.237 OA
ATOM     70  O   UNL A   1      42.882  37.213  33.997  1.00  0.00    -0.237 OA
ATOM     71  O   UNL A   1      44.351  36.260  35.732  1.00  0.00    -0.744 OA
ENDBRANCH  67  68
ENDBRANCH  48  62
BRANCH  49  72
ATOM     72  C   UNL A   1      42.461  23.538  27.930  1.00  0.00    -0.014 A 
ATOM     73  C   UNL A   1      43.017  23.274  26.666  1.00  0.00     0.010 A 
ATOM     74  C   UNL A   1      41.755  22.521  28.595  1.00  0.00     0.010 A 
ATOM     75  C   UNL A   1      42.865  22.018  26.074  1.00  0.00     0.020 A 
ATOM     76  C   UNL A   1      41.616  21.256  28.013  1.00  0.00     0.020 A 
ATOM     77  C   UNL A   1      42.166  21.015  26.753  1.00  0.00     0.054 A 
BRANCH  77  78
ATOM     78  S   UNL A   1      42.039  19.371  25.995  1.00  0.00     0.124 S 
ATOM     79  O   UNL A   1      42.565  18.510  27.049  1.00  0.00    -0.237 OA
ATOM     80  O   UNL A   1      40.607  19.252  25.734  1.00  0.00    -0.237 OA
ATOM     81  O   UNL A   1      42.874  19.482  24.801  1.00  0.00    -0.744 OA
ENDBRANCH  77  78
ENDBRANCH  49  72
BRANCH  61  82
ATOM     82  C   UNL A   1      47.691  26.476  31.492  1.00  0.00    -0.014 A 
ATOM     83  C   UNL A   1      47.888  25.801  32.708  1.00  0.00     0.010 A 
ATOM     84  C   UNL A   1      48.762  26.602  30.589  1.00  0.00     0.010 A 
ATOM     85  C   UNL A   1      49.137  25.258  33.016  1.00  0.00     0.020 A 
ATOM     86  C   UNL A   1      50.008  26.046  30.886  1.00  0.00     0.020 A 
ATOM     87  C   UNL A   1      50.188  25.379  32.101  1.00  0.00     0.054 A 
BRANCH  87  88
ATOM     88  S   UNL A   1      51.773  24.585  32.483  1.00  0.00     0.124 S 
ATOM     89  O   UNL A   1      52.679  25.247  31.549  1.00  0.00    -0.237 OA
ATOM     90  O   UNL A   1      51.970  24.918  33.892  1.00  0.00    -0.237 OA
ATOM     91  O   UNL A   1      51.525  23.170  32.214  1.00  0.00    -0.744 OA
ENDBRANCH  87  88
ENDBRANCH  61  82
ENDBRANCH  35  36
ENDBRANCH  27  30
ENDBRANCH  25  26
ENDBRANCH   1  25
TORSDOF 15
ENDMDL
MODEL 2
REMARK VINA RESULT:     -11.8      2.942      9.333
REMARK SMILES Cc1c(Cl)cc2c(c1C)O[C@@H](C(F)(F)F)C(C(=O)NCCCCNC(=O)c1ccc(-c3c4nc(c(-c5ccc(S(=O)(=O)[O-])cc5)c5ccc([nH]5)c(-c5ccc(S(=O)(=O)[O-])cc5)c5nc(c(-c6ccc(S(=O)(=O)[O-])cc6)c6ccc3[nH]6)C=C5)C=C4)cc1)=C2
REMARK SMILES IDX 22 1 21 2 20 3 19 4 17 5 18 6 16 8 1 9 2 10 3 11 8 12 4 13
REMARK SMILES IDX 5 14 7 15 9 16 6 17 10 18 87 19 11 20 12 21 13 22 14 23
REMARK SMILES IDX 15 24 23 25 24 26 25 27 26 29 27 30 28 31 86 32 29 33 85 34
REMARK SMILES IDX 30 35 31 36 32 37 79 38 33 39 84 40 78 41 80 42 34 43 83 44
REMARK SMILES IDX 77 45 76 46 35 48 65 49 46 50 64 51 47 52 50 53 63 54 81 55
REMARK SMILES IDX 48 56 49 57 62 59 82 60 51 61 36 62 37 63 45 64 38 65 44 66
REMARK SMILES IDX 39 67 40 68 41 69 42 70 43 71 66 72 67 73 75 74 68 75 74 76
REMARK SMILES IDX 69 77 70 78 71 79 72 80 73 81 52 82 53 83 61 84 54 85 60 86
REMARK SMILES IDX 55 87 56 88 57 89 58 90 59 91
REMARK H PARENT 19 7 24 28 80 47 50 58
REMARK Flexibility Score: inf
ROOT
ATOM      1  C   UNL A   1      35.960  23.703  25.965  1.00  0.00     0.023 C 
ENDROOT
BRANCH   1   2
ATOM      2  C   UNL A   1      35.267  22.373  26.268  1.00  0.00     0.023 C 
BRANCH   2   3
ATOM      3  C   UNL A   1      34.766  21.626  25.033  1.00  0.00     0.116 C 
BRANCH   3   4
ATOM      4  N   UNL A   1      33.412  21.137  25.220  1.00  0.00    -0.352 N 
ATOM      5  C   UNL A   1      32.166  21.641  25.073  1.00  0.00     0.251 C 
ATOM      6  O   UNL A   1      31.246  20.836  25.247  1.00  0.00    -0.270 OA
ATOM      7  H   UNL A   1      33.398  20.204  25.531  1.00  0.00     0.163 HD
BRANCH   5   8
ATOM      8  C   UNL A   1      31.844  23.058  24.732  1.00  0.00     0.067 C 
ATOM      9  C   UNL A   1      31.133  29.564  24.759  1.00  0.00     0.046 C 
ATOM     10  C   UNL A   1      31.274  28.080  24.990  1.00  0.00    -0.026 A 
ATOM     11  C   UNL A   1      31.723  27.627  26.252  1.00  0.00     0.045 A 
ATOM     12  C   UNL A   1      30.962  27.119  23.998  1.00  0.00    -0.004 A 
ATOM     13  Cl  UNL A   1      32.082  28.728  27.541  1.00  0.00    -0.084 Cl
ATOM     14  C   UNL A   1      31.895  26.267  26.519  1.00  0.00     0.032 A 
ATOM     15  C   UNL A   1      31.191  25.755  24.276  1.00  0.00     0.131 A 
ATOM     16  C   UNL A   1      30.459  27.480  22.622  1.00  0.00     0.049 C 
ATOM     17  C   UNL A   1      31.640  25.327  25.526  1.00  0.00     0.019 A 
ATOM     18  O   UNL A   1      30.926  24.848  23.279  1.00  0.00    -0.475 OA
ATOM     19  C   UNL A   1      31.822  23.903  25.779  1.00  0.00     0.025 C 
ATOM     20  C   UNL A   1      31.679  23.600  23.340  1.00  0.00     0.314 C 
BRANCH  20  21
ATOM     21  C   UNL A   1      32.998  23.735  22.558  1.00  0.00     0.429 C 
ATOM     22  F   UNL A   1      32.892  24.567  21.499  1.00  0.00    -0.167 F 
ATOM     23  F   UNL A   1      33.965  24.243  23.364  1.00  0.00    -0.167 F 
ATOM     24  F   UNL A   1      33.453  22.553  22.087  1.00  0.00    -0.167 F 
ENDBRANCH  20  21
ENDBRANCH   5   8
ENDBRANCH   3   4
ENDBRANCH   2   3
ENDBRANCH   1   2
BRANCH   1  25
ATOM     25  C   UNL A   1      37.145  23.611  25.011  1.00  0.00     0.116 C 
BRANCH  25  26
ATOM     26  N   UNL A   1      38.166  22.664  25.433  1.00  0.00    -0.352 N 
ATOM     27  C   UNL A   1      39.235  22.902  26.267  1.00  0.00     0.251 C 
ATOM     28  H   UNL A   1      38.083  21.748  25.083  1.00  0.00     0.163 HD
ATOM     29  O   UNL A   1      40.064  22.029  26.495  1.00  0.00    -0.269 OA
BRANCH  27  30
ATOM     30  C   UNL A   1      39.382  24.255  26.833  1.00  0.00     0.039 A 
ATOM     31  C   UNL A   1      38.932  24.491  28.133  1.00  0.00     0.014 A 
ATOM     32  C   UNL A   1      40.079  25.236  26.123  1.00  0.00     0.014 A 
ATOM     33  C   UNL A   1      39.255  25.695  28.756  1.00  0.00     0.010 A 
ATOM     34  C   UNL A   1      40.455  26.407  26.769  1.00  0.00     0.010 A 
ATOM     35  C   UNL A   1      40.056  26.642  28.094  1.00  0.00    -0.014 A 
BRANCH  35  36
ATOM     36  C   UNL A   1      40.495  27.879  28.780  1.00  0.00     0.031 A 
ATOM     37  C   UNL A   1      41.889  27.975  29.329  1.00  0.00     0.074 A 
ATOM     38  C   UNL A   1      39.622  28.892  28.953  1.00  0.00     0.049 A 
ATOM     39  N   UNL A   1      42.448  28.959  29.984  1.00  0.00    -0.248 NA
ATOM     40  C   UNL A   1      42.761  26.804  29.140  1.00  0.00     0.031 C 
ATOM     41  C   UNL A   1      38.227  28.897  28.506  1.00  0.00     0.029 A 
ATOM     42  N   UNL A   1      39.783  30.118  29.547  1.00  0.00    -0.354 N 
ATOM     43  C   UNL A   1      43.729  28.522  30.296  1.00  0.00     0.074 A 
ATOM     44  C   UNL A   1      43.847  27.166  29.805  1.00  0.00     0.031 C 
ATOM     45  C   UNL A   1      37.674  30.085  28.804  1.00  0.00     0.029 A 
ATOM     46  C   UNL A   1      38.663  30.914  29.485  1.00  0.00     0.049 A 
ATOM     47  H   UNL A   1      40.622  30.403  29.976  1.00  0.00     0.167 HD
ATOM     48  C   UNL A   1      44.727  29.198  30.911  1.00  0.00     0.031 A 
ATOM     49  C   UNL A   1      38.460  32.172  29.918  1.00  0.00     0.031 A 
ATOM     50  C   UNL A   1      44.616  30.552  31.374  1.00  0.00     0.049 A 
ATOM     51  C   UNL A   1      39.587  32.907  30.589  1.00  0.00     0.074 A 
ATOM     52  C   UNL A   1      45.586  31.341  31.965  1.00  0.00     0.029 A 
ATOM     53  N   UNL A   1      43.467  31.322  31.289  1.00  0.00    -0.354 N 
ATOM     54  N   UNL A   1      40.808  32.494  30.831  1.00  0.00    -0.248 NA
ATOM     55  C   UNL A   1      39.312  34.279  31.041  1.00  0.00     0.031 C 
ATOM     56  C   UNL A   1      45.013  32.583  32.262  1.00  0.00     0.029 A 
ATOM     57  C   UNL A   1      43.698  32.575  31.825  1.00  0.00     0.049 A 
ATOM     58  H   UNL A   1      42.611  31.020  30.904  1.00  0.00     0.167 HD
ATOM     59  C   UNL A   1      41.451  33.560  31.448  1.00  0.00     0.074 A 
ATOM     60  C   UNL A   1      40.489  34.639  31.535  1.00  0.00     0.031 C 
ATOM     61  C   UNL A   1      42.727  33.636  31.900  1.00  0.00     0.031 A 
BRANCH  48  62
ATOM     62  C   UNL A   1      46.030  28.473  31.097  1.00  0.00    -0.014 A 
ATOM     63  C   UNL A   1      47.028  28.530  30.108  1.00  0.00     0.010 A 
ATOM     64  C   UNL A   1      46.265  27.738  32.273  1.00  0.00     0.010 A 
ATOM     65  C   UNL A   1      48.223  27.825  30.270  1.00  0.00     0.020 A 
ATOM     66  C   UNL A   1      47.470  27.050  32.448  1.00  0.00     0.020 A 
ATOM     67  C   UNL A   1      48.432  27.083  31.435  1.00  0.00     0.054 A 
BRANCH  67  68
ATOM     68  S   UNL A   1      49.993  26.177  31.621  1.00  0.00     0.124 S 
ATOM     69  O   UNL A   1      49.981  25.317  30.440  1.00  0.00    -0.237 OA
ATOM     70  O   UNL A   1      50.989  27.246  31.609  1.00  0.00    -0.237 OA
ATOM     71  O   UNL A   1      49.842  25.486  32.898  1.00  0.00    -0.744 OA
ENDBRANCH  67  68
ENDBRANCH  48  62
BRANCH  49  72
ATOM     72  C   UNL A   1      37.150  32.832  29.684  1.00  0.00    -0.014 A 
ATOM     73  C   UNL A   1      36.214  32.927  30.729  1.00  0.00     0.010 A 
ATOM     74  C   UNL A   1      36.842  33.398  28.435  1.00  0.00     0.010 A 
ATOM     75  C   UNL A   1      34.990  33.568  30.528  1.00  0.00     0.020 A 
ATOM     76  C   UNL A   1      35.624  34.056  28.235  1.00  0.00     0.020 A 
ATOM     77  C   UNL A   1      34.703  34.132  29.281  1.00  0.00     0.054 A 
BRANCH  77  78
ATOM     78  S   UNL A   1      33.135  35.019  29.063  1.00  0.00     0.124 S 
ATOM     79  O   UNL A   1      32.466  34.207  28.052  1.00  0.00    -0.237 OA
ATOM     80  O   UNL A   1      32.553  34.970  30.402  1.00  0.00    -0.237 OA
ATOM     81  O   UNL A   1      33.555  36.348  28.623  1.00  0.00    -0.744 OA
ENDBRANCH  77  78
ENDBRANCH  49  72
BRANCH  61  82
ATOM     82  C   UNL A   1      43.169  34.929  32.522  1.00  0.00    -0.014 A 
ATOM     83  C   UNL A   1      43.654  35.977  31.724  1.00  0.00     0.010 A 
ATOM     84  C   UNL A   1      42.992  35.133  33.902  1.00  0.00     0.010 A 
ATOM     85  C   UNL A   1      43.957  37.214  32.297  1.00  0.00     0.020 A 
ATOM     86  C   UNL A   1      43.278  36.374  34.476  1.00  0.00     0.020 A 
ATOM     87  C   UNL A   1      43.762  37.407  33.669  1.00  0.00     0.054 A 
BRANCH  87  88
ATOM     88  S   UNL A   1      44.073  39.049  34.372  1.00  0.00     0.124 S 
ATOM     89  O   UNL A   1      43.997  38.786  35.806  1.00  0.00    -0.237 OA
ATOM     90  O   UNL A   1      45.404  39.371  33.862  1.00  0.00    -0.237 OA
ATOM     91  O   UNL A   1      42.991  39.869  33.829  1.00  0.00    -0.744 OA
ENDBRANCH  87  88
ENDBRANCH  61  82
ENDBRANCH  35  36
ENDBRANCH  27  30
ENDBRANCH  25  26
ENDBRANCH   1  25
TORSDOF 15
ENDMDL
MODEL 3
REMARK VINA RESULT:     -11.7      4.994     11.347
REMARK SMILES Cc1c(Cl)cc2c(c1C)O[C@@H](C(F)(F)F)C(C(=O)NCCCCNC(=O)c1ccc(-c3c4nc(c(-c5ccc(S(=O)(=O)[O-])cc5)c5ccc([nH]5)c(-c5ccc(S(=O)(=O)[O-])cc5)c5nc(c(-c6ccc(S(=O)(=O)[O-])cc6)c6ccc3[nH]6)C=C5)C=C4)cc1)=C2
REMARK SMILES IDX 22 1 21 2 20 3 19 4 17 5 18 6 16 8 1 9 2 10 3 11 8 12 4 13
REMARK SMILES IDX 5 14 7 15 9 16 6 17 10 18 87 19 11 20 12 21 13 22 14 23
REMARK SMILES IDX 15 24 23 25 24 26 25 27 26 29 27 30 28 31 86 32 29 33 85 34
REMARK SMILES IDX 30 35 31 36 32 37 79 38 33 39 84 40 78 41 80 42 34 43 83 44
REMARK SMILES IDX 77 45 76 46 35 48 65 49 46 50 64 51 47 52 50 53 63 54 81 55
REMARK SMILES IDX 48 56 49 57 62 59 82 60 51 61 36 62 37 63 45 64 38 65 44 66
REMARK SMILES IDX 39 67 40 68 41 69 42 70 43 71 66 72 67 73 75 74 68 75 74 76
REMARK SMILES IDX 69 77 70 78 71 79 72 80 73 81 52 82 53 83 61 84 54 85 60 86
REMARK SMILES IDX 55 87 56 88 57 89 58 90 59 91
REMARK H PARENT 19 7 24 28 80 47 50 58
REMARK Flexibility Score: inf
ROOT
ATOM      1  C   UNL A   1      40.641  21.393  27.494  1.00  0.00     0.023 C 
ENDROOT
BRANCH   1   2
ATOM      2  C   UNL A   1      42.012  21.833  28.014  1.00  0.00     0.023 C 
BRANCH   2   3
ATOM      3  C   UNL A   1      42.538  23.125  27.390  1.00  0.00     0.116 C 
BRANCH   3   4
ATOM      4  N   UNL A   1      42.804  22.961  25.973  1.00  0.00    -0.352 N 
ATOM      5  C   UNL A   1      43.614  23.545  25.061  1.00  0.00     0.251 C 
ATOM      6  O   UNL A   1      43.610  23.027  23.940  1.00  0.00    -0.270 OA
ATOM      7  H   UNL A   1      42.258  22.246  25.576  1.00  0.00     0.163 HD
BRANCH   5   8
ATOM      8  C   UNL A   1      44.478  24.737  25.312  1.00  0.00     0.067 C 
ATOM      9  C   UNL A   1      46.789  30.649  26.904  1.00  0.00     0.046 C 
ATOM     10  C   UNL A   1      46.055  29.402  26.481  1.00  0.00    -0.026 A 
ATOM     11  C   UNL A   1      44.641  29.395  26.523  1.00  0.00     0.045 A 
ATOM     12  C   UNL A   1      46.723  28.238  26.029  1.00  0.00    -0.004 A 
ATOM     13  Cl  UNL A   1      43.738  30.790  27.017  1.00  0.00    -0.084 Cl
ATOM     14  C   UNL A   1      43.906  28.263  26.166  1.00  0.00     0.032 A 
ATOM     15  C   UNL A   1      45.960  27.091  25.721  1.00  0.00     0.131 A 
ATOM     16  C   UNL A   1      48.224  28.130  25.925  1.00  0.00     0.049 C 
ATOM     17  C   UNL A   1      44.565  27.103  25.774  1.00  0.00     0.019 A 
ATOM     18  O   UNL A   1      46.636  25.961  25.332  1.00  0.00    -0.475 OA
ATOM     19  C   UNL A   1      43.819  25.906  25.406  1.00  0.00     0.025 C 
ATOM     20  C   UNL A   1      45.956  24.696  25.585  1.00  0.00     0.314 C 
BRANCH  20  21
ATOM     21  C   UNL A   1      46.322  24.163  26.981  1.00  0.00     0.429 C 
ATOM     22  F   UNL A   1      46.137  22.829  27.093  1.00  0.00    -0.167 F 
ATOM     23  F   UNL A   1      47.633  24.403  27.240  1.00  0.00    -0.167 F 
ATOM     24  F   UNL A   1      45.608  24.745  27.970  1.00  0.00    -0.167 F 
ENDBRANCH  20  21
ENDBRANCH   5   8
ENDBRANCH   3   4
ENDBRANCH   2   3
ENDBRANCH   1   2
BRANCH   1  25
ATOM     25  C   UNL A   1      40.367  21.727  26.033  1.00  0.00     0.116 C 
BRANCH  25  26
ATOM     26  N   UNL A   1      38.972  22.035  25.753  1.00  0.00    -0.352 N 
ATOM     27  C   UNL A   1      38.284  23.178  26.091  1.00  0.00     0.251 C 
ATOM     28  H   UNL A   1      38.462  21.348  25.267  1.00  0.00     0.163 HD
ATOM     29  O   UNL A   1      37.087  23.288  25.851  1.00  0.00    -0.269 OA
BRANCH  27  30
ATOM     30  C   UNL A   1      39.017  24.242  26.799  1.00  0.00     0.039 A 
ATOM     31  C   UNL A   1      39.799  25.128  26.056  1.00  0.00     0.014 A 
ATOM     32  C   UNL A   1      38.819  24.432  28.170  1.00  0.00     0.014 A 
ATOM     33  C   UNL A   1      40.321  26.261  26.678  1.00  0.00     0.010 A 
ATOM     34  C   UNL A   1      39.286  25.595  28.771  1.00  0.00     0.010 A 
ATOM     35  C   UNL A   1      40.031  26.524  28.028  1.00  0.00    -0.014 A 
BRANCH  35  36
ATOM     36  C   UNL A   1      40.491  27.775  28.675  1.00  0.00     0.031 A 
ATOM     37  C   UNL A   1      41.900  27.881  29.180  1.00  0.00     0.074 A 
ATOM     38  C   UNL A   1      39.623  28.791  28.853  1.00  0.00     0.049 A 
ATOM     39  N   UNL A   1      42.478  28.878  29.797  1.00  0.00    -0.248 NA
ATOM     40  C   UNL A   1      42.766  26.707  28.989  1.00  0.00     0.031 C 
ATOM     41  C   UNL A   1      38.215  28.787  28.448  1.00  0.00     0.029 A 
ATOM     42  N   UNL A   1      39.801  30.029  29.417  1.00  0.00    -0.354 N 
ATOM     43  C   UNL A   1      43.768  28.448  30.080  1.00  0.00     0.074 A 
ATOM     44  C   UNL A   1      43.873  27.082  29.613  1.00  0.00     0.031 C 
ATOM     45  C   UNL A   1      37.671  29.981  28.738  1.00  0.00     0.029 A 
ATOM     46  C   UNL A   1      38.679  30.823  29.373  1.00  0.00     0.049 A 
ATOM     47  H   UNL A   1      40.653  30.322  29.815  1.00  0.00     0.167 HD
ATOM     48  C   UNL A   1      44.784  29.136  30.651  1.00  0.00     0.031 A 
ATOM     49  C   UNL A   1      38.489  32.090  29.786  1.00  0.00     0.031 A 
ATOM     50  C   UNL A   1      44.686  30.499  31.089  1.00  0.00     0.049 A 
ATOM     51  C   UNL A   1      39.635  32.839  30.407  1.00  0.00     0.074 A 
ATOM     52  C   UNL A   1      45.673  31.299  31.635  1.00  0.00     0.029 A 
ATOM     53  N   UNL A   1      43.535  31.267  31.024  1.00  0.00    -0.354 N 
ATOM     54  N   UNL A   1      40.863  32.430  30.621  1.00  0.00    -0.248 NA
ATOM     55  C   UNL A   1      39.373  34.219  30.840  1.00  0.00     0.031 C 
ATOM     56  C   UNL A   1      45.109  32.547  31.923  1.00  0.00     0.029 A 
ATOM     57  C   UNL A   1      43.782  32.531  31.526  1.00  0.00     0.049 A 
ATOM     58  H   UNL A   1      42.668  30.958  30.671  1.00  0.00     0.167 HD
ATOM     59  C   UNL A   1      41.524  33.508  31.197  1.00  0.00     0.074 A 
ATOM     60  C   UNL A   1      40.564  34.589  31.290  1.00  0.00     0.031 C 
ATOM     61  C   UNL A   1      42.812  33.593  31.609  1.00  0.00     0.031 A 
BRANCH  48  62
ATOM     62  C   UNL A   1      46.092  28.415  30.813  1.00  0.00    -0.014 A 
ATOM     63  C   UNL A   1      47.039  28.407  29.772  1.00  0.00     0.010 A 
ATOM     64  C   UNL A   1      46.385  27.748  32.016  1.00  0.00     0.010 A 
ATOM     65  C   UNL A   1      48.238  27.705  29.915  1.00  0.00     0.020 A 
ATOM     66  C   UNL A   1      47.594  27.064  32.169  1.00  0.00     0.020 A 
ATOM     67  C   UNL A   1      48.503  27.031  31.109  1.00  0.00     0.054 A 
BRANCH  67  68
ATOM     68  S   UNL A   1      50.069  26.128  31.267  1.00  0.00     0.124 S 
ATOM     69  O   UNL A   1      51.047  27.211  31.207  1.00  0.00    -0.237 OA
ATOM     70  O   UNL A   1      49.935  25.474  32.566  1.00  0.00    -0.237 OA
ATOM     71  O   UNL A   1      50.066  25.227  30.118  1.00  0.00    -0.744 OA
ENDBRANCH  67  68
ENDBRANCH  48  62
BRANCH  49  72
ATOM     72  C   UNL A   1      37.172  32.746  29.578  1.00  0.00    -0.014 A 
ATOM     73  C   UNL A   1      36.335  33.005  30.677  1.00  0.00     0.010 A 
ATOM     74  C   UNL A   1      36.761  33.143  28.294  1.00  0.00     0.010 A 
ATOM     75  C   UNL A   1      35.106  33.645  30.497  1.00  0.00     0.020 A 
ATOM     76  C   UNL A   1      35.539  33.800  28.111  1.00  0.00     0.020 A 
ATOM     77  C   UNL A   1      34.717  34.040  29.214  1.00  0.00     0.054 A 
BRANCH  77  78
ATOM     78  S   UNL A   1      33.148  34.930  29.012  1.00  0.00     0.124 S 
ATOM     79  O   UNL A   1      33.600  36.248  28.579  1.00  0.00    -0.237 OA
ATOM     80  O   UNL A   1      32.459  34.132  28.000  1.00  0.00    -0.237 OA
ATOM     81  O   UNL A   1      32.553  34.877  30.345  1.00  0.00    -0.744 OA
ENDBRANCH  77  78
ENDBRANCH  49  72
BRANCH  61  82
ATOM     82  C   UNL A   1      43.272  34.898  32.191  1.00  0.00    -0.014 A 
ATOM     83  C   UNL A   1      43.801  35.903  31.364  1.00  0.00     0.010 A 
ATOM     84  C   UNL A   1      43.070  35.161  33.558  1.00  0.00     0.010 A 
ATOM     85  C   UNL A   1      44.122  37.154  31.897  1.00  0.00     0.020 A 
ATOM     86  C   UNL A   1      43.373  36.416  34.090  1.00  0.00     0.020 A 
ATOM     87  C   UNL A   1      43.901  37.404  33.255  1.00  0.00     0.054 A 
BRANCH  87  88
ATOM     88  S   UNL A   1      44.237  39.065  33.902  1.00  0.00     0.124 S 
ATOM     89  O   UNL A   1      44.447  38.802  35.322  1.00  0.00    -0.237 OA
ATOM     90  O   UNL A   1      45.427  39.467  33.154  1.00  0.00    -0.237 OA
ATOM     91  O   UNL A   1      43.024  39.815  33.578  1.00  0.00    -0.744 OA
ENDBRANCH  87  88
ENDBRANCH  61  82
ENDBRANCH  35  36
ENDBRANCH  27  30
ENDBRANCH  25  26
ENDBRANCH   1  25
TORSDOF 15
ENDMDL
