MODEL 1
REMARK VINA RESULT:     -12.9      0.000      0.000
REMARK SMILES C[N@@H+]1CCO[C@H](c2noc(-c3ccccc3C(=O)NCCCCNC(=O)c3ccc(-c4c5nc(c(-c6ccc(S(=O)(=O)[O-])cc6)c6ccc([nH]6)c(-c6ccc(S(=O)(=O)[O-])cc6)c6nc(c(-c7ccc(S(=O)(=O)[O-])cc7)c7ccc4[nH]7)C=C6)C=C5)cc3)n2)C1
REMARK SMILES IDX 22 1 21 2 20 3 19 4 17 5 18 6 16 8 11 9 12 10 13 11 15 12
REMARK SMILES IDX 14 13 10 14 7 15 8 16 87 17 9 18 6 19 1 20 2 21 3 22 88 23
REMARK SMILES IDX 4 25 5 26 23 27 24 28 25 29 26 31 27 32 28 33 86 34 29 35
REMARK SMILES IDX 85 36 30 37 31 38 32 39 79 40 33 41 84 42 78 43 80 44 34 45
REMARK SMILES IDX 83 46 77 47 76 48 35 50 65 51 46 52 64 53 47 54 50 55 63 56
REMARK SMILES IDX 81 57 48 58 49 59 62 61 82 62 51 63 36 64 37 65 45 66 38 67
REMARK SMILES IDX 44 68 39 69 40 70 41 71 42 72 43 73 66 74 67 75 75 76 68 77
REMARK SMILES IDX 74 78 69 79 70 80 71 81 72 82 73 83 52 84 53 85 61 86 54 87
REMARK SMILES IDX 60 88 55 89 56 90 57 91 58 92 59 93
REMARK H PARENT 19 7 2 24 24 30 80 49 50 60
REMARK Flexibility Score: inf
ROOT
ATOM      1  C   UNL A   1      32.644  29.399  25.197  1.00  0.00     0.023 C 
ENDROOT
BRANCH   1   2
ATOM      2  C   UNL A   1      34.013  28.708  24.975  1.00  0.00     0.023 C 
BRANCH   2   3
ATOM      3  C   UNL A   1      34.094  27.190  25.218  1.00  0.00     0.116 C 
BRANCH   3   4
ATOM      4  N   UNL A   1      34.074  26.422  23.987  1.00  0.00    -0.352 N 
ATOM      5  C   UNL A   1      33.088  26.099  23.101  1.00  0.00     0.252 C 
ATOM      6  O   UNL A   1      33.396  25.450  22.100  1.00  0.00    -0.269 OA
ATOM      7  H   UNL A   1      34.955  26.057  23.740  1.00  0.00     0.163 HD
BRANCH   5   8
ATOM      8  C   UNL A   1      31.651  26.330  23.355  1.00  0.00     0.052 A 
ATOM      9  C   UNL A   1      30.897  25.807  24.419  1.00  0.00     0.053 A 
ATOM     10  C   UNL A   1      29.561  26.239  24.559  1.00  0.00     0.015 A 
ATOM     11  C   UNL A   1      28.999  27.177  23.686  1.00  0.00     0.001 A 
ATOM     12  C   UNL A   1      31.074  27.278  22.482  1.00  0.00     0.014 A 
ATOM     13  C   UNL A   1      29.757  27.698  22.645  1.00  0.00     0.001 A 
BRANCH   9  14
ATOM     14  C   UNL A   1      31.431  24.849  25.376  1.00  0.00     0.258 A 
ATOM     15  C   UNL A   1      32.125  23.129  26.366  1.00  0.00     0.206 A 
ATOM     16  N   UNL A   1      31.276  23.668  27.253  1.00  0.00    -0.059 NA
ATOM     17  N   UNL A   1      32.302  23.881  25.223  1.00  0.00    -0.189 NA
ATOM     18  O   UNL A   1      30.816  24.815  26.600  1.00  0.00    -0.334 OA
BRANCH  15  19
ATOM     19  C   UNL A   1      32.664  21.714  26.506  1.00  0.00     0.245 C 
ATOM     20  C   UNL A   1      36.852  20.559  25.177  1.00  0.00     0.332 C 
ATOM     21  N   UNL A   1      35.454  20.331  25.431  1.00  0.00    -0.333 N 
ATOM     22  C   UNL A   1      34.490  19.178  24.396  1.00  0.00     0.290 C 
ATOM     23  C   UNL A   1      34.599  21.667  26.311  1.00  0.00     0.303 C 
ATOM     24  H   UNL A   1      35.533  19.607  26.144  1.00  0.00     0.348 HD
ATOM     25  C   UNL A   1      32.537  19.049  24.618  1.00  0.00     0.222 C 
ATOM     26  O   UNL A   1      31.704  20.499  25.460  1.00  0.00    -0.358 OA
ENDBRANCH  15  19
ENDBRANCH   9  14
ENDBRANCH   5   8
ENDBRANCH   3   4
ENDBRANCH   2   3
ENDBRANCH   1   2
BRANCH   1  27
ATOM     27  C   UNL A   1      32.457  30.433  26.487  1.00  0.00     0.116 C 
BRANCH  27  28
ATOM     28  N   UNL A   1      33.602  30.809  28.089  1.00  0.00    -0.352 N 
ATOM     29  C   UNL A   1      34.828  31.213  28.752  1.00  0.00     0.251 C 
ATOM     30  H   UNL A   1      33.000  30.609  28.841  1.00  0.00     0.163 HD
ATOM     31  O   UNL A   1      34.743  32.053  29.647  1.00  0.00    -0.269 OA
BRANCH  29  32
ATOM     32  C   UNL A   1      36.072  30.378  28.759  1.00  0.00     0.039 A 
ATOM     33  C   UNL A   1      36.851  30.301  27.598  1.00  0.00     0.014 A 
ATOM     34  C   UNL A   1      36.516  29.722  29.901  1.00  0.00     0.014 A 
ATOM     35  C   UNL A   1      38.136  29.728  27.639  1.00  0.00     0.010 A 
ATOM     36  C   UNL A   1      37.844  29.290  29.976  1.00  0.00     0.010 A 
ATOM     37  C   UNL A   1      38.696  29.310  28.856  1.00  0.00    -0.014 A 
BRANCH  37  38
ATOM     38  C   UNL A   1      40.140  28.915  29.019  1.00  0.00     0.031 A 
ATOM     39  C   UNL A   1      41.155  29.955  29.445  1.00  0.00     0.074 A 
ATOM     40  C   UNL A   1      40.607  27.704  28.635  1.00  0.00     0.049 A 
ATOM     41  N   UNL A   1      42.449  29.987  29.239  1.00  0.00    -0.248 NA
ATOM     42  C   UNL A   1      40.626  31.158  30.102  1.00  0.00     0.031 C 
ATOM     43  C   UNL A   1      39.808  26.582  28.137  1.00  0.00     0.029 A 
ATOM     44  N   UNL A   1      41.898  27.225  28.580  1.00  0.00    -0.354 N 
ATOM     45  C   UNL A   1      42.848  31.280  29.571  1.00  0.00     0.074 A 
ATOM     46  C   UNL A   1      41.664  31.978  30.026  1.00  0.00     0.031 C 
ATOM     47  C   UNL A   1      40.614  25.543  27.867  1.00  0.00     0.029 A 
ATOM     48  C   UNL A   1      41.999  25.937  28.106  1.00  0.00     0.049 A 
ATOM     49  H   UNL A   1      42.680  27.757  28.856  1.00  0.00     0.167 HD
ATOM     50  C   UNL A   1      44.081  31.839  29.482  1.00  0.00     0.031 A 
ATOM     51  C   UNL A   1      43.073  25.158  27.867  1.00  0.00     0.031 A 
ATOM     52  C   UNL A   1      45.284  31.093  29.222  1.00  0.00     0.049 A 
ATOM     53  C   UNL A   1      44.454  25.701  28.092  1.00  0.00     0.074 A 
ATOM     54  C   UNL A   1      46.596  31.535  29.238  1.00  0.00     0.029 A 
ATOM     55  N   UNL A   1      45.324  29.731  28.974  1.00  0.00    -0.354 N 
ATOM     56  N   UNL A   1      44.813  26.934  28.358  1.00  0.00    -0.248 NA
ATOM     57  C   UNL A   1      45.574  24.753  27.996  1.00  0.00     0.031 C 
ATOM     58  C   UNL A   1      47.433  30.431  29.030  1.00  0.00     0.029 A 
ATOM     59  C   UNL A   1      46.638  29.304  28.894  1.00  0.00     0.049 A 
ATOM     60  H   UNL A   1      44.535  29.152  28.869  1.00  0.00     0.167 HD
ATOM     61  C   UNL A   1      46.197  26.906  28.475  1.00  0.00     0.074 A 
ATOM     62  C   UNL A   1      46.612  25.535  28.266  1.00  0.00     0.031 C 
ATOM     63  C   UNL A   1      47.043  27.934  28.726  1.00  0.00     0.031 A 
BRANCH  50  64
ATOM     64  C   UNL A   1      44.178  33.334  29.640  1.00  0.00    -0.014 A 
ATOM     65  C   UNL A   1      44.318  33.946  30.898  1.00  0.00     0.010 A 
ATOM     66  C   UNL A   1      44.107  34.145  28.491  1.00  0.00     0.010 A 
ATOM     67  C   UNL A   1      44.290  35.340  31.012  1.00  0.00     0.020 A 
ATOM     68  C   UNL A   1      44.114  35.539  28.598  1.00  0.00     0.020 A 
ATOM     69  C   UNL A   1      44.168  36.126  29.863  1.00  0.00     0.054 A 
BRANCH  69  70
ATOM     70  S   UNL A   1      44.094  37.932  30.018  1.00  0.00     0.124 S 
ATOM     71  O   UNL A   1      43.008  38.265  29.100  1.00  0.00    -0.237 OA
ATOM     72  O   UNL A   1      43.798  38.133  31.435  1.00  0.00    -0.237 OA
ATOM     73  O   UNL A   1      45.425  38.363  29.598  1.00  0.00    -0.744 OA
ENDBRANCH  69  70
ENDBRANCH  50  64
BRANCH  51  74
ATOM     74  C   UNL A   1      42.873  23.751  27.430  1.00  0.00    -0.014 A 
ATOM     75  C   UNL A   1      42.610  22.756  28.389  1.00  0.00     0.010 A 
ATOM     76  C   UNL A   1      42.885  23.406  26.067  1.00  0.00     0.010 A 
ATOM     77  C   UNL A   1      42.354  21.441  27.993  1.00  0.00     0.020 A 
ATOM     78  C   UNL A   1      42.613  22.094  25.667  1.00  0.00     0.020 A 
ATOM     79  C   UNL A   1      42.351  21.119  26.633  1.00  0.00     0.054 A 
BRANCH  79  80
ATOM     80  S   UNL A   1      41.913  19.428  26.136  1.00  0.00     0.124 S 
ATOM     81  O   UNL A   1      42.728  19.241  24.942  1.00  0.00    -0.237 OA
ATOM     82  O   UNL A   1      42.308  18.640  27.302  1.00  0.00    -0.237 OA
ATOM     83  O   UNL A   1      40.471  19.505  25.909  1.00  0.00    -0.744 OA
ENDBRANCH  79  80
ENDBRANCH  51  74
BRANCH  63  84
ATOM     84  C   UNL A   1      48.505  27.619  28.857  1.00  0.00    -0.014 A 
ATOM     85  C   UNL A   1      49.374  27.737  27.761  1.00  0.00     0.010 A 
ATOM     86  C   UNL A   1      49.025  27.272  30.117  1.00  0.00     0.010 A 
ATOM     87  C   UNL A   1      50.744  27.506  27.920  1.00  0.00     0.020 A 
ATOM     88  C   UNL A   1      50.394  27.049  30.282  1.00  0.00     0.020 A 
ATOM     89  C   UNL A   1      51.245  27.162  29.180  1.00  0.00     0.054 A 
BRANCH  89  90
ATOM     90  S   UNL A   1      53.033  26.931  29.384  1.00  0.00     0.124 S 
ATOM     91  O   UNL A   1      53.373  26.141  28.204  1.00  0.00    -0.237 OA
ATOM     92  O   UNL A   1      53.540  28.300  29.392  1.00  0.00    -0.237 OA
ATOM     93  O   UNL A   1      53.145  26.225  30.660  1.00  0.00    -0.744 OA
ENDBRANCH  89  90
ENDBRANCH  63  84
ENDBRANCH  37  38
ENDBRANCH  29  32
ENDBRANCH  27  28
ENDBRANCH   1  27
TORSDOF 16
ENDMDL
MODEL 2
REMARK VINA RESULT:     -12.7      5.561     11.077
REMARK SMILES C[N@@H+]1CCO[C@H](c2noc(-c3ccccc3C(=O)NCCCCNC(=O)c3ccc(-c4c5nc(c(-c6ccc(S(=O)(=O)[O-])cc6)c6ccc([nH]6)c(-c6ccc(S(=O)(=O)[O-])cc6)c6nc(c(-c7ccc(S(=O)(=O)[O-])cc7)c7ccc4[nH]7)C=C6)C=C5)cc3)n2)C1
REMARK SMILES IDX 22 1 21 2 20 3 19 4 17 5 18 6 16 8 11 9 12 10 13 11 15 12
REMARK SMILES IDX 14 13 10 14 7 15 8 16 87 17 9 18 6 19 1 20 2 21 3 22 88 23
REMARK SMILES IDX 4 25 5 26 23 27 24 28 25 29 26 31 27 32 28 33 86 34 29 35
REMARK SMILES IDX 85 36 30 37 31 38 32 39 79 40 33 41 84 42 78 43 80 44 34 45
REMARK SMILES IDX 83 46 77 47 76 48 35 50 65 51 46 52 64 53 47 54 50 55 63 56
REMARK SMILES IDX 81 57 48 58 49 59 62 61 82 62 51 63 36 64 37 65 45 66 38 67
REMARK SMILES IDX 44 68 39 69 40 70 41 71 42 72 43 73 66 74 67 75 75 76 68 77
REMARK SMILES IDX 74 78 69 79 70 80 71 81 72 82 73 83 52 84 53 85 61 86 54 87
REMARK SMILES IDX 60 88 55 89 56 90 57 91 58 92 59 93
REMARK H PARENT 19 7 2 24 24 30 80 49 50 60
REMARK Flexibility Score: inf
ROOT
ATOM      1  C   UNL A   1      38.807  21.549  25.609  1.00  0.00     0.023 C 
ENDROOT
BRANCH   1   2
ATOM      2  C   UNL A   1      37.349  21.316  25.138  1.00  0.00     0.023 C 
BRANCH   2   3
ATOM      3  C   UNL A   1      36.651  22.462  24.384  1.00  0.00     0.116 C 
BRANCH   3   4
ATOM      4  N   UNL A   1      35.673  23.159  25.199  1.00  0.00    -0.352 N 
ATOM      5  C   UNL A   1      34.324  23.035  25.351  1.00  0.00     0.252 C 
ATOM      6  O   UNL A   1      33.761  23.763  26.172  1.00  0.00    -0.269 OA
ATOM      7  H   UNL A   1      36.065  23.870  25.757  1.00  0.00     0.163 HD
BRANCH   5   8
ATOM      8  C   UNL A   1      33.473  22.204  24.473  1.00  0.00     0.052 A 
ATOM      9  C   UNL A   1      33.007  22.551  23.194  1.00  0.00     0.053 A 
ATOM     10  C   UNL A   1      32.302  21.574  22.459  1.00  0.00     0.015 A 
ATOM     11  C   UNL A   1      32.087  20.288  22.968  1.00  0.00     0.001 A 
ATOM     12  C   UNL A   1      33.252  20.903  24.975  1.00  0.00     0.014 A 
ATOM     13  C   UNL A   1      32.562  19.952  24.229  1.00  0.00     0.001 A 
BRANCH   9  14
ATOM     14  C   UNL A   1      33.221  23.862  22.598  1.00  0.00     0.258 A 
ATOM     15  C   UNL A   1      33.093  25.872  21.996  1.00  0.00     0.206 A 
ATOM     16  N   UNL A   1      33.291  25.222  20.840  1.00  0.00    -0.059 NA
ATOM     17  N   UNL A   1      33.124  25.062  23.113  1.00  0.00    -0.189 NA
ATOM     18  O   UNL A   1      33.382  23.884  21.237  1.00  0.00    -0.334 OA
BRANCH  15  19
ATOM     19  C   UNL A   1      32.650  27.325  22.051  1.00  0.00     0.245 C 
ATOM     20  C   UNL A   1      33.110  29.874  25.784  1.00  0.00     0.332 C 
ATOM     21  N   UNL A   1      32.484  29.457  24.557  1.00  0.00    -0.333 N 
ATOM     22  C   UNL A   1      30.676  29.580  24.339  1.00  0.00     0.290 C 
ATOM     23  C   UNL A   1      33.419  28.246  23.583  1.00  0.00     0.303 C 
ATOM     24  H   UNL A   1      32.595  30.315  24.016  1.00  0.00     0.348 HD
ATOM     25  C   UNL A   1      29.818  28.801  22.747  1.00  0.00     0.222 C 
ATOM     26  O   UNL A   1      30.802  27.497  21.833  1.00  0.00    -0.358 OA
ENDBRANCH  15  19
ENDBRANCH   9  14
ENDBRANCH   5   8
ENDBRANCH   3   4
ENDBRANCH   2   3
ENDBRANCH   1   2
BRANCH   1  27
ATOM     27  C   UNL A   1      39.159  22.894  26.523  1.00  0.00     0.116 C 
BRANCH  27  28
ATOM     28  N   UNL A   1      39.778  24.735  26.026  1.00  0.00    -0.352 N 
ATOM     29  C   UNL A   1      40.541  25.953  26.222  1.00  0.00     0.251 C 
ATOM     30  H   UNL A   1      39.299  24.908  25.184  1.00  0.00     0.163 HD
ATOM     31  O   UNL A   1      41.202  26.372  25.272  1.00  0.00    -0.269 OA
BRANCH  29  32
ATOM     32  C   UNL A   1      40.228  26.957  27.290  1.00  0.00     0.039 A 
ATOM     33  C   UNL A   1      39.704  26.514  28.511  1.00  0.00     0.014 A 
ATOM     34  C   UNL A   1      40.496  28.311  27.135  1.00  0.00     0.014 A 
ATOM     35  C   UNL A   1      39.624  27.389  29.610  1.00  0.00     0.010 A 
ATOM     36  C   UNL A   1      40.556  29.136  28.262  1.00  0.00     0.010 A 
ATOM     37  C   UNL A   1      40.151  28.688  29.533  1.00  0.00    -0.014 A 
BRANCH  37  38
ATOM     38  C   UNL A   1      40.321  29.593  30.725  1.00  0.00     0.031 A 
ATOM     39  C   UNL A   1      41.521  29.417  31.632  1.00  0.00     0.074 A 
ATOM     40  C   UNL A   1      39.356  30.453  31.123  1.00  0.00     0.049 A 
ATOM     41  N   UNL A   1      41.665  29.742  32.893  1.00  0.00    -0.248 NA
ATOM     42  C   UNL A   1      42.668  28.692  31.068  1.00  0.00     0.031 C 
ATOM     43  C   UNL A   1      38.095  30.729  30.430  1.00  0.00     0.029 A 
ATOM     44  N   UNL A   1      39.279  31.245  32.250  1.00  0.00    -0.354 N 
ATOM     45  C   UNL A   1      42.829  29.102  33.313  1.00  0.00     0.074 A 
ATOM     46  C   UNL A   1      43.363  28.408  32.161  1.00  0.00     0.031 C 
ATOM     47  C   UNL A   1      37.396  31.646  31.117  1.00  0.00     0.029 A 
ATOM     48  C   UNL A   1      38.119  31.981  32.340  1.00  0.00     0.049 A 
ATOM     49  H   UNL A   1      39.990  31.281  32.930  1.00  0.00     0.167 HD
ATOM     50  C   UNL A   1      43.386  29.077  34.550  1.00  0.00     0.031 A 
ATOM     51  C   UNL A   1      37.669  32.817  33.296  1.00  0.00     0.031 A 
ATOM     52  C   UNL A   1      42.968  29.922  35.637  1.00  0.00     0.049 A 
ATOM     53  C   UNL A   1      38.477  33.032  34.543  1.00  0.00     0.074 A 
ATOM     54  C   UNL A   1      43.544  30.072  36.887  1.00  0.00     0.029 A 
ATOM     55  N   UNL A   1      41.914  30.818  35.573  1.00  0.00    -0.354 N 
ATOM     56  N   UNL A   1      39.545  32.386  34.943  1.00  0.00    -0.248 NA
ATOM     57  C   UNL A   1      38.031  34.091  35.460  1.00  0.00     0.031 C 
ATOM     58  C   UNL A   1      42.855  31.083  37.569  1.00  0.00     0.029 A 
ATOM     59  C   UNL A   1      41.858  31.565  36.736  1.00  0.00     0.049 A 
ATOM     60  H   UNL A   1      41.296  30.910  34.813  1.00  0.00     0.167 HD
ATOM     61  C   UNL A   1      39.907  32.969  36.152  1.00  0.00     0.074 A 
ATOM     62  C   UNL A   1      38.954  34.028  36.412  1.00  0.00     0.031 C 
ATOM     63  C   UNL A   1      40.935  32.644  36.972  1.00  0.00     0.031 A 
BRANCH  50  64
ATOM     64  C   UNL A   1      44.490  28.081  34.793  1.00  0.00    -0.014 A 
ATOM     65  C   UNL A   1      45.843  28.396  34.580  1.00  0.00     0.010 A 
ATOM     66  C   UNL A   1      44.152  26.785  35.230  1.00  0.00     0.010 A 
ATOM     67  C   UNL A   1      46.826  27.409  34.709  1.00  0.00     0.020 A 
ATOM     68  C   UNL A   1      45.136  25.806  35.393  1.00  0.00     0.020 A 
ATOM     69  C   UNL A   1      46.463  26.116  35.094  1.00  0.00     0.054 A 
BRANCH  69  70
ATOM     70  S   UNL A   1      47.737  24.830  35.222  1.00  0.00     0.124 S 
ATOM     71  O   UNL A   1      48.935  25.623  35.487  1.00  0.00    -0.237 OA
ATOM     72  O   UNL A   1      47.272  24.010  36.338  1.00  0.00    -0.237 OA
ATOM     73  O   UNL A   1      47.692  24.178  33.915  1.00  0.00    -0.744 OA
ENDBRANCH  69  70
ENDBRANCH  50  64
BRANCH  51  74
ATOM     74  C   UNL A   1      36.395  33.556  33.082  1.00  0.00    -0.014 A 
ATOM     75  C   UNL A   1      36.432  34.883  32.617  1.00  0.00     0.010 A 
ATOM     76  C   UNL A   1      35.152  32.931  33.279  1.00  0.00     0.010 A 
ATOM     77  C   UNL A   1      35.247  35.571  32.346  1.00  0.00     0.020 A 
ATOM     78  C   UNL A   1      33.964  33.611  32.994  1.00  0.00     0.020 A 
ATOM     79  C   UNL A   1      34.019  34.929  32.530  1.00  0.00     0.054 A 
BRANCH  79  80
ATOM     80  S   UNL A   1      32.496  35.805  32.072  1.00  0.00     0.124 S 
ATOM     81  O   UNL A   1      32.569  35.802  30.616  1.00  0.00    -0.237 OA
ATOM     82  O   UNL A   1      31.455  34.962  32.656  1.00  0.00    -0.237 OA
ATOM     83  O   UNL A   1      32.654  37.112  32.709  1.00  0.00    -0.744 OA
ENDBRANCH  79  80
ENDBRANCH  51  74
BRANCH  63  84
ATOM     84  C   UNL A   1      41.136  33.477  38.203  1.00  0.00    -0.014 A 
ATOM     85  C   UNL A   1      41.935  34.632  38.175  1.00  0.00     0.010 A 
ATOM     86  C   UNL A   1      40.453  33.138  39.384  1.00  0.00     0.010 A 
ATOM     87  C   UNL A   1      42.055  35.433  39.315  1.00  0.00     0.020 A 
ATOM     88  C   UNL A   1      40.563  33.941  40.523  1.00  0.00     0.020 A 
ATOM     89  C   UNL A   1      41.369  35.081  40.482  1.00  0.00     0.054 A 
BRANCH  89  90
ATOM     90  S   UNL A   1      41.481  36.167  41.932  1.00  0.00     0.124 S 
ATOM     91  O   UNL A   1      40.861  37.394  41.440  1.00  0.00    -0.237 OA
ATOM     92  O   UNL A   1      40.718  35.440  42.943  1.00  0.00    -0.237 OA
ATOM     93  O   UNL A   1      42.917  36.252  42.187  1.00  0.00    -0.744 OA
ENDBRANCH  89  90
ENDBRANCH  63  84
ENDBRANCH  37  38
ENDBRANCH  29  32
ENDBRANCH  27  28
ENDBRANCH   1  27
TORSDOF 16
ENDMDL
MODEL 3
REMARK VINA RESULT:     -12.6      2.170      2.954
REMARK SMILES C[N@@H+]1CCO[C@H](c2noc(-c3ccccc3C(=O)NCCCCNC(=O)c3ccc(-c4c5nc(c(-c6ccc(S(=O)(=O)[O-])cc6)c6ccc([nH]6)c(-c6ccc(S(=O)(=O)[O-])cc6)c6nc(c(-c7ccc(S(=O)(=O)[O-])cc7)c7ccc4[nH]7)C=C6)C=C5)cc3)n2)C1
REMARK SMILES IDX 22 1 21 2 20 3 19 4 17 5 18 6 16 8 11 9 12 10 13 11 15 12
REMARK SMILES IDX 14 13 10 14 7 15 8 16 87 17 9 18 6 19 1 20 2 21 3 22 88 23
REMARK SMILES IDX 4 25 5 26 23 27 24 28 25 29 26 31 27 32 28 33 86 34 29 35
REMARK SMILES IDX 85 36 30 37 31 38 32 39 79 40 33 41 84 42 78 43 80 44 34 45
REMARK SMILES IDX 83 46 77 47 76 48 35 50 65 51 46 52 64 53 47 54 50 55 63 56
REMARK SMILES IDX 81 57 48 58 49 59 62 61 82 62 51 63 36 64 37 65 45 66 38 67
REMARK SMILES IDX 44 68 39 69 40 70 41 71 42 72 43 73 66 74 67 75 75 76 68 77
REMARK SMILES IDX 74 78 69 79 70 80 71 81 72 82 73 83 52 84 53 85 61 86 54 87
REMARK SMILES IDX 60 88 55 89 56 90 57 91 58 92 59 93
REMARK H PARENT 19 7 2 24 24 30 80 49 50 60
REMARK Flexibility Score: inf
ROOT
ATOM      1  C   UNL A   1      33.142  28.638  27.185  1.00  0.00     0.023 C 
ENDROOT
BRANCH   1   2
ATOM      2  C   UNL A   1      31.791  29.272  26.769  1.00  0.00     0.023 C 
BRANCH   2   3
ATOM      3  C   UNL A   1      31.775  30.159  25.511  1.00  0.00     0.116 C 
BRANCH   3   4
ATOM      4  N   UNL A   1      32.272  29.473  24.333  1.00  0.00    -0.352 N 
ATOM      5  C   UNL A   1      31.665  28.952  23.228  1.00  0.00     0.252 C 
ATOM      6  O   UNL A   1      32.377  28.454  22.354  1.00  0.00    -0.269 OA
ATOM      7  H   UNL A   1      33.250  29.359  24.330  1.00  0.00     0.163 HD
BRANCH   5   8
ATOM      8  C   UNL A   1      30.202  28.795  23.094  1.00  0.00     0.052 A 
ATOM      9  C   UNL A   1      29.422  27.760  23.636  1.00  0.00     0.053 A 
ATOM     10  C   UNL A   1      28.020  27.847  23.500  1.00  0.00     0.015 A 
ATOM     11  C   UNL A   1      27.412  28.937  22.867  1.00  0.00     0.001 A 
ATOM     12  C   UNL A   1      29.576  29.891  22.460  1.00  0.00     0.014 A 
ATOM     13  C   UNL A   1      28.191  29.961  22.346  1.00  0.00     0.001 A 
BRANCH   9  14
ATOM     14  C   UNL A   1      29.992  26.614  24.329  1.00  0.00     0.258 A 
ATOM     15  C   UNL A   1      31.187  25.302  25.457  1.00  0.00     0.206 A 
ATOM     16  N   UNL A   1      30.967  24.615  24.327  1.00  0.00    -0.059 NA
ATOM     17  N   UNL A   1      30.530  26.514  25.519  1.00  0.00    -0.189 NA
ATOM     18  O   UNL A   1      30.167  25.482  23.576  1.00  0.00    -0.334 OA
BRANCH  15  19
ATOM     19  C   UNL A   1      32.241  24.891  26.472  1.00  0.00     0.245 C 
ATOM     20  C   UNL A   1      36.454  23.694  25.261  1.00  0.00     0.332 C 
ATOM     21  N   UNL A   1      35.274  23.664  26.085  1.00  0.00    -0.333 N 
ATOM     22  C   UNL A   1      34.770  22.134  26.942  1.00  0.00     0.290 C 
ATOM     23  C   UNL A   1      34.025  24.920  25.697  1.00  0.00     0.303 C 
ATOM     24  H   UNL A   1      35.674  24.006  26.958  1.00  0.00     0.348 HD
ATOM     25  C   UNL A   1      33.039  22.051  27.880  1.00  0.00     0.222 C 
ATOM     26  O   UNL A   1      31.764  23.325  27.373  1.00  0.00    -0.358 OA
ENDBRANCH  15  19
ENDBRANCH   9  14
ENDBRANCH   5   8
ENDBRANCH   3   4
ENDBRANCH   2   3
ENDBRANCH   1   2
BRANCH   1  27
ATOM     27  C   UNL A   1      34.404  29.630  27.622  1.00  0.00     0.116 C 
BRANCH  27  28
ATOM     28  N   UNL A   1      35.388  29.875  29.350  1.00  0.00    -0.352 N 
ATOM     29  C   UNL A   1      36.352  30.517  30.225  1.00  0.00     0.251 C 
ATOM     30  H   UNL A   1      35.009  29.169  29.921  1.00  0.00     0.163 HD
ATOM     31  O   UNL A   1      35.973  30.842  31.350  1.00  0.00    -0.269 OA
BRANCH  29  32
ATOM     32  C   UNL A   1      37.834  30.391  30.048  1.00  0.00     0.039 A 
ATOM     33  C   UNL A   1      38.618  29.964  31.126  1.00  0.00     0.014 A 
ATOM     34  C   UNL A   1      38.455  30.626  28.827  1.00  0.00     0.014 A 
ATOM     35  C   UNL A   1      39.965  29.608  30.930  1.00  0.00     0.010 A 
ATOM     36  C   UNL A   1      39.745  30.133  28.603  1.00  0.00     0.010 A 
ATOM     37  C   UNL A   1      40.521  29.584  29.641  1.00  0.00    -0.014 A 
BRANCH  37  38
ATOM     38  C   UNL A   1      41.867  28.989  29.322  1.00  0.00     0.031 A 
ATOM     39  C   UNL A   1      43.096  29.874  29.332  1.00  0.00     0.074 A 
ATOM     40  C   UNL A   1      42.008  27.726  28.858  1.00  0.00     0.049 A 
ATOM     41  N   UNL A   1      44.233  29.725  28.699  1.00  0.00    -0.248 NA
ATOM     42  C   UNL A   1      42.989  31.138  30.075  1.00  0.00     0.031 C 
ATOM     43  C   UNL A   1      40.945  26.730  28.711  1.00  0.00     0.029 A 
ATOM     44  N   UNL A   1      43.127  27.070  28.390  1.00  0.00    -0.354 N 
ATOM     45  C   UNL A   1      44.891  30.947  28.818  1.00  0.00     0.074 A 
ATOM     46  C   UNL A   1      44.038  31.803  29.615  1.00  0.00     0.031 C 
ATOM     47  C   UNL A   1      41.464  25.588  28.230  1.00  0.00     0.029 A 
ATOM     48  C   UNL A   1      42.886  25.782  27.968  1.00  0.00     0.049 A 
ATOM     49  H   UNL A   1      44.020  27.486  28.360  1.00  0.00     0.167 HD
ATOM     50  C   UNL A   1      46.082  31.327  28.291  1.00  0.00     0.031 A 
ATOM     51  C   UNL A   1      43.700  24.861  27.415  1.00  0.00     0.031 A 
ATOM     52  C   UNL A   1      47.013  30.420  27.673  1.00  0.00     0.049 A 
ATOM     53  C   UNL A   1      45.134  25.203  27.134  1.00  0.00     0.074 A 
ATOM     54  C   UNL A   1      48.298  30.672  27.224  1.00  0.00     0.029 A 
ATOM     55  N   UNL A   1      46.784  29.067  27.487  1.00  0.00    -0.354 N 
ATOM     56  N   UNL A   1      45.724  26.372  27.207  1.00  0.00    -0.248 NA
ATOM     57  C   UNL A   1      46.016  24.107  26.707  1.00  0.00     0.031 C 
ATOM     58  C   UNL A   1      48.858  29.462  26.795  1.00  0.00     0.029 A 
ATOM     59  C   UNL A   1      47.921  28.459  26.986  1.00  0.00     0.049 A 
ATOM     60  H   UNL A   1      45.937  28.605  27.682  1.00  0.00     0.167 HD
ATOM     61  C   UNL A   1      47.048  26.149  26.850  1.00  0.00     0.074 A 
ATOM     62  C   UNL A   1      47.179  24.733  26.574  1.00  0.00     0.031 C 
ATOM     63  C   UNL A   1      48.058  27.046  26.753  1.00  0.00     0.031 A 
BRANCH  50  64
ATOM     64  C   UNL A   1      46.427  32.793  28.340  1.00  0.00    -0.014 A 
ATOM     65  C   UNL A   1      45.999  33.696  27.351  1.00  0.00     0.010 A 
ATOM     66  C   UNL A   1      47.220  33.270  29.401  1.00  0.00     0.010 A 
ATOM     67  C   UNL A   1      46.435  35.024  27.371  1.00  0.00     0.020 A 
ATOM     68  C   UNL A   1      47.629  34.605  29.444  1.00  0.00     0.020 A 
ATOM     69  C   UNL A   1      47.263  35.465  28.407  1.00  0.00     0.054 A 
BRANCH  69  70
ATOM     70  S   UNL A   1      47.858  37.179  28.409  1.00  0.00     0.124 S 
ATOM     71  O   UNL A   1      49.306  36.992  28.356  1.00  0.00    -0.237 OA
ATOM     72  O   UNL A   1      47.256  37.743  27.203  1.00  0.00    -0.237 OA
ATOM     73  O   UNL A   1      47.340  37.715  29.666  1.00  0.00    -0.744 OA
ENDBRANCH  69  70
ENDBRANCH  50  64
BRANCH  51  74
ATOM     74  C   UNL A   1      43.177  23.497  27.135  1.00  0.00    -0.014 A 
ATOM     75  C   UNL A   1      42.855  23.134  25.815  1.00  0.00     0.010 A 
ATOM     76  C   UNL A   1      43.054  22.543  28.159  1.00  0.00     0.010 A 
ATOM     77  C   UNL A   1      42.426  21.837  25.522  1.00  0.00     0.020 A 
ATOM     78  C   UNL A   1      42.640  21.239  27.867  1.00  0.00     0.020 A 
ATOM     79  C   UNL A   1      42.327  20.895  26.549  1.00  0.00     0.054 A 
BRANCH  79  80
ATOM     80  S   UNL A   1      41.868  19.189  26.131  1.00  0.00     0.124 S 
ATOM     81  O   UNL A   1      42.746  18.906  25.001  1.00  0.00    -0.237 OA
ATOM     82  O   UNL A   1      42.171  18.465  27.364  1.00  0.00    -0.237 OA
ATOM     83  O   UNL A   1      40.445  19.289  25.813  1.00  0.00    -0.744 OA
ENDBRANCH  79  80
ENDBRANCH  51  74
BRANCH  63  84
ATOM     84  C   UNL A   1      49.420  26.528  26.395  1.00  0.00    -0.014 A 
ATOM     85  C   UNL A   1      49.922  26.646  25.089  1.00  0.00     0.010 A 
ATOM     86  C   UNL A   1      50.236  25.983  27.403  1.00  0.00     0.010 A 
ATOM     87  C   UNL A   1      51.220  26.220  24.792  1.00  0.00     0.020 A 
ATOM     88  C   UNL A   1      51.538  25.564  27.111  1.00  0.00     0.020 A 
ATOM     89  C   UNL A   1      52.019  25.680  25.805  1.00  0.00     0.054 A 
BRANCH  89  90
ATOM     90  S   UNL A   1      53.724  25.193  25.419  1.00  0.00     0.124 S 
ATOM     91  O   UNL A   1      54.461  25.748  26.550  1.00  0.00    -0.237 OA
ATOM     92  O   UNL A   1      53.645  23.735  25.375  1.00  0.00    -0.237 OA
ATOM     93  O   UNL A   1      53.981  25.835  24.131  1.00  0.00    -0.744 OA
ENDBRANCH  89  90
ENDBRANCH  63  84
ENDBRANCH  37  38
ENDBRANCH  29  32
ENDBRANCH  27  28
ENDBRANCH   1  27
TORSDOF 16
ENDMDL
