MODEL 1
REMARK VINA RESULT:      -8.9      0.000      0.000
REMARK SMILES CC(C)C[C@H](NC(=O)[C@H](Cc1ccccc1)NC(=O)CNC(=O)CNC(=O)OCc1ccccc1)C(=O)NCCCCNC(=O)c1ccc(-c2c3nc(c(-c4ccc(S(=O)(=O)[O-])cc4)c4ccc([nH]4)c(-c4ccc(S(=O)(=O)[O-])cc4)c4nc(c(-c5ccc(S(=O)(=O)[O-])cc5)c5ccc2[nH]5)C=C4)C=C3)cc1
REMARK SMILES IDX 5 1 4 2 2 3 1 4 3 5 36 6 37 7 38 8 39 10 40 11 41 12 42 13
REMARK SMILES IDX 43 14 44 15 45 17 46 18 47 19 105 20 48 21 104 22 49 23
REMARK SMILES IDX 50 24 51 25 98 26 52 27 103 28 97 29 99 30 53 31 102 32
REMARK SMILES IDX 96 33 95 34 54 36 84 37 65 38 83 39 66 40 69 41 82 42 100 43
REMARK SMILES IDX 67 44 68 45 81 47 101 48 70 49 55 50 56 51 64 52 57 53 63 54
REMARK SMILES IDX 58 55 59 56 60 57 61 58 62 59 85 60 86 61 94 62 87 63 93 64
REMARK SMILES IDX 88 65 89 66 90 67 91 68 92 69 71 70 72 71 80 72 73 73 79 74
REMARK SMILES IDX 74 75 75 76 76 77 77 78 78 79 6 80 7 81 8 83 9 84 17 85
REMARK SMILES IDX 18 86 19 88 20 89 21 90 22 91 23 93 24 94 25 95 26 96 27 98
REMARK SMILES IDX 28 99 29 100 30 101 31 102 35 103 32 104 34 105 33 106
REMARK SMILES IDX 10 107 11 108 12 109 16 110 13 111 15 112 14 113
REMARK H PARENT 38 9 43 16 99 35 69 46 6 82 17 87 21 92 25 97
REMARK Flexibility Score: inf
ROOT
ATOM      1  C   UNL A   1      34.681  23.260  23.576  1.00  0.00     0.171 C 
ENDROOT
BRANCH   1   2
ATOM      2  C   UNL A   1      34.031  22.059  24.315  1.00  0.00     0.038 C 
BRANCH   2   3
ATOM      3  C   UNL A   1      34.709  21.277  25.475  1.00  0.00    -0.015 C 
ATOM      4  C   UNL A   1      34.046  21.207  26.856  1.00  0.00     0.007 C 
ATOM      5  C   UNL A   1      34.873  19.817  25.003  1.00  0.00     0.007 C 
ENDBRANCH   2   3
ENDBRANCH   1   2
BRANCH   1   6
ATOM      6  C   UNL A   1      36.201  23.145  23.394  1.00  0.00     0.242 C 
ATOM      7  O   UNL A   1      36.653  22.590  22.388  1.00  0.00    -0.273 OA
ATOM      8  N   UNL A   1      37.087  23.536  24.340  1.00  0.00    -0.354 N 
ATOM      9  H   UNL A   1      38.027  23.539  24.048  1.00  0.00     0.163 HD
BRANCH   8  10
ATOM     10  C   UNL A   1      36.880  23.950  25.714  1.00  0.00     0.116 C 
BRANCH  10  11
ATOM     11  C   UNL A   1      38.066  23.612  26.604  1.00  0.00     0.023 C 
BRANCH  11  12
ATOM     12  C   UNL A   1      38.801  22.379  26.105  1.00  0.00     0.023 C 
BRANCH  12  13
ATOM     13  C   UNL A   1      40.140  22.133  26.753  1.00  0.00     0.116 C 
BRANCH  13  14
ATOM     14  N   UNL A   1      41.193  21.988  25.768  1.00  0.00    -0.352 N 
ATOM     15  C   UNL A   1      42.334  22.738  25.624  1.00  0.00     0.251 C 
ATOM     16  H   UNL A   1      41.073  21.259  25.117  1.00  0.00     0.163 HD
ATOM     17  O   UNL A   1      42.987  22.659  24.589  1.00  0.00    -0.269 OA
BRANCH  15  18
ATOM     18  C   UNL A   1      42.751  23.652  26.714  1.00  0.00     0.039 A 
ATOM     19  C   UNL A   1      44.077  24.083  26.779  1.00  0.00     0.014 A 
ATOM     20  C   UNL A   1      41.833  24.085  27.675  1.00  0.00     0.014 A 
ATOM     21  C   UNL A   1      44.467  24.964  27.791  1.00  0.00     0.010 A 
ATOM     22  C   UNL A   1      42.186  25.069  28.585  1.00  0.00     0.010 A 
ATOM     23  C   UNL A   1      43.520  25.476  28.693  1.00  0.00    -0.014 A 
BRANCH  23  24
ATOM     24  C   UNL A   1      43.910  26.353  29.826  1.00  0.00     0.031 A 
ATOM     25  C   UNL A   1      44.427  25.724  31.100  1.00  0.00     0.074 A 
ATOM     26  C   UNL A   1      43.758  27.688  29.739  1.00  0.00     0.049 A 
ATOM     27  N   UNL A   1      44.753  26.296  32.230  1.00  0.00    -0.248 NA
ATOM     28  C   UNL A   1      44.551  24.255  31.120  1.00  0.00     0.031 C 
ATOM     29  C   UNL A   1      43.224  28.411  28.581  1.00  0.00     0.029 A 
ATOM     30  N   UNL A   1      44.041  28.678  30.645  1.00  0.00    -0.354 N 
ATOM     31  C   UNL A   1      45.080  25.257  33.097  1.00  0.00     0.074 A 
ATOM     32  C   UNL A   1      44.849  24.021  32.388  1.00  0.00     0.031 C 
ATOM     33  C   UNL A   1      43.261  29.730  28.831  1.00  0.00     0.029 A 
ATOM     34  C   UNL A   1      43.781  29.945  30.178  1.00  0.00     0.049 A 
ATOM     35  H   UNL A   1      44.397  28.498  31.545  1.00  0.00     0.167 HD
ATOM     36  C   UNL A   1      45.563  25.323  34.360  1.00  0.00     0.031 A 
ATOM     37  C   UNL A   1      43.948  31.143  30.770  1.00  0.00     0.031 A 
ATOM     38  C   UNL A   1      45.844  26.556  35.039  1.00  0.00     0.049 A 
ATOM     39  C   UNL A   1      44.514  31.195  32.162  1.00  0.00     0.074 A 
ATOM     40  C   UNL A   1      46.410  26.740  36.287  1.00  0.00     0.029 A 
ATOM     41  N   UNL A   1      45.589  27.816  34.520  1.00  0.00    -0.354 N 
ATOM     42  N   UNL A   1      44.880  30.203  32.941  1.00  0.00    -0.248 NA
ATOM     43  C   UNL A   1      44.704  32.527  32.752  1.00  0.00     0.031 C 
ATOM     44  C   UNL A   1      46.456  28.115  36.542  1.00  0.00     0.029 A 
ATOM     45  C   UNL A   1      45.969  28.785  35.431  1.00  0.00     0.049 A 
ATOM     46  H   UNL A   1      45.196  27.994  33.636  1.00  0.00     0.167 HD
ATOM     47  C   UNL A   1      45.367  30.795  34.102  1.00  0.00     0.074 A 
ATOM     48  C   UNL A   1      45.263  32.228  33.916  1.00  0.00     0.031 C 
ATOM     49  C   UNL A   1      45.858  30.206  35.221  1.00  0.00     0.031 A 
BRANCH  36  50
ATOM     50  C   UNL A   1      45.820  24.023  35.077  1.00  0.00    -0.014 A 
ATOM     51  C   UNL A   1      47.067  23.376  34.993  1.00  0.00     0.010 A 
ATOM     52  C   UNL A   1      44.808  23.451  35.868  1.00  0.00     0.010 A 
ATOM     53  C   UNL A   1      47.280  22.158  35.643  1.00  0.00     0.020 A 
ATOM     54  C   UNL A   1      45.026  22.249  36.546  1.00  0.00     0.020 A 
ATOM     55  C   UNL A   1      46.255  21.600  36.414  1.00  0.00     0.054 A 
BRANCH  55  56
ATOM     56  S   UNL A   1      46.565  20.028  37.263  1.00  0.00     0.124 S 
ATOM     57  O   UNL A   1      48.021  19.926  37.184  1.00  0.00    -0.237 OA
ATOM     58  O   UNL A   1      46.026  20.273  38.598  1.00  0.00    -0.237 OA
ATOM     59  O   UNL A   1      45.828  19.051  36.466  1.00  0.00    -0.744 OA
ENDBRANCH  55  56
ENDBRANCH  36  50
BRANCH  37  60
ATOM     60  C   UNL A   1      43.608  32.391  30.032  1.00  0.00    -0.014 A 
ATOM     61  C   UNL A   1      44.527  32.955  29.130  1.00  0.00     0.010 A 
ATOM     62  C   UNL A   1      42.358  33.010  30.212  1.00  0.00     0.010 A 
ATOM     63  C   UNL A   1      44.210  34.125  28.433  1.00  0.00     0.020 A 
ATOM     64  C   UNL A   1      42.027  34.166  29.498  1.00  0.00     0.020 A 
ATOM     65  C   UNL A   1      42.960  34.722  28.621  1.00  0.00     0.054 A 
BRANCH  65  66
ATOM     66  S   UNL A   1      42.550  36.211  27.666  1.00  0.00     0.124 S 
ATOM     67  O   UNL A   1      43.765  36.414  26.885  1.00  0.00    -0.237 OA
ATOM     68  O   UNL A   1      41.373  35.786  26.910  1.00  0.00    -0.237 OA
ATOM     69  O   UNL A   1      42.290  37.215  28.696  1.00  0.00    -0.744 OA
ENDBRANCH  65  66
ENDBRANCH  37  60
BRANCH  49  70
ATOM     70  C   UNL A   1      46.352  31.109  36.316  1.00  0.00    -0.014 A 
ATOM     71  C   UNL A   1      45.505  31.515  37.363  1.00  0.00     0.010 A 
ATOM     72  C   UNL A   1      47.703  31.503  36.332  1.00  0.00     0.010 A 
ATOM     73  C   UNL A   1      45.993  32.325  38.389  1.00  0.00     0.020 A 
ATOM     74  C   UNL A   1      48.201  32.289  37.371  1.00  0.00     0.020 A 
ATOM     75  C   UNL A   1      47.339  32.707  38.387  1.00  0.00     0.054 A 
BRANCH  75  76
ATOM     76  S   UNL A   1      47.960  33.721  39.756  1.00  0.00     0.124 S 
ATOM     77  O   UNL A   1      49.398  33.478  39.686  1.00  0.00    -0.237 OA
ATOM     78  O   UNL A   1      47.531  35.066  39.382  1.00  0.00    -0.237 OA
ATOM     79  O   UNL A   1      47.290  33.164  40.930  1.00  0.00    -0.744 OA
ENDBRANCH  75  76
ENDBRANCH  49  70
ENDBRANCH  23  24
ENDBRANCH  15  18
ENDBRANCH  13  14
ENDBRANCH  12  13
ENDBRANCH  11  12
ENDBRANCH  10  11
ENDBRANCH   8  10
ENDBRANCH   1   6
BRANCH   1  80
ATOM     80  N   UNL A   1      34.012  23.773  22.392  1.00  0.00    -0.343 N 
ATOM     81  C   UNL A   1      33.061  24.734  22.226  1.00  0.00     0.243 C 
ATOM     82  H   UNL A   1      34.300  23.345  21.553  1.00  0.00     0.164 HD
ATOM     83  O   UNL A   1      32.431  24.694  21.162  1.00  0.00    -0.273 OA
BRANCH  81  84
ATOM     84  C   UNL A   1      32.755  25.819  23.290  1.00  0.00     0.175 C 
BRANCH  84  85
ATOM     85  N   UNL A   1      33.233  27.096  22.716  1.00  0.00    -0.342 N 
ATOM     86  C   UNL A   1      33.843  28.201  23.209  1.00  0.00     0.240 C 
ATOM     87  H   UNL A   1      33.070  27.158  21.748  1.00  0.00     0.164 HD
ATOM     88  O   UNL A   1      34.351  28.963  22.375  1.00  0.00    -0.273 OA
BRANCH  86  89
ATOM     89  C   UNL A   1      34.019  28.531  24.697  1.00  0.00     0.216 C 
BRANCH  89  90
ATOM     90  N   UNL A   1      32.883  28.517  25.595  1.00  0.00    -0.346 N 
ATOM     91  C   UNL A   1      32.829  29.013  26.869  1.00  0.00     0.239 C 
ATOM     92  H   UNL A   1      32.059  28.105  25.251  1.00  0.00     0.164 HD
ATOM     93  O   UNL A   1      31.726  29.268  27.352  1.00  0.00    -0.273 OA
BRANCH  91  94
ATOM     94  C   UNL A   1      34.131  29.338  27.616  1.00  0.00     0.219 C 
BRANCH  94  95
ATOM     95  N   UNL A   1      34.582  30.680  27.277  1.00  0.00    -0.312 N 
ATOM     96  C   UNL A   1      35.484  31.478  27.908  1.00  0.00     0.407 C 
ATOM     97  H   UNL A   1      34.173  31.067  26.469  1.00  0.00     0.167 HD
ATOM     98  O   UNL A   1      35.542  32.667  27.632  1.00  0.00    -0.225 OA
BRANCH  96  99
ATOM     99  O   UNL A   1      36.274  30.838  28.797  1.00  0.00    -0.445 OA
BRANCH  99 100
ATOM    100  C   UNL A   1      37.684  30.846  28.490  1.00  0.00     0.270 C 
BRANCH 100 101
ATOM    101  C   UNL A   1      38.573  29.901  29.281  1.00  0.00    -0.011 A 
ATOM    102  C   UNL A   1      38.537  28.513  29.099  1.00  0.00     0.007 A 
ATOM    103  C   UNL A   1      39.432  30.415  30.267  1.00  0.00     0.007 A 
ATOM    104  C   UNL A   1      39.388  27.670  29.822  1.00  0.00     0.000 A 
ATOM    105  C   UNL A   1      40.257  29.571  31.015  1.00  0.00     0.000 A 
ATOM    106  C   UNL A   1      40.248  28.199  30.780  1.00  0.00     0.000 A 
ENDBRANCH 100 101
ENDBRANCH  99 100
ENDBRANCH  96  99
ENDBRANCH  94  95
ENDBRANCH  91  94
ENDBRANCH  89  90
ENDBRANCH  86  89
ENDBRANCH  84  85
BRANCH  84 107
ATOM    107  C   UNL A   1      31.260  25.919  23.652  1.00  0.00     0.070 C 
BRANCH 107 108
ATOM    108  C   UNL A   1      30.808  25.057  24.813  1.00  0.00    -0.045 A 
ATOM    109  C   UNL A   1      31.215  23.716  24.907  1.00  0.00     0.004 A 
ATOM    110  C   UNL A   1      29.945  25.560  25.792  1.00  0.00     0.004 A 
ATOM    111  C   UNL A   1      30.734  22.883  25.915  1.00  0.00     0.000 A 
ATOM    112  C   UNL A   1      29.486  24.733  26.821  1.00  0.00     0.000 A 
ATOM    113  C   UNL A   1      29.868  23.393  26.875  1.00  0.00     0.000 A 
ENDBRANCH 107 108
ENDBRANCH  84 107
ENDBRANCH  81  84
ENDBRANCH   1  80
TORSDOF 28
ENDMDL
MODEL 2
REMARK VINA RESULT:      -8.8      3.981      8.384
REMARK SMILES CC(C)C[C@H](NC(=O)[C@H](Cc1ccccc1)NC(=O)CNC(=O)CNC(=O)OCc1ccccc1)C(=O)NCCCCNC(=O)c1ccc(-c2c3nc(c(-c4ccc(S(=O)(=O)[O-])cc4)c4ccc([nH]4)c(-c4ccc(S(=O)(=O)[O-])cc4)c4nc(c(-c5ccc(S(=O)(=O)[O-])cc5)c5ccc2[nH]5)C=C4)C=C3)cc1
REMARK SMILES IDX 5 1 4 2 2 3 1 4 3 5 36 6 37 7 38 8 39 10 40 11 41 12 42 13
REMARK SMILES IDX 43 14 44 15 45 17 46 18 47 19 105 20 48 21 104 22 49 23
REMARK SMILES IDX 50 24 51 25 98 26 52 27 103 28 97 29 99 30 53 31 102 32
REMARK SMILES IDX 96 33 95 34 54 36 84 37 65 38 83 39 66 40 69 41 82 42 100 43
REMARK SMILES IDX 67 44 68 45 81 47 101 48 70 49 55 50 56 51 64 52 57 53 63 54
REMARK SMILES IDX 58 55 59 56 60 57 61 58 62 59 85 60 86 61 94 62 87 63 93 64
REMARK SMILES IDX 88 65 89 66 90 67 91 68 92 69 71 70 72 71 80 72 73 73 79 74
REMARK SMILES IDX 74 75 75 76 76 77 77 78 78 79 6 80 7 81 8 83 9 84 17 85
REMARK SMILES IDX 18 86 19 88 20 89 21 90 22 91 23 93 24 94 25 95 26 96 27 98
REMARK SMILES IDX 28 99 29 100 30 101 31 102 35 103 32 104 34 105 33 106
REMARK SMILES IDX 10 107 11 108 12 109 16 110 13 111 15 112 14 113
REMARK H PARENT 38 9 43 16 99 35 69 46 6 82 17 87 21 92 25 97
REMARK Flexibility Score: inf
ROOT
ATOM      1  C   UNL A   1      33.853  23.325  23.160  1.00  0.00     0.171 C 
ENDROOT
BRANCH   1   2
ATOM      2  C   UNL A   1      33.262  21.898  23.323  1.00  0.00     0.038 C 
BRANCH   2   3
ATOM      3  C   UNL A   1      33.708  20.890  24.420  1.00  0.00    -0.015 C 
ATOM      4  C   UNL A   1      33.570  21.247  25.905  1.00  0.00     0.007 C 
ATOM      5  C   UNL A   1      32.887  19.600  24.210  1.00  0.00     0.007 C 
ENDBRANCH   2   3
ENDBRANCH   1   2
BRANCH   1   6
ATOM      6  C   UNL A   1      35.333  23.447  23.547  1.00  0.00     0.242 C 
ATOM      7  O   UNL A   1      36.187  22.853  22.882  1.00  0.00    -0.273 OA
ATOM      8  N   UNL A   1      35.752  24.101  24.657  1.00  0.00    -0.354 N 
ATOM      9  H   UNL A   1      36.726  24.226  24.718  1.00  0.00     0.163 HD
BRANCH   8  10
ATOM     10  C   UNL A   1      35.001  24.645  25.771  1.00  0.00     0.116 C 
BRANCH  10  11
ATOM     11  C   UNL A   1      33.976  25.677  25.327  1.00  0.00     0.023 C 
BRANCH  11  12
ATOM     12  C   UNL A   1      33.814  26.779  26.360  1.00  0.00     0.023 C 
BRANCH  12  13
ATOM     13  C   UNL A   1      34.909  27.816  26.359  1.00  0.00     0.116 C 
BRANCH  13  14
ATOM     14  N   UNL A   1      34.507  29.019  27.059  1.00  0.00    -0.352 N 
ATOM     15  C   UNL A   1      35.206  29.727  28.006  1.00  0.00     0.251 C 
ATOM     16  H   UNL A   1      33.619  29.373  26.827  1.00  0.00     0.163 HD
ATOM     17  O   UNL A   1      34.626  30.564  28.690  1.00  0.00    -0.269 OA
BRANCH  15  18
ATOM     18  C   UNL A   1      36.649  29.456  28.205  1.00  0.00     0.039 A 
ATOM     19  C   UNL A   1      37.549  29.737  27.176  1.00  0.00     0.014 A 
ATOM     20  C   UNL A   1      37.117  28.921  29.410  1.00  0.00     0.014 A 
ATOM     21  C   UNL A   1      38.913  29.504  27.370  1.00  0.00     0.010 A 
ATOM     22  C   UNL A   1      38.479  28.831  29.651  1.00  0.00     0.010 A 
ATOM     23  C   UNL A   1      39.391  29.063  28.616  1.00  0.00    -0.014 A 
BRANCH  23  24
ATOM     24  C   UNL A   1      40.821  28.733  28.836  1.00  0.00     0.031 A 
ATOM     25  C   UNL A   1      41.717  29.748  29.510  1.00  0.00     0.074 A 
ATOM     26  C   UNL A   1      41.327  27.565  28.397  1.00  0.00     0.049 A 
ATOM     27  N   UNL A   1      43.004  29.694  29.735  1.00  0.00    -0.248 NA
ATOM     28  C   UNL A   1      41.089  31.008  29.949  1.00  0.00     0.031 C 
ATOM     29  C   UNL A   1      40.575  26.524  27.690  1.00  0.00     0.029 A 
ATOM     30  N   UNL A   1      42.597  27.055  28.483  1.00  0.00    -0.354 N 
ATOM     31  C   UNL A   1      43.339  30.920  30.301  1.00  0.00     0.074 A 
ATOM     32  C   UNL A   1      42.139  31.722  30.324  1.00  0.00     0.031 C 
ATOM     33  C   UNL A   1      41.389  25.482  27.448  1.00  0.00     0.029 A 
ATOM     34  C   UNL A   1      42.725  25.796  27.943  1.00  0.00     0.049 A 
ATOM     35  H   UNL A   1      43.346  27.544  28.893  1.00  0.00     0.167 HD
ATOM     36  C   UNL A   1      44.531  31.333  30.791  1.00  0.00     0.031 A 
ATOM     37  C   UNL A   1      43.799  24.988  27.863  1.00  0.00     0.031 A 
ATOM     38  C   UNL A   1      45.707  30.511  30.816  1.00  0.00     0.049 A 
ATOM     39  C   UNL A   1      45.107  25.455  28.441  1.00  0.00     0.074 A 
ATOM     40  C   UNL A   1      46.945  30.797  31.362  1.00  0.00     0.029 A 
ATOM     41  N   UNL A   1      45.786  29.234  30.282  1.00  0.00    -0.354 N 
ATOM     42  N   UNL A   1      45.387  26.593  29.032  1.00  0.00    -0.248 NA
ATOM     43  C   UNL A   1      46.241  24.524  28.354  1.00  0.00     0.031 C 
ATOM     44  C   UNL A   1      47.788  29.708  31.117  1.00  0.00     0.029 A 
ATOM     45  C   UNL A   1      47.059  28.725  30.467  1.00  0.00     0.049 A 
ATOM     46  H   UNL A   1      45.047  28.761  29.837  1.00  0.00     0.167 HD
ATOM     47  C   UNL A   1      46.723  26.502  29.411  1.00  0.00     0.074 A 
ATOM     48  C   UNL A   1      47.187  25.195  28.995  1.00  0.00     0.031 C 
ATOM     49  C   UNL A   1      47.496  27.418  30.046  1.00  0.00     0.031 A 
BRANCH  36  50
ATOM     50  C   UNL A   1      44.611  32.734  31.342  1.00  0.00    -0.014 A 
ATOM     51  C   UNL A   1      44.975  33.821  30.524  1.00  0.00     0.010 A 
ATOM     52  C   UNL A   1      44.295  32.972  32.691  1.00  0.00     0.010 A 
ATOM     53  C   UNL A   1      45.070  35.108  31.058  1.00  0.00     0.020 A 
ATOM     54  C   UNL A   1      44.357  34.263  33.221  1.00  0.00     0.020 A 
ATOM     55  C   UNL A   1      44.764  35.321  32.405  1.00  0.00     0.054 A 
BRANCH  55  56
ATOM     56  S   UNL A   1      44.876  37.006  33.067  1.00  0.00     0.124 S 
ATOM     57  O   UNL A   1      43.524  37.217  33.579  1.00  0.00    -0.237 OA
ATOM     58  O   UNL A   1      45.919  36.883  34.082  1.00  0.00    -0.237 OA
ATOM     59  O   UNL A   1      45.235  37.812  31.903  1.00  0.00    -0.744 OA
ENDBRANCH  55  56
ENDBRANCH  36  50
BRANCH  37  60
ATOM     60  C   UNL A   1      43.671  23.641  27.242  1.00  0.00    -0.014 A 
ATOM     61  C   UNL A   1      44.248  23.381  25.986  1.00  0.00     0.010 A 
ATOM     62  C   UNL A   1      42.991  22.607  27.909  1.00  0.00     0.010 A 
ATOM     63  C   UNL A   1      44.132  22.117  25.401  1.00  0.00     0.020 A 
ATOM     64  C   UNL A   1      42.897  21.333  27.340  1.00  0.00     0.020 A 
ATOM     65  C   UNL A   1      43.458  21.100  26.083  1.00  0.00     0.054 A 
BRANCH  65  66
ATOM     66  S   UNL A   1      43.367  19.452  25.328  1.00  0.00     0.124 S 
ATOM     67  O   UNL A   1      44.227  18.667  26.207  1.00  0.00    -0.237 OA
ATOM     68  O   UNL A   1      41.939  19.149  25.403  1.00  0.00    -0.237 OA
ATOM     69  O   UNL A   1      43.879  19.667  23.976  1.00  0.00    -0.744 OA
ENDBRANCH  65  66
ENDBRANCH  37  60
BRANCH  49  70
ATOM     70  C   UNL A   1      48.912  27.026  30.362  1.00  0.00    -0.014 A 
ATOM     71  C   UNL A   1      49.951  27.247  29.441  1.00  0.00     0.010 A 
ATOM     72  C   UNL A   1      49.216  26.488  31.627  1.00  0.00     0.010 A 
ATOM     73  C   UNL A   1      51.266  26.908  29.768  1.00  0.00     0.020 A 
ATOM     74  C   UNL A   1      50.532  26.176  31.967  1.00  0.00     0.020 A 
ATOM     75  C   UNL A   1      51.548  26.374  31.030  1.00  0.00     0.054 A 
BRANCH  75  76
ATOM     76  S   UNL A   1      53.269  25.986  31.447  1.00  0.00     0.124 S 
ATOM     77  O   UNL A   1      53.598  27.047  32.395  1.00  0.00    -0.237 OA
ATOM     78  O   UNL A   1      53.168  24.645  32.016  1.00  0.00    -0.237 OA
ATOM     79  O   UNL A   1      53.961  26.060  30.162  1.00  0.00    -0.744 OA
ENDBRANCH  75  76
ENDBRANCH  49  70
ENDBRANCH  23  24
ENDBRANCH  15  18
ENDBRANCH  13  14
ENDBRANCH  12  13
ENDBRANCH  11  12
ENDBRANCH  10  11
ENDBRANCH   8  10
ENDBRANCH   1   6
BRANCH   1  80
ATOM     80  N   UNL A   1      33.528  24.060  21.949  1.00  0.00    -0.343 N 
ATOM     81  C   UNL A   1      32.726  25.138  21.723  1.00  0.00     0.243 C 
ATOM     82  H   UNL A   1      33.970  23.714  21.140  1.00  0.00     0.164 HD
ATOM     83  O   UNL A   1      32.364  25.309  20.553  1.00  0.00    -0.273 OA
BRANCH  81  84
ATOM     84  C   UNL A   1      32.267  26.104  22.846  1.00  0.00     0.175 C 
BRANCH  84  85
ATOM     85  N   UNL A   1      32.546  27.468  22.346  1.00  0.00    -0.342 N 
ATOM     86  C   UNL A   1      32.615  28.700  22.906  1.00  0.00     0.240 C 
ATOM     87  H   UNL A   1      32.724  27.485  21.378  1.00  0.00     0.164 HD
ATOM     88  O   UNL A   1      33.154  29.582  22.223  1.00  0.00    -0.273 OA
BRANCH  86  89
ATOM     89  C   UNL A   1      32.157  29.058  24.326  1.00  0.00     0.216 C 
BRANCH  89  90
ATOM     90  N   UNL A   1      30.983  29.878  24.538  1.00  0.00    -0.346 N 
ATOM     91  C   UNL A   1      30.895  31.022  25.283  1.00  0.00     0.239 C 
ATOM     92  H   UNL A   1      30.155  29.579  24.096  1.00  0.00     0.164 HD
ATOM     93  O   UNL A   1      29.960  31.793  25.065  1.00  0.00    -0.273 OA
BRANCH  91  94
ATOM     94  C   UNL A   1      32.006  31.366  26.285  1.00  0.00     0.219 C 
BRANCH  94  95
ATOM     95  N   UNL A   1      31.813  32.711  26.807  1.00  0.00    -0.312 N 
ATOM     96  C   UNL A   1      32.659  33.491  27.529  1.00  0.00     0.407 C 
ATOM     97  H   UNL A   1      30.937  33.115  26.607  1.00  0.00     0.167 HD
ATOM     98  O   UNL A   1      32.233  34.484  28.103  1.00  0.00    -0.225 OA
BRANCH  96  99
ATOM     99  O   UNL A   1      33.947  33.084  27.516  1.00  0.00    -0.445 OA
BRANCH  99 100
ATOM    100  C   UNL A   1      34.908  34.055  27.983  1.00  0.00     0.270 C 
BRANCH 100 101
ATOM    101  C   UNL A   1      35.933  33.584  29.000  1.00  0.00    -0.011 A 
ATOM    102  C   UNL A   1      35.714  33.679  30.380  1.00  0.00     0.007 A 
ATOM    103  C   UNL A   1      37.169  33.080  28.561  1.00  0.00     0.007 A 
ATOM    104  C   UNL A   1      36.666  33.212  31.294  1.00  0.00     0.000 A 
ATOM    105  C   UNL A   1      38.135  32.645  29.473  1.00  0.00     0.000 A 
ATOM    106  C   UNL A   1      37.876  32.695  30.840  1.00  0.00     0.000 A 
ENDBRANCH 100 101
ENDBRANCH  99 100
ENDBRANCH  96  99
ENDBRANCH  94  95
ENDBRANCH  91  94
ENDBRANCH  89  90
ENDBRANCH  86  89
ENDBRANCH  84  85
BRANCH  84 107
ATOM    107  C   UNL A   1      30.775  25.960  23.207  1.00  0.00     0.070 C 
BRANCH 107 108
ATOM    108  C   UNL A   1      30.481  25.193  24.481  1.00  0.00    -0.045 A 
ATOM    109  C   UNL A   1      30.877  23.852  24.614  1.00  0.00     0.004 A 
ATOM    110  C   UNL A   1      29.774  25.785  25.532  1.00  0.00     0.004 A 
ATOM    111  C   UNL A   1      30.533  23.105  25.738  1.00  0.00     0.000 A 
ATOM    112  C   UNL A   1      29.455  25.044  26.674  1.00  0.00     0.000 A 
ATOM    113  C   UNL A   1      29.821  23.702  26.771  1.00  0.00     0.000 A 
ENDBRANCH 107 108
ENDBRANCH  84 107
ENDBRANCH  81  84
ENDBRANCH   1  80
TORSDOF 28
ENDMDL
MODEL 3
REMARK VINA RESULT:      -8.6      4.240      6.488
REMARK SMILES CC(C)C[C@H](NC(=O)[C@H](Cc1ccccc1)NC(=O)CNC(=O)CNC(=O)OCc1ccccc1)C(=O)NCCCCNC(=O)c1ccc(-c2c3nc(c(-c4ccc(S(=O)(=O)[O-])cc4)c4ccc([nH]4)c(-c4ccc(S(=O)(=O)[O-])cc4)c4nc(c(-c5ccc(S(=O)(=O)[O-])cc5)c5ccc2[nH]5)C=C4)C=C3)cc1
REMARK SMILES IDX 5 1 4 2 2 3 1 4 3 5 36 6 37 7 38 8 39 10 40 11 41 12 42 13
REMARK SMILES IDX 43 14 44 15 45 17 46 18 47 19 105 20 48 21 104 22 49 23
REMARK SMILES IDX 50 24 51 25 98 26 52 27 103 28 97 29 99 30 53 31 102 32
REMARK SMILES IDX 96 33 95 34 54 36 84 37 65 38 83 39 66 40 69 41 82 42 100 43
REMARK SMILES IDX 67 44 68 45 81 47 101 48 70 49 55 50 56 51 64 52 57 53 63 54
REMARK SMILES IDX 58 55 59 56 60 57 61 58 62 59 85 60 86 61 94 62 87 63 93 64
REMARK SMILES IDX 88 65 89 66 90 67 91 68 92 69 71 70 72 71 80 72 73 73 79 74
REMARK SMILES IDX 74 75 75 76 76 77 77 78 78 79 6 80 7 81 8 83 9 84 17 85
REMARK SMILES IDX 18 86 19 88 20 89 21 90 22 91 23 93 24 94 25 95 26 96 27 98
REMARK SMILES IDX 28 99 29 100 30 101 31 102 35 103 32 104 34 105 33 106
REMARK SMILES IDX 10 107 11 108 12 109 16 110 13 111 15 112 14 113
REMARK H PARENT 38 9 43 16 99 35 69 46 6 82 17 87 21 92 25 97
REMARK Flexibility Score: inf
ROOT
ATOM      1  C   UNL A   1      34.108  23.436  23.320  1.00  0.00     0.171 C 
ENDROOT
BRANCH   1   2
ATOM      2  C   UNL A   1      33.453  22.032  23.428  1.00  0.00     0.038 C 
BRANCH   2   3
ATOM      3  C   UNL A   1      33.809  20.986  24.522  1.00  0.00    -0.015 C 
ATOM      4  C   UNL A   1      33.554  21.293  26.002  1.00  0.00     0.007 C 
ATOM      5  C   UNL A   1      33.004  19.707  24.204  1.00  0.00     0.007 C 
ENDBRANCH   2   3
ENDBRANCH   1   2
BRANCH   1   6
ATOM      6  C   UNL A   1      35.553  23.503  23.835  1.00  0.00     0.242 C 
ATOM      7  O   UNL A   1      36.441  22.886  23.239  1.00  0.00    -0.273 OA
ATOM      8  N   UNL A   1      35.895  24.131  24.986  1.00  0.00    -0.354 N 
ATOM      9  H   UNL A   1      36.864  24.222  25.133  1.00  0.00     0.163 HD
BRANCH   8  10
ATOM     10  C   UNL A   1      35.069  24.690  26.038  1.00  0.00     0.116 C 
BRANCH  10  11
ATOM     11  C   UNL A   1      33.904  25.499  25.488  1.00  0.00     0.023 C 
BRANCH  11  12
ATOM     12  C   UNL A   1      33.620  26.718  26.349  1.00  0.00     0.023 C 
BRANCH  12  13
ATOM     13  C   UNL A   1      34.757  27.704  26.448  1.00  0.00     0.116 C 
BRANCH  13  14
ATOM     14  N   UNL A   1      34.340  28.939  27.080  1.00  0.00    -0.352 N 
ATOM     15  C   UNL A   1      35.028  29.705  27.990  1.00  0.00     0.251 C 
ATOM     16  H   UNL A   1      33.449  29.271  26.825  1.00  0.00     0.163 HD
ATOM     17  O   UNL A   1      34.436  30.572  28.624  1.00  0.00    -0.269 OA
BRANCH  15  18
ATOM     18  C   UNL A   1      36.473  29.459  28.209  1.00  0.00     0.039 A 
ATOM     19  C   UNL A   1      36.897  28.888  29.410  1.00  0.00     0.014 A 
ATOM     20  C   UNL A   1      37.412  29.794  27.230  1.00  0.00     0.014 A 
ATOM     21  C   UNL A   1      38.256  28.633  29.611  1.00  0.00     0.010 A 
ATOM     22  C   UNL A   1      38.735  29.406  27.370  1.00  0.00     0.010 A 
ATOM     23  C   UNL A   1      39.185  28.876  28.585  1.00  0.00    -0.014 A 
BRANCH  23  24
ATOM     24  C   UNL A   1      40.644  28.690  28.786  1.00  0.00     0.031 A 
ATOM     25  C   UNL A   1      41.280  27.376  28.393  1.00  0.00     0.074 A 
ATOM     26  C   UNL A   1      41.382  29.659  29.359  1.00  0.00     0.049 A 
ATOM     27  N   UNL A   1      42.516  26.978  28.548  1.00  0.00    -0.248 NA
ATOM     28  C   UNL A   1      40.400  26.360  27.786  1.00  0.00     0.031 C 
ATOM     29  C   UNL A   1      40.875  30.953  29.826  1.00  0.00     0.029 A 
ATOM     30  N   UNL A   1      42.723  29.707  29.644  1.00  0.00    -0.354 N 
ATOM     31  C   UNL A   1      42.547  25.662  28.096  1.00  0.00     0.074 A 
ATOM     32  C   UNL A   1      41.198  25.306  27.725  1.00  0.00     0.031 C 
ATOM     33  C   UNL A   1      41.900  31.683  30.297  1.00  0.00     0.029 A 
ATOM     34  C   UNL A   1      43.126  30.897  30.204  1.00  0.00     0.049 A 
ATOM     35  H   UNL A   1      43.338  28.961  29.464  1.00  0.00     0.167 HD
ATOM     36  C   UNL A   1      43.608  24.831  27.967  1.00  0.00     0.031 A 
ATOM     37  C   UNL A   1      44.349  31.306  30.594  1.00  0.00     0.031 A 
ATOM     38  C   UNL A   1      44.956  25.210  28.285  1.00  0.00     0.049 A 
ATOM     39  C   UNL A   1      45.519  30.379  30.414  1.00  0.00     0.074 A 
ATOM     40  C   UNL A   1      46.117  24.478  28.116  1.00  0.00     0.029 A 
ATOM     41  N   UNL A   1      45.323  26.432  28.826  1.00  0.00    -0.354 N 
ATOM     42  N   UNL A   1      45.538  29.161  29.922  1.00  0.00    -0.248 NA
ATOM     43  C   UNL A   1      46.835  30.883  30.828  1.00  0.00     0.031 C 
ATOM     44  C   UNL A   1      47.184  25.242  28.599  1.00  0.00     0.029 A 
ATOM     45  C   UNL A   1      46.692  26.469  29.017  1.00  0.00     0.049 A 
ATOM     46  H   UNL A   1      44.702  27.164  29.042  1.00  0.00     0.167 HD
ATOM     47  C   UNL A   1      46.872  28.766  29.944  1.00  0.00     0.074 A 
ATOM     48  C   UNL A   1      47.628  29.879  30.483  1.00  0.00     0.031 C 
ATOM     49  C   UNL A   1      47.422  27.590  29.553  1.00  0.00     0.031 A 
BRANCH  36  50
ATOM     50  C   UNL A   1      43.346  23.438  27.455  1.00  0.00    -0.014 A 
ATOM     51  C   UNL A   1      42.882  22.421  28.310  1.00  0.00     0.010 A 
ATOM     52  C   UNL A   1      43.542  23.147  26.094  1.00  0.00     0.010 A 
ATOM     53  C   UNL A   1      42.670  21.129  27.825  1.00  0.00     0.020 A 
ATOM     54  C   UNL A   1      43.299  21.864  25.597  1.00  0.00     0.020 A 
ATOM     55  C   UNL A   1      42.883  20.857  26.470  1.00  0.00     0.054 A 
BRANCH  55  56
ATOM     56  S   UNL A   1      42.580  19.175  25.862  1.00  0.00     0.124 S 
ATOM     57  O   UNL A   1      41.128  19.173  25.698  1.00  0.00    -0.237 OA
ATOM     58  O   UNL A   1      43.350  19.139  24.622  1.00  0.00    -0.237 OA
ATOM     59  O   UNL A   1      43.088  18.322  26.933  1.00  0.00    -0.744 OA
ENDBRANCH  55  56
ENDBRANCH  36  50
BRANCH  37  60
ATOM     60  C   UNL A   1      44.531  32.671  31.159  1.00  0.00    -0.014 A 
ATOM     61  C   UNL A   1      44.452  32.881  32.547  1.00  0.00     0.010 A 
ATOM     62  C   UNL A   1      44.804  33.764  30.317  1.00  0.00     0.010 A 
ATOM     63  C   UNL A   1      44.625  34.161  33.082  1.00  0.00     0.020 A 
ATOM     64  C   UNL A   1      45.004  35.041  30.850  1.00  0.00     0.020 A 
ATOM     65  C   UNL A   1      44.902  35.233  32.229  1.00  0.00     0.054 A 
BRANCH  65  66
ATOM     66  S   UNL A   1      45.176  36.876  32.950  1.00  0.00     0.124 S 
ATOM     67  O   UNL A   1      46.620  37.032  32.810  1.00  0.00    -0.237 OA
ATOM     68  O   UNL A   1      44.359  37.736  32.095  1.00  0.00    -0.237 OA
ATOM     69  O   UNL A   1      44.689  36.732  34.321  1.00  0.00    -0.744 OA
ENDBRANCH  65  66
ENDBRANCH  37  60
BRANCH  49  70
ATOM     70  C   UNL A   1      48.916  27.457  29.659  1.00  0.00    -0.014 A 
ATOM     71  C   UNL A   1      49.759  27.848  28.605  1.00  0.00     0.010 A 
ATOM     72  C   UNL A   1      49.485  26.994  30.861  1.00  0.00     0.010 A 
ATOM     73  C   UNL A   1      51.145  27.749  28.737  1.00  0.00     0.020 A 
ATOM     74  C   UNL A   1      50.871  26.922  31.007  1.00  0.00     0.020 A 
ATOM     75  C   UNL A   1      51.692  27.286  29.939  1.00  0.00     0.054 A 
BRANCH  75  76
ATOM     76  S   UNL A   1      53.497  27.211  30.103  1.00  0.00     0.124 S 
ATOM     77  O   UNL A   1      53.701  27.746  31.447  1.00  0.00    -0.237 OA
ATOM     78  O   UNL A   1      53.775  25.787  29.945  1.00  0.00    -0.237 OA
ATOM     79  O   UNL A   1      53.978  28.060  29.014  1.00  0.00    -0.744 OA
ENDBRANCH  75  76
ENDBRANCH  49  70
ENDBRANCH  23  24
ENDBRANCH  15  18
ENDBRANCH  13  14
ENDBRANCH  12  13
ENDBRANCH  11  12
ENDBRANCH  10  11
ENDBRANCH   8  10
ENDBRANCH   1   6
BRANCH   1  80
ATOM     80  N   UNL A   1      33.918  24.181  22.087  1.00  0.00    -0.343 N 
ATOM     81  C   UNL A   1      33.122  25.241  21.776  1.00  0.00     0.243 C 
ATOM     82  H   UNL A   1      34.467  23.859  21.336  1.00  0.00     0.164 HD
ATOM     83  O   UNL A   1      32.906  25.421  20.571  1.00  0.00    -0.273 OA
BRANCH  81  84
ATOM     84  C   UNL A   1      32.499  26.178  22.843  1.00  0.00     0.175 C 
BRANCH  84  85
ATOM     85  N   UNL A   1      32.774  27.557  22.382  1.00  0.00    -0.342 N 
ATOM     86  C   UNL A   1      32.766  28.782  22.962  1.00  0.00     0.240 C 
ATOM     87  H   UNL A   1      33.021  27.594  21.430  1.00  0.00     0.164 HD
ATOM     88  O   UNL A   1      33.326  29.688  22.331  1.00  0.00    -0.273 OA
BRANCH  86  89
ATOM     89  C   UNL A   1      32.196  29.106  24.348  1.00  0.00     0.216 C 
BRANCH  89  90
ATOM     90  N   UNL A   1      30.984  29.887  24.484  1.00  0.00    -0.346 N 
ATOM     91  C   UNL A   1      30.808  31.018  25.235  1.00  0.00     0.239 C 
ATOM     92  H   UNL A   1      30.200  29.570  23.981  1.00  0.00     0.164 HD
ATOM     93  O   UNL A   1      29.868  31.763  24.958  1.00  0.00    -0.273 OA
BRANCH  91  94
ATOM     94  C   UNL A   1      31.833  31.381  26.318  1.00  0.00     0.219 C 
BRANCH  94  95
ATOM     95  N   UNL A   1      31.767  32.805  26.614  1.00  0.00    -0.312 N 
ATOM     96  C   UNL A   1      32.419  33.524  27.565  1.00  0.00     0.407 C 
ATOM     97  H   UNL A   1      31.158  33.324  26.040  1.00  0.00     0.167 HD
ATOM     98  O   UNL A   1      32.043  34.656  27.837  1.00  0.00    -0.225 OA
BRANCH  96  99
ATOM     99  O   UNL A   1      33.478  32.894  28.119  1.00  0.00    -0.445 OA
BRANCH  99 100
ATOM    100  C   UNL A   1      34.123  33.601  29.199  1.00  0.00     0.270 C 
BRANCH 100 101
ATOM    101  C   UNL A   1      35.556  33.215  29.524  1.00  0.00    -0.011 A 
ATOM    102  C   UNL A   1      36.599  33.374  28.604  1.00  0.00     0.007 A 
ATOM    103  C   UNL A   1      35.856  32.634  30.768  1.00  0.00     0.007 A 
ATOM    104  C   UNL A   1      37.914  33.035  28.941  1.00  0.00     0.000 A 
ATOM    105  C   UNL A   1      37.163  32.263  31.093  1.00  0.00     0.000 A 
ATOM    106  C   UNL A   1      38.196  32.481  30.186  1.00  0.00     0.000 A 
ENDBRANCH 100 101
ENDBRANCH  99 100
ENDBRANCH  96  99
ENDBRANCH  94  95
ENDBRANCH  91  94
ENDBRANCH  89  90
ENDBRANCH  86  89
ENDBRANCH  84  85
BRANCH  84 107
ATOM    107  C   UNL A   1      30.984  25.968  23.035  1.00  0.00     0.070 C 
BRANCH 107 108
ATOM    108  C   UNL A   1      30.581  25.218  24.289  1.00  0.00    -0.045 A 
ATOM    109  C   UNL A   1      29.962  25.891  25.354  1.00  0.00     0.004 A 
ATOM    110  C   UNL A   1      30.854  23.854  24.432  1.00  0.00     0.004 A 
ATOM    111  C   UNL A   1      29.671  25.238  26.550  1.00  0.00     0.000 A 
ATOM    112  C   UNL A   1      30.534  23.191  25.621  1.00  0.00     0.000 A 
ATOM    113  C   UNL A   1      29.956  23.885  26.684  1.00  0.00     0.000 A 
ENDBRANCH 107 108
ENDBRANCH  84 107
ENDBRANCH  81  84
ENDBRANCH   1  80
TORSDOF 28
ENDMDL
