MODEL 1
REMARK VINA RESULT:     -10.7      0.000      0.000
REMARK SMILES O=C(C[C@@H]1C[N@@H+]([C@H]2CCO[C@]3(CCOC3)C2)CCO1)NCCCCNC(=O)c1ccc(-c2c3nc(c(-c4ccc(S(=O)(=O)[O-])cc4)c4ccc([nH]4)c(-c4ccc(S(=O)(=O)[O-])cc4)c4nc(c(-c5ccc(S(=O)(=O)[O-])cc5)c5ccc2[nH]5)C=C4)C=C3)cc1
REMARK SMILES IDX 23 1 22 2 21 3 20 4 1 5 2 6 3 8 4 9 5 10 19 11 6 12 18 13
REMARK SMILES IDX 17 14 7 16 8 17 16 18 9 19 11 20 10 21 12 22 15 23 13 24
REMARK SMILES IDX 14 25 24 26 25 27 26 28 27 30 28 31 29 32 87 33 30 34 86 35
REMARK SMILES IDX 31 36 32 37 33 38 80 39 34 40 85 41 79 42 81 43 35 44 84 45
REMARK SMILES IDX 78 46 77 47 36 49 66 50 47 51 65 52 48 53 51 54 64 55 82 56
REMARK SMILES IDX 49 57 50 58 63 60 83 61 52 62 37 63 38 64 46 65 39 66 45 67
REMARK SMILES IDX 40 68 41 69 42 70 43 71 44 72 67 73 68 74 76 75 69 76 75 77
REMARK SMILES IDX 70 78 71 79 72 80 73 81 74 82 53 83 54 84 62 85 55 86 61 87
REMARK SMILES IDX 56 88 57 89 58 90 59 91 60 92
REMARK H PARENT 20 7 6 15 25 29 81 48 51 59
REMARK Flexibility Score: inf
ROOT
ATOM      1  C   UNL A   1      32.782  27.792  26.511  1.00  0.00     0.023 C 
ENDROOT
BRANCH   1   2
ATOM      2  C   UNL A   1      31.489  28.582  26.276  1.00  0.00     0.023 C 
BRANCH   2   3
ATOM      3  C   UNL A   1      31.138  28.819  24.807  1.00  0.00     0.116 C 
BRANCH   3   4
ATOM      4  N   UNL A   1      31.700  27.791  23.954  1.00  0.00    -0.356 N 
ATOM      5  O   UNL A   1      32.731  29.188  22.442  1.00  0.00    -0.275 OA
ATOM      6  C   UNL A   1      32.450  28.060  22.830  1.00  0.00     0.222 C 
ATOM      7  H   UNL A   1      31.539  26.849  24.192  1.00  0.00     0.163 HD
BRANCH   6   8
ATOM      8  C   UNL A   1      32.948  26.813  22.125  1.00  0.00     0.138 C 
BRANCH   8   9
ATOM      9  C   UNL A   1      32.456  25.587  22.890  1.00  0.00     0.182 C 
ATOM     10  C   UNL A   1      33.219  24.303  22.491  1.00  0.00     0.295 C 
ATOM     11  O   UNL A   1      31.046  25.407  22.686  1.00  0.00    -0.366 OA
ATOM     12  N   UNL A   1      32.798  23.113  23.260  1.00  0.00    -0.328 N 
ATOM     13  C   UNL A   1      30.576  24.347  23.537  1.00  0.00     0.222 C 
ATOM     14  C   UNL A   1      31.325  23.027  23.271  1.00  0.00     0.291 C 
ATOM     15  H   UNL A   1      33.087  22.258  22.784  1.00  0.00     0.348 HD
BRANCH  12  16
ATOM     16  C   UNL A   1      33.550  22.901  24.517  1.00  0.00     0.189 C 
ATOM     17  C   UNL A   1      32.794  22.222  25.668  1.00  0.00     0.093 C 
ATOM     18  C   UNL A   1      34.921  22.220  24.319  1.00  0.00     0.103 C 
ATOM     19  C   UNL A   1      33.660  22.065  26.905  1.00  0.00     0.167 C 
ATOM     20  C   UNL A   1      35.690  22.073  25.648  1.00  0.00     0.099 C 
ATOM     21  O   UNL A   1      34.873  21.392  26.604  1.00  0.00    -0.372 OA
ATOM     22  C   UNL A   1      36.241  23.387  26.196  1.00  0.00     0.066 C 
ATOM     23  C   UNL A   1      36.975  21.270  25.447  1.00  0.00     0.195 C 
ATOM     24  C   UNL A   1      37.687  23.439  25.737  1.00  0.00     0.163 C 
ATOM     25  O   UNL A   1      37.982  22.214  25.065  1.00  0.00    -0.378 OA
ENDBRANCH  12  16
ENDBRANCH   8   9
ENDBRANCH   6   8
ENDBRANCH   3   4
ENDBRANCH   2   3
ENDBRANCH   1   2
BRANCH   1  26
ATOM     26  C   UNL A   1      34.063  28.619  26.522  1.00  0.00     0.116 C 
BRANCH  26  27
ATOM     27  N   UNL A   1      33.896  29.904  27.181  1.00  0.00    -0.352 N 
ATOM     28  C   UNL A   1      34.733  30.554  28.057  1.00  0.00     0.251 C 
ATOM     29  H   UNL A   1      33.059  30.379  26.969  1.00  0.00     0.163 HD
ATOM     30  O   UNL A   1      34.337  31.563  28.638  1.00  0.00    -0.269 OA
BRANCH  28  31
ATOM     31  C   UNL A   1      36.092  30.032  28.325  1.00  0.00     0.039 A 
ATOM     32  C   UNL A   1      37.058  30.117  27.318  1.00  0.00     0.014 A 
ATOM     33  C   UNL A   1      36.420  29.457  29.555  1.00  0.00     0.014 A 
ATOM     34  C   UNL A   1      38.366  29.691  27.569  1.00  0.00     0.010 A 
ATOM     35  C   UNL A   1      37.741  29.103  29.829  1.00  0.00     0.010 A 
ATOM     36  C   UNL A   1      38.731  29.219  28.841  1.00  0.00    -0.014 A 
BRANCH  36  37
ATOM     37  C   UNL A   1      40.140  28.858  29.157  1.00  0.00     0.031 A 
ATOM     38  C   UNL A   1      41.060  29.862  29.799  1.00  0.00     0.074 A 
ATOM     39  C   UNL A   1      40.611  27.643  28.810  1.00  0.00     0.049 A 
ATOM     40  N   UNL A   1      42.331  29.746  30.091  1.00  0.00    -0.248 NA
ATOM     41  C   UNL A   1      40.486  31.174  30.137  1.00  0.00     0.031 C 
ATOM     42  C   UNL A   1      39.836  26.591  28.147  1.00  0.00     0.029 A 
ATOM     43  N   UNL A   1      41.860  27.089  28.957  1.00  0.00    -0.354 N 
ATOM     44  C   UNL A   1      42.709  30.968  30.636  1.00  0.00     0.074 A 
ATOM     45  C   UNL A   1      41.548  31.830  30.582  1.00  0.00     0.031 C 
ATOM     46  C   UNL A   1      40.616  25.514  27.970  1.00  0.00     0.029 A 
ATOM     47  C   UNL A   1      41.959  25.810  28.458  1.00  0.00     0.049 A 
ATOM     48  H   UNL A   1      42.612  27.562  29.379  1.00  0.00     0.167 HD
ATOM     49  C   UNL A   1      43.907  31.335  31.153  1.00  0.00     0.031 A 
ATOM     50  C   UNL A   1      43.012  24.971  28.391  1.00  0.00     0.031 A 
ATOM     51  C   UNL A   1      45.062  30.478  31.206  1.00  0.00     0.049 A 
ATOM     52  C   UNL A   1      44.340  25.412  28.946  1.00  0.00     0.074 A 
ATOM     53  C   UNL A   1      46.307  30.745  31.751  1.00  0.00     0.029 A 
ATOM     54  N   UNL A   1      45.119  29.190  30.695  1.00  0.00    -0.354 N 
ATOM     55  N   UNL A   1      44.658  26.551  29.513  1.00  0.00    -0.248 NA
ATOM     56  C   UNL A   1      45.446  24.448  28.864  1.00  0.00     0.031 C 
ATOM     57  C   UNL A   1      47.133  29.642  31.515  1.00  0.00     0.029 A 
ATOM     58  C   UNL A   1      46.384  28.660  30.887  1.00  0.00     0.049 A 
ATOM     59  H   UNL A   1      44.371  28.721  30.259  1.00  0.00     0.167 HD
ATOM     60  C   UNL A   1      45.994  26.429  29.881  1.00  0.00     0.074 A 
ATOM     61  C   UNL A   1      46.417  25.101  29.488  1.00  0.00     0.031 C 
ATOM     62  C   UNL A   1      46.796  27.337  30.491  1.00  0.00     0.031 A 
BRANCH  49  63
ATOM     63  C   UNL A   1      44.031  32.736  31.700  1.00  0.00    -0.014 A 
ATOM     64  C   UNL A   1      44.392  33.812  30.867  1.00  0.00     0.010 A 
ATOM     65  C   UNL A   1      43.739  32.990  33.052  1.00  0.00     0.010 A 
ATOM     66  C   UNL A   1      44.500  35.105  31.386  1.00  0.00     0.020 A 
ATOM     67  C   UNL A   1      43.815  34.287  33.568  1.00  0.00     0.020 A 
ATOM     68  C   UNL A   1      44.212  35.334  32.734  1.00  0.00     0.054 A 
BRANCH  68  69
ATOM     69  S   UNL A   1      44.341  37.027  33.373  1.00  0.00     0.124 S 
ATOM     70  O   UNL A   1      43.778  37.806  32.274  1.00  0.00    -0.237 OA
ATOM     71  O   UNL A   1      43.526  36.972  34.585  1.00  0.00    -0.237 OA
ATOM     72  O   UNL A   1      45.772  37.207  33.595  1.00  0.00    -0.744 OA
ENDBRANCH  68  69
ENDBRANCH  49  63
BRANCH  50  73
ATOM     73  C   UNL A   1      42.853  23.626  27.770  1.00  0.00    -0.014 A 
ATOM     74  C   UNL A   1      43.147  23.422  26.410  1.00  0.00     0.010 A 
ATOM     75  C   UNL A   1      42.411  22.535  28.543  1.00  0.00     0.010 A 
ATOM     76  C   UNL A   1      42.983  22.161  25.831  1.00  0.00     0.020 A 
ATOM     77  C   UNL A   1      42.279  21.266  27.975  1.00  0.00     0.020 A 
ATOM     78  C   UNL A   1      42.554  21.089  26.618  1.00  0.00     0.054 A 
BRANCH  78  79
ATOM     79  S   UNL A   1      42.398  19.449  25.856  1.00  0.00     0.124 S 
ATOM     80  O   UNL A   1      42.705  18.565  26.976  1.00  0.00    -0.237 OA
ATOM     81  O   UNL A   1      41.009  19.444  25.404  1.00  0.00    -0.237 OA
ATOM     82  O   UNL A   1      43.394  19.474  24.787  1.00  0.00    -0.744 OA
ENDBRANCH  78  79
ENDBRANCH  50  73
BRANCH  62  83
ATOM     83  C   UNL A   1      48.208  26.915  30.810  1.00  0.00    -0.014 A 
ATOM     84  C   UNL A   1      49.270  27.178  29.928  1.00  0.00     0.010 A 
ATOM     85  C   UNL A   1      48.483  26.293  32.044  1.00  0.00     0.010 A 
ATOM     86  C   UNL A   1      50.574  26.798  30.258  1.00  0.00     0.020 A 
ATOM     87  C   UNL A   1      49.788  25.941  32.391  1.00  0.00     0.020 A 
ATOM     88  C   UNL A   1      50.826  26.183  31.488  1.00  0.00     0.054 A 
BRANCH  88  89
ATOM     89  S   UNL A   1      52.533  25.742  31.911  1.00  0.00     0.124 S 
ATOM     90  O   UNL A   1      53.232  25.995  30.654  1.00  0.00    -0.237 OA
ATOM     91  O   UNL A   1      52.842  26.665  32.999  1.00  0.00    -0.237 OA
ATOM     92  O   UNL A   1      52.443  24.336  32.301  1.00  0.00    -0.744 OA
ENDBRANCH  88  89
ENDBRANCH  62  83
ENDBRANCH  36  37
ENDBRANCH  28  31
ENDBRANCH  26  27
ENDBRANCH   1  26
TORSDOF 16
ENDMDL
MODEL 2
REMARK VINA RESULT:     -10.6      4.473     10.409
REMARK SMILES O=C(C[C@@H]1C[N@@H+]([C@H]2CCO[C@]3(CCOC3)C2)CCO1)NCCCCNC(=O)c1ccc(-c2c3nc(c(-c4ccc(S(=O)(=O)[O-])cc4)c4ccc([nH]4)c(-c4ccc(S(=O)(=O)[O-])cc4)c4nc(c(-c5ccc(S(=O)(=O)[O-])cc5)c5ccc2[nH]5)C=C4)C=C3)cc1
REMARK SMILES IDX 23 1 22 2 21 3 20 4 1 5 2 6 3 8 4 9 5 10 19 11 6 12 18 13
REMARK SMILES IDX 17 14 7 16 8 17 16 18 9 19 11 20 10 21 12 22 15 23 13 24
REMARK SMILES IDX 14 25 24 26 25 27 26 28 27 30 28 31 29 32 87 33 30 34 86 35
REMARK SMILES IDX 31 36 32 37 33 38 80 39 34 40 85 41 79 42 81 43 35 44 84 45
REMARK SMILES IDX 78 46 77 47 36 49 66 50 47 51 65 52 48 53 51 54 64 55 82 56
REMARK SMILES IDX 49 57 50 58 63 60 83 61 52 62 37 63 38 64 46 65 39 66 45 67
REMARK SMILES IDX 40 68 41 69 42 70 43 71 44 72 67 73 68 74 76 75 69 76 75 77
REMARK SMILES IDX 70 78 71 79 72 80 73 81 74 82 53 83 54 84 62 85 55 86 61 87
REMARK SMILES IDX 56 88 57 89 58 90 59 91 60 92
REMARK H PARENT 20 7 6 15 25 29 81 48 51 59
REMARK Flexibility Score: inf
ROOT
ATOM      1  C   UNL A   1      42.134  22.005  27.083  1.00  0.00     0.023 C 
ENDROOT
BRANCH   1   2
ATOM      2  C   UNL A   1      40.640  22.294  27.277  1.00  0.00     0.023 C 
BRANCH   2   3
ATOM      3  C   UNL A   1      39.699  21.299  26.599  1.00  0.00     0.116 C 
BRANCH   3   4
ATOM      4  N   UNL A   1      38.753  21.970  25.731  1.00  0.00    -0.356 N 
ATOM      5  O   UNL A   1      37.828  20.087  24.783  1.00  0.00    -0.275 OA
ATOM      6  C   UNL A   1      37.893  21.308  24.882  1.00  0.00     0.222 C 
ATOM      7  H   UNL A   1      38.722  22.955  25.749  1.00  0.00     0.163 HD
BRANCH   6   8
ATOM      8  C   UNL A   1      36.983  22.235  24.101  1.00  0.00     0.138 C 
BRANCH   8   9
ATOM      9  C   UNL A   1      35.700  22.451  24.899  1.00  0.00     0.182 C 
ATOM     10  C   UNL A   1      35.663  23.835  25.586  1.00  0.00     0.295 C 
ATOM     11  O   UNL A   1      35.542  21.410  25.877  1.00  0.00    -0.366 OA
ATOM     12  N   UNL A   1      34.405  24.088  26.319  1.00  0.00    -0.328 N 
ATOM     13  C   UNL A   1      34.256  21.542  26.506  1.00  0.00     0.222 C 
ATOM     14  C   UNL A   1      34.084  22.924  27.166  1.00  0.00     0.291 C 
ATOM     15  H   UNL A   1      34.527  24.849  26.988  1.00  0.00     0.348 HD
BRANCH  12  16
ATOM     16  C   UNL A   1      33.339  24.713  25.504  1.00  0.00     0.189 C 
ATOM     17  C   UNL A   1      32.209  25.417  26.268  1.00  0.00     0.093 C 
ATOM     18  C   UNL A   1      33.867  25.635  24.384  1.00  0.00     0.103 C 
ATOM     19  C   UNL A   1      31.172  26.011  25.331  1.00  0.00     0.167 C 
ATOM     20  C   UNL A   1      32.723  26.216  23.528  1.00  0.00     0.099 C 
ATOM     21  O   UNL A   1      31.773  26.869  24.373  1.00  0.00    -0.372 OA
ATOM     22  C   UNL A   1      32.063  25.199  22.600  1.00  0.00     0.066 C 
ATOM     23  C   UNL A   1      33.260  27.234  22.522  1.00  0.00     0.195 C 
ATOM     24  C   UNL A   1      32.736  25.388  21.253  1.00  0.00     0.163 C 
ATOM     25  O   UNL A   1      33.640  26.489  21.360  1.00  0.00    -0.378 OA
ENDBRANCH  12  16
ENDBRANCH   8   9
ENDBRANCH   6   8
ENDBRANCH   3   4
ENDBRANCH   2   3
ENDBRANCH   1   2
BRANCH   1  26
ATOM     26  C   UNL A   1      43.044  23.230  27.089  1.00  0.00     0.116 C 
BRANCH  26  27
ATOM     27  N   UNL A   1      42.826  24.096  25.942  1.00  0.00    -0.352 N 
ATOM     28  C   UNL A   1      42.363  25.390  25.899  1.00  0.00     0.251 C 
ATOM     29  H   UNL A   1      43.040  23.698  25.068  1.00  0.00     0.163 HD
ATOM     30  O   UNL A   1      42.090  25.900  24.814  1.00  0.00    -0.269 OA
BRANCH  28  31
ATOM     31  C   UNL A   1      42.168  26.161  27.148  1.00  0.00     0.039 A 
ATOM     32  C   UNL A   1      43.057  27.197  27.448  1.00  0.00     0.014 A 
ATOM     33  C   UNL A   1      41.121  25.867  28.026  1.00  0.00     0.014 A 
ATOM     34  C   UNL A   1      42.853  27.981  28.588  1.00  0.00     0.010 A 
ATOM     35  C   UNL A   1      40.876  26.697  29.120  1.00  0.00     0.010 A 
ATOM     36  C   UNL A   1      41.737  27.765  29.413  1.00  0.00    -0.014 A 
BRANCH  36  37
ATOM     37  C   UNL A   1      41.449  28.654  30.572  1.00  0.00     0.031 A 
ATOM     38  C   UNL A   1      42.246  28.532  31.844  1.00  0.00     0.074 A 
ATOM     39  C   UNL A   1      40.428  29.532  30.503  1.00  0.00     0.049 A 
ATOM     40  N   UNL A   1      42.099  29.176  32.974  1.00  0.00    -0.248 NA
ATOM     41  C   UNL A   1      43.336  27.542  31.857  1.00  0.00     0.031 C 
ATOM     42  C   UNL A   1      39.552  29.723  29.344  1.00  0.00     0.029 A 
ATOM     43  N   UNL A   1      39.946  30.423  31.431  1.00  0.00    -0.354 N 
ATOM     44  C   UNL A   1      43.067  28.666  33.832  1.00  0.00     0.074 A 
ATOM     45  C   UNL A   1      43.758  27.619  33.110  1.00  0.00     0.031 C 
ATOM     46  C   UNL A   1      38.659  30.687  29.621  1.00  0.00     0.029 A 
ATOM     47  C   UNL A   1      38.864  31.150  30.990  1.00  0.00     0.049 A 
ATOM     48  H   UNL A   1      40.337  30.531  32.327  1.00  0.00     0.167 HD
ATOM     49  C   UNL A   1      43.368  29.046  35.097  1.00  0.00     0.031 A 
ATOM     50  C   UNL A   1      38.112  32.076  31.616  1.00  0.00     0.031 A 
ATOM     51  C   UNL A   1      42.679  30.087  35.815  1.00  0.00     0.049 A 
ATOM     52  C   UNL A   1      38.447  32.462  33.032  1.00  0.00     0.074 A 
ATOM     53  C   UNL A   1      42.940  30.573  37.084  1.00  0.00     0.029 A 
ATOM     54  N   UNL A   1      41.594  30.800  35.330  1.00  0.00    -0.354 N 
ATOM     55  N   UNL A   1      39.407  32.009  33.803  1.00  0.00    -0.248 NA
ATOM     56  C   UNL A   1      37.607  33.493  33.656  1.00  0.00     0.031 C 
ATOM     57  C   UNL A   1      41.975  31.538  37.390  1.00  0.00     0.029 A 
ATOM     58  C   UNL A   1      41.156  31.703  36.285  1.00  0.00     0.049 A 
ATOM     59  H   UNL A   1      41.192  30.683  34.439  1.00  0.00     0.167 HD
ATOM     60  C   UNL A   1      39.302  32.721  34.993  1.00  0.00     0.074 A 
ATOM     61  C   UNL A   1      38.199  33.645  34.833  1.00  0.00     0.031 C 
ATOM     62  C   UNL A   1      40.055  32.619  36.117  1.00  0.00     0.031 A 
BRANCH  49  63
ATOM     63  C   UNL A   1      44.493  28.322  35.794  1.00  0.00    -0.014 A 
ATOM     64  C   UNL A   1      44.251  27.158  36.548  1.00  0.00     0.010 A 
ATOM     65  C   UNL A   1      45.815  28.782  35.657  1.00  0.00     0.010 A 
ATOM     66  C   UNL A   1      45.303  26.495  37.186  1.00  0.00     0.020 A 
ATOM     67  C   UNL A   1      46.875  28.103  36.267  1.00  0.00     0.020 A 
ATOM     68  C   UNL A   1      46.608  26.973  37.043  1.00  0.00     0.054 A 
BRANCH  68  69
ATOM     69  S   UNL A   1      47.956  26.079  37.864  1.00  0.00     0.124 S 
ATOM     70  O   UNL A   1      47.490  24.697  37.787  1.00  0.00    -0.237 OA
ATOM     71  O   UNL A   1      49.109  26.401  37.027  1.00  0.00    -0.237 OA
ATOM     72  O   UNL A   1      47.985  26.651  39.208  1.00  0.00    -0.744 OA
ENDBRANCH  68  69
ENDBRANCH  49  63
BRANCH  50  73
ATOM     73  C   UNL A   1      36.962  32.705  30.905  1.00  0.00    -0.014 A 
ATOM     74  C   UNL A   1      37.146  33.859  30.123  1.00  0.00     0.010 A 
ATOM     75  C   UNL A   1      35.675  32.144  31.003  1.00  0.00     0.010 A 
ATOM     76  C   UNL A   1      36.061  34.451  29.469  1.00  0.00     0.020 A 
ATOM     77  C   UNL A   1      34.595  32.715  30.323  1.00  0.00     0.020 A 
ATOM     78  C   UNL A   1      34.793  33.873  29.569  1.00  0.00     0.054 A 
BRANCH  78  79
ATOM     79  S   UNL A   1      33.411  34.630  28.670  1.00  0.00     0.124 S 
ATOM     80  O   UNL A   1      32.894  33.500  27.904  1.00  0.00    -0.237 OA
ATOM     81  O   UNL A   1      32.556  35.107  29.753  1.00  0.00    -0.237 OA
ATOM     82  O   UNL A   1      34.052  35.680  27.881  1.00  0.00    -0.744 OA
ENDBRANCH  78  79
ENDBRANCH  50  73
BRANCH  62  83
ATOM     83  C   UNL A   1      39.740  33.556  37.254  1.00  0.00    -0.014 A 
ATOM     84  C   UNL A   1      38.873  33.180  38.296  1.00  0.00     0.010 A 
ATOM     85  C   UNL A   1      40.369  34.814  37.309  1.00  0.00     0.010 A 
ATOM     86  C   UNL A   1      38.615  34.059  39.352  1.00  0.00     0.020 A 
ATOM     87  C   UNL A   1      40.139  35.682  38.378  1.00  0.00     0.020 A 
ATOM     88  C   UNL A   1      39.251  35.304  39.388  1.00  0.00     0.054 A 
BRANCH  88  89
ATOM     89  S   UNL A   1      38.934  36.406  40.793  1.00  0.00     0.124 S 
ATOM     90  O   UNL A   1      37.897  35.679  41.521  1.00  0.00    -0.237 OA
ATOM     91  O   UNL A   1      40.236  36.469  41.450  1.00  0.00    -0.237 OA
ATOM     92  O   UNL A   1      38.497  37.652  40.166  1.00  0.00    -0.744 OA
ENDBRANCH  88  89
ENDBRANCH  62  83
ENDBRANCH  36  37
ENDBRANCH  28  31
ENDBRANCH  26  27
ENDBRANCH   1  26
TORSDOF 16
ENDMDL
MODEL 3
REMARK VINA RESULT:     -10.5      2.618      9.303
REMARK SMILES O=C(C[C@@H]1C[N@@H+]([C@H]2CCO[C@]3(CCOC3)C2)CCO1)NCCCCNC(=O)c1ccc(-c2c3nc(c(-c4ccc(S(=O)(=O)[O-])cc4)c4ccc([nH]4)c(-c4ccc(S(=O)(=O)[O-])cc4)c4nc(c(-c5ccc(S(=O)(=O)[O-])cc5)c5ccc2[nH]5)C=C4)C=C3)cc1
REMARK SMILES IDX 23 1 22 2 21 3 20 4 1 5 2 6 3 8 4 9 5 10 19 11 6 12 18 13
REMARK SMILES IDX 17 14 7 16 8 17 16 18 9 19 11 20 10 21 12 22 15 23 13 24
REMARK SMILES IDX 14 25 24 26 25 27 26 28 27 30 28 31 29 32 87 33 30 34 86 35
REMARK SMILES IDX 31 36 32 37 33 38 80 39 34 40 85 41 79 42 81 43 35 44 84 45
REMARK SMILES IDX 78 46 77 47 36 49 66 50 47 51 65 52 48 53 51 54 64 55 82 56
REMARK SMILES IDX 49 57 50 58 63 60 83 61 52 62 37 63 38 64 46 65 39 66 45 67
REMARK SMILES IDX 40 68 41 69 42 70 43 71 44 72 67 73 68 74 76 75 69 76 75 77
REMARK SMILES IDX 70 78 71 79 72 80 73 81 74 82 53 83 54 84 62 85 55 86 61 87
REMARK SMILES IDX 56 88 57 89 58 90 59 91 60 92
REMARK H PARENT 20 7 6 15 25 29 81 48 51 59
REMARK Flexibility Score: inf
ROOT
ATOM      1  C   UNL A   1      35.438  23.204  25.839  1.00  0.00     0.023 C 
ENDROOT
BRANCH   1   2
ATOM      2  C   UNL A   1      35.373  21.708  26.170  1.00  0.00     0.023 C 
BRANCH   2   3
ATOM      3  C   UNL A   1      34.927  20.813  25.014  1.00  0.00     0.116 C 
BRANCH   3   4
ATOM      4  N   UNL A   1      34.019  21.508  24.124  1.00  0.00    -0.356 N 
ATOM      5  O   UNL A   1      32.066  20.551  24.880  1.00  0.00    -0.275 OA
ATOM      6  C   UNL A   1      32.655  21.315  24.123  1.00  0.00     0.222 C 
ATOM      7  H   UNL A   1      34.397  22.155  23.485  1.00  0.00     0.163 HD
BRANCH   6   8
ATOM      8  C   UNL A   1      31.923  22.183  23.118  1.00  0.00     0.138 C 
BRANCH   8   9
ATOM      9  C   UNL A   1      32.452  23.610  23.224  1.00  0.00     0.182 C 
ATOM     10  C   UNL A   1      31.394  24.659  22.812  1.00  0.00     0.295 C 
ATOM     11  O   UNL A   1      33.635  23.762  22.423  1.00  0.00    -0.366 OA
ATOM     12  N   UNL A   1      31.866  26.051  22.961  1.00  0.00    -0.328 N 
ATOM     13  C   UNL A   1      34.204  25.061  22.661  1.00  0.00     0.222 C 
ATOM     14  C   UNL A   1      33.201  26.189  22.349  1.00  0.00     0.291 C 
ATOM     15  H   UNL A   1      31.283  26.687  22.416  1.00  0.00     0.348 HD
BRANCH  12  16
ATOM     16  C   UNL A   1      31.610  26.644  24.293  1.00  0.00     0.189 C 
ATOM     17  C   UNL A   1      30.842  25.775  25.300  1.00  0.00     0.093 C 
ATOM     18  C   UNL A   1      32.868  27.236  24.966  1.00  0.00     0.103 C 
ATOM     19  C   UNL A   1      30.633  26.488  26.624  1.00  0.00     0.167 C 
ATOM     20  C   UNL A   1      32.541  27.891  26.324  1.00  0.00     0.099 C 
ATOM     21  O   UNL A   1      31.862  26.951  27.161  1.00  0.00    -0.372 OA
ATOM     22  C   UNL A   1      31.783  29.211  26.210  1.00  0.00     0.066 C 
ATOM     23  C   UNL A   1      33.819  28.340  27.033  1.00  0.00     0.195 C 
ATOM     24  C   UNL A   1      32.843  30.293  26.307  1.00  0.00     0.163 C 
ATOM     25  O   UNL A   1      34.099  29.661  26.557  1.00  0.00    -0.378 OA
ENDBRANCH  12  16
ENDBRANCH   8   9
ENDBRANCH   6   8
ENDBRANCH   3   4
ENDBRANCH   2   3
ENDBRANCH   1   2
BRANCH   1  26
ATOM     26  C   UNL A   1      36.797  23.713  25.367  1.00  0.00     0.116 C 
BRANCH  26  27
ATOM     27  N   UNL A   1      37.874  22.776  25.643  1.00  0.00    -0.352 N 
ATOM     28  C   UNL A   1      39.099  22.998  26.226  1.00  0.00     0.251 C 
ATOM     29  H   UNL A   1      37.701  21.846  25.371  1.00  0.00     0.163 HD
ATOM     30  O   UNL A   1      39.943  22.104  26.222  1.00  0.00    -0.269 OA
BRANCH  28  31
ATOM     31  C   UNL A   1      39.415  24.311  26.833  1.00  0.00     0.039 A 
ATOM     32  C   UNL A   1      39.017  24.561  28.149  1.00  0.00     0.014 A 
ATOM     33  C   UNL A   1      40.095  25.298  26.114  1.00  0.00     0.014 A 
ATOM     34  C   UNL A   1      39.362  25.768  28.765  1.00  0.00     0.010 A 
ATOM     35  C   UNL A   1      40.504  26.468  26.752  1.00  0.00     0.010 A 
ATOM     36  C   UNL A   1      40.146  26.716  28.086  1.00  0.00    -0.014 A 
BRANCH  36  37
ATOM     37  C   UNL A   1      40.608  27.960  28.759  1.00  0.00     0.031 A 
ATOM     38  C   UNL A   1      41.990  28.039  29.353  1.00  0.00     0.074 A 
ATOM     39  C   UNL A   1      39.762  29.002  28.892  1.00  0.00     0.049 A 
ATOM     40  N   UNL A   1      42.543  29.016  30.028  1.00  0.00    -0.248 NA
ATOM     41  C   UNL A   1      42.856  26.861  29.188  1.00  0.00     0.031 C 
ATOM     42  C   UNL A   1      38.383  29.042  28.397  1.00  0.00     0.029 A 
ATOM     43  N   UNL A   1      39.932  30.227  29.490  1.00  0.00    -0.354 N 
ATOM     44  C   UNL A   1      43.813  28.568  30.374  1.00  0.00     0.074 A 
ATOM     45  C   UNL A   1      43.928  27.211  29.884  1.00  0.00     0.031 C 
ATOM     46  C   UNL A   1      37.845  30.236  28.689  1.00  0.00     0.029 A 
ATOM     47  C   UNL A   1      38.817  31.030  29.433  1.00  0.00     0.049 A 
ATOM     48  H   UNL A   1      40.773  30.503  29.920  1.00  0.00     0.167 HD
ATOM     49  C   UNL A   1      44.802  29.230  31.022  1.00  0.00     0.031 A 
ATOM     50  C   UNL A   1      38.593  32.263  29.930  1.00  0.00     0.031 A 
ATOM     51  C   UNL A   1      44.686  30.580  31.510  1.00  0.00     0.049 A 
ATOM     52  C   UNL A   1      39.697  32.968  30.672  1.00  0.00     0.074 A 
ATOM     53  C   UNL A   1      45.648  31.351  32.140  1.00  0.00     0.029 A 
ATOM     54  N   UNL A   1      43.542  31.358  31.427  1.00  0.00    -0.354 N 
ATOM     55  N   UNL A   1      40.912  32.548  30.934  1.00  0.00    -0.248 NA
ATOM     56  C   UNL A   1      39.403  34.318  31.172  1.00  0.00     0.031 C 
ATOM     57  C   UNL A   1      45.067  32.574  32.492  1.00  0.00     0.029 A 
ATOM     58  C   UNL A   1      43.765  32.591  32.018  1.00  0.00     0.049 A 
ATOM     59  H   UNL A   1      42.696  31.078  31.010  1.00  0.00     0.167 HD
ATOM     60  C   UNL A   1      41.536  33.594  31.605  1.00  0.00     0.074 A 
ATOM     61  C   UNL A   1      40.572  34.671  31.693  1.00  0.00     0.031 C 
ATOM     62  C   UNL A   1      42.797  33.657  32.102  1.00  0.00     0.031 A 
BRANCH  49  63
ATOM     63  C   UNL A   1      46.100  28.497  31.249  1.00  0.00    -0.014 A 
ATOM     64  C   UNL A   1      46.278  27.664  32.370  1.00  0.00     0.010 A 
ATOM     65  C   UNL A   1      47.140  28.604  30.308  1.00  0.00     0.010 A 
ATOM     66  C   UNL A   1      47.485  26.988  32.566  1.00  0.00     0.020 A 
ATOM     67  C   UNL A   1      48.338  27.904  30.484  1.00  0.00     0.020 A 
ATOM     68  C   UNL A   1      48.508  27.114  31.623  1.00  0.00     0.054 A 
BRANCH  68  69
ATOM     69  S   UNL A   1      50.056  26.207  31.894  1.00  0.00     0.124 S 
ATOM     70  O   UNL A   1      50.141  26.188  33.352  1.00  0.00    -0.237 OA
ATOM     71  O   UNL A   1      49.783  24.917  31.265  1.00  0.00    -0.237 OA
ATOM     72  O   UNL A   1      51.061  27.026  31.223  1.00  0.00    -0.744 OA
ENDBRANCH  68  69
ENDBRANCH  49  63
BRANCH  50  73
ATOM     73  C   UNL A   1      37.264  32.911  29.743  1.00  0.00    -0.014 A 
ATOM     74  C   UNL A   1      36.288  32.854  30.754  1.00  0.00     0.010 A 
ATOM     75  C   UNL A   1      36.972  33.599  28.550  1.00  0.00     0.010 A 
ATOM     76  C   UNL A   1      35.039  33.452  30.567  1.00  0.00     0.020 A 
ATOM     77  C   UNL A   1      35.736  34.227  28.374  1.00  0.00     0.020 A 
ATOM     78  C   UNL A   1      34.772  34.139  29.379  1.00  0.00     0.054 A 
BRANCH  78  79
ATOM     79  S   UNL A   1      33.162  34.953  29.181  1.00  0.00     0.124 S 
ATOM     80  O   UNL A   1      32.534  34.134  28.149  1.00  0.00    -0.237 OA
ATOM     81  O   UNL A   1      32.586  34.840  30.518  1.00  0.00    -0.237 OA
ATOM     82  O   UNL A   1      33.514  36.312  28.774  1.00  0.00    -0.744 OA
ENDBRANCH  78  79
ENDBRANCH  50  73
BRANCH  62  83
ATOM     83  C   UNL A   1      43.225  34.946  32.754  1.00  0.00    -0.014 A 
ATOM     84  C   UNL A   1      43.744  36.014  32.000  1.00  0.00     0.010 A 
ATOM     85  C   UNL A   1      43.052  35.111  34.142  1.00  0.00     0.010 A 
ATOM     86  C   UNL A   1      44.111  37.208  32.626  1.00  0.00     0.020 A 
ATOM     87  C   UNL A   1      43.388  36.314  34.766  1.00  0.00     0.020 A 
ATOM     88  C   UNL A   1      43.930  37.352  34.005  1.00  0.00     0.054 A 
BRANCH  88  89
ATOM     89  S   UNL A   1      44.373  38.928  34.785  1.00  0.00     0.124 S 
ATOM     90  O   UNL A   1      44.120  38.650  36.196  1.00  0.00    -0.237 OA
ATOM     91  O   UNL A   1      45.777  39.083  34.417  1.00  0.00    -0.237 OA
ATOM     92  O   UNL A   1      43.463  39.890  34.167  1.00  0.00    -0.744 OA
ENDBRANCH  88  89
ENDBRANCH  62  83
ENDBRANCH  36  37
ENDBRANCH  28  31
ENDBRANCH  26  27
ENDBRANCH   1  26
TORSDOF 16
ENDMDL
