MODEL 1
REMARK VINA RESULT:     -11.0      0.000      0.000
REMARK SMILES C[C@@H](NC(=O)CCCN1C(=O)/C(=C/c2c3ccccc3cc3ccccc23)SC1=S)C(=O)NCCCCNC(=O)c1ccc(-c2c3nc(c(-c4ccc(S(=O)(=O)[O-])cc4)c4ccc([nH]4)c(-c4ccc(S(=O)(=O)[O-])cc4)c4nc(c(-c5ccc(S(=O)(=O)[O-])cc5)c5ccc2[nH]5)C=C4)C=C3)cc1
REMARK SMILES IDX 34 1 33 2 31 3 32 4 2 6 1 7 3 8 4 9 5 11 6 12 7 13 8 14 9 15
REMARK SMILES IDX 10 16 29 17 11 18 12 19 28 20 30 21 13 22 14 23 15 24 27 25
REMARK SMILES IDX 16 26 20 27 22 28 26 29 17 30 19 31 21 32 23 33 25 34 18 35
REMARK SMILES IDX 24 36 35 37 36 38 37 39 38 40 39 41 40 43 41 44 42 45 100 46
REMARK SMILES IDX 43 47 99 48 44 49 45 50 46 51 93 52 47 53 98 54 92 55 94 56
REMARK SMILES IDX 48 57 97 58 91 59 90 60 49 62 79 63 60 64 78 65 61 66 64 67
REMARK SMILES IDX 77 68 95 69 62 70 63 71 76 73 96 74 65 75 50 76 51 77 59 78
REMARK SMILES IDX 52 79 58 80 53 81 54 82 55 83 56 84 57 85 80 86 81 87 89 88
REMARK SMILES IDX 82 89 88 90 83 91 84 92 85 93 86 94 87 95 66 96 67 97 75 98
REMARK SMILES IDX 68 99 74 100 69 101 70 102 71 103 72 104 73 105
REMARK H PARENT 33 5 3 10 38 42 94 61 64 72
REMARK Flexibility Score: inf
ROOT
ATOM      1  C   UNL A   1      44.641  25.427  31.760  1.00  0.00     0.116 C 
ENDROOT
BRANCH   1   2
ATOM      2  N   UNL A   1      43.959  24.469  30.755  1.00  0.00    -0.354 N 
ATOM      3  C   UNL A   1      44.155  23.755  29.561  1.00  0.00     0.242 C 
ATOM      4  O   UNL A   1      43.810  22.565  29.731  1.00  0.00    -0.273 OA
ATOM      5  H   UNL A   1      43.044  24.293  31.071  1.00  0.00     0.163 HD
BRANCH   3   6
ATOM      6  C   UNL A   1      44.778  24.093  27.926  1.00  0.00     0.168 C 
ATOM      7  C   UNL A   1      45.783  25.160  27.295  1.00  0.00     0.041 C 
BRANCH   6   8
ATOM      8  N   UNL A   1      44.980  22.950  27.077  1.00  0.00    -0.345 N 
ATOM      9  C   UNL A   1      43.942  22.484  26.341  1.00  0.00     0.220 C 
ATOM     10  H   UNL A   1      45.860  22.512  27.032  1.00  0.00     0.164 HD
ATOM     11  O   UNL A   1      43.952  21.383  25.831  1.00  0.00    -0.275 OA
BRANCH   9  12
ATOM     12  C   UNL A   1      42.855  23.518  26.185  1.00  0.00     0.102 C 
BRANCH  12  13
ATOM     13  C   UNL A   1      41.408  23.139  26.824  1.00  0.00     0.032 C 
BRANCH  13  14
ATOM     14  C   UNL A   1      40.023  22.120  26.402  1.00  0.00     0.128 C 
BRANCH  14  15
ATOM     15  N   UNL A   1      38.445  22.287  26.010  1.00  0.00    -0.293 N 
ATOM     16  C   UNL A   1      37.815  23.511  26.391  1.00  0.00     0.266 C 
ATOM     17  C   UNL A   1      37.705  21.828  24.908  1.00  0.00     0.148 C 
ATOM     18  O   UNL A   1      38.183  24.318  27.218  1.00  0.00    -0.268 OA
ATOM     19  C   UNL A   1      36.660  23.816  25.441  1.00  0.00     0.081 C 
ATOM     20  S   UNL A   1      37.224  23.207  23.931  1.00  0.00    -0.054 SA
ATOM     21  S   UNL A   1      36.611  20.536  24.741  1.00  0.00    -0.052 S 
ATOM     22  C   UNL A   1      35.384  24.073  25.800  1.00  0.00     0.030 C 
BRANCH  22  23
ATOM     23  C   UNL A   1      34.146  23.751  24.980  1.00  0.00    -0.009 A 
ATOM     24  C   UNL A   1      33.572  22.424  25.092  1.00  0.00    -0.010 A 
ATOM     25  C   UNL A   1      33.587  24.680  24.039  1.00  0.00    -0.010 A 
ATOM     26  C   UNL A   1      34.010  21.408  25.983  1.00  0.00     0.009 A 
ATOM     27  C   UNL A   1      32.496  22.060  24.237  1.00  0.00    -0.017 A 
ATOM     28  C   UNL A   1      32.540  24.249  23.180  1.00  0.00    -0.017 A 
ATOM     29  C   UNL A   1      34.016  26.018  23.871  1.00  0.00     0.009 A 
ATOM     30  C   UNL A   1      33.429  20.131  26.021  1.00  0.00     0.001 A 
ATOM     31  C   UNL A   1      31.918  20.778  24.284  1.00  0.00     0.009 A 
ATOM     32  C   UNL A   1      32.008  22.967  23.302  1.00  0.00     0.017 A 
ATOM     33  C   UNL A   1      32.034  25.090  22.176  1.00  0.00     0.009 A 
ATOM     34  C   UNL A   1      33.522  26.840  22.852  1.00  0.00     0.001 A 
ATOM     35  C   UNL A   1      32.382  19.814  25.169  1.00  0.00     0.001 A 
ATOM     36  C   UNL A   1      32.539  26.371  21.995  1.00  0.00     0.001 A 
ENDBRANCH  22  23
ENDBRANCH  14  15
ENDBRANCH  13  14
ENDBRANCH  12  13
ENDBRANCH   9  12
ENDBRANCH   6   8
ENDBRANCH   3   6
ENDBRANCH   1   2
BRANCH   1  37
ATOM     37  C   UNL A   1      46.171  25.325  32.028  1.00  0.00     0.023 C 
BRANCH  37  38
ATOM     38  C   UNL A   1      46.710  25.431  33.463  1.00  0.00     0.023 C 
BRANCH  38  39
ATOM     39  C   UNL A   1      47.750  26.489  33.760  1.00  0.00     0.116 C 
BRANCH  39  40
ATOM     40  N   UNL A   1      48.605  26.245  34.913  1.00  0.00    -0.352 N 
ATOM     41  C   UNL A   1      48.421  26.792  36.175  1.00  0.00     0.251 C 
ATOM     42  H   UNL A   1      49.376  25.646  34.786  1.00  0.00     0.163 HD
ATOM     43  O   UNL A   1      49.188  26.568  37.098  1.00  0.00    -0.269 OA
BRANCH  41  44
ATOM     44  C   UNL A   1      47.272  27.715  36.332  1.00  0.00     0.039 A 
ATOM     45  C   UNL A   1      47.386  29.020  35.849  1.00  0.00     0.014 A 
ATOM     46  C   UNL A   1      46.030  27.178  36.673  1.00  0.00     0.014 A 
ATOM     47  C   UNL A   1      46.225  29.757  35.608  1.00  0.00     0.010 A 
ATOM     48  C   UNL A   1      44.879  27.871  36.325  1.00  0.00     0.010 A 
ATOM     49  C   UNL A   1      44.962  29.165  35.785  1.00  0.00    -0.014 A 
BRANCH  49  50
ATOM     50  C   UNL A   1      43.714  29.884  35.420  1.00  0.00     0.031 A 
ATOM     51  C   UNL A   1      43.169  29.752  34.023  1.00  0.00     0.074 A 
ATOM     52  C   UNL A   1      43.107  30.696  36.311  1.00  0.00     0.049 A 
ATOM     53  N   UNL A   1      42.121  30.323  33.489  1.00  0.00    -0.248 NA
ATOM     54  C   UNL A   1      43.919  28.888  33.095  1.00  0.00     0.031 C 
ATOM     55  C   UNL A   1      43.567  30.956  37.679  1.00  0.00     0.029 A 
ATOM     56  N   UNL A   1      41.967  31.455  36.201  1.00  0.00    -0.354 N 
ATOM     57  C   UNL A   1      42.097  29.898  32.167  1.00  0.00     0.074 A 
ATOM     58  C   UNL A   1      43.273  29.085  31.957  1.00  0.00     0.031 C 
ATOM     59  C   UNL A   1      42.699  31.782  38.289  1.00  0.00     0.029 A 
ATOM     60  C   UNL A   1      41.643  32.144  37.349  1.00  0.00     0.049 A 
ATOM     61  H   UNL A   1      41.431  31.503  35.377  1.00  0.00     0.167 HD
ATOM     62  C   UNL A   1      41.161  30.129  31.218  1.00  0.00     0.031 A 
ATOM     63  C   UNL A   1      40.613  32.974  37.613  1.00  0.00     0.031 A 
ATOM     64  C   UNL A   1      39.986  30.927  31.432  1.00  0.00     0.049 A 
ATOM     65  C   UNL A   1      39.589  33.227  36.538  1.00  0.00     0.074 A 
ATOM     66  C   UNL A   1      38.951  31.185  30.553  1.00  0.00     0.029 A 
ATOM     67  N   UNL A   1      39.691  31.597  32.610  1.00  0.00    -0.354 N 
ATOM     68  N   UNL A   1      39.544  32.753  35.315  1.00  0.00    -0.248 NA
ATOM     69  C   UNL A   1      38.470  34.116  36.881  1.00  0.00     0.031 C 
ATOM     70  C   UNL A   1      38.058  32.059  31.180  1.00  0.00     0.029 A 
ATOM     71  C   UNL A   1      38.501  32.289  32.473  1.00  0.00     0.049 A 
ATOM     72  H   UNL A   1      40.246  31.582  33.423  1.00  0.00     0.167 HD
ATOM     73  C   UNL A   1      38.378  33.262  34.753  1.00  0.00     0.074 A 
ATOM     74  C   UNL A   1      37.739  34.066  35.775  1.00  0.00     0.031 C 
ATOM     75  C   UNL A   1      37.880  33.082  33.504  1.00  0.00     0.031 A 
BRANCH  62  76
ATOM     76  C   UNL A   1      41.378  29.503  29.865  1.00  0.00    -0.014 A 
ATOM     77  C   UNL A   1      42.304  30.047  28.955  1.00  0.00     0.010 A 
ATOM     78  C   UNL A   1      40.667  28.345  29.506  1.00  0.00     0.010 A 
ATOM     79  C   UNL A   1      42.482  29.471  27.696  1.00  0.00     0.020 A 
ATOM     80  C   UNL A   1      40.867  27.745  28.260  1.00  0.00     0.020 A 
ATOM     81  C   UNL A   1      41.763  28.322  27.357  1.00  0.00     0.054 A 
BRANCH  81  82
ATOM     82  S   UNL A   1      42.039  27.577  25.726  1.00  0.00     0.124 S 
ATOM     83  O   UNL A   1      43.401  27.064  25.858  1.00  0.00    -0.237 OA
ATOM     84  O   UNL A   1      40.990  26.564  25.658  1.00  0.00    -0.237 OA
ATOM     85  O   UNL A   1      41.882  28.697  24.802  1.00  0.00    -0.744 OA
ENDBRANCH  81  82
ENDBRANCH  62  76
BRANCH  63  86
ATOM     86  C   UNL A   1      40.489  33.613  38.955  1.00  0.00    -0.014 A 
ATOM     87  C   UNL A   1      40.904  34.942  39.162  1.00  0.00     0.010 A 
ATOM     88  C   UNL A   1      39.952  32.893  40.038  1.00  0.00     0.010 A 
ATOM     89  C   UNL A   1      40.803  35.529  40.429  1.00  0.00     0.020 A 
ATOM     90  C   UNL A   1      39.821  33.486  41.298  1.00  0.00     0.020 A 
ATOM     91  C   UNL A   1      40.259  34.798  41.487  1.00  0.00     0.054 A 
BRANCH  91  92
ATOM     92  S   UNL A   1      40.093  35.596  43.110  1.00  0.00     0.124 S 
ATOM     93  O   UNL A   1      41.055  36.688  43.012  1.00  0.00    -0.237 OA
ATOM     94  O   UNL A   1      38.685  35.989  43.123  1.00  0.00    -0.237 OA
ATOM     95  O   UNL A   1      40.443  34.533  44.051  1.00  0.00    -0.744 OA
ENDBRANCH  91  92
ENDBRANCH  63  86
BRANCH  75  96
ATOM     96  C   UNL A   1      36.561  33.732  33.179  1.00  0.00    -0.014 A 
ATOM     97  C   UNL A   1      36.496  34.930  32.446  1.00  0.00     0.010 A 
ATOM     98  C   UNL A   1      35.365  33.095  33.560  1.00  0.00     0.010 A 
ATOM     99  C   UNL A   1      35.258  35.495  32.128  1.00  0.00     0.020 A 
ATOM    100  C   UNL A   1      34.127  33.639  33.215  1.00  0.00     0.020 A 
ATOM    101  C   UNL A   1      34.081  34.844  32.513  1.00  0.00     0.054 A 
BRANCH 101 102
ATOM    102  S   UNL A   1      32.489  35.575  32.046  1.00  0.00     0.124 S 
ATOM    103  O   UNL A   1      32.624  36.941  32.545  1.00  0.00    -0.237 OA
ATOM    104  O   UNL A   1      32.487  35.434  30.592  1.00  0.00    -0.237 OA
ATOM    105  O   UNL A   1      31.508  34.749  32.748  1.00  0.00    -0.744 OA
ENDBRANCH 101 102
ENDBRANCH  75  96
ENDBRANCH  49  50
ENDBRANCH  41  44
ENDBRANCH  39  40
ENDBRANCH  38  39
ENDBRANCH  37  38
ENDBRANCH   1  37
TORSDOF 20
ENDMDL
MODEL 2
REMARK VINA RESULT:     -10.8      6.324     12.285
REMARK SMILES C[C@@H](NC(=O)CCCN1C(=O)/C(=C/c2c3ccccc3cc3ccccc23)SC1=S)C(=O)NCCCCNC(=O)c1ccc(-c2c3nc(c(-c4ccc(S(=O)(=O)[O-])cc4)c4ccc([nH]4)c(-c4ccc(S(=O)(=O)[O-])cc4)c4nc(c(-c5ccc(S(=O)(=O)[O-])cc5)c5ccc2[nH]5)C=C4)C=C3)cc1
REMARK SMILES IDX 34 1 33 2 31 3 32 4 2 6 1 7 3 8 4 9 5 11 6 12 7 13 8 14 9 15
REMARK SMILES IDX 10 16 29 17 11 18 12 19 28 20 30 21 13 22 14 23 15 24 27 25
REMARK SMILES IDX 16 26 20 27 22 28 26 29 17 30 19 31 21 32 23 33 25 34 18 35
REMARK SMILES IDX 24 36 35 37 36 38 37 39 38 40 39 41 40 43 41 44 42 45 100 46
REMARK SMILES IDX 43 47 99 48 44 49 45 50 46 51 93 52 47 53 98 54 92 55 94 56
REMARK SMILES IDX 48 57 97 58 91 59 90 60 49 62 79 63 60 64 78 65 61 66 64 67
REMARK SMILES IDX 77 68 95 69 62 70 63 71 76 73 96 74 65 75 50 76 51 77 59 78
REMARK SMILES IDX 52 79 58 80 53 81 54 82 55 83 56 84 57 85 80 86 81 87 89 88
REMARK SMILES IDX 82 89 88 90 83 91 84 92 85 93 86 94 87 95 66 96 67 97 75 98
REMARK SMILES IDX 68 99 74 100 69 101 70 102 71 103 72 104 73 105
REMARK H PARENT 33 5 3 10 38 42 94 61 64 72
REMARK Flexibility Score: inf
ROOT
ATOM      1  C   UNL A   1      54.398  31.514  27.064  1.00  0.00     0.116 C 
ENDROOT
BRANCH   1   2
ATOM      2  N   UNL A   1      54.539  29.974  27.038  1.00  0.00    -0.354 N 
ATOM      3  C   UNL A   1      54.020  28.799  26.468  1.00  0.00     0.242 C 
ATOM      4  O   UNL A   1      54.960  28.111  26.014  1.00  0.00    -0.273 OA
ATOM      5  H   UNL A   1      55.265  29.722  27.652  1.00  0.00     0.163 HD
BRANCH   3   6
ATOM      6  C   UNL A   1      52.413  28.075  26.206  1.00  0.00     0.168 C 
ATOM      7  C   UNL A   1      50.960  28.638  25.862  1.00  0.00     0.041 C 
BRANCH   6   8
ATOM      8  N   UNL A   1      52.396  26.788  25.567  1.00  0.00    -0.345 N 
ATOM      9  C   UNL A   1      52.499  25.672  26.329  1.00  0.00     0.220 C 
ATOM     10  H   UNL A   1      52.310  26.717  24.588  1.00  0.00     0.164 HD
ATOM     11  O   UNL A   1      52.771  24.587  25.857  1.00  0.00    -0.275 OA
BRANCH   9  12
ATOM     12  C   UNL A   1      52.160  25.945  27.773  1.00  0.00     0.102 C 
BRANCH  12  13
ATOM     13  C   UNL A   1      50.613  25.693  28.206  1.00  0.00     0.032 C 
BRANCH  13  14
ATOM     14  C   UNL A   1      49.213  24.805  27.586  1.00  0.00     0.128 C 
BRANCH  14  15
ATOM     15  N   UNL A   1      47.581  24.855  27.679  1.00  0.00    -0.293 N 
ATOM     16  C   UNL A   1      47.024  25.625  28.745  1.00  0.00     0.266 C 
ATOM     17  C   UNL A   1      46.590  24.843  26.684  1.00  0.00     0.148 C 
ATOM     18  O   UNL A   1      47.566  26.001  29.763  1.00  0.00    -0.268 OA
ATOM     19  C   UNL A   1      45.639  26.130  28.349  1.00  0.00     0.081 C 
ATOM     20  S   UNL A   1      45.794  26.410  26.655  1.00  0.00    -0.054 SA
ATOM     21  S   UNL A   1      45.555  23.611  26.136  1.00  0.00    -0.052 S 
ATOM     22  C   UNL A   1      44.500  25.959  29.053  1.00  0.00     0.030 C 
BRANCH  22  23
ATOM     23  C   UNL A   1      43.101  25.846  28.471  1.00  0.00    -0.009 A 
ATOM     24  C   UNL A   1      42.498  24.530  28.376  1.00  0.00    -0.010 A 
ATOM     25  C   UNL A   1      42.401  26.978  27.932  1.00  0.00    -0.010 A 
ATOM     26  C   UNL A   1      43.065  23.326  28.873  1.00  0.00     0.009 A 
ATOM     27  C   UNL A   1      41.249  24.386  27.716  1.00  0.00    -0.017 A 
ATOM     28  C   UNL A   1      41.175  26.771  27.245  1.00  0.00    -0.017 A 
ATOM     29  C   UNL A   1      42.851  28.318  28.009  1.00  0.00     0.009 A 
ATOM     30  C   UNL A   1      42.443  22.077  28.723  1.00  0.00     0.001 A 
ATOM     31  C   UNL A   1      40.630  23.130  27.572  1.00  0.00     0.009 A 
ATOM     32  C   UNL A   1      40.618  25.496  27.162  1.00  0.00     0.017 A 
ATOM     33  C   UNL A   1      40.509  27.833  26.614  1.00  0.00     0.009 A 
ATOM     34  C   UNL A   1      42.192  29.366  27.356  1.00  0.00     0.001 A 
ATOM     35  C   UNL A   1      41.224  21.978  28.070  1.00  0.00     0.001 A 
ATOM     36  C   UNL A   1      41.027  29.121  26.647  1.00  0.00     0.001 A 
ENDBRANCH  22  23
ENDBRANCH  14  15
ENDBRANCH  13  14
ENDBRANCH  12  13
ENDBRANCH   9  12
ENDBRANCH   6   8
ENDBRANCH   3   6
ENDBRANCH   1   2
BRANCH   1  37
ATOM     37  C   UNL A   1      53.186  32.203  26.372  1.00  0.00     0.023 C 
BRANCH  37  38
ATOM     38  C   UNL A   1      51.799  32.168  27.033  1.00  0.00     0.023 C 
BRANCH  38  39
ATOM     39  C   UNL A   1      51.191  33.476  27.489  1.00  0.00     0.116 C 
BRANCH  39  40
ATOM     40  N   UNL A   1      50.381  34.185  26.508  1.00  0.00    -0.352 N 
ATOM     41  C   UNL A   1      49.014  34.023  26.334  1.00  0.00     0.251 C 
ATOM     42  H   UNL A   1      50.840  34.828  25.922  1.00  0.00     0.163 HD
ATOM     43  O   UNL A   1      48.392  34.630  25.476  1.00  0.00    -0.269 OA
BRANCH  41  44
ATOM     44  C   UNL A   1      48.351  33.027  27.208  1.00  0.00     0.039 A 
ATOM     45  C   UNL A   1      48.115  31.744  26.709  1.00  0.00     0.014 A 
ATOM     46  C   UNL A   1      48.260  33.297  28.574  1.00  0.00     0.014 A 
ATOM     47  C   UNL A   1      47.889  30.699  27.606  1.00  0.00     0.010 A 
ATOM     48  C   UNL A   1      48.149  32.236  29.463  1.00  0.00     0.010 A 
ATOM     49  C   UNL A   1      47.967  30.926  28.991  1.00  0.00    -0.014 A 
BRANCH  49  50
ATOM     50  C   UNL A   1      47.852  29.809  29.965  1.00  0.00     0.031 A 
ATOM     51  C   UNL A   1      46.497  29.446  30.511  1.00  0.00     0.074 A 
ATOM     52  C   UNL A   1      48.955  29.167  30.402  1.00  0.00     0.049 A 
ATOM     53  N   UNL A   1      46.182  28.536  31.396  1.00  0.00    -0.248 NA
ATOM     54  C   UNL A   1      45.350  30.230  30.024  1.00  0.00     0.031 C 
ATOM     55  C   UNL A   1      50.332  29.463  29.993  1.00  0.00     0.029 A 
ATOM     56  N   UNL A   1      49.095  28.127  31.289  1.00  0.00    -0.354 N 
ATOM     57  C   UNL A   1      44.810  28.649  31.575  1.00  0.00     0.074 A 
ATOM     58  C   UNL A   1      44.363  29.763  30.770  1.00  0.00     0.031 C 
ATOM     59  C   UNL A   1      51.168  28.601  30.598  1.00  0.00     0.029 A 
ATOM     60  C   UNL A   1      50.397  27.718  31.467  1.00  0.00     0.049 A 
ATOM     61  H   UNL A   1      48.333  27.712  31.755  1.00  0.00     0.167 HD
ATOM     62  C   UNL A   1      43.983  27.873  32.314  1.00  0.00     0.031 A 
ATOM     63  C   UNL A   1      50.912  26.743  32.245  1.00  0.00     0.031 A 
ATOM     64  C   UNL A   1      44.427  26.759  33.105  1.00  0.00     0.049 A 
ATOM     65  C   UNL A   1      49.975  25.899  33.069  1.00  0.00     0.074 A 
ATOM     66  C   UNL A   1      43.668  25.879  33.852  1.00  0.00     0.029 A 
ATOM     67  N   UNL A   1      45.751  26.373  33.250  1.00  0.00    -0.354 N 
ATOM     68  N   UNL A   1      48.668  25.974  33.166  1.00  0.00    -0.248 NA
ATOM     69  C   UNL A   1      50.579  24.831  33.879  1.00  0.00     0.031 C 
ATOM     70  C   UNL A   1      44.538  24.995  34.497  1.00  0.00     0.029 A 
ATOM     71  C   UNL A   1      45.834  25.281  34.096  1.00  0.00     0.049 A 
ATOM     72  H   UNL A   1      46.519  26.810  32.816  1.00  0.00     0.167 HD
ATOM     73  C   UNL A   1      48.292  24.946  34.023  1.00  0.00     0.074 A 
ATOM     74  C   UNL A   1      49.507  24.253  34.403  1.00  0.00     0.031 C 
ATOM     75  C   UNL A   1      47.053  24.604  34.458  1.00  0.00     0.031 A 
BRANCH  62  76
ATOM     76  C   UNL A   1      42.515  28.210  32.294  1.00  0.00    -0.014 A 
ATOM     77  C   UNL A   1      41.704  27.852  31.200  1.00  0.00     0.010 A 
ATOM     78  C   UNL A   1      41.932  28.870  33.389  1.00  0.00     0.010 A 
ATOM     79  C   UNL A   1      40.349  28.186  31.184  1.00  0.00     0.020 A 
ATOM     80  C   UNL A   1      40.569  29.177  33.391  1.00  0.00     0.020 A 
ATOM     81  C   UNL A   1      39.789  28.847  32.280  1.00  0.00     0.054 A 
BRANCH  81  82
ATOM     82  S   UNL A   1      38.019  29.240  32.244  1.00  0.00     0.124 S 
ATOM     83  O   UNL A   1      37.471  28.243  33.160  1.00  0.00    -0.237 OA
ATOM     84  O   UNL A   1      37.990  30.619  32.726  1.00  0.00    -0.237 OA
ATOM     85  O   UNL A   1      37.653  29.064  30.841  1.00  0.00    -0.744 OA
ENDBRANCH  81  82
ENDBRANCH  62  76
BRANCH  63  86
ATOM     86  C   UNL A   1      52.383  26.500  32.270  1.00  0.00    -0.014 A 
ATOM     87  C   UNL A   1      53.205  27.145  33.212  1.00  0.00     0.010 A 
ATOM     88  C   UNL A   1      52.973  25.619  31.345  1.00  0.00     0.010 A 
ATOM     89  C   UNL A   1      54.588  26.929  33.217  1.00  0.00     0.020 A 
ATOM     90  C   UNL A   1      54.351  25.375  31.367  1.00  0.00     0.020 A 
ATOM     91  C   UNL A   1      55.151  26.042  32.296  1.00  0.00     0.054 A 
BRANCH  91  92
ATOM     92  S   UNL A   1      56.940  25.739  32.352  1.00  0.00     0.124 S 
ATOM     93  O   UNL A   1      57.000  24.290  32.514  1.00  0.00    -0.237 OA
ATOM     94  O   UNL A   1      57.386  26.252  31.058  1.00  0.00    -0.237 OA
ATOM     95  O   UNL A   1      57.383  26.518  33.507  1.00  0.00    -0.744 OA
ENDBRANCH  91  92
ENDBRANCH  63  86
BRANCH  75  96
ATOM     96  C   UNL A   1      46.938  23.406  35.364  1.00  0.00    -0.014 A 
ATOM     97  C   UNL A   1      46.799  23.550  36.755  1.00  0.00     0.010 A 
ATOM     98  C   UNL A   1      46.904  22.116  34.801  1.00  0.00     0.010 A 
ATOM     99  C   UNL A   1      46.659  22.424  37.570  1.00  0.00     0.020 A 
ATOM    100  C   UNL A   1      46.731  20.991  35.608  1.00  0.00     0.020 A 
ATOM    101  C   UNL A   1      46.624  21.151  36.990  1.00  0.00     0.054 A 
BRANCH 101 102
ATOM    102  S   UNL A   1      46.395  19.709  38.066  1.00  0.00     0.124 S 
ATOM    103  O   UNL A   1      45.850  20.318  39.276  1.00  0.00    -0.237 OA
ATOM    104  O   UNL A   1      45.461  18.885  37.301  1.00  0.00    -0.237 OA
ATOM    105  O   UNL A   1      47.741  19.156  38.199  1.00  0.00    -0.744 OA
ENDBRANCH 101 102
ENDBRANCH  75  96
ENDBRANCH  49  50
ENDBRANCH  41  44
ENDBRANCH  39  40
ENDBRANCH  38  39
ENDBRANCH  37  38
ENDBRANCH   1  37
TORSDOF 20
ENDMDL
MODEL 3
REMARK VINA RESULT:     -10.7      6.163     12.392
REMARK SMILES C[C@@H](NC(=O)CCCN1C(=O)/C(=C/c2c3ccccc3cc3ccccc23)SC1=S)C(=O)NCCCCNC(=O)c1ccc(-c2c3nc(c(-c4ccc(S(=O)(=O)[O-])cc4)c4ccc([nH]4)c(-c4ccc(S(=O)(=O)[O-])cc4)c4nc(c(-c5ccc(S(=O)(=O)[O-])cc5)c5ccc2[nH]5)C=C4)C=C3)cc1
REMARK SMILES IDX 34 1 33 2 31 3 32 4 2 6 1 7 3 8 4 9 5 11 6 12 7 13 8 14 9 15
REMARK SMILES IDX 10 16 29 17 11 18 12 19 28 20 30 21 13 22 14 23 15 24 27 25
REMARK SMILES IDX 16 26 20 27 22 28 26 29 17 30 19 31 21 32 23 33 25 34 18 35
REMARK SMILES IDX 24 36 35 37 36 38 37 39 38 40 39 41 40 43 41 44 42 45 100 46
REMARK SMILES IDX 43 47 99 48 44 49 45 50 46 51 93 52 47 53 98 54 92 55 94 56
REMARK SMILES IDX 48 57 97 58 91 59 90 60 49 62 79 63 60 64 78 65 61 66 64 67
REMARK SMILES IDX 77 68 95 69 62 70 63 71 76 73 96 74 65 75 50 76 51 77 59 78
REMARK SMILES IDX 52 79 58 80 53 81 54 82 55 83 56 84 57 85 80 86 81 87 89 88
REMARK SMILES IDX 82 89 88 90 83 91 84 92 85 93 86 94 87 95 66 96 67 97 75 98
REMARK SMILES IDX 68 99 74 100 69 101 70 102 71 103 72 104 73 105
REMARK H PARENT 33 5 3 10 38 42 94 61 64 72
REMARK Flexibility Score: inf
ROOT
ATOM      1  C   UNL A   1      54.665  31.406  27.422  1.00  0.00     0.116 C 
ENDROOT
BRANCH   1   2
ATOM      2  N   UNL A   1      54.649  29.859  27.435  1.00  0.00    -0.354 N 
ATOM      3  C   UNL A   1      54.081  28.727  26.826  1.00  0.00     0.242 C 
ATOM      4  O   UNL A   1      54.991  27.937  26.493  1.00  0.00    -0.273 OA
ATOM      5  H   UNL A   1      55.273  29.551  28.132  1.00  0.00     0.163 HD
BRANCH   3   6
ATOM      6  C   UNL A   1      52.448  28.161  26.392  1.00  0.00     0.168 C 
ATOM      7  C   UNL A   1      51.081  28.866  25.965  1.00  0.00     0.041 C 
BRANCH   6   8
ATOM      8  N   UNL A   1      52.380  26.915  25.679  1.00  0.00    -0.345 N 
ATOM      9  C   UNL A   1      52.349  25.755  26.380  1.00  0.00     0.220 C 
ATOM     10  H   UNL A   1      52.356  26.904  24.695  1.00  0.00     0.164 HD
ATOM     11  O   UNL A   1      52.572  24.680  25.863  1.00  0.00    -0.275 OA
BRANCH   9  12
ATOM     12  C   UNL A   1      51.934  25.976  27.812  1.00  0.00     0.102 C 
BRANCH  12  13
ATOM     13  C   UNL A   1      50.340  25.881  28.120  1.00  0.00     0.032 C 
BRANCH  13  14
ATOM     14  C   UNL A   1      49.010  24.764  27.776  1.00  0.00     0.128 C 
BRANCH  14  15
ATOM     15  N   UNL A   1      47.375  24.762  27.761  1.00  0.00    -0.293 N 
ATOM     16  C   UNL A   1      46.723  25.411  28.852  1.00  0.00     0.266 C 
ATOM     17  C   UNL A   1      46.453  24.819  26.703  1.00  0.00     0.148 C 
ATOM     18  O   UNL A   1      47.184  25.703  29.936  1.00  0.00    -0.268 OA
ATOM     19  C   UNL A   1      45.352  25.916  28.410  1.00  0.00     0.081 C 
ATOM     20  S   UNL A   1      45.611  26.360  26.765  1.00  0.00    -0.054 SA
ATOM     21  S   UNL A   1      45.497  23.617  25.971  1.00  0.00    -0.052 S 
ATOM     22  C   UNL A   1      44.174  25.649  29.014  1.00  0.00     0.030 C 
BRANCH  22  23
ATOM     23  C   UNL A   1      42.822  25.555  28.328  1.00  0.00    -0.009 A 
ATOM     24  C   UNL A   1      42.106  26.783  28.044  1.00  0.00    -0.010 A 
ATOM     25  C   UNL A   1      42.195  24.295  28.040  1.00  0.00    -0.010 A 
ATOM     26  C   UNL A   1      42.602  28.096  28.264  1.00  0.00     0.009 A 
ATOM     27  C   UNL A   1      40.785  26.712  27.525  1.00  0.00    -0.017 A 
ATOM     28  C   UNL A   1      40.858  24.281  27.562  1.00  0.00    -0.017 A 
ATOM     29  C   UNL A   1      42.804  23.030  28.217  1.00  0.00     0.009 A 
ATOM     30  C   UNL A   1      41.845  29.247  27.994  1.00  0.00     0.001 A 
ATOM     31  C   UNL A   1      40.034  27.871  27.255  1.00  0.00     0.009 A 
ATOM     32  C   UNL A   1      40.188  25.475  27.301  1.00  0.00     0.017 A 
ATOM     33  C   UNL A   1      40.170  23.073  27.364  1.00  0.00     0.009 A 
ATOM     34  C   UNL A   1      42.103  21.831  28.041  1.00  0.00     0.001 A 
ATOM     35  C   UNL A   1      40.558  29.135  27.490  1.00  0.00     0.001 A 
ATOM     36  C   UNL A   1      40.781  21.854  27.626  1.00  0.00     0.001 A 
ENDBRANCH  22  23
ENDBRANCH  14  15
ENDBRANCH  13  14
ENDBRANCH  12  13
ENDBRANCH   9  12
ENDBRANCH   6   8
ENDBRANCH   3   6
ENDBRANCH   1   2
BRANCH   1  37
ATOM     37  C   UNL A   1      53.472  32.197  26.810  1.00  0.00     0.023 C 
BRANCH  37  38
ATOM     38  C   UNL A   1      52.057  32.024  27.384  1.00  0.00     0.023 C 
BRANCH  38  39
ATOM     39  C   UNL A   1      51.303  33.263  27.814  1.00  0.00     0.116 C 
BRANCH  39  40
ATOM     40  N   UNL A   1      50.544  33.947  26.777  1.00  0.00    -0.352 N 
ATOM     41  C   UNL A   1      49.192  33.763  26.523  1.00  0.00     0.251 C 
ATOM     42  H   UNL A   1      51.029  34.588  26.210  1.00  0.00     0.163 HD
ATOM     43  O   UNL A   1      48.615  34.349  25.621  1.00  0.00    -0.269 OA
BRANCH  41  44
ATOM     44  C   UNL A   1      48.492  32.769  27.370  1.00  0.00     0.039 A 
ATOM     45  C   UNL A   1      48.278  31.485  26.865  1.00  0.00     0.014 A 
ATOM     46  C   UNL A   1      48.341  33.043  28.731  1.00  0.00     0.014 A 
ATOM     47  C   UNL A   1      48.012  30.443  27.755  1.00  0.00     0.010 A 
ATOM     48  C   UNL A   1      48.191  31.986  29.617  1.00  0.00     0.010 A 
ATOM     49  C   UNL A   1      48.029  30.674  29.142  1.00  0.00    -0.014 A 
BRANCH  49  50
ATOM     50  C   UNL A   1      47.871  29.560  30.113  1.00  0.00     0.031 A 
ATOM     51  C   UNL A   1      46.507  29.258  30.671  1.00  0.00     0.074 A 
ATOM     52  C   UNL A   1      48.947  28.865  30.537  1.00  0.00     0.049 A 
ATOM     53  N   UNL A   1      46.158  28.361  31.556  1.00  0.00    -0.248 NA
ATOM     54  C   UNL A   1      45.392  30.097  30.197  1.00  0.00     0.031 C 
ATOM     55  C   UNL A   1      50.333  29.099  30.117  1.00  0.00     0.029 A 
ATOM     56  N   UNL A   1      49.047  27.817  31.420  1.00  0.00    -0.354 N 
ATOM     57  C   UNL A   1      44.793  28.537  31.748  1.00  0.00     0.074 A 
ATOM     58  C   UNL A   1      44.392  29.673  30.951  1.00  0.00     0.031 C 
ATOM     59  C   UNL A   1      51.133  28.196  30.711  1.00  0.00     0.029 A 
ATOM     60  C   UNL A   1      50.330  27.347  31.585  1.00  0.00     0.049 A 
ATOM     61  H   UNL A   1      48.271  27.437  31.891  1.00  0.00     0.167 HD
ATOM     62  C   UNL A   1      43.939  27.798  32.492  1.00  0.00     0.031 A 
ATOM     63  C   UNL A   1      50.806  26.347  32.354  1.00  0.00     0.031 A 
ATOM     64  C   UNL A   1      44.338  26.661  33.275  1.00  0.00     0.049 A 
ATOM     65  C   UNL A   1      49.839  25.545  33.185  1.00  0.00     0.074 A 
ATOM     66  C   UNL A   1      43.545  25.815  34.027  1.00  0.00     0.029 A 
ATOM     67  N   UNL A   1      45.644  26.214  33.406  1.00  0.00    -0.354 N 
ATOM     68  N   UNL A   1      48.538  25.679  33.294  1.00  0.00    -0.248 NA
ATOM     69  C   UNL A   1      50.400  24.446  33.985  1.00  0.00     0.031 C 
ATOM     70  C   UNL A   1      44.379  24.889  34.660  1.00  0.00     0.029 A 
ATOM     71  C   UNL A   1      45.683  25.115  34.248  1.00  0.00     0.049 A 
ATOM     72  H   UNL A   1      46.427  26.616  32.967  1.00  0.00     0.167 HD
ATOM     73  C   UNL A   1      48.122  24.667  34.152  1.00  0.00     0.074 A 
ATOM     74  C   UNL A   1      49.307  23.917  34.518  1.00  0.00     0.031 C 
ATOM     75  C   UNL A   1      46.873  24.382  34.597  1.00  0.00     0.031 A 
BRANCH  62  76
ATOM     76  C   UNL A   1      42.488  28.203  32.487  1.00  0.00    -0.014 A 
ATOM     77  C   UNL A   1      41.630  27.809  31.443  1.00  0.00     0.010 A 
ATOM     78  C   UNL A   1      41.968  28.964  33.548  1.00  0.00     0.010 A 
ATOM     79  C   UNL A   1      40.291  28.207  31.438  1.00  0.00     0.020 A 
ATOM     80  C   UNL A   1      40.621  29.335  33.564  1.00  0.00     0.020 A 
ATOM     81  C   UNL A   1      39.795  28.967  32.500  1.00  0.00     0.054 A 
BRANCH  81  82
ATOM     82  S   UNL A   1      38.045  29.442  32.482  1.00  0.00     0.124 S 
ATOM     83  O   UNL A   1      38.080  30.742  33.149  1.00  0.00    -0.237 OA
ATOM     84  O   UNL A   1      37.740  29.476  31.054  1.00  0.00    -0.237 OA
ATOM     85  O   UNL A   1      37.388  28.375  33.233  1.00  0.00    -0.744 OA
ENDBRANCH  81  82
ENDBRANCH  62  76
BRANCH  63  86
ATOM     86  C   UNL A   1      52.265  26.036  32.364  1.00  0.00    -0.014 A 
ATOM     87  C   UNL A   1      52.832  25.201  31.384  1.00  0.00     0.010 A 
ATOM     88  C   UNL A   1      53.099  26.576  33.360  1.00  0.00     0.010 A 
ATOM     89  C   UNL A   1      54.198  24.897  31.411  1.00  0.00     0.020 A 
ATOM     90  C   UNL A   1      54.471  26.301  33.373  1.00  0.00     0.020 A 
ATOM     91  C   UNL A   1      55.009  25.452  32.404  1.00  0.00     0.054 A 
BRANCH  91  92
ATOM     92  S   UNL A   1      56.787  25.084  32.391  1.00  0.00     0.124 S 
ATOM     93  O   UNL A   1      56.817  23.710  32.881  1.00  0.00    -0.237 OA
ATOM     94  O   UNL A   1      57.134  25.262  30.983  1.00  0.00    -0.237 OA
ATOM     95  O   UNL A   1      57.350  26.085  33.295  1.00  0.00    -0.744 OA
ENDBRANCH  91  92
ENDBRANCH  63  86
BRANCH  75  96
ATOM     96  C   UNL A   1      46.711  23.187  35.500  1.00  0.00    -0.014 A 
ATOM     97  C   UNL A   1      46.708  21.877  34.988  1.00  0.00     0.010 A 
ATOM     98  C   UNL A   1      46.626  23.379  36.891  1.00  0.00     0.010 A 
ATOM     99  C   UNL A   1      46.592  20.784  35.850  1.00  0.00     0.020 A 
ATOM    100  C   UNL A   1      46.544  22.288  37.758  1.00  0.00     0.020 A 
ATOM    101  C   UNL A   1      46.512  20.997  37.230  1.00  0.00     0.054 A 
BRANCH 101 102
ATOM    102  S   UNL A   1      46.408  19.558  38.329  1.00  0.00     0.124 S 
ATOM    103  O   UNL A   1      46.017  20.172  39.595  1.00  0.00    -0.237 OA
ATOM    104  O   UNL A   1      45.384  18.738  37.685  1.00  0.00    -0.237 OA
ATOM    105  O   UNL A   1      47.758  18.999  38.298  1.00  0.00    -0.744 OA
ENDBRANCH 101 102
ENDBRANCH  75  96
ENDBRANCH  49  50
ENDBRANCH  41  44
ENDBRANCH  39  40
ENDBRANCH  38  39
ENDBRANCH  37  38
ENDBRANCH   1  37
TORSDOF 20
ENDMDL
