MODEL 1
REMARK VINA RESULT:     -10.3      0.000      0.000
REMARK SMILES CCNC(=O)c1ccc(N[C@@H]2COC[C@@]2(C)C(=O)NCCCCNC(=O)c2ccc(-c3c4nc(c(-c5ccc(S(=O)(=O)[O-])cc5)c5ccc([nH]5)c(-c5ccc(S(=O)(=O)[O-])cc5)c5nc(c(-c6ccc(S(=O)(=O)[O-])cc6)c6ccc3[nH]6)C=C5)C=C4)cc2)nn1
REMARK SMILES IDX 21 1 20 2 19 3 17 4 18 5 15 7 11 8 12 9 13 10 14 11 16 12
REMARK SMILES IDX 10 13 9 15 6 16 7 17 88 18 8 19 87 20 4 21 3 22 5 24 2 25
REMARK SMILES IDX 1 26 22 27 23 28 24 29 25 30 26 32 27 33 28 34 86 35 29 36
REMARK SMILES IDX 85 37 30 38 31 39 32 40 79 41 33 42 84 43 78 44 80 45 34 46
REMARK SMILES IDX 83 47 77 48 76 49 35 51 65 52 46 53 64 54 47 55 50 56 63 57
REMARK SMILES IDX 81 58 48 59 49 60 62 62 82 63 51 64 36 65 37 66 45 67 38 68
REMARK SMILES IDX 44 69 39 70 40 71 41 72 42 73 43 74 66 75 67 76 75 77 68 78
REMARK SMILES IDX 74 79 69 80 70 81 71 82 72 83 73 84 52 85 53 86 61 87 54 88
REMARK SMILES IDX 60 89 55 90 56 91 57 92 58 93 59 94
REMARK H PARENT 19 6 10 14 3 23 24 31 80 50 50 61
REMARK Flexibility Score: inf
ROOT
ATOM      1  C   UNL A   1      33.415  27.058  24.883  1.00  0.00     0.023 C 
ENDROOT
BRANCH   1   2
ATOM      2  C   UNL A   1      33.988  25.734  25.368  1.00  0.00     0.116 C 
BRANCH   2   3
ATOM      3  N   UNL A   1      34.813  25.047  24.409  1.00  0.00    -0.355 N 
ATOM      4  C   UNL A   1      34.973  23.719  24.151  1.00  0.00     0.230 C 
ATOM      5  O   UNL A   1      35.619  23.464  23.127  1.00  0.00    -0.274 OA
ATOM      6  H   UNL A   1      35.358  25.639  23.841  1.00  0.00     0.163 HD
BRANCH   4   7
ATOM      7  C   UNL A   1      34.507  22.591  25.096  1.00  0.00     0.092 C 
ATOM      8  C   UNL A   1      33.134  21.950  24.811  1.00  0.00     0.124 C 
ATOM      9  C   UNL A   1      33.310  20.452  25.068  1.00  0.00     0.186 C 
ATOM     10  O   UNL A   1      34.707  20.184  25.178  1.00  0.00    -0.378 OA
ATOM     11  C   UNL A   1      35.407  21.370  24.786  1.00  0.00     0.179 C 
ATOM     12  C   UNL A   1      34.797  23.036  26.534  1.00  0.00     0.026 C 
BRANCH   8  13
ATOM     13  N   UNL A   1      31.926  22.494  25.443  1.00  0.00    -0.362 N 
ATOM     14  H   UNL A   1      31.586  22.014  26.233  1.00  0.00     0.162 HD
BRANCH  13  15
ATOM     15  C   UNL A   1      31.220  23.609  25.041  1.00  0.00     0.149 A 
ATOM     16  C   UNL A   1      29.563  25.676  24.350  1.00  0.00     0.150 A 
ATOM     17  C   UNL A   1      29.866  25.497  25.686  1.00  0.00     0.040 A 
ATOM     18  N   UNL A   1      30.056  24.866  23.394  1.00  0.00    -0.143 NA
ATOM     19  C   UNL A   1      30.740  24.470  26.024  1.00  0.00     0.051 A 
ATOM     20  N   UNL A   1      30.882  23.820  23.756  1.00  0.00    -0.132 NA
BRANCH  16  21
ATOM     21  C   UNL A   1      28.646  26.754  23.912  1.00  0.00     0.271 C 
ATOM     22  N   UNL A   1      29.150  27.862  23.268  1.00  0.00    -0.351 N 
ATOM     23  H   UNL A   1      28.520  28.610  23.155  1.00  0.00     0.163 HD
ATOM     24  O   UNL A   1      27.442  26.679  24.139  1.00  0.00    -0.267 OA
BRANCH  22  25
ATOM     25  C   UNL A   1      30.482  28.082  22.732  1.00  0.00     0.113 C 
ATOM     26  C   UNL A   1      30.623  29.482  22.168  1.00  0.00     0.027 C 
ENDBRANCH  22  25
ENDBRANCH  16  21
ENDBRANCH  13  15
ENDBRANCH   8  13
ENDBRANCH   4   7
ENDBRANCH   2   3
ENDBRANCH   1   2
BRANCH   1  27
ATOM     27  C   UNL A   1      32.687  27.880  25.941  1.00  0.00     0.023 C 
BRANCH  27  28
ATOM     28  C   UNL A   1      33.510  28.259  27.169  1.00  0.00     0.116 C 
BRANCH  28  29
ATOM     29  N   UNL A   1      33.421  29.667  27.536  1.00  0.00    -0.352 N 
ATOM     30  C   UNL A   1      34.411  30.493  28.026  1.00  0.00     0.251 C 
ATOM     31  H   UNL A   1      32.537  30.083  27.419  1.00  0.00     0.163 HD
ATOM     32  O   UNL A   1      34.154  31.646  28.338  1.00  0.00    -0.269 OA
BRANCH  30  33
ATOM     33  C   UNL A   1      35.769  29.941  28.217  1.00  0.00     0.039 A 
ATOM     34  C   UNL A   1      36.681  30.014  27.163  1.00  0.00     0.014 A 
ATOM     35  C   UNL A   1      36.161  29.441  29.462  1.00  0.00     0.014 A 
ATOM     36  C   UNL A   1      38.017  29.675  27.386  1.00  0.00     0.010 A 
ATOM     37  C   UNL A   1      37.505  29.181  29.704  1.00  0.00     0.010 A 
ATOM     38  C   UNL A   1      38.450  29.307  28.673  1.00  0.00    -0.014 A 
BRANCH  38  39
ATOM     39  C   UNL A   1      39.885  29.072  28.971  1.00  0.00     0.031 A 
ATOM     40  C   UNL A   1      40.514  27.747  28.642  1.00  0.00     0.074 A 
ATOM     41  C   UNL A   1      40.597  30.017  29.618  1.00  0.00     0.049 A 
ATOM     42  N   UNL A   1      41.721  27.319  28.908  1.00  0.00    -0.248 NA
ATOM     43  C   UNL A   1      39.665  26.762  27.951  1.00  0.00     0.031 C 
ATOM     44  C   UNL A   1      40.089  31.325  30.043  1.00  0.00     0.029 A 
ATOM     45  N   UNL A   1      41.903  30.017  30.044  1.00  0.00    -0.354 N 
ATOM     46  C   UNL A   1      41.768  26.010  28.444  1.00  0.00     0.074 A 
ATOM     47  C   UNL A   1      40.456  25.699  27.921  1.00  0.00     0.031 C 
ATOM     48  C   UNL A   1      41.077  32.008  30.643  1.00  0.00     0.029 A 
ATOM     49  C   UNL A   1      42.277  31.177  30.680  1.00  0.00     0.049 A 
ATOM     50  H   UNL A   1      42.514  29.258  29.907  1.00  0.00     0.167 HD
ATOM     51  C   UNL A   1      42.813  25.150  28.435  1.00  0.00     0.031 A 
ATOM     52  C   UNL A   1      43.452  31.533  31.235  1.00  0.00     0.031 A 
ATOM     53  C   UNL A   1      44.125  25.468  28.930  1.00  0.00     0.049 A 
ATOM     54  C   UNL A   1      44.605  30.569  31.193  1.00  0.00     0.074 A 
ATOM     55  C   UNL A   1      45.267  24.687  28.907  1.00  0.00     0.029 A 
ATOM     56  N   UNL A   1      44.472  26.666  29.536  1.00  0.00    -0.354 N 
ATOM     57  N   UNL A   1      44.647  29.357  30.691  1.00  0.00    -0.248 NA
ATOM     58  C   UNL A   1      45.873  31.025  31.780  1.00  0.00     0.031 C 
ATOM     59  C   UNL A   1      46.297  25.400  29.530  1.00  0.00     0.029 A 
ATOM     60  C   UNL A   1      45.805  26.642  29.901  1.00  0.00     0.049 A 
ATOM     61  H   UNL A   1      43.858  27.422  29.684  1.00  0.00     0.167 HD
ATOM     62  C   UNL A   1      45.951  28.916  30.881  1.00  0.00     0.074 A 
ATOM     63  C   UNL A   1      46.669  29.993  31.531  1.00  0.00     0.031 C 
ATOM     64  C   UNL A   1      46.504  27.724  30.546  1.00  0.00     0.031 A 
BRANCH  51  65
ATOM     65  C   UNL A   1      42.573  23.779  27.863  1.00  0.00    -0.014 A 
ATOM     66  C   UNL A   1      42.176  22.710  28.688  1.00  0.00     0.010 A 
ATOM     67  C   UNL A   1      42.726  23.558  26.482  1.00  0.00     0.010 A 
ATOM     68  C   UNL A   1      41.985  21.435  28.151  1.00  0.00     0.020 A 
ATOM     69  C   UNL A   1      42.510  22.290  25.937  1.00  0.00     0.020 A 
ATOM     70  C   UNL A   1      42.161  21.231  26.779  1.00  0.00     0.054 A 
BRANCH  70  71
ATOM     71  S   UNL A   1      41.898  19.568  26.106  1.00  0.00     0.124 S 
ATOM     72  O   UNL A   1      42.795  19.567  24.952  1.00  0.00    -0.237 OA
ATOM     73  O   UNL A   1      42.301  18.705  27.213  1.00  0.00    -0.237 OA
ATOM     74  O   UNL A   1      40.473  19.545  25.788  1.00  0.00    -0.744 OA
ENDBRANCH  70  71
ENDBRANCH  51  65
BRANCH  52  75
ATOM     75  C   UNL A   1      43.605  32.876  31.857  1.00  0.00    -0.014 A 
ATOM     76  C   UNL A   1      43.936  33.988  31.064  1.00  0.00     0.010 A 
ATOM     77  C   UNL A   1      43.405  33.053  33.238  1.00  0.00     0.010 A 
ATOM     78  C   UNL A   1      44.082  35.253  31.643  1.00  0.00     0.020 A 
ATOM     79  C   UNL A   1      43.528  34.320  33.817  1.00  0.00     0.020 A 
ATOM     80  C   UNL A   1      43.876  35.410  33.016  1.00  0.00     0.054 A 
BRANCH  80  81
ATOM     81  S   UNL A   1      44.014  37.069  33.739  1.00  0.00     0.124 S 
ATOM     82  O   UNL A   1      45.093  36.889  34.705  1.00  0.00    -0.237 OA
ATOM     83  O   UNL A   1      44.335  37.895  32.578  1.00  0.00    -0.237 OA
ATOM     84  O   UNL A   1      42.690  37.302  34.311  1.00  0.00    -0.744 OA
ENDBRANCH  80  81
ENDBRANCH  52  75
BRANCH  64  85
ATOM     85  C   UNL A   1      47.966  27.533  30.845  1.00  0.00    -0.014 A 
ATOM     86  C   UNL A   1      48.391  26.971  32.061  1.00  0.00     0.010 A 
ATOM     87  C   UNL A   1      48.922  27.869  29.870  1.00  0.00     0.010 A 
ATOM     88  C   UNL A   1      49.752  26.772  32.307  1.00  0.00     0.020 A 
ATOM     89  C   UNL A   1      50.282  27.650  30.103  1.00  0.00     0.020 A 
ATOM     90  C   UNL A   1      50.689  27.114  31.326  1.00  0.00     0.054 A 
BRANCH  90  91
ATOM     91  S   UNL A   1      52.447  26.802  31.648  1.00  0.00     0.124 S 
ATOM     92  O   UNL A   1      52.926  28.128  32.027  1.00  0.00    -0.237 OA
ATOM     93  O   UNL A   1      52.407  25.816  32.726  1.00  0.00    -0.237 OA
ATOM     94  O   UNL A   1      52.947  26.299  30.371  1.00  0.00    -0.744 OA
ENDBRANCH  90  91
ENDBRANCH  64  85
ENDBRANCH  38  39
ENDBRANCH  30  33
ENDBRANCH  28  29
ENDBRANCH  27  28
ENDBRANCH   1  27
TORSDOF 18
ENDMDL
MODEL 2
REMARK VINA RESULT:     -10.3      1.207      8.763
REMARK SMILES CCNC(=O)c1ccc(N[C@@H]2COC[C@@]2(C)C(=O)NCCCCNC(=O)c2ccc(-c3c4nc(c(-c5ccc(S(=O)(=O)[O-])cc5)c5ccc([nH]5)c(-c5ccc(S(=O)(=O)[O-])cc5)c5nc(c(-c6ccc(S(=O)(=O)[O-])cc6)c6ccc3[nH]6)C=C5)C=C4)cc2)nn1
REMARK SMILES IDX 21 1 20 2 19 3 17 4 18 5 15 7 11 8 12 9 13 10 14 11 16 12
REMARK SMILES IDX 10 13 9 15 6 16 7 17 88 18 8 19 87 20 4 21 3 22 5 24 2 25
REMARK SMILES IDX 1 26 22 27 23 28 24 29 25 30 26 32 27 33 28 34 86 35 29 36
REMARK SMILES IDX 85 37 30 38 31 39 32 40 79 41 33 42 84 43 78 44 80 45 34 46
REMARK SMILES IDX 83 47 77 48 76 49 35 51 65 52 46 53 64 54 47 55 50 56 63 57
REMARK SMILES IDX 81 58 48 59 49 60 62 62 82 63 51 64 36 65 37 66 45 67 38 68
REMARK SMILES IDX 44 69 39 70 40 71 41 72 42 73 43 74 66 75 67 76 75 77 68 78
REMARK SMILES IDX 74 79 69 80 70 81 71 82 72 83 73 84 52 85 53 86 61 87 54 88
REMARK SMILES IDX 60 89 55 90 56 91 57 92 58 93 59 94
REMARK H PARENT 19 6 10 14 3 23 24 31 80 50 50 61
REMARK Flexibility Score: inf
ROOT
ATOM      1  C   UNL A   1      33.800  29.145  25.123  1.00  0.00     0.023 C 
ENDROOT
BRANCH   1   2
ATOM      2  C   UNL A   1      33.199  28.726  23.790  1.00  0.00     0.116 C 
BRANCH   2   3
ATOM      3  N   UNL A   1      33.765  27.530  23.223  1.00  0.00    -0.355 N 
ATOM      4  C   UNL A   1      33.218  26.567  22.431  1.00  0.00     0.230 C 
ATOM      5  O   UNL A   1      34.030  25.764  21.954  1.00  0.00    -0.274 OA
ATOM      6  H   UNL A   1      34.713  27.383  23.446  1.00  0.00     0.163 HD
BRANCH   4   7
ATOM      7  C   UNL A   1      31.700  26.382  22.215  1.00  0.00     0.092 C 
ATOM      8  C   UNL A   1      30.918  25.618  23.303  1.00  0.00     0.124 C 
ATOM      9  C   UNL A   1      29.587  26.356  23.457  1.00  0.00     0.186 C 
ATOM     10  O   UNL A   1      29.693  27.605  22.776  1.00  0.00    -0.378 OA
ATOM     11  C   UNL A   1      31.065  27.781  22.406  1.00  0.00     0.179 C 
ATOM     12  C   UNL A   1      31.483  25.962  20.758  1.00  0.00     0.026 C 
BRANCH   8  13
ATOM     13  N   UNL A   1      30.750  24.164  23.198  1.00  0.00    -0.362 N 
ATOM     14  H   UNL A   1      29.923  23.844  22.770  1.00  0.00     0.162 HD
BRANCH  13  15
ATOM     15  C   UNL A   1      31.634  23.201  23.640  1.00  0.00     0.149 A 
ATOM     16  C   UNL A   1      33.519  21.516  24.690  1.00  0.00     0.150 A 
ATOM     17  C   UNL A   1      32.468  21.907  25.496  1.00  0.00     0.040 A 
ATOM     18  N   UNL A   1      33.636  21.942  23.417  1.00  0.00    -0.143 NA
ATOM     19  C   UNL A   1      31.493  22.730  24.942  1.00  0.00     0.051 A 
ATOM     20  N   UNL A   1      32.685  22.800  22.903  1.00  0.00    -0.132 NA
BRANCH  16  21
ATOM     21  C   UNL A   1      34.591  20.633  25.206  1.00  0.00     0.271 C 
ATOM     22  N   UNL A   1      34.508  19.272  25.015  1.00  0.00    -0.351 N 
ATOM     23  H   UNL A   1      35.157  18.732  25.522  1.00  0.00     0.163 HD
ATOM     24  O   UNL A   1      35.542  21.103  25.825  1.00  0.00    -0.267 OA
BRANCH  22  25
ATOM     25  C   UNL A   1      33.597  18.520  24.169  1.00  0.00     0.113 C 
ATOM     26  C   UNL A   1      34.216  17.209  23.725  1.00  0.00     0.027 C 
ENDBRANCH  22  25
ENDBRANCH  16  21
ENDBRANCH  13  15
ENDBRANCH   8  13
ENDBRANCH   4   7
ENDBRANCH   2   3
ENDBRANCH   1   2
BRANCH   1  27
ATOM     27  C   UNL A   1      33.737  28.094  26.226  1.00  0.00     0.023 C 
BRANCH  27  28
ATOM     28  C   UNL A   1      33.281  28.593  27.594  1.00  0.00     0.116 C 
BRANCH  28  29
ATOM     29  N   UNL A   1      33.355  30.040  27.757  1.00  0.00    -0.352 N 
ATOM     30  C   UNL A   1      34.443  30.813  28.103  1.00  0.00     0.251 C 
ATOM     31  H   UNL A   1      32.516  30.531  27.599  1.00  0.00     0.163 HD
ATOM     32  O   UNL A   1      34.321  32.020  28.251  1.00  0.00    -0.269 OA
BRANCH  30  33
ATOM     33  C   UNL A   1      35.741  30.147  28.344  1.00  0.00     0.039 A 
ATOM     34  C   UNL A   1      36.690  30.128  27.321  1.00  0.00     0.014 A 
ATOM     35  C   UNL A   1      36.047  29.631  29.606  1.00  0.00     0.014 A 
ATOM     36  C   UNL A   1      37.984  29.677  27.592  1.00  0.00     0.010 A 
ATOM     37  C   UNL A   1      37.355  29.257  29.895  1.00  0.00     0.010 A 
ATOM     38  C   UNL A   1      38.340  29.289  28.895  1.00  0.00    -0.014 A 
BRANCH  38  39
ATOM     39  C   UNL A   1      39.738  28.933  29.243  1.00  0.00     0.031 A 
ATOM     40  C   UNL A   1      40.630  29.947  29.906  1.00  0.00     0.074 A 
ATOM     41  C   UNL A   1      40.233  27.731  28.883  1.00  0.00     0.049 A 
ATOM     42  N   UNL A   1      41.901  29.858  30.202  1.00  0.00    -0.248 NA
ATOM     43  C   UNL A   1      40.021  31.242  30.251  1.00  0.00     0.031 C 
ATOM     44  C   UNL A   1      39.488  26.678  28.186  1.00  0.00     0.029 A 
ATOM     45  N   UNL A   1      41.487  27.195  29.044  1.00  0.00    -0.354 N 
ATOM     46  C   UNL A   1      42.249  31.090  30.742  1.00  0.00     0.074 A 
ATOM     47  C   UNL A   1      41.068  31.924  30.690  1.00  0.00     0.031 C 
ATOM     48  C   UNL A   1      40.290  25.617  28.004  1.00  0.00     0.029 A 
ATOM     49  C   UNL A   1      41.615  25.924  28.536  1.00  0.00     0.049 A 
ATOM     50  H   UNL A   1      42.225  27.676  29.482  1.00  0.00     0.167 HD
ATOM     51  C   UNL A   1      43.438  31.487  31.253  1.00  0.00     0.031 A 
ATOM     52  C   UNL A   1      42.679  25.098  28.498  1.00  0.00     0.031 A 
ATOM     53  C   UNL A   1      44.604  30.650  31.329  1.00  0.00     0.049 A 
ATOM     54  C   UNL A   1      43.982  25.553  29.093  1.00  0.00     0.074 A 
ATOM     55  C   UNL A   1      45.837  30.939  31.888  1.00  0.00     0.029 A 
ATOM     56  N   UNL A   1      44.682  29.357  30.834  1.00  0.00    -0.354 N 
ATOM     57  N   UNL A   1      44.273  26.701  29.656  1.00  0.00    -0.248 NA
ATOM     58  C   UNL A   1      45.098  24.596  29.057  1.00  0.00     0.031 C 
ATOM     59  C   UNL A   1      46.672  29.833  31.700  1.00  0.00     0.029 A 
ATOM     60  C   UNL A   1      45.944  28.839  31.063  1.00  0.00     0.049 A 
ATOM     61  H   UNL A   1      43.947  28.879  30.386  1.00  0.00     0.167 HD
ATOM     62  C   UNL A   1      45.598  26.596  30.064  1.00  0.00     0.074 A 
ATOM     63  C   UNL A   1      46.047  25.269  29.694  1.00  0.00     0.031 C 
ATOM     64  C   UNL A   1      46.373  27.516  30.690  1.00  0.00     0.031 A 
BRANCH  51  65
ATOM     65  C   UNL A   1      43.528  32.896  31.775  1.00  0.00    -0.014 A 
ATOM     66  C   UNL A   1      43.315  33.178  33.138  1.00  0.00     0.010 A 
ATOM     67  C   UNL A   1      43.849  33.949  30.900  1.00  0.00     0.010 A 
ATOM     68  C   UNL A   1      43.372  34.493  33.605  1.00  0.00     0.020 A 
ATOM     69  C   UNL A   1      43.933  35.263  31.369  1.00  0.00     0.020 A 
ATOM     70  C   UNL A   1      43.674  35.529  32.715  1.00  0.00     0.054 A 
BRANCH  70  71
ATOM     71  S   UNL A   1      43.750  37.226  33.350  1.00  0.00     0.124 S 
ATOM     72  O   UNL A   1      43.906  37.998  32.119  1.00  0.00    -0.237 OA
ATOM     73  O   UNL A   1      42.464  37.375  34.025  1.00  0.00    -0.237 OA
ATOM     74  O   UNL A   1      44.915  37.213  34.230  1.00  0.00    -0.744 OA
ENDBRANCH  70  71
ENDBRANCH  51  65
BRANCH  52  75
ATOM     75  C   UNL A   1      42.547  23.743  27.897  1.00  0.00    -0.014 A 
ATOM     76  C   UNL A   1      42.902  23.529  26.554  1.00  0.00     0.010 A 
ATOM     77  C   UNL A   1      42.082  22.661  28.665  1.00  0.00     0.010 A 
ATOM     78  C   UNL A   1      42.779  22.258  25.983  1.00  0.00     0.020 A 
ATOM     79  C   UNL A   1      41.979  21.384  28.104  1.00  0.00     0.020 A 
ATOM     80  C   UNL A   1      42.319  21.194  26.763  1.00  0.00     0.054 A 
BRANCH  80  81
ATOM     81  S   UNL A   1      42.221  19.540  26.020  1.00  0.00     0.124 S 
ATOM     82  O   UNL A   1      42.704  18.692  27.105  1.00  0.00    -0.237 OA
ATOM     83  O   UNL A   1      40.799  19.418  25.706  1.00  0.00    -0.237 OA
ATOM     84  O   UNL A   1      43.101  19.637  24.858  1.00  0.00    -0.744 OA
ENDBRANCH  80  81
ENDBRANCH  52  75
BRANCH  64  85
ATOM     85  C   UNL A   1      47.777  27.109  31.045  1.00  0.00    -0.014 A 
ATOM     86  C   UNL A   1      48.840  27.309  30.148  1.00  0.00     0.010 A 
ATOM     87  C   UNL A   1      48.041  26.574  32.318  1.00  0.00     0.010 A 
ATOM     88  C   UNL A   1      50.142  26.954  30.509  1.00  0.00     0.020 A 
ATOM     89  C   UNL A   1      49.346  26.240  32.692  1.00  0.00     0.020 A 
ATOM     90  C   UNL A   1      50.386  26.421  31.779  1.00  0.00     0.054 A 
BRANCH  90  91
ATOM     91  S   UNL A   1      52.092  26.012  32.244  1.00  0.00     0.124 S 
ATOM     92  O   UNL A   1      52.864  26.823  31.308  1.00  0.00    -0.237 OA
ATOM     93  O   UNL A   1      52.154  26.434  33.642  1.00  0.00    -0.237 OA
ATOM     94  O   UNL A   1      52.170  24.569  32.032  1.00  0.00    -0.744 OA
ENDBRANCH  90  91
ENDBRANCH  64  85
ENDBRANCH  38  39
ENDBRANCH  30  33
ENDBRANCH  28  29
ENDBRANCH  27  28
ENDBRANCH   1  27
TORSDOF 18
ENDMDL
MODEL 3
REMARK VINA RESULT:     -10.3      4.039      6.028
REMARK SMILES CCNC(=O)c1ccc(N[C@@H]2COC[C@@]2(C)C(=O)NCCCCNC(=O)c2ccc(-c3c4nc(c(-c5ccc(S(=O)(=O)[O-])cc5)c5ccc([nH]5)c(-c5ccc(S(=O)(=O)[O-])cc5)c5nc(c(-c6ccc(S(=O)(=O)[O-])cc6)c6ccc3[nH]6)C=C5)C=C4)cc2)nn1
REMARK SMILES IDX 21 1 20 2 19 3 17 4 18 5 15 7 11 8 12 9 13 10 14 11 16 12
REMARK SMILES IDX 10 13 9 15 6 16 7 17 88 18 8 19 87 20 4 21 3 22 5 24 2 25
REMARK SMILES IDX 1 26 22 27 23 28 24 29 25 30 26 32 27 33 28 34 86 35 29 36
REMARK SMILES IDX 85 37 30 38 31 39 32 40 79 41 33 42 84 43 78 44 80 45 34 46
REMARK SMILES IDX 83 47 77 48 76 49 35 51 65 52 46 53 64 54 47 55 50 56 63 57
REMARK SMILES IDX 81 58 48 59 49 60 62 62 82 63 51 64 36 65 37 66 45 67 38 68
REMARK SMILES IDX 44 69 39 70 40 71 41 72 42 73 43 74 66 75 67 76 75 77 68 78
REMARK SMILES IDX 74 79 69 80 70 81 71 82 72 83 73 84 52 85 53 86 61 87 54 88
REMARK SMILES IDX 60 89 55 90 56 91 57 92 58 93 59 94
REMARK H PARENT 19 6 10 14 3 23 24 31 80 50 50 61
REMARK Flexibility Score: inf
ROOT
ATOM      1  C   UNL A   1      33.370  28.750  26.881  1.00  0.00     0.023 C 
ENDROOT
BRANCH   1   2
ATOM      2  C   UNL A   1      32.544  27.870  25.955  1.00  0.00     0.116 C 
BRANCH   2   3
ATOM      3  N   UNL A   1      33.313  27.062  25.045  1.00  0.00    -0.355 N 
ATOM      4  C   UNL A   1      33.046  26.633  23.780  1.00  0.00     0.230 C 
ATOM      5  O   UNL A   1      34.003  26.111  23.197  1.00  0.00    -0.274 OA
ATOM      6  H   UNL A   1      34.185  26.769  25.397  1.00  0.00     0.163 HD
BRANCH   4   7
ATOM      7  C   UNL A   1      31.644  26.665  23.133  1.00  0.00     0.092 C 
ATOM      8  C   UNL A   1      30.482  26.036  23.929  1.00  0.00     0.124 C 
ATOM      9  C   UNL A   1      29.281  26.960  23.716  1.00  0.00     0.186 C 
ATOM     10  O   UNL A   1      29.754  28.172  23.130  1.00  0.00    -0.378 OA
ATOM     11  C   UNL A   1      31.185  28.144  23.175  1.00  0.00     0.179 C 
ATOM     12  C   UNL A   1      31.798  26.261  21.664  1.00  0.00     0.026 C 
BRANCH   8  13
ATOM     13  N   UNL A   1      30.146  24.621  23.738  1.00  0.00    -0.362 N 
ATOM     14  H   UNL A   1      29.296  24.424  23.283  1.00  0.00     0.162 HD
BRANCH  13  15
ATOM     15  C   UNL A   1      30.903  23.537  24.134  1.00  0.00     0.149 A 
ATOM     16  C   UNL A   1      32.191  21.207  24.777  1.00  0.00     0.150 A 
ATOM     17  C   UNL A   1      32.266  21.660  23.474  1.00  0.00     0.040 A 
ATOM     18  N   UNL A   1      31.505  21.876  25.724  1.00  0.00    -0.143 NA
ATOM     19  C   UNL A   1      31.643  22.865  23.165  1.00  0.00     0.051 A 
ATOM     20  N   UNL A   1      30.851  23.044  25.385  1.00  0.00    -0.132 NA
BRANCH  16  21
ATOM     21  C   UNL A   1      32.836  19.937  25.183  1.00  0.00     0.271 C 
ATOM     22  N   UNL A   1      34.176  19.920  25.499  1.00  0.00    -0.351 N 
ATOM     23  H   UNL A   1      34.578  19.026  25.596  1.00  0.00     0.163 HD
ATOM     24  O   UNL A   1      32.191  18.893  25.217  1.00  0.00    -0.267 OA
BRANCH  22  25
ATOM     25  C   UNL A   1      35.080  21.038  25.710  1.00  0.00     0.113 C 
ATOM     26  C   UNL A   1      36.401  20.816  24.999  1.00  0.00     0.027 C 
ENDBRANCH  22  25
ENDBRANCH  16  21
ENDBRANCH  13  15
ENDBRANCH   8  13
ENDBRANCH   4   7
ENDBRANCH   2   3
ENDBRANCH   1   2
BRANCH   1  27
ATOM     27  C   UNL A   1      32.744  30.095  27.231  1.00  0.00     0.023 C 
BRANCH  27  28
ATOM     28  C   UNL A   1      33.723  31.218  27.561  1.00  0.00     0.116 C 
BRANCH  28  29
ATOM     29  N   UNL A   1      33.119  32.543  27.611  1.00  0.00    -0.352 N 
ATOM     30  C   UNL A   1      33.480  33.625  28.387  1.00  0.00     0.251 C 
ATOM     31  H   UNL A   1      32.350  32.685  27.013  1.00  0.00     0.163 HD
ATOM     32  O   UNL A   1      32.828  34.658  28.346  1.00  0.00    -0.269 OA
BRANCH  30  33
ATOM     33  C   UNL A   1      34.633  33.492  29.302  1.00  0.00     0.039 A 
ATOM     34  C   UNL A   1      34.510  32.676  30.428  1.00  0.00     0.014 A 
ATOM     35  C   UNL A   1      35.854  34.096  28.994  1.00  0.00     0.014 A 
ATOM     36  C   UNL A   1      35.641  32.387  31.194  1.00  0.00     0.010 A 
ATOM     37  C   UNL A   1      36.993  33.745  29.710  1.00  0.00     0.010 A 
ATOM     38  C   UNL A   1      36.901  32.877  30.810  1.00  0.00    -0.014 A 
BRANCH  38  39
ATOM     39  C   UNL A   1      38.139  32.479  31.525  1.00  0.00     0.031 A 
ATOM     40  C   UNL A   1      39.048  31.436  30.933  1.00  0.00     0.074 A 
ATOM     41  C   UNL A   1      38.400  32.988  32.746  1.00  0.00     0.049 A 
ATOM     42  N   UNL A   1      40.119  30.890  31.447  1.00  0.00    -0.248 NA
ATOM     43  C   UNL A   1      38.684  30.916  29.605  1.00  0.00     0.031 C 
ATOM     44  C   UNL A   1      37.570  33.967  33.456  1.00  0.00     0.029 A 
ATOM     45  N   UNL A   1      39.435  32.744  33.614  1.00  0.00    -0.354 N 
ATOM     46  C   UNL A   1      40.543  29.946  30.519  1.00  0.00     0.074 A 
ATOM     47  C   UNL A   1      39.587  29.961  29.434  1.00  0.00     0.031 C 
ATOM     48  C   UNL A   1      38.142  34.257  34.635  1.00  0.00     0.029 A 
ATOM     49  C   UNL A   1      39.357  33.461  34.785  1.00  0.00     0.049 A 
ATOM     50  H   UNL A   1      40.165  32.114  33.418  1.00  0.00     0.167 HD
ATOM     51  C   UNL A   1      41.638  29.152  30.556  1.00  0.00     0.031 A 
ATOM     52  C   UNL A   1      40.168  33.476  35.860  1.00  0.00     0.031 A 
ATOM     53  C   UNL A   1      42.602  29.156  31.622  1.00  0.00     0.049 A 
ATOM     54  C   UNL A   1      41.391  32.602  35.869  1.00  0.00     0.074 A 
ATOM     55  C   UNL A   1      43.780  28.435  31.722  1.00  0.00     0.029 A 
ATOM     56  N   UNL A   1      42.504  29.923  32.774  1.00  0.00    -0.354 N 
ATOM     57  N   UNL A   1      41.808  31.761  34.952  1.00  0.00    -0.248 NA
ATOM     58  C   UNL A   1      42.259  32.687  37.052  1.00  0.00     0.031 C 
ATOM     59  C   UNL A   1      44.376  28.739  32.950  1.00  0.00     0.029 A 
ATOM     60  C   UNL A   1      43.592  29.683  33.595  1.00  0.00     0.049 A 
ATOM     61  H   UNL A   1      41.768  30.544  32.977  1.00  0.00     0.167 HD
ATOM     62  C   UNL A   1      43.000  31.235  35.437  1.00  0.00     0.074 A 
ATOM     63  C   UNL A   1      43.244  31.861  36.720  1.00  0.00     0.031 C 
ATOM     64  C   UNL A   1      43.819  30.316  34.868  1.00  0.00     0.031 A 
BRANCH  51  65
ATOM     65  C   UNL A   1      41.849  28.213  29.399  1.00  0.00    -0.014 A 
ATOM     66  C   UNL A   1      41.256  26.936  29.386  1.00  0.00     0.010 A 
ATOM     67  C   UNL A   1      42.631  28.616  28.302  1.00  0.00     0.010 A 
ATOM     68  C   UNL A   1      41.483  26.062  28.321  1.00  0.00     0.020 A 
ATOM     69  C   UNL A   1      42.838  27.754  27.222  1.00  0.00     0.020 A 
ATOM     70  C   UNL A   1      42.280  26.474  27.248  1.00  0.00     0.054 A 
BRANCH  70  71
ATOM     71  S   UNL A   1      42.551  25.322  25.874  1.00  0.00     0.124 S 
ATOM     72  O   UNL A   1      44.002  25.151  25.910  1.00  0.00    -0.237 OA
ATOM     73  O   UNL A   1      41.772  24.154  26.273  1.00  0.00    -0.237 OA
ATOM     74  O   UNL A   1      42.038  26.044  24.712  1.00  0.00    -0.744 OA
ENDBRANCH  70  71
ENDBRANCH  51  65
BRANCH  52  75
ATOM     75  C   UNL A   1      39.863  34.370  37.009  1.00  0.00    -0.014 A 
ATOM     76  C   UNL A   1      39.186  33.869  38.135  1.00  0.00     0.010 A 
ATOM     77  C   UNL A   1      40.260  35.719  36.992  1.00  0.00     0.010 A 
ATOM     78  C   UNL A   1      38.896  34.706  39.217  1.00  0.00     0.020 A 
ATOM     79  C   UNL A   1      39.992  36.553  38.082  1.00  0.00     0.020 A 
ATOM     80  C   UNL A   1      39.301  36.043  39.184  1.00  0.00     0.054 A 
BRANCH  80  81
ATOM     81  S   UNL A   1      38.965  37.098  40.622  1.00  0.00     0.124 S 
ATOM     82  O   UNL A   1      38.266  38.225  40.014  1.00  0.00    -0.237 OA
ATOM     83  O   UNL A   1      38.151  36.229  41.468  1.00  0.00    -0.237 OA
ATOM     84  O   UNL A   1      40.297  37.392  41.146  1.00  0.00    -0.744 OA
ENDBRANCH  80  81
ENDBRANCH  52  75
BRANCH  64  85
ATOM     85  C   UNL A   1      45.074  29.956  35.614  1.00  0.00    -0.014 A 
ATOM     86  C   UNL A   1      46.248  30.716  35.471  1.00  0.00     0.010 A 
ATOM     87  C   UNL A   1      45.059  28.875  36.515  1.00  0.00     0.010 A 
ATOM     88  C   UNL A   1      47.395  30.383  36.197  1.00  0.00     0.020 A 
ATOM     89  C   UNL A   1      46.197  28.555  37.260  1.00  0.00     0.020 A 
ATOM     90  C   UNL A   1      47.361  29.305  37.086  1.00  0.00     0.054 A 
BRANCH  90  91
ATOM     91  S   UNL A   1      48.847  28.922  38.054  1.00  0.00     0.124 S 
ATOM     92  O   UNL A   1      48.889  30.033  39.000  1.00  0.00    -0.237 OA
ATOM     93  O   UNL A   1      48.529  27.617  38.631  1.00  0.00    -0.237 OA
ATOM     94  O   UNL A   1      49.915  28.910  37.057  1.00  0.00    -0.744 OA
ENDBRANCH  90  91
ENDBRANCH  64  85
ENDBRANCH  38  39
ENDBRANCH  30  33
ENDBRANCH  28  29
ENDBRANCH  27  28
ENDBRANCH   1  27
TORSDOF 18
ENDMDL
