MODEL 1
REMARK VINA RESULT:     -12.2      0.000      0.000
REMARK SMILES Cc1cc(C)cc(N(C)S(=O)(=O)c2ccc(F)c(C(=O)NCCCCNC(=O)c3ccc(-c4c5nc(c(-c6ccc(S(=O)(=O)[O-])cc6)c6ccc([nH]6)c(-c6ccc(S(=O)(=O)[O-])cc6)c6nc(c(-c7ccc(S(=O)(=O)[O-])cc7)c7ccc4[nH]7)C=C6)C=C5)cc3)c2)c1
REMARK SMILES IDX 23 1 22 2 21 3 19 4 20 5 18 7 13 8 14 9 89 10 15 11 16 12
REMARK SMILES IDX 17 13 10 14 11 15 12 16 8 17 9 18 7 19 1 20 2 21 3 22 90 23
REMARK SMILES IDX 4 24 5 25 6 26 24 27 25 28 26 29 27 30 28 32 29 33 30 34
REMARK SMILES IDX 88 35 31 36 87 37 32 38 33 39 34 40 81 41 35 42 86 43 80 44
REMARK SMILES IDX 82 45 36 46 85 47 79 48 78 49 37 51 67 52 48 53 66 54 49 55
REMARK SMILES IDX 52 56 65 57 83 58 50 59 51 60 64 62 84 63 53 64 38 65 39 66
REMARK SMILES IDX 47 67 40 68 46 69 41 70 42 71 43 72 44 73 45 74 68 75 69 76
REMARK SMILES IDX 77 77 70 78 76 79 71 80 72 81 73 82 74 83 75 84 54 85 55 86
REMARK SMILES IDX 63 87 56 88 62 89 57 90 58 91 59 92 60 93 61 94
REMARK H PARENT 21 6 26 31 82 50 52 61
REMARK Flexibility Score: inf
ROOT
ATOM      1  C   UNL A   1      33.206  29.990  26.814  1.00  0.00     0.023 C 
ENDROOT
BRANCH   1   2
ATOM      2  C   UNL A   1      32.452  29.788  25.506  1.00  0.00     0.116 C 
BRANCH   2   3
ATOM      3  N   UNL A   1      33.318  29.690  24.346  1.00  0.00    -0.352 N 
ATOM      4  C   UNL A   1      33.431  28.729  23.377  1.00  0.00     0.254 C 
ATOM      5  O   UNL A   1      34.278  28.885  22.496  1.00  0.00    -0.269 OA
ATOM      6  H   UNL A   1      33.934  30.450  24.236  1.00  0.00     0.163 HD
BRANCH   4   7
ATOM      7  C   UNL A   1      32.628  27.482  23.342  1.00  0.00     0.076 A 
ATOM      8  C   UNL A   1      32.688  25.055  23.515  1.00  0.00     0.089 A 
ATOM      9  C   UNL A   1      31.336  25.012  23.128  1.00  0.00     0.025 A 
ATOM     10  C   UNL A   1      33.300  26.291  23.699  1.00  0.00     0.039 A 
ATOM     11  C   UNL A   1      30.658  26.184  22.799  1.00  0.00     0.041 A 
ATOM     12  C   UNL A   1      31.330  27.401  22.838  1.00  0.00     0.136 A 
ATOM     13  F   UNL A   1      30.706  28.464  22.311  1.00  0.00    -0.206 F 
BRANCH   8  14
ATOM     14  S   UNL A   1      33.514  23.467  23.480  1.00  0.00     0.264 S 
ATOM     15  O   UNL A   1      34.788  23.751  22.843  1.00  0.00    -0.201 OA
ATOM     16  O   UNL A   1      32.559  22.583  22.837  1.00  0.00    -0.201 OA
BRANCH  14  17
ATOM     17  N   UNL A   1      33.872  22.806  25.042  1.00  0.00    -0.269 N 
ATOM     18  C   UNL A   1      33.278  23.543  26.194  1.00  0.00     0.164 C 
BRANCH  17  19
ATOM     19  C   UNL A   1      35.309  22.444  25.244  1.00  0.00     0.052 A 
ATOM     20  C   UNL A   1      37.746  19.517  24.783  1.00  0.00     0.044 C 
ATOM     21  C   UNL A   1      37.212  20.883  25.106  1.00  0.00    -0.049 A 
ATOM     22  C   UNL A   1      38.075  21.874  25.570  1.00  0.00     0.007 A 
ATOM     23  C   UNL A   1      35.844  21.175  24.957  1.00  0.00     0.030 A 
ATOM     24  C   UNL A   1      37.575  23.128  25.926  1.00  0.00    -0.049 A 
ATOM     25  C   UNL A   1      38.520  24.188  26.413  1.00  0.00     0.044 C 
ATOM     26  C   UNL A   1      36.194  23.377  25.817  1.00  0.00     0.030 A 
ENDBRANCH  17  19
ENDBRANCH  14  17
ENDBRANCH   8  14
ENDBRANCH   4   7
ENDBRANCH   2   3
ENDBRANCH   1   2
BRANCH   1  27
ATOM     27  C   UNL A   1      34.351  29.023  27.103  1.00  0.00     0.023 C 
BRANCH  27  28
ATOM     28  C   UNL A   1      35.585  29.610  27.779  1.00  0.00     0.116 C 
BRANCH  28  29
ATOM     29  N   UNL A   1      35.432  29.829  29.208  1.00  0.00    -0.352 N 
ATOM     30  C   UNL A   1      36.393  29.902  30.194  1.00  0.00     0.251 C 
ATOM     31  H   UNL A   1      34.505  29.940  29.518  1.00  0.00     0.163 HD
ATOM     32  O   UNL A   1      36.064  30.041  31.361  1.00  0.00    -0.269 OA
BRANCH  30  33
ATOM     33  C   UNL A   1      37.821  29.759  29.831  1.00  0.00     0.039 A 
ATOM     34  C   UNL A   1      38.749  29.530  30.850  1.00  0.00     0.014 A 
ATOM     35  C   UNL A   1      38.235  29.806  28.498  1.00  0.00     0.014 A 
ATOM     36  C   UNL A   1      40.078  29.253  30.523  1.00  0.00     0.010 A 
ATOM     37  C   UNL A   1      39.541  29.456  28.171  1.00  0.00     0.010 A 
ATOM     38  C   UNL A   1      40.474  29.165  29.178  1.00  0.00    -0.014 A 
BRANCH  38  39
ATOM     39  C   UNL A   1      41.851  28.755  28.804  1.00  0.00     0.031 A 
ATOM     40  C   UNL A   1      42.957  29.775  28.764  1.00  0.00     0.074 A 
ATOM     41  C   UNL A   1      42.091  27.481  28.430  1.00  0.00     0.049 A 
ATOM     42  N   UNL A   1      44.201  29.627  28.384  1.00  0.00    -0.248 NA
ATOM     43  C   UNL A   1      42.613  31.145  29.177  1.00  0.00     0.031 C 
ATOM     44  C   UNL A   1      41.094  26.408  28.379  1.00  0.00     0.029 A 
ATOM     45  N   UNL A   1      43.249  26.874  28.011  1.00  0.00    -0.354 N 
ATOM     46  C   UNL A   1      44.781  30.885  28.495  1.00  0.00     0.074 A 
ATOM     47  C   UNL A   1      43.743  31.793  28.930  1.00  0.00     0.031 C 
ATOM     48  C   UNL A   1      41.687  25.274  27.974  1.00  0.00     0.029 A 
ATOM     49  C   UNL A   1      43.095  25.543  27.702  1.00  0.00     0.049 A 
ATOM     50  H   UNL A   1      44.110  27.348  27.938  1.00  0.00     0.167 HD
ATOM     51  C   UNL A   1      46.067  31.247  28.277  1.00  0.00     0.031 A 
ATOM     52  C   UNL A   1      43.985  24.640  27.244  1.00  0.00     0.031 A 
ATOM     53  C   UNL A   1      47.102  30.340  27.863  1.00  0.00     0.049 A 
ATOM     54  C   UNL A   1      45.410  25.066  27.019  1.00  0.00     0.074 A 
ATOM     55  C   UNL A   1      48.447  30.600  27.664  1.00  0.00     0.029 A 
ATOM     56  N   UNL A   1      46.912  28.993  27.592  1.00  0.00    -0.354 N 
ATOM     57  N   UNL A   1      45.952  26.249  27.186  1.00  0.00    -0.248 NA
ATOM     58  C   UNL A   1      46.347  24.033  26.557  1.00  0.00     0.031 C 
ATOM     59  C   UNL A   1      49.062  29.420  27.235  1.00  0.00     0.029 A 
ATOM     60  C   UNL A   1      48.111  28.413  27.216  1.00  0.00     0.049 A 
ATOM     61  H   UNL A   1      46.051  28.520  27.657  1.00  0.00     0.167 HD
ATOM     62  C   UNL A   1      47.298  26.095  26.873  1.00  0.00     0.074 A 
ATOM     63  C   UNL A   1      47.491  24.703  26.522  1.00  0.00     0.031 C 
ATOM     64  C   UNL A   1      48.286  27.024  26.876  1.00  0.00     0.031 A 
BRANCH  51  65
ATOM     65  C   UNL A   1      46.427  32.693  28.491  1.00  0.00    -0.014 A 
ATOM     66  C   UNL A   1      46.878  33.147  29.744  1.00  0.00     0.010 A 
ATOM     67  C   UNL A   1      46.353  33.602  27.421  1.00  0.00     0.010 A 
ATOM     68  C   UNL A   1      47.212  34.490  29.933  1.00  0.00     0.020 A 
ATOM     69  C   UNL A   1      46.712  34.942  27.598  1.00  0.00     0.020 A 
ATOM     70  C   UNL A   1      47.124  35.380  28.859  1.00  0.00     0.054 A 
BRANCH  70  71
ATOM     71  S   UNL A   1      47.591  37.111  29.126  1.00  0.00     0.124 S 
ATOM     72  O   UNL A   1      48.819  37.215  28.342  1.00  0.00    -0.237 OA
ATOM     73  O   UNL A   1      46.443  37.839  28.593  1.00  0.00    -0.237 OA
ATOM     74  O   UNL A   1      47.766  37.205  30.573  1.00  0.00    -0.744 OA
ENDBRANCH  70  71
ENDBRANCH  51  65
BRANCH  52  75
ATOM     75  C   UNL A   1      43.560  23.239  26.980  1.00  0.00    -0.014 A 
ATOM     76  C   UNL A   1      43.189  22.393  28.041  1.00  0.00     0.010 A 
ATOM     77  C   UNL A   1      43.524  22.742  25.665  1.00  0.00     0.010 A 
ATOM     78  C   UNL A   1      42.816  21.068  27.794  1.00  0.00     0.020 A 
ATOM     79  C   UNL A   1      43.125  21.425  25.412  1.00  0.00     0.020 A 
ATOM     80  C   UNL A   1      42.788  20.593  26.480  1.00  0.00     0.054 A 
BRANCH  80  81
ATOM     81  S   UNL A   1      42.263  18.882  26.177  1.00  0.00     0.124 S 
ATOM     82  O   UNL A   1      40.867  19.058  25.790  1.00  0.00    -0.237 OA
ATOM     83  O   UNL A   1      43.167  18.457  25.111  1.00  0.00    -0.237 OA
ATOM     84  O   UNL A   1      42.481  18.227  27.465  1.00  0.00    -0.744 OA
ENDBRANCH  80  81
ENDBRANCH  52  75
BRANCH  64  85
ATOM     85  C   UNL A   1      49.673  26.559  26.523  1.00  0.00    -0.014 A 
ATOM     86  C   UNL A   1      50.536  26.040  27.501  1.00  0.00     0.010 A 
ATOM     87  C   UNL A   1      50.092  26.591  25.180  1.00  0.00     0.010 A 
ATOM     88  C   UNL A   1      51.810  25.586  27.148  1.00  0.00     0.020 A 
ATOM     89  C   UNL A   1      51.355  26.116  24.820  1.00  0.00     0.020 A 
ATOM     90  C   UNL A   1      52.212  25.628  25.809  1.00  0.00     0.054 A 
BRANCH  90  91
ATOM     91  S   UNL A   1      53.851  24.991  25.367  1.00  0.00     0.124 S 
ATOM     92  O   UNL A   1      54.610  25.229  26.593  1.00  0.00    -0.237 OA
ATOM     93  O   UNL A   1      53.578  23.588  25.059  1.00  0.00    -0.237 OA
ATOM     94  O   UNL A   1      54.243  25.808  24.222  1.00  0.00    -0.744 OA
ENDBRANCH  90  91
ENDBRANCH  64  85
ENDBRANCH  38  39
ENDBRANCH  30  33
ENDBRANCH  28  29
ENDBRANCH  27  28
ENDBRANCH   1  27
TORSDOF 17
ENDMDL
MODEL 2
REMARK VINA RESULT:     -12.1      2.948      3.908
REMARK SMILES Cc1cc(C)cc(N(C)S(=O)(=O)c2ccc(F)c(C(=O)NCCCCNC(=O)c3ccc(-c4c5nc(c(-c6ccc(S(=O)(=O)[O-])cc6)c6ccc([nH]6)c(-c6ccc(S(=O)(=O)[O-])cc6)c6nc(c(-c7ccc(S(=O)(=O)[O-])cc7)c7ccc4[nH]7)C=C6)C=C5)cc3)c2)c1
REMARK SMILES IDX 23 1 22 2 21 3 19 4 20 5 18 7 13 8 14 9 89 10 15 11 16 12
REMARK SMILES IDX 17 13 10 14 11 15 12 16 8 17 9 18 7 19 1 20 2 21 3 22 90 23
REMARK SMILES IDX 4 24 5 25 6 26 24 27 25 28 26 29 27 30 28 32 29 33 30 34
REMARK SMILES IDX 88 35 31 36 87 37 32 38 33 39 34 40 81 41 35 42 86 43 80 44
REMARK SMILES IDX 82 45 36 46 85 47 79 48 78 49 37 51 67 52 48 53 66 54 49 55
REMARK SMILES IDX 52 56 65 57 83 58 50 59 51 60 64 62 84 63 53 64 38 65 39 66
REMARK SMILES IDX 47 67 40 68 46 69 41 70 42 71 43 72 44 73 45 74 68 75 69 76
REMARK SMILES IDX 77 77 70 78 76 79 71 80 72 81 73 82 74 83 75 84 54 85 55 86
REMARK SMILES IDX 63 87 56 88 62 89 57 90 58 91 59 92 60 93 61 94
REMARK H PARENT 21 6 26 31 82 50 52 61
REMARK Flexibility Score: inf
ROOT
ATOM      1  C   UNL A   1      31.961  28.451  24.657  1.00  0.00     0.023 C 
ENDROOT
BRANCH   1   2
ATOM      2  C   UNL A   1      31.556  28.483  23.189  1.00  0.00     0.116 C 
BRANCH   2   3
ATOM      3  N   UNL A   1      32.437  27.719  22.326  1.00  0.00    -0.352 N 
ATOM      4  C   UNL A   1      32.970  26.464  22.456  1.00  0.00     0.254 C 
ATOM      5  O   UNL A   1      33.719  26.053  21.568  1.00  0.00    -0.269 OA
ATOM      6  H   UNL A   1      32.698  28.186  21.500  1.00  0.00     0.163 HD
BRANCH   4   7
ATOM      7  C   UNL A   1      32.739  25.577  23.624  1.00  0.00     0.076 A 
ATOM      8  C   UNL A   1      33.794  24.243  25.364  1.00  0.00     0.089 A 
ATOM      9  C   UNL A   1      32.528  23.746  25.725  1.00  0.00     0.025 A 
ATOM     10  C   UNL A   1      33.882  25.215  24.373  1.00  0.00     0.039 A 
ATOM     11  C   UNL A   1      31.393  24.117  25.008  1.00  0.00     0.041 A 
ATOM     12  C   UNL A   1      31.517  24.973  23.918  1.00  0.00     0.136 A 
ATOM     13  F   UNL A   1      30.442  25.130  23.135  1.00  0.00    -0.206 F 
BRANCH   8  14
ATOM     14  S   UNL A   1      35.168  23.351  26.086  1.00  0.00     0.264 S 
ATOM     15  O   UNL A   1      34.658  22.906  27.372  1.00  0.00    -0.201 OA
ATOM     16  O   UNL A   1      36.273  24.290  26.027  1.00  0.00    -0.201 OA
BRANCH  14  17
ATOM     17  N   UNL A   1      35.641  21.928  25.217  1.00  0.00    -0.269 N 
ATOM     18  C   UNL A   1      36.686  22.140  24.174  1.00  0.00     0.164 C 
BRANCH  17  19
ATOM     19  C   UNL A   1      34.500  21.080  24.752  1.00  0.00     0.052 A 
ATOM     20  C   UNL A   1      32.647  17.832  25.608  1.00  0.00     0.044 C 
ATOM     21  C   UNL A   1      33.015  19.120  24.930  1.00  0.00    -0.049 A 
ATOM     22  C   UNL A   1      32.254  19.583  23.859  1.00  0.00     0.007 A 
ATOM     23  C   UNL A   1      34.128  19.866  25.358  1.00  0.00     0.030 A 
ATOM     24  C   UNL A   1      32.624  20.751  23.188  1.00  0.00    -0.049 A 
ATOM     25  C   UNL A   1      31.788  21.241  22.043  1.00  0.00     0.044 C 
ATOM     26  C   UNL A   1      33.773  21.450  23.603  1.00  0.00     0.030 A 
ENDBRANCH  17  19
ENDBRANCH  14  17
ENDBRANCH   8  14
ENDBRANCH   4   7
ENDBRANCH   2   3
ENDBRANCH   1   2
BRANCH   1  27
ATOM     27  C   UNL A   1      33.363  28.951  24.993  1.00  0.00     0.023 C 
BRANCH  27  28
ATOM     28  C   UNL A   1      33.786  28.863  26.455  1.00  0.00     0.116 C 
BRANCH  28  29
ATOM     29  N   UNL A   1      33.655  30.112  27.188  1.00  0.00    -0.352 N 
ATOM     30  C   UNL A   1      34.553  30.737  28.027  1.00  0.00     0.251 C 
ATOM     31  H   UNL A   1      32.798  30.580  27.068  1.00  0.00     0.163 HD
ATOM     32  O   UNL A   1      34.240  31.768  28.600  1.00  0.00    -0.269 OA
BRANCH  30  33
ATOM     33  C   UNL A   1      35.878  30.121  28.265  1.00  0.00     0.039 A 
ATOM     34  C   UNL A   1      36.834  30.178  27.248  1.00  0.00     0.014 A 
ATOM     35  C   UNL A   1      36.189  29.532  29.493  1.00  0.00     0.014 A 
ATOM     36  C   UNL A   1      38.133  29.730  27.497  1.00  0.00     0.010 A 
ATOM     37  C   UNL A   1      37.501  29.155  29.763  1.00  0.00     0.010 A 
ATOM     38  C   UNL A   1      38.489  29.260  28.772  1.00  0.00    -0.014 A 
BRANCH  38  39
ATOM     39  C   UNL A   1      39.891  28.890  29.094  1.00  0.00     0.031 A 
ATOM     40  C   UNL A   1      40.813  29.901  29.718  1.00  0.00     0.074 A 
ATOM     41  C   UNL A   1      40.354  27.669  28.756  1.00  0.00     0.049 A 
ATOM     42  N   UNL A   1      42.088  29.793  29.995  1.00  0.00    -0.248 NA
ATOM     43  C   UNL A   1      40.236  31.215  30.046  1.00  0.00     0.031 C 
ATOM     44  C   UNL A   1      39.574  26.614  28.102  1.00  0.00     0.029 A 
ATOM     45  N   UNL A   1      41.599  27.110  28.909  1.00  0.00    -0.354 N 
ATOM     46  C   UNL A   1      42.467  31.026  30.513  1.00  0.00     0.074 A 
ATOM     47  C   UNL A   1      41.301  31.882  30.466  1.00  0.00     0.031 C 
ATOM     48  C   UNL A   1      40.351  25.533  27.930  1.00  0.00     0.029 A 
ATOM     49  C   UNL A   1      41.692  25.825  28.426  1.00  0.00     0.049 A 
ATOM     50  H   UNL A   1      42.355  27.584  29.326  1.00  0.00     0.167 HD
ATOM     51  C   UNL A   1      43.670  31.406  31.005  1.00  0.00     0.031 A 
ATOM     52  C   UNL A   1      42.740  24.979  28.381  1.00  0.00     0.031 A 
ATOM     53  C   UNL A   1      44.822  30.549  31.069  1.00  0.00     0.049 A 
ATOM     54  C   UNL A   1      44.064  25.421  28.942  1.00  0.00     0.074 A 
ATOM     55  C   UNL A   1      46.072  30.825  31.595  1.00  0.00     0.029 A 
ATOM     56  N   UNL A   1      44.865  29.245  30.598  1.00  0.00    -0.354 N 
ATOM     57  N   UNL A   1      44.385  26.573  29.481  1.00  0.00    -0.248 NA
ATOM     58  C   UNL A   1      45.161  24.445  28.903  1.00  0.00     0.031 C 
ATOM     59  C   UNL A   1      46.883  29.700  31.408  1.00  0.00     0.029 A 
ATOM     60  C   UNL A   1      46.123  28.707  30.811  1.00  0.00     0.049 A 
ATOM     61  H   UNL A   1      44.113  28.772  30.175  1.00  0.00     0.167 HD
ATOM     62  C   UNL A   1      45.716  26.451  29.866  1.00  0.00     0.074 A 
ATOM     63  C   UNL A   1      46.133  25.109  29.514  1.00  0.00     0.031 C 
ATOM     64  C   UNL A   1      46.520  27.368  30.459  1.00  0.00     0.031 A 
BRANCH  51  65
ATOM     65  C   UNL A   1      43.796  32.814  31.520  1.00  0.00    -0.014 A 
ATOM     66  C   UNL A   1      44.216  33.857  30.673  1.00  0.00     0.010 A 
ATOM     67  C   UNL A   1      43.454  33.110  32.851  1.00  0.00     0.010 A 
ATOM     68  C   UNL A   1      44.328  35.162  31.158  1.00  0.00     0.020 A 
ATOM     69  C   UNL A   1      43.539  34.420  33.334  1.00  0.00     0.020 A 
ATOM     70  C   UNL A   1      43.991  35.435  32.487  1.00  0.00     0.054 A 
BRANCH  70  71
ATOM     71  S   UNL A   1      44.119  37.143  33.082  1.00  0.00     0.124 S 
ATOM     72  O   UNL A   1      44.006  37.903  31.840  1.00  0.00    -0.237 OA
ATOM     73  O   UNL A   1      42.980  37.252  33.990  1.00  0.00    -0.237 OA
ATOM     74  O   UNL A   1      45.430  37.189  33.725  1.00  0.00    -0.744 OA
ENDBRANCH  70  71
ENDBRANCH  51  65
BRANCH  52  75
ATOM     75  C   UNL A   1      42.579  23.621  27.793  1.00  0.00    -0.014 A 
ATOM     76  C   UNL A   1      42.163  22.542  28.593  1.00  0.00     0.010 A 
ATOM     77  C   UNL A   1      42.843  23.400  26.429  1.00  0.00     0.010 A 
ATOM     78  C   UNL A   1      42.038  21.261  28.046  1.00  0.00     0.020 A 
ATOM     79  C   UNL A   1      42.694  22.125  25.874  1.00  0.00     0.020 A 
ATOM     80  C   UNL A   1      42.306  21.061  26.689  1.00  0.00     0.054 A 
BRANCH  80  81
ATOM     81  S   UNL A   1      42.101  19.399  25.990  1.00  0.00     0.124 S 
ATOM     82  O   UNL A   1      40.659  19.338  25.773  1.00  0.00    -0.237 OA
ATOM     83  O   UNL A   1      42.921  19.459  24.783  1.00  0.00    -0.237 OA
ATOM     84  O   UNL A   1      42.616  18.523  27.039  1.00  0.00    -0.744 OA
ENDBRANCH  80  81
ENDBRANCH  52  75
BRANCH  64  85
ATOM     85  C   UNL A   1      47.922  26.942  30.798  1.00  0.00    -0.014 A 
ATOM     86  C   UNL A   1      48.987  27.176  29.913  1.00  0.00     0.010 A 
ATOM     87  C   UNL A   1      48.182  26.350  32.048  1.00  0.00     0.010 A 
ATOM     88  C   UNL A   1      50.288  26.800  30.259  1.00  0.00     0.020 A 
ATOM     89  C   UNL A   1      49.484  25.996  32.408  1.00  0.00     0.020 A 
ATOM     90  C   UNL A   1      50.528  26.210  31.505  1.00  0.00     0.054 A 
BRANCH  90  91
ATOM     91  S   UNL A   1      52.230  25.773  31.952  1.00  0.00     0.124 S 
ATOM     92  O   UNL A   1      52.106  24.352  32.266  1.00  0.00    -0.237 OA
ATOM     93  O   UNL A   1      52.973  26.085  30.733  1.00  0.00    -0.237 OA
ATOM     94  O   UNL A   1      52.523  26.640  33.090  1.00  0.00    -0.744 OA
ENDBRANCH  90  91
ENDBRANCH  64  85
ENDBRANCH  38  39
ENDBRANCH  30  33
ENDBRANCH  28  29
ENDBRANCH  27  28
ENDBRANCH   1  27
TORSDOF 17
ENDMDL
MODEL 3
REMARK VINA RESULT:     -12.0      1.422      2.294
REMARK SMILES Cc1cc(C)cc(N(C)S(=O)(=O)c2ccc(F)c(C(=O)NCCCCNC(=O)c3ccc(-c4c5nc(c(-c6ccc(S(=O)(=O)[O-])cc6)c6ccc([nH]6)c(-c6ccc(S(=O)(=O)[O-])cc6)c6nc(c(-c7ccc(S(=O)(=O)[O-])cc7)c7ccc4[nH]7)C=C6)C=C5)cc3)c2)c1
REMARK SMILES IDX 23 1 22 2 21 3 19 4 20 5 18 7 13 8 14 9 89 10 15 11 16 12
REMARK SMILES IDX 17 13 10 14 11 15 12 16 8 17 9 18 7 19 1 20 2 21 3 22 90 23
REMARK SMILES IDX 4 24 5 25 6 26 24 27 25 28 26 29 27 30 28 32 29 33 30 34
REMARK SMILES IDX 88 35 31 36 87 37 32 38 33 39 34 40 81 41 35 42 86 43 80 44
REMARK SMILES IDX 82 45 36 46 85 47 79 48 78 49 37 51 67 52 48 53 66 54 49 55
REMARK SMILES IDX 52 56 65 57 83 58 50 59 51 60 64 62 84 63 53 64 38 65 39 66
REMARK SMILES IDX 47 67 40 68 46 69 41 70 42 71 43 72 44 73 45 74 68 75 69 76
REMARK SMILES IDX 77 77 70 78 76 79 71 80 72 81 73 82 74 83 75 84 54 85 55 86
REMARK SMILES IDX 63 87 56 88 62 89 57 90 58 91 59 92 60 93 61 94
REMARK H PARENT 21 6 26 31 82 50 52 61
REMARK Flexibility Score: inf
ROOT
ATOM      1  C   UNL A   1      33.165  30.182  27.290  1.00  0.00     0.023 C 
ENDROOT
BRANCH   1   2
ATOM      2  C   UNL A   1      32.194  30.390  26.134  1.00  0.00     0.116 C 
BRANCH   2   3
ATOM      3  N   UNL A   1      32.732  29.996  24.846  1.00  0.00    -0.352 N 
ATOM      4  C   UNL A   1      32.330  29.043  23.948  1.00  0.00     0.254 C 
ATOM      5  O   UNL A   1      32.990  28.898  22.917  1.00  0.00    -0.269 OA
ATOM      6  H   UNL A   1      33.528  30.504  24.568  1.00  0.00     0.163 HD
BRANCH   4   7
ATOM      7  C   UNL A   1      31.173  28.137  24.155  1.00  0.00     0.076 A 
ATOM      8  C   UNL A   1      30.363  26.154  25.310  1.00  0.00     0.089 A 
ATOM      9  C   UNL A   1      29.185  26.211  24.544  1.00  0.00     0.025 A 
ATOM     10  C   UNL A   1      31.312  27.163  25.170  1.00  0.00     0.039 A 
ATOM     11  C   UNL A   1      29.029  27.184  23.558  1.00  0.00     0.041 A 
ATOM     12  C   UNL A   1      30.055  28.094  23.322  1.00  0.00     0.136 A 
ATOM     13  F   UNL A   1      29.951  28.867  22.233  1.00  0.00    -0.206 F 
BRANCH   8  14
ATOM     14  S   UNL A   1      30.585  24.620  26.205  1.00  0.00     0.264 S 
ATOM     15  O   UNL A   1      29.277  24.359  26.780  1.00  0.00    -0.201 OA
ATOM     16  O   UNL A   1      31.723  24.873  27.070  1.00  0.00    -0.201 OA
BRANCH  14  17
ATOM     17  N   UNL A   1      30.975  23.255  25.210  1.00  0.00    -0.269 N 
ATOM     18  C   UNL A   1      31.169  21.971  25.944  1.00  0.00     0.164 C 
BRANCH  17  19
ATOM     19  C   UNL A   1      32.031  23.519  24.185  1.00  0.00     0.052 A 
ATOM     20  C   UNL A   1      32.585  25.384  20.879  1.00  0.00     0.044 C 
ATOM     21  C   UNL A   1      32.850  24.559  22.105  1.00  0.00    -0.049 A 
ATOM     22  C   UNL A   1      34.126  24.051  22.338  1.00  0.00     0.007 A 
ATOM     23  C   UNL A   1      31.820  24.283  23.022  1.00  0.00     0.030 A 
ATOM     24  C   UNL A   1      34.365  23.237  23.447  1.00  0.00    -0.049 A 
ATOM     25  C   UNL A   1      35.748  22.706  23.689  1.00  0.00     0.044 C 
ATOM     26  C   UNL A   1      33.304  22.932  24.321  1.00  0.00     0.030 A 
ENDBRANCH  17  19
ENDBRANCH  14  17
ENDBRANCH   8  14
ENDBRANCH   4   7
ENDBRANCH   2   3
ENDBRANCH   1   2
BRANCH   1  27
ATOM     27  C   UNL A   1      34.386  29.310  27.012  1.00  0.00     0.023 C 
BRANCH  27  28
ATOM     28  C   UNL A   1      35.669  29.676  27.750  1.00  0.00     0.116 C 
BRANCH  28  29
ATOM     29  N   UNL A   1      35.521  29.755  29.194  1.00  0.00    -0.352 N 
ATOM     30  C   UNL A   1      36.484  29.718  30.180  1.00  0.00     0.251 C 
ATOM     31  H   UNL A   1      34.596  29.848  29.516  1.00  0.00     0.163 HD
ATOM     32  O   UNL A   1      36.159  29.746  31.355  1.00  0.00    -0.269 OA
BRANCH  30  33
ATOM     33  C   UNL A   1      37.909  29.591  29.800  1.00  0.00     0.039 A 
ATOM     34  C   UNL A   1      38.840  29.284  30.795  1.00  0.00     0.014 A 
ATOM     35  C   UNL A   1      38.317  29.730  28.472  1.00  0.00     0.014 A 
ATOM     36  C   UNL A   1      40.166  29.022  30.443  1.00  0.00     0.010 A 
ATOM     37  C   UNL A   1      39.620  29.396  28.114  1.00  0.00     0.010 A 
ATOM     38  C   UNL A   1      40.555  29.028  29.093  1.00  0.00    -0.014 A 
BRANCH  38  39
ATOM     39  C   UNL A   1      41.928  28.637  28.684  1.00  0.00     0.031 A 
ATOM     40  C   UNL A   1      43.015  29.674  28.602  1.00  0.00     0.074 A 
ATOM     41  C   UNL A   1      42.177  27.363  28.315  1.00  0.00     0.049 A 
ATOM     42  N   UNL A   1      44.250  29.542  28.188  1.00  0.00    -0.248 NA
ATOM     43  C   UNL A   1      42.661  31.042  29.012  1.00  0.00     0.031 C 
ATOM     44  C   UNL A   1      41.197  26.274  28.302  1.00  0.00     0.029 A 
ATOM     45  N   UNL A   1      43.333  26.771  27.868  1.00  0.00    -0.354 N 
ATOM     46  C   UNL A   1      44.812  30.810  28.270  1.00  0.00     0.074 A 
ATOM     47  C   UNL A   1      43.772  31.706  28.727  1.00  0.00     0.031 C 
ATOM     48  C   UNL A   1      41.797  25.145  27.892  1.00  0.00     0.029 A 
ATOM     49  C   UNL A   1      43.193  25.434  27.576  1.00  0.00     0.049 A 
ATOM     50  H   UNL A   1      44.183  27.258  27.767  1.00  0.00     0.167 HD
ATOM     51  C   UNL A   1      46.085  31.191  28.013  1.00  0.00     0.031 A 
ATOM     52  C   UNL A   1      44.084  24.542  27.102  1.00  0.00     0.031 A 
ATOM     53  C   UNL A   1      47.123  30.297  27.578  1.00  0.00     0.049 A 
ATOM     54  C   UNL A   1      45.495  24.988  26.832  1.00  0.00     0.074 A 
ATOM     55  C   UNL A   1      48.457  30.577  27.338  1.00  0.00     0.029 A 
ATOM     56  N   UNL A   1      46.947  28.945  27.325  1.00  0.00    -0.354 N 
ATOM     57  N   UNL A   1      46.021  26.181  26.973  1.00  0.00    -0.248 NA
ATOM     58  C   UNL A   1      46.435  23.966  26.354  1.00  0.00     0.031 C 
ATOM     59  C   UNL A   1      49.079  29.403  26.902  1.00  0.00     0.029 A 
ATOM     60  C   UNL A   1      48.145  28.380  26.920  1.00  0.00     0.049 A 
ATOM     61  H   UNL A   1      46.096  28.458  27.419  1.00  0.00     0.167 HD
ATOM     62  C   UNL A   1      47.360  26.046  26.622  1.00  0.00     0.074 A 
ATOM     63  C   UNL A   1      47.566  24.654  26.280  1.00  0.00     0.031 C 
ATOM     64  C   UNL A   1      48.332  26.990  26.588  1.00  0.00     0.031 A 
BRANCH  51  65
ATOM     65  C   UNL A   1      46.427  32.645  28.202  1.00  0.00    -0.014 A 
ATOM     66  C   UNL A   1      46.885  33.122  29.444  1.00  0.00     0.010 A 
ATOM     67  C   UNL A   1      46.330  33.537  27.120  1.00  0.00     0.010 A 
ATOM     68  C   UNL A   1      47.202  34.472  29.611  1.00  0.00     0.020 A 
ATOM     69  C   UNL A   1      46.672  34.884  27.275  1.00  0.00     0.020 A 
ATOM     70  C   UNL A   1      47.091  35.346  28.526  1.00  0.00     0.054 A 
BRANCH  70  71
ATOM     71  S   UNL A   1      47.537  37.087  28.763  1.00  0.00     0.124 S 
ATOM     72  O   UNL A   1      48.744  36.980  29.578  1.00  0.00    -0.237 OA
ATOM     73  O   UNL A   1      47.743  37.555  27.395  1.00  0.00    -0.237 OA
ATOM     74  O   UNL A   1      46.374  37.653  29.443  1.00  0.00    -0.744 OA
ENDBRANCH  70  71
ENDBRANCH  51  65
BRANCH  52  75
ATOM     75  C   UNL A   1      43.674  23.131  26.864  1.00  0.00    -0.014 A 
ATOM     76  C   UNL A   1      43.982  22.494  25.648  1.00  0.00     0.010 A 
ATOM     77  C   UNL A   1      42.972  22.417  27.851  1.00  0.00     0.010 A 
ATOM     78  C   UNL A   1      43.572  21.177  25.414  1.00  0.00     0.020 A 
ATOM     79  C   UNL A   1      42.584  21.092  27.631  1.00  0.00     0.020 A 
ATOM     80  C   UNL A   1      42.875  20.485  26.408  1.00  0.00     0.054 A 
BRANCH  80  81
ATOM     81  S   UNL A   1      42.386  18.764  26.100  1.00  0.00     0.124 S 
ATOM     82  O   UNL A   1      42.604  18.150  27.406  1.00  0.00    -0.237 OA
ATOM     83  O   UNL A   1      40.991  18.900  25.688  1.00  0.00    -0.237 OA
ATOM     84  O   UNL A   1      43.300  18.336  25.044  1.00  0.00    -0.744 OA
ENDBRANCH  80  81
ENDBRANCH  52  75
BRANCH  64  85
ATOM     85  C   UNL A   1      49.716  26.545  26.200  1.00  0.00    -0.014 A 
ATOM     86  C   UNL A   1      50.214  26.762  24.905  1.00  0.00     0.010 A 
ATOM     87  C   UNL A   1      50.549  25.954  27.168  1.00  0.00     0.010 A 
ATOM     88  C   UNL A   1      51.512  26.368  24.573  1.00  0.00     0.020 A 
ATOM     89  C   UNL A   1      51.856  25.582  26.847  1.00  0.00     0.020 A 
ATOM     90  C   UNL A   1      52.326  25.779  25.547  1.00  0.00     0.054 A 
BRANCH  90  91
ATOM     91  S   UNL A   1      54.024  25.318  25.106  1.00  0.00     0.124 S 
ATOM     92  O   UNL A   1      53.911  23.872  24.934  1.00  0.00    -0.237 OA
ATOM     93  O   UNL A   1      54.256  26.081  23.882  1.00  0.00    -0.237 OA
ATOM     94  O   UNL A   1      54.810  25.749  26.259  1.00  0.00    -0.744 OA
ENDBRANCH  90  91
ENDBRANCH  64  85
ENDBRANCH  38  39
ENDBRANCH  30  33
ENDBRANCH  28  29
ENDBRANCH  27  28
ENDBRANCH   1  27
TORSDOF 17
ENDMDL
