MODEL 1
REMARK VINA RESULT:     -10.9      0.000      0.000
REMARK SMILES N#Cc1cc2c(nc1N(CC(=O)NCCCCNC(=O)c1ccc(-c3c4nc(c(-c5ccc(S(=O)(=O)[O-])cc5)c5ccc([nH]5)c(-c5ccc(S(=O)(=O)[O-])cc5)c5nc(c(-c6ccc(S(=O)(=O)[O-])cc6)c6ccc3[nH]6)C=C5)C=C4)cc1)CC(F)(F)F)CCC2
REMARK SMILES IDX 15 1 14 2 13 3 11 4 12 5 10 7 9 8 8 9 3 10 4 11 5 12 7 13
REMARK SMILES IDX 6 14 88 15 86 16 87 17 2 18 1 19 81 20 82 21 83 22 84 23
REMARK SMILES IDX 85 24 16 25 17 26 18 27 19 28 20 30 21 31 22 32 80 33 23 34
REMARK SMILES IDX 79 35 24 36 25 37 26 38 73 39 27 40 78 41 72 42 74 43 28 44
REMARK SMILES IDX 77 45 71 46 70 47 29 49 59 50 40 51 58 52 41 53 44 54 57 55
REMARK SMILES IDX 75 56 42 57 43 58 56 60 76 61 45 62 30 63 31 64 39 65 32 66
REMARK SMILES IDX 38 67 33 68 34 69 35 70 36 71 37 72 60 73 61 74 69 75 62 76
REMARK SMILES IDX 68 77 63 78 64 79 65 80 66 81 67 82 46 83 47 84 55 85 48 86
REMARK SMILES IDX 54 87 49 88 50 89 51 90 52 91 53 92
REMARK H PARENT 13 6 18 29 74 48 44 59
REMARK Flexibility Score: inf
ROOT
ATOM      1  C   UNL A   1      31.909  26.512  26.498  1.00  0.00     0.023 C 
ENDROOT
BRANCH   1   2
ATOM      2  C   UNL A   1      30.538  26.183  25.913  1.00  0.00     0.116 C 
BRANCH   2   3
ATOM      3  N   UNL A   1      30.080  24.866  26.303  1.00  0.00    -0.355 N 
ATOM      4  C   UNL A   1      30.793  23.702  26.333  1.00  0.00     0.239 C 
ATOM      5  O   UNL A   1      30.219  22.661  26.660  1.00  0.00    -0.273 OA
ATOM      6  H   UNL A   1      29.139  24.802  26.581  1.00  0.00     0.163 HD
BRANCH   4   7
ATOM      7  C   UNL A   1      32.281  23.700  25.960  1.00  0.00     0.218 C 
BRANCH   7   8
ATOM      8  N   UNL A   1      32.541  23.116  24.615  1.00  0.00    -0.337 N 
BRANCH   8   9
ATOM      9  C   UNL A   1      33.252  21.926  24.547  1.00  0.00     0.147 A 
ATOM     10  C   UNL A   1      34.609  21.723  24.887  1.00  0.00     0.095 A 
ATOM     11  C   UNL A   1      35.157  20.420  24.920  1.00  0.00     0.029 A 
ATOM     12  C   UNL A   1      34.371  19.360  24.540  1.00  0.00    -0.025 A 
ATOM     13  N   UNL A   1      32.526  20.847  24.130  1.00  0.00    -0.234 NA
ATOM     14  C   UNL A   1      33.085  19.625  24.131  1.00  0.00     0.046 A 
ATOM     15  C   UNL A   1      34.664  17.900  24.513  1.00  0.00     0.038 C 
ATOM     16  C   UNL A   1      32.371  18.360  23.741  1.00  0.00     0.057 C 
ATOM     17  C   UNL A   1      33.558  17.399  23.570  1.00  0.00     0.011 C 
BRANCH  10  18
ATOM     18  C   UNL A   1      35.539  22.776  25.153  1.00  0.00     0.103 C 
ATOM     19  N   UNL A   1      36.261  23.658  25.364  1.00  0.00    -0.192 NA
ENDBRANCH  10  18
ENDBRANCH   8   9
BRANCH   8  20
ATOM     20  C   UNL A   1      31.947  23.875  23.476  1.00  0.00     0.234 C 
BRANCH  20  21
ATOM     21  C   UNL A   1      32.772  25.036  22.884  1.00  0.00     0.405 C 
ATOM     22  F   UNL A   1      33.086  24.840  21.584  1.00  0.00    -0.169 F 
ATOM     23  F   UNL A   1      32.073  26.193  22.957  1.00  0.00    -0.169 F 
ATOM     24  F   UNL A   1      33.929  25.228  23.555  1.00  0.00    -0.169 F 
ENDBRANCH  20  21
ENDBRANCH   8  20
ENDBRANCH   7   8
ENDBRANCH   4   7
ENDBRANCH   2   3
ENDBRANCH   1   2
BRANCH   1  25
ATOM     25  C   UNL A   1      31.942  27.820  27.284  1.00  0.00     0.023 C 
BRANCH  25  26
ATOM     26  C   UNL A   1      33.329  28.435  27.376  1.00  0.00     0.116 C 
BRANCH  26  27
ATOM     27  N   UNL A   1      33.283  29.886  27.516  1.00  0.00    -0.352 N 
ATOM     28  C   UNL A   1      34.264  30.728  27.977  1.00  0.00     0.251 C 
ATOM     29  H   UNL A   1      32.440  30.317  27.243  1.00  0.00     0.163 HD
ATOM     30  O   UNL A   1      34.021  31.907  28.212  1.00  0.00    -0.269 OA
BRANCH  28  31
ATOM     31  C   UNL A   1      35.606  30.168  28.211  1.00  0.00     0.039 A 
ATOM     32  C   UNL A   1      36.545  30.195  27.181  1.00  0.00     0.014 A 
ATOM     33  C   UNL A   1      35.951  29.710  29.487  1.00  0.00     0.014 A 
ATOM     34  C   UNL A   1      37.857  29.809  27.453  1.00  0.00     0.010 A 
ATOM     35  C   UNL A   1      37.279  29.436  29.778  1.00  0.00     0.010 A 
ATOM     36  C   UNL A   1      38.242  29.459  28.759  1.00  0.00    -0.014 A 
BRANCH  36  37
ATOM     37  C   UNL A   1      39.639  29.063  29.057  1.00  0.00     0.031 A 
ATOM     38  C   UNL A   1      40.541  30.021  29.785  1.00  0.00     0.074 A 
ATOM     39  C   UNL A   1      40.090  27.850  28.678  1.00  0.00     0.049 A 
ATOM     40  N   UNL A   1      41.770  29.842  30.191  1.00  0.00    -0.248 NA
ATOM     41  C   UNL A   1      40.005  31.362  30.080  1.00  0.00     0.031 C 
ATOM     42  C   UNL A   1      39.319  26.855  27.929  1.00  0.00     0.029 A 
ATOM     43  N   UNL A   1      41.301  27.239  28.891  1.00  0.00    -0.354 N 
ATOM     44  C   UNL A   1      42.145  31.038  30.790  1.00  0.00     0.074 A 
ATOM     45  C   UNL A   1      41.051  31.964  30.622  1.00  0.00     0.031 C 
ATOM     46  C   UNL A   1      40.054  25.737  27.799  1.00  0.00     0.029 A 
ATOM     47  C   UNL A   1      41.358  25.948  28.419  1.00  0.00     0.049 A 
ATOM     48  H   UNL A   1      42.056  27.682  29.339  1.00  0.00     0.167 HD
ATOM     49  C   UNL A   1      43.281  31.327  31.463  1.00  0.00     0.031 A 
ATOM     50  C   UNL A   1      42.347  25.034  28.489  1.00  0.00     0.031 A 
ATOM     51  C   UNL A   1      44.361  30.398  31.641  1.00  0.00     0.049 A 
ATOM     52  C   UNL A   1      43.624  25.396  29.200  1.00  0.00     0.074 A 
ATOM     53  C   UNL A   1      45.539  30.578  32.341  1.00  0.00     0.029 A 
ATOM     54  N   UNL A   1      44.395  29.116  31.112  1.00  0.00    -0.354 N 
ATOM     55  N   UNL A   1      43.925  26.504  29.837  1.00  0.00    -0.248 NA
ATOM     56  C   UNL A   1      44.694  24.389  29.206  1.00  0.00     0.031 C 
ATOM     57  C   UNL A   1      46.316  29.430  32.181  1.00  0.00     0.029 A 
ATOM     58  C   UNL A   1      45.593  28.509  31.437  1.00  0.00     0.049 A 
ATOM     59  H   UNL A   1      43.675  28.702  30.584  1.00  0.00     0.167 HD
ATOM     60  C   UNL A   1      45.210  26.319  30.333  1.00  0.00     0.074 A 
ATOM     61  C   UNL A   1      45.623  24.986  29.943  1.00  0.00     0.031 C 
ATOM     62  C   UNL A   1      45.984  27.179  31.041  1.00  0.00     0.031 A 
BRANCH  49  63
ATOM     63  C   UNL A   1      43.405  32.698  32.071  1.00  0.00    -0.014 A 
ATOM     64  C   UNL A   1      44.237  33.671  31.487  1.00  0.00     0.010 A 
ATOM     65  C   UNL A   1      42.642  33.038  33.202  1.00  0.00     0.010 A 
ATOM     66  C   UNL A   1      44.327  34.949  32.041  1.00  0.00     0.020 A 
ATOM     67  C   UNL A   1      42.705  34.326  33.740  1.00  0.00     0.020 A 
ATOM     68  C   UNL A   1      43.556  35.270  33.163  1.00  0.00     0.054 A 
BRANCH  68  69
ATOM     69  S   UNL A   1      43.667  36.952  33.832  1.00  0.00     0.124 S 
ATOM     70  O   UNL A   1      42.570  36.965  34.797  1.00  0.00    -0.237 OA
ATOM     71  O   UNL A   1      45.009  36.976  34.406  1.00  0.00    -0.237 OA
ATOM     72  O   UNL A   1      43.474  37.805  32.662  1.00  0.00    -0.744 OA
ENDBRANCH  68  69
ENDBRANCH  49  63
BRANCH  50  73
ATOM     73  C   UNL A   1      42.156  23.681  27.894  1.00  0.00    -0.014 A 
ATOM     74  C   UNL A   1      42.521  23.428  26.559  1.00  0.00     0.010 A 
ATOM     75  C   UNL A   1      41.621  22.630  28.663  1.00  0.00     0.010 A 
ATOM     76  C   UNL A   1      42.345  22.157  26.003  1.00  0.00     0.020 A 
ATOM     77  C   UNL A   1      41.472  21.350  28.120  1.00  0.00     0.020 A 
ATOM     78  C   UNL A   1      41.826  21.124  26.790  1.00  0.00     0.054 A 
BRANCH  78  79
ATOM     79  S   UNL A   1      41.654  19.473  26.056  1.00  0.00     0.124 S 
ATOM     80  O   UNL A   1      42.026  18.605  27.169  1.00  0.00    -0.237 OA
ATOM     81  O   UNL A   1      40.243  19.447  25.677  1.00  0.00    -0.237 OA
ATOM     82  O   UNL A   1      42.594  19.493  24.938  1.00  0.00    -0.744 OA
ENDBRANCH  78  79
ENDBRANCH  50  73
BRANCH  62  83
ATOM     83  C   UNL A   1      47.359  26.725  31.446  1.00  0.00    -0.014 A 
ATOM     84  C   UNL A   1      47.551  25.984  32.625  1.00  0.00     0.010 A 
ATOM     85  C   UNL A   1      48.444  26.915  30.569  1.00  0.00     0.010 A 
ATOM     86  C   UNL A   1      48.801  25.438  32.919  1.00  0.00     0.020 A 
ATOM     87  C   UNL A   1      49.689  26.346  30.846  1.00  0.00     0.020 A 
ATOM     88  C   UNL A   1      49.859  25.610  32.020  1.00  0.00     0.054 A 
BRANCH  88  89
ATOM     89  S   UNL A   1      51.442  24.803  32.382  1.00  0.00     0.124 S 
ATOM     90  O   UNL A   1      51.626  25.110  33.798  1.00  0.00    -0.237 OA
ATOM     91  O   UNL A   1      51.160  23.402  32.074  1.00  0.00    -0.237 OA
ATOM     92  O   UNL A   1      52.383  25.458  31.477  1.00  0.00    -0.744 OA
ENDBRANCH  88  89
ENDBRANCH  62  83
ENDBRANCH  36  37
ENDBRANCH  28  31
ENDBRANCH  26  27
ENDBRANCH  25  26
ENDBRANCH   1  25
TORSDOF 19
ENDMDL
MODEL 2
REMARK VINA RESULT:     -10.9      0.872      8.157
REMARK SMILES N#Cc1cc2c(nc1N(CC(=O)NCCCCNC(=O)c1ccc(-c3c4nc(c(-c5ccc(S(=O)(=O)[O-])cc5)c5ccc([nH]5)c(-c5ccc(S(=O)(=O)[O-])cc5)c5nc(c(-c6ccc(S(=O)(=O)[O-])cc6)c6ccc3[nH]6)C=C5)C=C4)cc1)CC(F)(F)F)CCC2
REMARK SMILES IDX 15 1 14 2 13 3 11 4 12 5 10 7 9 8 8 9 3 10 4 11 5 12 7 13
REMARK SMILES IDX 6 14 88 15 86 16 87 17 2 18 1 19 81 20 82 21 83 22 84 23
REMARK SMILES IDX 85 24 16 25 17 26 18 27 19 28 20 30 21 31 22 32 80 33 23 34
REMARK SMILES IDX 79 35 24 36 25 37 26 38 73 39 27 40 78 41 72 42 74 43 28 44
REMARK SMILES IDX 77 45 71 46 70 47 29 49 59 50 40 51 58 52 41 53 44 54 57 55
REMARK SMILES IDX 75 56 42 57 43 58 56 60 76 61 45 62 30 63 31 64 39 65 32 66
REMARK SMILES IDX 38 67 33 68 34 69 35 70 36 71 37 72 60 73 61 74 69 75 62 76
REMARK SMILES IDX 68 77 63 78 64 79 65 80 66 81 67 82 46 83 47 84 55 85 48 86
REMARK SMILES IDX 54 87 49 88 50 89 51 90 52 91 53 92
REMARK H PARENT 13 6 18 29 74 48 44 59
REMARK Flexibility Score: inf
ROOT
ATOM      1  C   UNL A   1      31.599  27.298  25.945  1.00  0.00     0.023 C 
ENDROOT
BRANCH   1   2
ATOM      2  C   UNL A   1      30.839  25.975  25.907  1.00  0.00     0.116 C 
BRANCH   2   3
ATOM      3  N   UNL A   1      31.395  25.001  26.823  1.00  0.00    -0.355 N 
ATOM      4  C   UNL A   1      31.495  23.650  26.656  1.00  0.00     0.239 C 
ATOM      5  O   UNL A   1      31.967  22.970  27.570  1.00  0.00    -0.273 OA
ATOM      6  H   UNL A   1      31.744  25.357  27.671  1.00  0.00     0.163 HD
BRANCH   4   7
ATOM      7  C   UNL A   1      31.020  22.998  25.350  1.00  0.00     0.218 C 
BRANCH   7   8
ATOM      8  N   UNL A   1      32.121  22.800  24.367  1.00  0.00    -0.337 N 
BRANCH   8   9
ATOM      9  C   UNL A   1      32.836  21.612  24.418  1.00  0.00     0.147 A 
ATOM     10  C   UNL A   1      33.996  21.348  25.183  1.00  0.00     0.095 A 
ATOM     11  C   UNL A   1      34.525  20.039  25.260  1.00  0.00     0.029 A 
ATOM     12  C   UNL A   1      33.942  19.043  24.518  1.00  0.00    -0.025 A 
ATOM     13  N   UNL A   1      32.323  20.599  23.660  1.00  0.00    -0.234 NA
ATOM     14  C   UNL A   1      32.872  19.375  23.720  1.00  0.00     0.046 A 
ATOM     15  C   UNL A   1      34.257  17.589  24.433  1.00  0.00     0.038 C 
ATOM     16  C   UNL A   1      32.365  18.174  22.970  1.00  0.00     0.057 C 
ATOM     17  C   UNL A   1      33.557  17.216  23.117  1.00  0.00     0.011 C 
BRANCH  10  18
ATOM     18  C   UNL A   1      34.754  22.348  25.868  1.00  0.00     0.103 C 
ATOM     19  N   UNL A   1      35.334  23.184  26.423  1.00  0.00    -0.192 NA
ENDBRANCH  10  18
ENDBRANCH   8   9
BRANCH   8  20
ATOM     20  C   UNL A   1      32.294  23.911  23.385  1.00  0.00     0.234 C 
BRANCH  20  21
ATOM     21  C   UNL A   1      33.624  24.692  23.419  1.00  0.00     0.405 C 
ATOM     22  F   UNL A   1      33.618  25.762  22.593  1.00  0.00    -0.169 F 
ATOM     23  F   UNL A   1      33.868  25.152  24.669  1.00  0.00    -0.169 F 
ATOM     24  F   UNL A   1      34.674  23.917  23.069  1.00  0.00    -0.169 F 
ENDBRANCH  20  21
ENDBRANCH   8  20
ENDBRANCH   7   8
ENDBRANCH   4   7
ENDBRANCH   2   3
ENDBRANCH   1   2
BRANCH   1  25
ATOM     25  C   UNL A   1      32.892  27.240  26.755  1.00  0.00     0.023 C 
BRANCH  25  26
ATOM     26  C   UNL A   1      33.930  28.257  26.311  1.00  0.00     0.116 C 
BRANCH  26  27
ATOM     27  N   UNL A   1      33.613  29.606  26.767  1.00  0.00    -0.352 N 
ATOM     28  C   UNL A   1      34.340  30.413  27.607  1.00  0.00     0.251 C 
ATOM     29  H   UNL A   1      32.771  29.987  26.427  1.00  0.00     0.163 HD
ATOM     30  O   UNL A   1      33.862  31.452  28.049  1.00  0.00    -0.269 OA
BRANCH  28  31
ATOM     31  C   UNL A   1      35.696  29.979  27.986  1.00  0.00     0.039 A 
ATOM     32  C   UNL A   1      36.739  30.123  27.072  1.00  0.00     0.014 A 
ATOM     33  C   UNL A   1      35.937  29.523  29.286  1.00  0.00     0.014 A 
ATOM     34  C   UNL A   1      38.043  29.858  27.488  1.00  0.00     0.010 A 
ATOM     35  C   UNL A   1      37.244  29.371  29.725  1.00  0.00     0.010 A 
ATOM     36  C   UNL A   1      38.309  29.513  28.824  1.00  0.00    -0.014 A 
BRANCH  36  37
ATOM     37  C   UNL A   1      39.695  29.246  29.276  1.00  0.00     0.031 A 
ATOM     38  C   UNL A   1      40.330  27.915  28.973  1.00  0.00     0.074 A 
ATOM     39  C   UNL A   1      40.379  30.193  29.948  1.00  0.00     0.049 A 
ATOM     40  N   UNL A   1      41.546  27.510  29.227  1.00  0.00    -0.248 NA
ATOM     41  C   UNL A   1      39.486  26.898  28.319  1.00  0.00     0.031 C 
ATOM     42  C   UNL A   1      39.852  31.504  30.335  1.00  0.00     0.029 A 
ATOM     43  N   UNL A   1      41.673  30.208  30.407  1.00  0.00    -0.354 N 
ATOM     44  C   UNL A   1      41.611  26.203  28.759  1.00  0.00     0.074 A 
ATOM     45  C   UNL A   1      40.294  25.851  28.285  1.00  0.00     0.031 C 
ATOM     46  C   UNL A   1      40.831  32.217  30.917  1.00  0.00     0.029 A 
ATOM     47  C   UNL A   1      42.042  31.403  30.981  1.00  0.00     0.049 A 
ATOM     48  H   UNL A   1      42.280  29.437  30.332  1.00  0.00     0.167 HD
ATOM     49  C   UNL A   1      42.683  25.384  28.688  1.00  0.00     0.031 A 
ATOM     50  C   UNL A   1      43.226  31.801  31.489  1.00  0.00     0.031 A 
ATOM     51  C   UNL A   1      43.995  25.744  29.147  1.00  0.00     0.049 A 
ATOM     52  C   UNL A   1      44.393  30.852  31.443  1.00  0.00     0.074 A 
ATOM     53  C   UNL A   1      45.159  25.001  29.083  1.00  0.00     0.029 A 
ATOM     54  N   UNL A   1      44.315  26.947  29.758  1.00  0.00    -0.354 N 
ATOM     55  N   UNL A   1      44.457  29.651  30.917  1.00  0.00    -0.248 NA
ATOM     56  C   UNL A   1      45.649  31.307  32.056  1.00  0.00     0.031 C 
ATOM     57  C   UNL A   1      46.170  25.728  29.715  1.00  0.00     0.029 A 
ATOM     58  C   UNL A   1      45.651  26.951  30.113  1.00  0.00     0.049 A 
ATOM     59  H   UNL A   1      43.685  27.687  29.916  1.00  0.00     0.167 HD
ATOM     60  C   UNL A   1      45.761  29.216  31.119  1.00  0.00     0.074 A 
ATOM     61  C   UNL A   1      46.460  30.290  31.797  1.00  0.00     0.031 C 
ATOM     62  C   UNL A   1      46.329  28.032  30.783  1.00  0.00     0.031 A 
BRANCH  49  63
ATOM     63  C   UNL A   1      42.485  24.024  28.074  1.00  0.00    -0.014 A 
ATOM     64  C   UNL A   1      42.983  23.735  26.790  1.00  0.00     0.010 A 
ATOM     65  C   UNL A   1      41.847  23.008  28.807  1.00  0.00     0.010 A 
ATOM     66  C   UNL A   1      42.818  22.463  26.238  1.00  0.00     0.020 A 
ATOM     67  C   UNL A   1      41.709  21.725  28.271  1.00  0.00     0.020 A 
ATOM     68  C   UNL A   1      42.186  21.464  26.985  1.00  0.00     0.054 A 
BRANCH  68  69
ATOM     69  S   UNL A   1      42.026  19.813  26.253  1.00  0.00     0.124 S 
ATOM     70  O   UNL A   1      40.591  19.736  25.993  1.00  0.00    -0.237 OA
ATOM     71  O   UNL A   1      42.874  19.909  25.068  1.00  0.00    -0.237 OA
ATOM     72  O   UNL A   1      42.516  18.919  27.299  1.00  0.00    -0.744 OA
ENDBRANCH  68  69
ENDBRANCH  49  63
BRANCH  50  73
ATOM     73  C   UNL A   1      43.370  33.172  32.057  1.00  0.00    -0.014 A 
ATOM     74  C   UNL A   1      43.129  33.410  33.422  1.00  0.00     0.010 A 
ATOM     75  C   UNL A   1      43.766  34.247  31.239  1.00  0.00     0.010 A 
ATOM     76  C   UNL A   1      43.269  34.695  33.955  1.00  0.00     0.020 A 
ATOM     77  C   UNL A   1      43.937  35.528  31.774  1.00  0.00     0.020 A 
ATOM     78  C   UNL A   1      43.678  35.745  33.128  1.00  0.00     0.054 A 
BRANCH  78  79
ATOM     79  S   UNL A   1      43.899  37.393  33.856  1.00  0.00     0.124 S 
ATOM     80  O   UNL A   1      42.684  37.539  34.653  1.00  0.00    -0.237 OA
ATOM     81  O   UNL A   1      45.138  37.235  34.614  1.00  0.00    -0.237 OA
ATOM     82  O   UNL A   1      43.994  38.273  32.693  1.00  0.00    -0.744 OA
ENDBRANCH  78  79
ENDBRANCH  50  73
BRANCH  62  83
ATOM     83  C   UNL A   1      47.774  27.812  31.137  1.00  0.00    -0.014 A 
ATOM     84  C   UNL A   1      48.129  27.198  32.350  1.00  0.00     0.010 A 
ATOM     85  C   UNL A   1      48.776  28.090  30.187  1.00  0.00     0.010 A 
ATOM     86  C   UNL A   1      49.459  26.861  32.606  1.00  0.00     0.020 A 
ATOM     87  C   UNL A   1      50.103  27.728  30.428  1.00  0.00     0.020 A 
ATOM     88  C   UNL A   1      50.436  27.115  31.638  1.00  0.00     0.054 A 
BRANCH  88  89
ATOM     89  S   UNL A   1      52.136  26.574  31.960  1.00  0.00     0.124 S 
ATOM     90  O   UNL A   1      52.911  27.481  31.120  1.00  0.00    -0.237 OA
ATOM     91  O   UNL A   1      52.267  26.784  33.401  1.00  0.00    -0.237 OA
ATOM     92  O   UNL A   1      52.143  25.175  31.537  1.00  0.00    -0.744 OA
ENDBRANCH  88  89
ENDBRANCH  62  83
ENDBRANCH  36  37
ENDBRANCH  28  31
ENDBRANCH  26  27
ENDBRANCH  25  26
ENDBRANCH   1  25
TORSDOF 19
ENDMDL
MODEL 3
REMARK VINA RESULT:     -10.9      2.636      9.323
REMARK SMILES N#Cc1cc2c(nc1N(CC(=O)NCCCCNC(=O)c1ccc(-c3c4nc(c(-c5ccc(S(=O)(=O)[O-])cc5)c5ccc([nH]5)c(-c5ccc(S(=O)(=O)[O-])cc5)c5nc(c(-c6ccc(S(=O)(=O)[O-])cc6)c6ccc3[nH]6)C=C5)C=C4)cc1)CC(F)(F)F)CCC2
REMARK SMILES IDX 15 1 14 2 13 3 11 4 12 5 10 7 9 8 8 9 3 10 4 11 5 12 7 13
REMARK SMILES IDX 6 14 88 15 86 16 87 17 2 18 1 19 81 20 82 21 83 22 84 23
REMARK SMILES IDX 85 24 16 25 17 26 18 27 19 28 20 30 21 31 22 32 80 33 23 34
REMARK SMILES IDX 79 35 24 36 25 37 26 38 73 39 27 40 78 41 72 42 74 43 28 44
REMARK SMILES IDX 77 45 71 46 70 47 29 49 59 50 40 51 58 52 41 53 44 54 57 55
REMARK SMILES IDX 75 56 42 57 43 58 56 60 76 61 45 62 30 63 31 64 39 65 32 66
REMARK SMILES IDX 38 67 33 68 34 69 35 70 36 71 37 72 60 73 61 74 69 75 62 76
REMARK SMILES IDX 68 77 63 78 64 79 65 80 66 81 67 82 46 83 47 84 55 85 48 86
REMARK SMILES IDX 54 87 49 88 50 89 51 90 52 91 53 92
REMARK H PARENT 13 6 18 29 74 48 44 59
REMARK Flexibility Score: inf
ROOT
ATOM      1  C   UNL A   1      34.436  22.729  25.631  1.00  0.00     0.023 C 
ENDROOT
BRANCH   1   2
ATOM      2  C   UNL A   1      32.922  22.681  25.441  1.00  0.00     0.116 C 
BRANCH   2   3
ATOM      3  N   UNL A   1      32.232  23.581  26.340  1.00  0.00    -0.355 N 
ATOM      4  C   UNL A   1      31.428  24.638  26.021  1.00  0.00     0.239 C 
ATOM      5  O   UNL A   1      30.953  25.321  26.931  1.00  0.00    -0.273 OA
ATOM      6  H   UNL A   1      32.357  23.410  27.301  1.00  0.00     0.163 HD
BRANCH   4   7
ATOM      7  C   UNL A   1      31.133  24.964  24.551  1.00  0.00     0.218 C 
BRANCH   7   8
ATOM      8  N   UNL A   1      32.102  25.932  23.965  1.00  0.00    -0.337 N 
BRANCH   8   9
ATOM      9  C   UNL A   1      32.184  27.196  24.531  1.00  0.00     0.147 A 
ATOM     10  C   UNL A   1      31.301  28.281  24.322  1.00  0.00     0.095 A 
ATOM     11  C   UNL A   1      31.417  29.463  25.090  1.00  0.00     0.029 A 
ATOM     12  C   UNL A   1      32.449  29.570  25.989  1.00  0.00    -0.025 A 
ATOM     13  N   UNL A   1      33.222  27.371  25.400  1.00  0.00    -0.234 NA
ATOM     14  C   UNL A   1      33.333  28.521  26.086  1.00  0.00     0.046 A 
ATOM     15  C   UNL A   1      32.790  30.663  26.943  1.00  0.00     0.038 C 
ATOM     16  C   UNL A   1      34.403  28.808  27.103  1.00  0.00     0.057 C 
ATOM     17  C   UNL A   1      34.258  30.331  27.253  1.00  0.00     0.011 C 
BRANCH  10  18
ATOM     18  C   UNL A   1      30.293  28.316  23.309  1.00  0.00     0.103 C 
ATOM     19  N   UNL A   1      29.455  28.375  22.510  1.00  0.00    -0.192 NA
ENDBRANCH  10  18
ENDBRANCH   8   9
BRANCH   8  20
ATOM     20  C   UNL A   1      32.927  25.394  22.844  1.00  0.00     0.234 C 
BRANCH  20  21
ATOM     21  C   UNL A   1      32.700  25.992  21.440  1.00  0.00     0.405 C 
ATOM     22  F   UNL A   1      31.398  26.255  21.193  1.00  0.00    -0.169 F 
ATOM     23  F   UNL A   1      33.377  27.157  21.312  1.00  0.00    -0.169 F 
ATOM     24  F   UNL A   1      33.139  25.168  20.463  1.00  0.00    -0.169 F 
ENDBRANCH  20  21
ENDBRANCH   8  20
ENDBRANCH   7   8
ENDBRANCH   4   7
ENDBRANCH   2   3
ENDBRANCH   1   2
BRANCH   1  25
ATOM     25  C   UNL A   1      35.068  24.047  25.190  1.00  0.00     0.023 C 
BRANCH  25  26
ATOM     26  C   UNL A   1      36.426  24.306  25.820  1.00  0.00     0.116 C 
BRANCH  26  27
ATOM     27  N   UNL A   1      37.289  23.132  25.777  1.00  0.00    -0.352 N 
ATOM     28  C   UNL A   1      38.605  23.027  26.156  1.00  0.00     0.251 C 
ATOM     29  H   UNL A   1      36.875  22.306  25.434  1.00  0.00     0.163 HD
ATOM     30  O   UNL A   1      39.257  22.024  25.893  1.00  0.00    -0.269 OA
BRANCH  28  31
ATOM     31  C   UNL A   1      39.217  24.169  26.858  1.00  0.00     0.039 A 
ATOM     32  C   UNL A   1      39.948  25.106  26.130  1.00  0.00     0.014 A 
ATOM     33  C   UNL A   1      38.974  24.350  28.224  1.00  0.00     0.014 A 
ATOM     34  C   UNL A   1      40.391  26.263  26.770  1.00  0.00     0.010 A 
ATOM     35  C   UNL A   1      39.318  25.552  28.825  1.00  0.00     0.010 A 
ATOM     36  C   UNL A   1      40.052  26.510  28.111  1.00  0.00    -0.014 A 
BRANCH  36  37
ATOM     37  C   UNL A   1      40.506  27.746  28.792  1.00  0.00     0.031 A 
ATOM     38  C   UNL A   1      41.923  27.840  29.290  1.00  0.00     0.074 A 
ATOM     39  C   UNL A   1      39.653  28.777  28.958  1.00  0.00     0.049 A 
ATOM     40  N   UNL A   1      42.529  28.851  29.853  1.00  0.00    -0.248 NA
ATOM     41  C   UNL A   1      42.766  26.638  29.157  1.00  0.00     0.031 C 
ATOM     42  C   UNL A   1      38.244  28.783  28.555  1.00  0.00     0.029 A 
ATOM     43  N   UNL A   1      39.850  30.026  29.489  1.00  0.00    -0.354 N 
ATOM     44  C   UNL A   1      43.816  28.409  30.132  1.00  0.00     0.074 A 
ATOM     45  C   UNL A   1      43.882  27.016  29.758  1.00  0.00     0.031 C 
ATOM     46  C   UNL A   1      37.724  29.998  28.797  1.00  0.00     0.029 A 
ATOM     47  C   UNL A   1      38.746  30.843  29.408  1.00  0.00     0.049 A 
ATOM     48  H   UNL A   1      40.703  30.313  29.890  1.00  0.00     0.167 HD
ATOM     49  C   UNL A   1      44.865  29.111  30.615  1.00  0.00     0.031 A 
ATOM     50  C   UNL A   1      38.580  32.131  29.773  1.00  0.00     0.031 A 
ATOM     51  C   UNL A   1      44.799  30.499  30.972  1.00  0.00     0.049 A 
ATOM     52  C   UNL A   1      39.751  32.878  30.355  1.00  0.00     0.074 A 
ATOM     53  C   UNL A   1      45.816  31.315  31.432  1.00  0.00     0.029 A 
ATOM     54  N   UNL A   1      43.651  31.276  30.912  1.00  0.00    -0.354 N 
ATOM     55  N   UNL A   1      40.985  32.466  30.529  1.00  0.00    -0.248 NA
ATOM     56  C   UNL A   1      39.511  34.262  30.787  1.00  0.00     0.031 C 
ATOM     57  C   UNL A   1      45.270  32.569  31.714  1.00  0.00     0.029 A 
ATOM     58  C   UNL A   1      43.927  32.553  31.366  1.00  0.00     0.049 A 
ATOM     59  H   UNL A   1      42.773  30.965  30.595  1.00  0.00     0.167 HD
ATOM     60  C   UNL A   1      41.671  33.545  31.075  1.00  0.00     0.074 A 
ATOM     61  C   UNL A   1      40.722  34.635  31.182  1.00  0.00     0.031 C 
ATOM     62  C   UNL A   1      42.968  33.625  31.461  1.00  0.00     0.031 A 
BRANCH  49  63
ATOM     63  C   UNL A   1      46.178  28.392  30.766  1.00  0.00    -0.014 A 
ATOM     64  C   UNL A   1      47.123  28.392  29.724  1.00  0.00     0.010 A 
ATOM     65  C   UNL A   1      46.497  27.759  31.980  1.00  0.00     0.010 A 
ATOM     66  C   UNL A   1      48.350  27.745  29.881  1.00  0.00     0.020 A 
ATOM     67  C   UNL A   1      47.737  27.138  32.154  1.00  0.00     0.020 A 
ATOM     68  C   UNL A   1      48.651  27.126  31.098  1.00  0.00     0.054 A 
BRANCH  68  69
ATOM     69  S   UNL A   1      50.270  26.330  31.282  1.00  0.00     0.124 S 
ATOM     70  O   UNL A   1      50.629  26.053  29.894  1.00  0.00    -0.237 OA
ATOM     71  O   UNL A   1      51.059  27.368  31.939  1.00  0.00    -0.237 OA
ATOM     72  O   UNL A   1      49.989  25.152  32.098  1.00  0.00    -0.744 OA
ENDBRANCH  68  69
ENDBRANCH  49  63
BRANCH  50  73
ATOM     73  C   UNL A   1      37.264  32.800  29.570  1.00  0.00    -0.014 A 
ATOM     74  C   UNL A   1      36.887  33.266  28.298  1.00  0.00     0.010 A 
ATOM     75  C   UNL A   1      36.370  32.961  30.646  1.00  0.00     0.010 A 
ATOM     76  C   UNL A   1      35.649  33.889  28.108  1.00  0.00     0.020 A 
ATOM     77  C   UNL A   1      35.119  33.556  30.454  1.00  0.00     0.020 A 
ATOM     78  C   UNL A   1      34.771  34.025  29.187  1.00  0.00     0.054 A 
BRANCH  78  79
ATOM     79  S   UNL A   1      33.152  34.795  28.902  1.00  0.00     0.124 S 
ATOM     80  O   UNL A   1      33.526  36.126  28.435  1.00  0.00    -0.237 OA
ATOM     81  O   UNL A   1      32.561  33.914  27.897  1.00  0.00    -0.237 OA
ATOM     82  O   UNL A   1      32.513  34.749  30.215  1.00  0.00    -0.744 OA
ENDBRANCH  78  79
ENDBRANCH  50  73
BRANCH  62  83
ATOM     83  C   UNL A   1      43.457  34.924  32.041  1.00  0.00    -0.014 A 
ATOM     84  C   UNL A   1      43.989  35.924  31.210  1.00  0.00     0.010 A 
ATOM     85  C   UNL A   1      43.247  35.203  33.405  1.00  0.00     0.010 A 
ATOM     86  C   UNL A   1      44.300  37.181  31.730  1.00  0.00     0.020 A 
ATOM     87  C   UNL A   1      43.531  36.468  33.923  1.00  0.00     0.020 A 
ATOM     88  C   UNL A   1      44.056  37.450  33.081  1.00  0.00     0.054 A 
BRANCH  88  89
ATOM     89  S   UNL A   1      44.376  39.123  33.702  1.00  0.00     0.124 S 
ATOM     90  O   UNL A   1      45.068  38.856  34.959  1.00  0.00    -0.237 OA
ATOM     91  O   UNL A   1      45.199  39.702  32.641  1.00  0.00    -0.237 OA
ATOM     92  O   UNL A   1      43.043  39.707  33.838  1.00  0.00    -0.744 OA
ENDBRANCH  88  89
ENDBRANCH  62  83
ENDBRANCH  36  37
ENDBRANCH  28  31
ENDBRANCH  26  27
ENDBRANCH  25  26
ENDBRANCH   1  25
TORSDOF 19
ENDMDL
