MODEL 1
REMARK VINA RESULT:     -10.7      0.000      0.000
REMARK SMILES CC(C)C[C@H](NC(=O)c1cc(Cl)nnc1Cl)C(=O)NCCCCNC(=O)c1ccc(-c2c3nc(c(-c4ccc(S(=O)(=O)[O-])cc4)c4ccc([nH]4)c(-c4ccc(S(=O)(=O)[O-])cc4)c4nc(c(-c5ccc(S(=O)(=O)[O-])cc5)c5ccc2[nH]5)C=C4)C=C3)cc1
REMARK SMILES IDX 22 1 21 2 20 3 19 4 17 5 18 6 5 8 4 9 2 10 1 11 3 12 6 13
REMARK SMILES IDX 7 14 8 16 9 17 10 18 15 19 11 20 14 21 16 22 12 23 13 24
REMARK SMILES IDX 23 25 24 26 25 27 26 29 27 30 28 31 86 32 29 33 85 34 30 35
REMARK SMILES IDX 31 36 32 37 79 38 33 39 84 40 78 41 80 42 34 43 83 44 77 45
REMARK SMILES IDX 76 46 35 48 65 49 46 50 64 51 47 52 50 53 63 54 81 55 48 56
REMARK SMILES IDX 49 57 62 59 82 60 51 61 36 62 37 63 45 64 38 65 44 66 39 67
REMARK SMILES IDX 40 68 41 69 42 70 43 71 66 72 67 73 75 74 68 75 74 76 69 77
REMARK SMILES IDX 70 78 71 79 72 80 73 81 52 82 53 83 61 84 54 85 60 86 55 87
REMARK SMILES IDX 56 88 57 89 58 90 59 91
REMARK H PARENT 19 7 6 15 24 28 80 47 50 58
REMARK Flexibility Score: inf
ROOT
ATOM      1  C   UNL A   1      35.604  23.299  25.518  1.00  0.00     0.023 C 
ENDROOT
BRANCH   1   2
ATOM      2  C   UNL A   1      35.220  21.823  25.561  1.00  0.00     0.023 C 
BRANCH   2   3
ATOM      3  C   UNL A   1      33.729  21.527  25.655  1.00  0.00     0.116 C 
BRANCH   3   4
ATOM      4  N   UNL A   1      33.085  21.236  24.400  1.00  0.00    -0.354 N 
ATOM      5  C   UNL A   1      32.550  22.104  23.494  1.00  0.00     0.242 C 
ATOM      6  O   UNL A   1      32.281  21.654  22.375  1.00  0.00    -0.273 OA
ATOM      7  H   UNL A   1      33.022  20.282  24.164  1.00  0.00     0.163 HD
BRANCH   5   8
ATOM      8  C   UNL A   1      32.401  23.626  23.771  1.00  0.00     0.171 C 
BRANCH   8   9
ATOM      9  C   UNL A   1      31.035  24.034  24.354  1.00  0.00     0.038 C 
BRANCH   9  10
ATOM     10  C   UNL A   1      30.954  24.447  25.835  1.00  0.00    -0.015 C 
ATOM     11  C   UNL A   1      29.974  25.592  26.104  1.00  0.00     0.007 C 
ATOM     12  C   UNL A   1      30.519  23.245  26.686  1.00  0.00     0.007 C 
ENDBRANCH   9  10
ENDBRANCH   8   9
BRANCH   8  13
ATOM     13  N   UNL A   1      33.102  24.533  22.835  1.00  0.00    -0.340 N 
ATOM     14  C   UNL A   1      33.349  25.863  22.666  1.00  0.00     0.255 C 
ATOM     15  H   UNL A   1      33.521  24.016  22.109  1.00  0.00     0.164 HD
ATOM     16  O   UNL A   1      33.890  26.251  21.633  1.00  0.00    -0.269 OA
BRANCH  14  17
ATOM     17  C   UNL A   1      32.948  26.886  23.615  1.00  0.00     0.082 A 
ATOM     18  C   UNL A   1      33.701  27.059  24.778  1.00  0.00     0.060 A 
ATOM     19  C   UNL A   1      31.747  27.555  23.488  1.00  0.00     0.164 A 
ATOM     20  C   UNL A   1      33.268  27.999  25.685  1.00  0.00     0.152 A 
ATOM     21  N   UNL A   1      31.346  28.458  24.408  1.00  0.00    -0.136 NA
ATOM     22  Cl  UNL A   1      30.640  27.322  22.201  1.00  0.00    -0.059 Cl
ATOM     23  Cl  UNL A   1      34.170  28.368  27.087  1.00  0.00    -0.060 Cl
ATOM     24  N   UNL A   1      32.133  28.702  25.509  1.00  0.00    -0.137 NA
ENDBRANCH  14  17
ENDBRANCH   8  13
ENDBRANCH   5   8
ENDBRANCH   3   4
ENDBRANCH   2   3
ENDBRANCH   1   2
BRANCH   1  25
ATOM     25  C   UNL A   1      37.012  23.589  25.011  1.00  0.00     0.116 C 
BRANCH  25  26
ATOM     26  N   UNL A   1      37.998  22.630  25.491  1.00  0.00    -0.352 N 
ATOM     27  C   UNL A   1      39.124  22.847  26.251  1.00  0.00     0.251 C 
ATOM     28  H   UNL A   1      37.836  21.694  25.235  1.00  0.00     0.163 HD
ATOM     29  O   UNL A   1      39.934  21.944  26.432  1.00  0.00    -0.269 OA
BRANCH  27  30
ATOM     30  C   UNL A   1      39.358  24.189  26.816  1.00  0.00     0.039 A 
ATOM     31  C   UNL A   1      38.930  24.463  28.116  1.00  0.00     0.014 A 
ATOM     32  C   UNL A   1      40.057  25.146  26.075  1.00  0.00     0.014 A 
ATOM     33  C   UNL A   1      39.285  25.676  28.710  1.00  0.00     0.010 A 
ATOM     34  C   UNL A   1      40.467  26.322  26.691  1.00  0.00     0.010 A 
ATOM     35  C   UNL A   1      40.092  26.593  28.016  1.00  0.00    -0.014 A 
BRANCH  35  36
ATOM     36  C   UNL A   1      40.546  27.850  28.653  1.00  0.00     0.031 A 
ATOM     37  C   UNL A   1      41.951  27.956  29.171  1.00  0.00     0.074 A 
ATOM     38  C   UNL A   1      39.681  28.871  28.816  1.00  0.00     0.049 A 
ATOM     39  N   UNL A   1      42.517  28.944  29.813  1.00  0.00    -0.248 NA
ATOM     40  C   UNL A   1      42.829  26.792  28.957  1.00  0.00     0.031 C 
ATOM     41  C   UNL A   1      38.281  28.875  28.383  1.00  0.00     0.029 A 
ATOM     42  N   UNL A   1      39.853  30.105  29.392  1.00  0.00    -0.354 N 
ATOM     43  C   UNL A   1      43.811  28.519  30.085  1.00  0.00     0.074 A 
ATOM     44  C   UNL A   1      43.933  27.169  29.582  1.00  0.00     0.031 C 
ATOM     45  C   UNL A   1      37.731  30.063  28.686  1.00  0.00     0.029 A 
ATOM     46  C   UNL A   1      38.727  30.892  29.359  1.00  0.00     0.049 A 
ATOM     47  H   UNL A   1      40.704  30.398  29.791  1.00  0.00     0.167 HD
ATOM     48  C   UNL A   1      44.815  29.204  30.678  1.00  0.00     0.031 A 
ATOM     49  C   UNL A   1      38.518  32.142  29.819  1.00  0.00     0.031 A 
ATOM     50  C   UNL A   1      44.699  30.551  31.160  1.00  0.00     0.049 A 
ATOM     51  C   UNL A   1      39.646  32.879  30.483  1.00  0.00     0.074 A 
ATOM     52  C   UNL A   1      45.674  31.341  31.742  1.00  0.00     0.029 A 
ATOM     53  N   UNL A   1      43.542  31.311  31.108  1.00  0.00    -0.354 N 
ATOM     54  N   UNL A   1      40.872  32.470  30.707  1.00  0.00    -0.248 NA
ATOM     55  C   UNL A   1      39.368  34.244  30.952  1.00  0.00     0.031 C 
ATOM     56  C   UNL A   1      45.097  32.571  32.070  1.00  0.00     0.029 A 
ATOM     57  C   UNL A   1      43.775  32.558  31.656  1.00  0.00     0.049 A 
ATOM     58  H   UNL A   1      42.683  31.007  30.735  1.00  0.00     0.167 HD
ATOM     59  C   UNL A   1      41.517  33.533  31.327  1.00  0.00     0.074 A 
ATOM     60  C   UNL A   1      40.549  34.605  31.440  1.00  0.00     0.031 C 
ATOM     61  C   UNL A   1      42.798  33.612  31.759  1.00  0.00     0.031 A 
BRANCH  48  62
ATOM     62  C   UNL A   1      46.137  28.505  30.823  1.00  0.00    -0.014 A 
ATOM     63  C   UNL A   1      46.412  27.725  31.961  1.00  0.00     0.010 A 
ATOM     64  C   UNL A   1      47.092  28.586  29.795  1.00  0.00     0.010 A 
ATOM     65  C   UNL A   1      47.631  27.055  32.078  1.00  0.00     0.020 A 
ATOM     66  C   UNL A   1      48.305  27.900  29.900  1.00  0.00     0.020 A 
ATOM     67  C   UNL A   1      48.568  27.144  31.044  1.00  0.00     0.054 A 
BRANCH  67  68
ATOM     68  S   UNL A   1      50.130  26.240  31.220  1.00  0.00     0.124 S 
ATOM     69  O   UNL A   1      50.941  27.181  31.988  1.00  0.00    -0.237 OA
ATOM     70  O   UNL A   1      49.717  25.036  31.935  1.00  0.00    -0.237 OA
ATOM     71  O   UNL A   1      50.567  26.028  29.842  1.00  0.00    -0.744 OA
ENDBRANCH  67  68
ENDBRANCH  48  62
BRANCH  49  72
ATOM     72  C   UNL A   1      37.188  32.777  29.634  1.00  0.00    -0.014 A 
ATOM     73  C   UNL A   1      36.253  32.780  30.684  1.00  0.00     0.010 A 
ATOM     74  C   UNL A   1      36.870  33.431  28.431  1.00  0.00     0.010 A 
ATOM     75  C   UNL A   1      35.026  33.432  30.537  1.00  0.00     0.020 A 
ATOM     76  C   UNL A   1      35.650  34.099  28.286  1.00  0.00     0.020 A 
ATOM     77  C   UNL A   1      34.737  34.099  29.342  1.00  0.00     0.054 A 
BRANCH  77  78
ATOM     78  S   UNL A   1      33.167  34.999  29.209  1.00  0.00     0.124 S 
ATOM     79  O   UNL A   1      32.659  34.936  30.576  1.00  0.00    -0.237 OA
ATOM     80  O   UNL A   1      33.607  36.317  28.757  1.00  0.00    -0.237 OA
ATOM     81  O   UNL A   1      32.411  34.229  28.226  1.00  0.00    -0.744 OA
ENDBRANCH  77  78
ENDBRANCH  49  72
BRANCH  61  82
ATOM     82  C   UNL A   1      43.250  34.901  32.385  1.00  0.00    -0.014 A 
ATOM     83  C   UNL A   1      43.729  35.957  31.591  1.00  0.00     0.010 A 
ATOM     84  C   UNL A   1      43.074  35.100  33.768  1.00  0.00     0.010 A 
ATOM     85  C   UNL A   1      44.022  37.193  32.170  1.00  0.00     0.020 A 
ATOM     86  C   UNL A   1      43.349  36.340  34.346  1.00  0.00     0.020 A 
ATOM     87  C   UNL A   1      43.819  37.380  33.541  1.00  0.00     0.054 A 
BRANCH  87  88
ATOM     88  S   UNL A   1      44.138  39.021  34.245  1.00  0.00     0.124 S 
ATOM     89  O   UNL A   1      42.999  39.793  33.755  1.00  0.00    -0.237 OA
ATOM     90  O   UNL A   1      44.144  38.751  35.681  1.00  0.00    -0.237 OA
ATOM     91  O   UNL A   1      45.431  39.399  33.680  1.00  0.00    -0.744 OA
ENDBRANCH  87  88
ENDBRANCH  61  82
ENDBRANCH  35  36
ENDBRANCH  27  30
ENDBRANCH  25  26
ENDBRANCH   1  25
TORSDOF 18
ENDMDL
MODEL 2
REMARK VINA RESULT:     -10.4      1.181      2.049
REMARK SMILES CC(C)C[C@H](NC(=O)c1cc(Cl)nnc1Cl)C(=O)NCCCCNC(=O)c1ccc(-c2c3nc(c(-c4ccc(S(=O)(=O)[O-])cc4)c4ccc([nH]4)c(-c4ccc(S(=O)(=O)[O-])cc4)c4nc(c(-c5ccc(S(=O)(=O)[O-])cc5)c5ccc2[nH]5)C=C4)C=C3)cc1
REMARK SMILES IDX 22 1 21 2 20 3 19 4 17 5 18 6 5 8 4 9 2 10 1 11 3 12 6 13
REMARK SMILES IDX 7 14 8 16 9 17 10 18 15 19 11 20 14 21 16 22 12 23 13 24
REMARK SMILES IDX 23 25 24 26 25 27 26 29 27 30 28 31 86 32 29 33 85 34 30 35
REMARK SMILES IDX 31 36 32 37 79 38 33 39 84 40 78 41 80 42 34 43 83 44 77 45
REMARK SMILES IDX 76 46 35 48 65 49 46 50 64 51 47 52 50 53 63 54 81 55 48 56
REMARK SMILES IDX 49 57 62 59 82 60 51 61 36 62 37 63 45 64 38 65 44 66 39 67
REMARK SMILES IDX 40 68 41 69 42 70 43 71 66 72 67 73 75 74 68 75 74 76 69 77
REMARK SMILES IDX 70 78 71 79 72 80 73 81 52 82 53 83 61 84 54 85 60 86 55 87
REMARK SMILES IDX 56 88 57 89 58 90 59 91
REMARK H PARENT 19 7 6 15 24 28 80 47 50 58
REMARK Flexibility Score: inf
ROOT
ATOM      1  C   UNL A   1      35.818  22.816  24.362  1.00  0.00     0.023 C 
ENDROOT
BRANCH   1   2
ATOM      2  C   UNL A   1      34.980  23.688  23.432  1.00  0.00     0.023 C 
BRANCH   2   3
ATOM      3  C   UNL A   1      34.086  24.716  24.112  1.00  0.00     0.116 C 
BRANCH   3   4
ATOM      4  N   UNL A   1      32.690  24.632  23.767  1.00  0.00    -0.354 N 
ATOM      5  C   UNL A   1      31.605  24.641  24.593  1.00  0.00     0.242 C 
ATOM      6  O   UNL A   1      30.500  24.816  24.068  1.00  0.00    -0.273 OA
ATOM      7  H   UNL A   1      32.492  24.556  22.805  1.00  0.00     0.163 HD
BRANCH   5   8
ATOM      8  C   UNL A   1      31.722  24.579  26.141  1.00  0.00     0.171 C 
BRANCH   8   9
ATOM      9  C   UNL A   1      31.434  23.191  26.744  1.00  0.00     0.038 C 
BRANCH   9  10
ATOM     10  C   UNL A   1      32.601  22.202  26.923  1.00  0.00    -0.015 C 
ATOM     11  C   UNL A   1      32.907  21.376  25.671  1.00  0.00     0.007 C 
ATOM     12  C   UNL A   1      33.876  22.968  27.305  1.00  0.00     0.007 C 
ENDBRANCH   9  10
ENDBRANCH   8   9
BRANCH   8  13
ATOM     13  N   UNL A   1      31.323  25.799  26.878  1.00  0.00    -0.340 N 
ATOM     14  C   UNL A   1      31.359  27.154  26.740  1.00  0.00     0.255 C 
ATOM     15  H   UNL A   1      30.901  25.556  27.734  1.00  0.00     0.164 HD
ATOM     16  O   UNL A   1      31.027  27.867  27.685  1.00  0.00    -0.269 OA
BRANCH  14  17
ATOM     17  C   UNL A   1      31.834  27.833  25.548  1.00  0.00     0.082 A 
ATOM     18  C   UNL A   1      30.925  28.125  24.529  1.00  0.00     0.060 A 
ATOM     19  C   UNL A   1      33.182  28.024  25.318  1.00  0.00     0.164 A 
ATOM     20  C   UNL A   1      31.412  28.720  23.389  1.00  0.00     0.152 A 
ATOM     21  N   UNL A   1      33.626  28.595  24.178  1.00  0.00    -0.136 NA
ATOM     22  Cl  UNL A   1      34.425  27.562  26.404  1.00  0.00    -0.059 Cl
ATOM     23  Cl  UNL A   1      30.374  29.218  22.128  1.00  0.00    -0.060 Cl
ATOM     24  N   UNL A   1      32.723  28.974  23.211  1.00  0.00    -0.137 NA
ENDBRANCH  14  17
ENDBRANCH   8  13
ENDBRANCH   5   8
ENDBRANCH   3   4
ENDBRANCH   2   3
ENDBRANCH   1   2
BRANCH   1  25
ATOM     25  C   UNL A   1      37.020  23.508  24.994  1.00  0.00     0.116 C 
BRANCH  25  26
ATOM     26  N   UNL A   1      38.019  22.570  25.491  1.00  0.00    -0.352 N 
ATOM     27  C   UNL A   1      39.138  22.815  26.252  1.00  0.00     0.251 C 
ATOM     28  H   UNL A   1      37.872  21.628  25.249  1.00  0.00     0.163 HD
ATOM     29  O   UNL A   1      39.961  21.927  26.449  1.00  0.00    -0.269 OA
BRANCH  27  30
ATOM     30  C   UNL A   1      39.351  24.168  26.798  1.00  0.00     0.039 A 
ATOM     31  C   UNL A   1      38.926  24.452  28.097  1.00  0.00     0.014 A 
ATOM     32  C   UNL A   1      40.026  25.129  26.040  1.00  0.00     0.014 A 
ATOM     33  C   UNL A   1      39.262  25.678  28.673  1.00  0.00     0.010 A 
ATOM     34  C   UNL A   1      40.419  26.320  26.638  1.00  0.00     0.010 A 
ATOM     35  C   UNL A   1      40.047  26.601  27.962  1.00  0.00    -0.014 A 
BRANCH  35  36
ATOM     36  C   UNL A   1      40.481  27.875  28.580  1.00  0.00     0.031 A 
ATOM     37  C   UNL A   1      41.880  28.006  29.108  1.00  0.00     0.074 A 
ATOM     38  C   UNL A   1      39.603  28.889  28.716  1.00  0.00     0.049 A 
ATOM     39  N   UNL A   1      42.429  29.012  29.737  1.00  0.00    -0.248 NA
ATOM     40  C   UNL A   1      42.773  26.848  28.923  1.00  0.00     0.031 C 
ATOM     41  C   UNL A   1      38.207  28.869  28.270  1.00  0.00     0.029 A 
ATOM     42  N   UNL A   1      39.757  30.135  29.271  1.00  0.00    -0.354 N 
ATOM     43  C   UNL A   1      43.726  28.607  30.028  1.00  0.00     0.074 A 
ATOM     44  C   UNL A   1      43.867  27.250  29.551  1.00  0.00     0.031 C 
ATOM     45  C   UNL A   1      37.641  30.056  28.546  1.00  0.00     0.029 A 
ATOM     46  C   UNL A   1      38.622  30.909  29.213  1.00  0.00     0.049 A 
ATOM     47  H   UNL A   1      40.601  30.445  29.671  1.00  0.00     0.167 HD
ATOM     48  C   UNL A   1      44.717  29.313  30.617  1.00  0.00     0.031 A 
ATOM     49  C   UNL A   1      38.396  32.164  29.648  1.00  0.00     0.031 A 
ATOM     50  C   UNL A   1      44.581  30.668  31.072  1.00  0.00     0.049 A 
ATOM     51  C   UNL A   1      39.509  32.926  30.308  1.00  0.00     0.074 A 
ATOM     52  C   UNL A   1      45.543  31.479  31.649  1.00  0.00     0.029 A 
ATOM     53  N   UNL A   1      43.417  31.414  30.996  1.00  0.00    -0.354 N 
ATOM     54  N   UNL A   1      40.737  32.535  30.550  1.00  0.00    -0.248 NA
ATOM     55  C   UNL A   1      39.212  34.296  30.749  1.00  0.00     0.031 C 
ATOM     56  C   UNL A   1      44.949  32.709  31.949  1.00  0.00     0.029 A 
ATOM     57  C   UNL A   1      43.630  32.674  31.523  1.00  0.00     0.049 A 
ATOM     58  H   UNL A   1      42.564  31.094  30.622  1.00  0.00     0.167 HD
ATOM     59  C   UNL A   1      41.365  33.617  31.156  1.00  0.00     0.074 A 
ATOM     60  C   UNL A   1      40.384  34.680  31.241  1.00  0.00     0.031 C 
ATOM     61  C   UNL A   1      42.642  33.719  31.598  1.00  0.00     0.031 A 
BRANCH  48  62
ATOM     62  C   UNL A   1      46.045  28.633  30.786  1.00  0.00    -0.014 A 
ATOM     63  C   UNL A   1      46.285  27.801  31.895  1.00  0.00     0.010 A 
ATOM     64  C   UNL A   1      47.043  28.783  29.808  1.00  0.00     0.010 A 
ATOM     65  C   UNL A   1      47.510  27.147  32.034  1.00  0.00     0.020 A 
ATOM     66  C   UNL A   1      48.264  28.115  29.934  1.00  0.00     0.020 A 
ATOM     67  C   UNL A   1      48.491  27.306  31.049  1.00  0.00     0.054 A 
BRANCH  67  68
ATOM     68  S   UNL A   1      50.062  26.423  31.250  1.00  0.00     0.124 S 
ATOM     69  O   UNL A   1      50.625  26.495  29.904  1.00  0.00    -0.237 OA
ATOM     70  O   UNL A   1      50.745  27.223  32.262  1.00  0.00    -0.237 OA
ATOM     71  O   UNL A   1      49.657  25.086  31.680  1.00  0.00    -0.744 OA
ENDBRANCH  67  68
ENDBRANCH  48  62
BRANCH  49  72
ATOM     72  C   UNL A   1      37.060  32.781  29.439  1.00  0.00    -0.014 A 
ATOM     73  C   UNL A   1      36.110  32.778  30.476  1.00  0.00     0.010 A 
ATOM     74  C   UNL A   1      36.751  33.424  28.228  1.00  0.00     0.010 A 
ATOM     75  C   UNL A   1      34.877  33.413  30.306  1.00  0.00     0.020 A 
ATOM     76  C   UNL A   1      35.525  34.076  28.060  1.00  0.00     0.020 A 
ATOM     77  C   UNL A   1      34.597  34.069  29.103  1.00  0.00     0.054 A 
BRANCH  77  78
ATOM     78  S   UNL A   1      33.018  34.948  28.941  1.00  0.00     0.124 S 
ATOM     79  O   UNL A   1      32.285  34.096  28.009  1.00  0.00    -0.237 OA
ATOM     80  O   UNL A   1      32.527  34.950  30.317  1.00  0.00    -0.237 OA
ATOM     81  O   UNL A   1      33.404  36.256  28.420  1.00  0.00    -0.744 OA
ENDBRANCH  77  78
ENDBRANCH  49  72
BRANCH  61  82
ATOM     82  C   UNL A   1      43.074  35.024  32.204  1.00  0.00    -0.014 A 
ATOM     83  C   UNL A   1      43.832  35.944  31.462  1.00  0.00     0.010 A 
ATOM     84  C   UNL A   1      42.607  35.382  33.483  1.00  0.00     0.010 A 
ATOM     85  C   UNL A   1      44.115  37.206  31.989  1.00  0.00     0.020 A 
ATOM     86  C   UNL A   1      42.874  36.650  34.004  1.00  0.00     0.020 A 
ATOM     87  C   UNL A   1      43.625  37.554  33.251  1.00  0.00     0.054 A 
BRANCH  87  88
ATOM     88  S   UNL A   1      43.947  39.228  33.872  1.00  0.00     0.124 S 
ATOM     89  O   UNL A   1      42.676  39.901  33.617  1.00  0.00    -0.237 OA
ATOM     90  O   UNL A   1      44.261  38.987  35.278  1.00  0.00    -0.237 OA
ATOM     91  O   UNL A   1      45.068  39.692  33.057  1.00  0.00    -0.744 OA
ENDBRANCH  87  88
ENDBRANCH  61  82
ENDBRANCH  35  36
ENDBRANCH  27  30
ENDBRANCH  25  26
ENDBRANCH   1  25
TORSDOF 18
ENDMDL
MODEL 3
REMARK VINA RESULT:     -10.3      2.904      9.433
REMARK SMILES CC(C)C[C@H](NC(=O)c1cc(Cl)nnc1Cl)C(=O)NCCCCNC(=O)c1ccc(-c2c3nc(c(-c4ccc(S(=O)(=O)[O-])cc4)c4ccc([nH]4)c(-c4ccc(S(=O)(=O)[O-])cc4)c4nc(c(-c5ccc(S(=O)(=O)[O-])cc5)c5ccc2[nH]5)C=C4)C=C3)cc1
REMARK SMILES IDX 22 1 21 2 20 3 19 4 17 5 18 6 5 8 4 9 2 10 1 11 3 12 6 13
REMARK SMILES IDX 7 14 8 16 9 17 10 18 15 19 11 20 14 21 16 22 12 23 13 24
REMARK SMILES IDX 23 25 24 26 25 27 26 29 27 30 28 31 86 32 29 33 85 34 30 35
REMARK SMILES IDX 31 36 32 37 79 38 33 39 84 40 78 41 80 42 34 43 83 44 77 45
REMARK SMILES IDX 76 46 35 48 65 49 46 50 64 51 47 52 50 53 63 54 81 55 48 56
REMARK SMILES IDX 49 57 62 59 82 60 51 61 36 62 37 63 45 64 38 65 44 66 39 67
REMARK SMILES IDX 40 68 41 69 42 70 43 71 66 72 67 73 75 74 68 75 74 76 69 77
REMARK SMILES IDX 70 78 71 79 72 80 73 81 52 82 53 83 61 84 54 85 60 86 55 87
REMARK SMILES IDX 56 88 57 89 58 90 59 91
REMARK H PARENT 19 7 6 15 24 28 80 47 50 58
REMARK Flexibility Score: inf
ROOT
ATOM      1  C   UNL A   1      32.211  28.287  26.148  1.00  0.00     0.023 C 
ENDROOT
BRANCH   1   2
ATOM      2  C   UNL A   1      31.293  27.253  26.792  1.00  0.00     0.023 C 
BRANCH   2   3
ATOM      3  C   UNL A   1      30.568  26.319  25.832  1.00  0.00     0.116 C 
BRANCH   3   4
ATOM      4  N   UNL A   1      29.905  25.202  26.454  1.00  0.00    -0.354 N 
ATOM      5  C   UNL A   1      30.357  23.926  26.620  1.00  0.00     0.242 C 
ATOM      6  O   UNL A   1      29.730  23.205  27.404  1.00  0.00    -0.273 OA
ATOM      7  H   UNL A   1      29.003  25.383  26.806  1.00  0.00     0.163 HD
BRANCH   5   8
ATOM      8  C   UNL A   1      31.675  23.408  25.981  1.00  0.00     0.171 C 
BRANCH   8   9
ATOM      9  C   UNL A   1      32.953  24.042  26.561  1.00  0.00     0.038 C 
BRANCH   9  10
ATOM     10  C   UNL A   1      33.879  23.178  27.437  1.00  0.00    -0.015 C 
ATOM     11  C   UNL A   1      33.395  21.737  27.613  1.00  0.00     0.007 C 
ATOM     12  C   UNL A   1      35.284  23.132  26.819  1.00  0.00     0.007 C 
ENDBRANCH   9  10
ENDBRANCH   8   9
BRANCH   8  13
ATOM     13  N   UNL A   1      31.613  23.059  24.544  1.00  0.00    -0.340 N 
ATOM     14  C   UNL A   1      32.130  22.147  23.673  1.00  0.00     0.255 C 
ATOM     15  H   UNL A   1      31.011  23.677  24.070  1.00  0.00     0.164 HD
ATOM     16  O   UNL A   1      31.926  22.279  22.468  1.00  0.00    -0.269 OA
BRANCH  14  17
ATOM     17  C   UNL A   1      32.981  21.040  24.072  1.00  0.00     0.082 A 
ATOM     18  C   UNL A   1      32.390  19.895  24.610  1.00  0.00     0.060 A 
ATOM     19  C   UNL A   1      34.355  21.166  24.110  1.00  0.00     0.164 A 
ATOM     20  C   UNL A   1      33.223  18.883  25.029  1.00  0.00     0.152 A 
ATOM     21  N   UNL A   1      35.140  20.158  24.545  1.00  0.00    -0.136 NA
ATOM     22  Cl  UNL A   1      35.212  22.575  23.642  1.00  0.00    -0.059 Cl
ATOM     23  Cl  UNL A   1      32.605  17.397  25.600  1.00  0.00    -0.060 Cl
ATOM     24  N   UNL A   1      34.565  18.989  24.986  1.00  0.00    -0.137 NA
ENDBRANCH  14  17
ENDBRANCH   8  13
ENDBRANCH   5   8
ENDBRANCH   3   4
ENDBRANCH   2   3
ENDBRANCH   1   2
BRANCH   1  25
ATOM     25  C   UNL A   1      33.433  28.675  26.973  1.00  0.00     0.116 C 
BRANCH  25  26
ATOM     26  N   UNL A   1      33.443  30.083  27.347  1.00  0.00    -0.352 N 
ATOM     27  C   UNL A   1      34.412  30.801  28.007  1.00  0.00     0.251 C 
ATOM     28  H   UNL A   1      32.641  30.594  27.090  1.00  0.00     0.163 HD
ATOM     29  O   UNL A   1      34.189  31.946  28.384  1.00  0.00    -0.269 OA
BRANCH  27  30
ATOM     30  C   UNL A   1      35.712  30.161  28.285  1.00  0.00     0.039 A 
ATOM     31  C   UNL A   1      36.699  30.171  27.299  1.00  0.00     0.014 A 
ATOM     32  C   UNL A   1      35.963  29.608  29.544  1.00  0.00     0.014 A 
ATOM     33  C   UNL A   1      37.979  29.707  27.610  1.00  0.00     0.010 A 
ATOM     34  C   UNL A   1      37.253  29.211  29.872  1.00  0.00     0.010 A 
ATOM     35  C   UNL A   1      38.273  29.264  28.910  1.00  0.00    -0.014 A 
BRANCH  35  36
ATOM     36  C   UNL A   1      39.642  28.839  29.284  1.00  0.00     0.031 A 
ATOM     37  C   UNL A   1      40.534  29.785  30.035  1.00  0.00     0.074 A 
ATOM     38  C   UNL A   1      40.099  27.631  28.899  1.00  0.00     0.049 A 
ATOM     39  N   UNL A   1      41.780  29.625  30.397  1.00  0.00    -0.248 NA
ATOM     40  C   UNL A   1      39.958  31.088  30.411  1.00  0.00     0.031 C 
ATOM     41  C   UNL A   1      39.337  26.638  28.138  1.00  0.00     0.029 A 
ATOM     42  N   UNL A   1      41.319  27.033  29.096  1.00  0.00    -0.354 N 
ATOM     43  C   UNL A   1      42.137  30.806  31.035  1.00  0.00     0.074 A 
ATOM     44  C   UNL A   1      40.996  31.690  30.971  1.00  0.00     0.031 C 
ATOM     45  C   UNL A   1      40.097  25.546  27.956  1.00  0.00     0.029 A 
ATOM     46  C   UNL A   1      41.409  25.771  28.559  1.00  0.00     0.049 A 
ATOM     47  H   UNL A   1      42.059  27.468  29.577  1.00  0.00     0.167 HD
ATOM     48  C   UNL A   1      43.305  31.114  31.644  1.00  0.00     0.031 A 
ATOM     49  C   UNL A   1      42.431  24.893  28.553  1.00  0.00     0.031 A 
ATOM     50  C   UNL A   1      44.431  30.228  31.726  1.00  0.00     0.049 A 
ATOM     51  C   UNL A   1      43.721  25.261  29.227  1.00  0.00     0.074 A 
ATOM     52  C   UNL A   1      45.645  30.439  32.355  1.00  0.00     0.029 A 
ATOM     53  N   UNL A   1      44.481  28.961  31.169  1.00  0.00    -0.354 N 
ATOM     54  N   UNL A   1      44.031  26.373  29.850  1.00  0.00    -0.248 NA
ATOM     55  C   UNL A   1      44.797  24.260  29.204  1.00  0.00     0.031 C 
ATOM     56  C   UNL A   1      46.442  29.308  32.152  1.00  0.00     0.029 A 
ATOM     57  C   UNL A   1      45.708  28.380  31.431  1.00  0.00     0.049 A 
ATOM     58  H   UNL A   1      43.751  28.537  30.662  1.00  0.00     0.167 HD
ATOM     59  C   UNL A   1      45.332  26.200  30.309  1.00  0.00     0.074 A 
ATOM     60  C   UNL A   1      45.750  24.875  29.896  1.00  0.00     0.031 C 
ATOM     61  C   UNL A   1      46.106  27.060  31.012  1.00  0.00     0.031 A 
BRANCH  48  62
ATOM     62  C   UNL A   1      43.413  32.467  32.287  1.00  0.00    -0.014 A 
ATOM     63  C   UNL A   1      43.830  33.583  31.538  1.00  0.00     0.010 A 
ATOM     64  C   UNL A   1      43.049  32.638  33.634  1.00  0.00     0.010 A 
ATOM     65  C   UNL A   1      43.902  34.844  32.131  1.00  0.00     0.020 A 
ATOM     66  C   UNL A   1      43.101  33.903  34.226  1.00  0.00     0.020 A 
ATOM     67  C   UNL A   1      43.533  34.996  33.472  1.00  0.00     0.054 A 
BRANCH  67  68
ATOM     68  S   UNL A   1      43.615  36.653  34.203  1.00  0.00     0.124 S 
ATOM     69  O   UNL A   1      42.369  36.712  34.963  1.00  0.00    -0.237 OA
ATOM     70  O   UNL A   1      44.836  36.584  35.001  1.00  0.00    -0.237 OA
ATOM     71  O   UNL A   1      43.676  37.542  33.045  1.00  0.00    -0.744 OA
ENDBRANCH  67  68
ENDBRANCH  48  62
BRANCH  49  72
ATOM     72  C   UNL A   1      42.252  23.566  27.907  1.00  0.00    -0.014 A 
ATOM     73  C   UNL A   1      42.798  23.320  26.635  1.00  0.00     0.010 A 
ATOM     74  C   UNL A   1      41.588  22.527  28.582  1.00  0.00     0.010 A 
ATOM     75  C   UNL A   1      42.688  22.056  26.052  1.00  0.00     0.020 A 
ATOM     76  C   UNL A   1      41.491  21.255  28.008  1.00  0.00     0.020 A 
ATOM     77  C   UNL A   1      42.046  21.027  26.748  1.00  0.00     0.054 A 
BRANCH  77  78
ATOM     78  S   UNL A   1      41.985  19.376  25.996  1.00  0.00     0.124 S 
ATOM     79  O   UNL A   1      42.817  19.549  24.808  1.00  0.00    -0.237 OA
ATOM     80  O   UNL A   1      42.552  18.539  27.050  1.00  0.00    -0.237 OA
ATOM     81  O   UNL A   1      40.563  19.168  25.738  1.00  0.00    -0.744 OA
ENDBRANCH  77  78
ENDBRANCH  49  72
BRANCH  61  82
ATOM     82  C   UNL A   1      47.484  26.608  31.401  1.00  0.00    -0.014 A 
ATOM     83  C   UNL A   1      47.714  25.990  32.642  1.00  0.00     0.010 A 
ATOM     84  C   UNL A   1      48.531  26.690  30.464  1.00  0.00     0.010 A 
ATOM     85  C   UNL A   1      48.970  25.457  32.938  1.00  0.00     0.020 A 
ATOM     86  C   UNL A   1      49.783  26.142  30.751  1.00  0.00     0.020 A 
ATOM     87  C   UNL A   1      49.993  25.527  31.987  1.00  0.00     0.054 A 
BRANCH  87  88
ATOM     88  S   UNL A   1      51.588  24.757  32.376  1.00  0.00     0.124 S 
ATOM     89  O   UNL A   1      51.333  23.350  32.077  1.00  0.00    -0.237 OA
ATOM     90  O   UNL A   1      52.498  25.440  31.459  1.00  0.00    -0.237 OA
ATOM     91  O   UNL A   1      51.788  25.063  33.791  1.00  0.00    -0.744 OA
ENDBRANCH  87  88
ENDBRANCH  61  82
ENDBRANCH  35  36
ENDBRANCH  27  30
ENDBRANCH  25  26
ENDBRANCH   1  25
TORSDOF 18
ENDMDL
