MODEL 1
REMARK VINA RESULT:     -12.9      0.000      0.000
REMARK SMILES O=C(NCCCCNC(=O)c1ccc(-c2c3nc(c(-c4ccc(S(=O)(=O)[O-])cc4)c4ccc([nH]4)c(-c4ccc(S(=O)(=O)[O-])cc4)c4nc(c(-c5ccc(S(=O)(=O)[O-])cc5)c5ccc2[nH]5)C=C4)C=C3)cc1)C1=Cc2cc(S(F)(F)(F)(F)F)cc(Br)c2O[C@@H]1C(F)(F)F
REMARK SMILES IDX 6 1 5 2 4 3 3 4 1 5 2 6 71 8 72 9 87 10 73 11 86 12 74 13
REMARK SMILES IDX 85 14 75 15 83 16 82 17 84 18 88 19 89 20 90 21 91 22 76 23
REMARK SMILES IDX 77 24 78 25 79 26 80 27 81 28 7 29 8 30 9 31 10 33 11 34
REMARK SMILES IDX 12 35 70 36 13 37 69 38 14 39 15 40 16 41 63 42 17 43 68 44
REMARK SMILES IDX 62 45 64 46 18 47 67 48 61 49 60 50 19 52 49 53 30 54 48 55
REMARK SMILES IDX 31 56 34 57 47 58 65 59 32 60 33 61 46 63 66 64 35 65 20 66
REMARK SMILES IDX 21 67 29 68 22 69 28 70 23 71 24 72 25 73 26 74 27 75 50 76
REMARK SMILES IDX 51 77 59 78 52 79 58 80 53 81 54 82 55 83 56 84 57 85 36 86
REMARK SMILES IDX 37 87 45 88 38 89 44 90 39 91 40 92 41 93 42 94 43 95
REMARK H PARENT 3 7 8 32 64 51 34 62
REMARK Flexibility Score: inf
ROOT
ATOM      1  C   UNL A   1      33.017  27.609  26.043  1.00  0.00     0.023 C 
ENDROOT
BRANCH   1   2
ATOM      2  C   UNL A   1      33.705  26.825  24.937  1.00  0.00     0.023 C 
BRANCH   2   3
ATOM      3  C   UNL A   1      33.654  25.341  25.263  1.00  0.00     0.116 C 
BRANCH   3   4
ATOM      4  N   UNL A   1      33.982  24.563  24.059  1.00  0.00    -0.352 N 
ATOM      5  O   UNL A   1      33.438  22.733  22.644  1.00  0.00    -0.270 OA
ATOM      6  C   UNL A   1      33.156  23.405  23.685  1.00  0.00     0.251 C 
ATOM      7  H   UNL A   1      34.753  24.817  23.504  1.00  0.00     0.163 HD
BRANCH   6   8
ATOM      8  C   UNL A   1      31.964  23.012  24.543  1.00  0.00     0.067 C 
ATOM      9  C   UNL A   1      31.893  21.762  25.076  1.00  0.00     0.025 C 
ATOM     10  C   UNL A   1      30.853  24.015  24.805  1.00  0.00     0.314 C 
ATOM     11  C   UNL A   1      33.004  20.760  24.814  1.00  0.00     0.020 A 
ATOM     12  O   UNL A   1      34.578  22.517  25.105  1.00  0.00    -0.474 OA
ATOM     13  C   UNL A   1      32.673  19.459  24.475  1.00  0.00     0.036 A 
ATOM     14  C   UNL A   1      34.272  21.144  24.915  1.00  0.00     0.142 A 
ATOM     15  C   UNL A   1      33.759  18.553  24.545  1.00  0.00     0.109 A 
ATOM     16  C   UNL A   1      35.290  20.223  24.838  1.00  0.00     0.062 A 
ATOM     17  C   UNL A   1      35.030  18.910  24.565  1.00  0.00     0.044 A 
ATOM     18  Br  UNL A   1      37.140  20.804  25.124  1.00  0.00    -0.047 Br
BRANCH  10  19
ATOM     19  C   UNL A   1      30.735  24.261  26.301  1.00  0.00     0.429 C 
ATOM     20  F   UNL A   1      29.755  23.514  26.796  1.00  0.00    -0.167 F 
ATOM     21  F   UNL A   1      31.882  23.940  26.895  1.00  0.00    -0.167 F 
ATOM     22  F   UNL A   1      30.467  25.546  26.518  1.00  0.00    -0.167 F 
ENDBRANCH  10  19
BRANCH  15  23
ATOM     23  S   UNL A   1      33.377  16.785  24.611  1.00  0.00     0.310 S 
ATOM     24  F   UNL A   1      34.877  16.411  24.966  1.00  0.00    -0.094 F 
ATOM     25  F   UNL A   1      33.779  16.669  23.092  1.00  0.00    -0.094 F 
ATOM     26  F   UNL A   1      33.049  15.267  24.669  1.00  0.00    -0.094 F 
ATOM     27  F   UNL A   1      33.114  16.893  26.165  1.00  0.00    -0.094 F 
ATOM     28  F   UNL A   1      33.814  18.305  24.595  1.00  0.00    -0.094 F 
ENDBRANCH  15  23
ENDBRANCH   6   8
ENDBRANCH   3   4
ENDBRANCH   2   3
ENDBRANCH   1   2
BRANCH   1  29
ATOM     29  C   UNL A   1      34.062  28.328  26.879  1.00  0.00     0.116 C 
BRANCH  29  30
ATOM     30  N   UNL A   1      33.537  29.632  27.306  1.00  0.00    -0.352 N 
ATOM     31  C   UNL A   1      34.406  30.575  28.027  1.00  0.00     0.251 C 
ATOM     32  H   UNL A   1      32.604  29.875  27.110  1.00  0.00     0.163 HD
ATOM     33  O   UNL A   1      33.951  31.703  28.396  1.00  0.00    -0.269 OA
BRANCH  31  34
ATOM     34  C   UNL A   1      35.847  30.200  28.330  1.00  0.00     0.039 A 
ATOM     35  C   UNL A   1      36.821  30.390  27.363  1.00  0.00     0.014 A 
ATOM     36  C   UNL A   1      36.148  29.694  29.520  1.00  0.00     0.014 A 
ATOM     37  C   UNL A   1      38.046  29.741  27.648  1.00  0.00     0.010 A 
ATOM     38  C   UNL A   1      37.405  29.200  29.773  1.00  0.00     0.010 A 
ATOM     39  C   UNL A   1      38.400  29.301  28.841  1.00  0.00    -0.014 A 
BRANCH  39  40
ATOM     40  C   UNL A   1      39.838  28.926  29.162  1.00  0.00     0.031 A 
ATOM     41  C   UNL A   1      40.623  29.888  29.801  1.00  0.00     0.074 A 
ATOM     42  C   UNL A   1      40.290  27.666  28.812  1.00  0.00     0.049 A 
ATOM     43  N   UNL A   1      41.887  29.766  30.208  1.00  0.00    -0.248 NA
ATOM     44  C   UNL A   1      40.156  31.239  30.143  1.00  0.00     0.031 C 
ATOM     45  C   UNL A   1      39.502  26.687  28.174  1.00  0.00     0.029 A 
ATOM     46  N   UNL A   1      41.546  27.134  29.005  1.00  0.00    -0.354 N 
ATOM     47  C   UNL A   1      42.293  30.893  30.796  1.00  0.00     0.074 A 
ATOM     48  C   UNL A   1      41.187  31.859  30.758  1.00  0.00     0.031 C 
ATOM     49  C   UNL A   1      40.274  25.587  27.976  1.00  0.00     0.029 A 
ATOM     50  C   UNL A   1      41.557  25.858  28.487  1.00  0.00     0.049 A 
ATOM     51  H   UNL A   1      42.304  27.587  29.440  1.00  0.00     0.167 HD
ATOM     52  C   UNL A   1      43.541  31.152  31.366  1.00  0.00     0.031 A 
ATOM     53  C   UNL A   1      42.618  24.966  28.450  1.00  0.00     0.031 A 
ATOM     54  C   UNL A   1      44.589  30.244  31.368  1.00  0.00     0.049 A 
ATOM     55  C   UNL A   1      43.886  25.247  28.968  1.00  0.00     0.074 A 
ATOM     56  C   UNL A   1      45.850  30.487  31.944  1.00  0.00     0.029 A 
ATOM     57  N   UNL A   1      44.607  28.978  30.828  1.00  0.00    -0.354 N 
ATOM     58  N   UNL A   1      44.278  26.359  29.592  1.00  0.00    -0.248 NA
ATOM     59  C   UNL A   1      45.025  24.322  28.907  1.00  0.00     0.031 C 
ATOM     60  C   UNL A   1      46.622  29.385  31.747  1.00  0.00     0.029 A 
ATOM     61  C   UNL A   1      45.856  28.437  31.042  1.00  0.00     0.049 A 
ATOM     62  H   UNL A   1      43.858  28.535  30.368  1.00  0.00     0.167 HD
ATOM     63  C   UNL A   1      45.555  26.252  29.961  1.00  0.00     0.074 A 
ATOM     64  C   UNL A   1      46.057  24.944  29.520  1.00  0.00     0.031 C 
ATOM     65  C   UNL A   1      46.322  27.191  30.653  1.00  0.00     0.031 A 
BRANCH  52  66
ATOM     66  C   UNL A   1      43.763  32.506  32.019  1.00  0.00    -0.014 A 
ATOM     67  C   UNL A   1      43.509  32.620  33.377  1.00  0.00     0.010 A 
ATOM     68  C   UNL A   1      44.274  33.517  31.327  1.00  0.00     0.010 A 
ATOM     69  C   UNL A   1      43.558  33.949  33.859  1.00  0.00     0.020 A 
ATOM     70  C   UNL A   1      44.421  34.756  31.904  1.00  0.00     0.020 A 
ATOM     71  C   UNL A   1      44.132  34.955  33.225  1.00  0.00     0.054 A 
BRANCH  71  72
ATOM     72  S   UNL A   1      44.515  36.515  34.060  1.00  0.00     0.124 S 
ATOM     73  O   UNL A   1      45.987  36.522  34.476  1.00  0.00    -0.237 OA
ATOM     74  O   UNL A   1      44.248  37.682  33.108  1.00  0.00    -0.237 OA
ATOM     75  O   UNL A   1      43.529  36.675  35.449  1.00  0.00    -0.744 OA
ENDBRANCH  71  72
ENDBRANCH  52  66
BRANCH  53  76
ATOM     76  C   UNL A   1      42.390  23.607  27.811  1.00  0.00    -0.014 A 
ATOM     77  C   UNL A   1      41.956  22.550  28.595  1.00  0.00     0.010 A 
ATOM     78  C   UNL A   1      42.701  23.433  26.532  1.00  0.00     0.010 A 
ATOM     79  C   UNL A   1      42.159  21.279  28.008  1.00  0.00     0.020 A 
ATOM     80  C   UNL A   1      42.748  22.171  25.989  1.00  0.00     0.020 A 
ATOM     81  C   UNL A   1      42.390  21.076  26.724  1.00  0.00     0.054 A 
BRANCH  81  82
ATOM     82  S   UNL A   1      42.239  19.434  25.978  1.00  0.00     0.124 S 
ATOM     83  O   UNL A   1      43.058  19.383  24.686  1.00  0.00    -0.237 OA
ATOM     84  O   UNL A   1      42.762  18.378  26.955  1.00  0.00    -0.237 OA
ATOM     85  O   UNL A   1      40.596  19.118  25.624  1.00  0.00    -0.744 OA
ENDBRANCH  81  82
ENDBRANCH  53  76
BRANCH  65  86
ATOM     86  C   UNL A   1      47.757  26.825  31.001  1.00  0.00    -0.014 A 
ATOM     87  C   UNL A   1      48.779  27.180  30.137  1.00  0.00     0.010 A 
ATOM     88  C   UNL A   1      48.004  26.168  32.128  1.00  0.00     0.010 A 
ATOM     89  C   UNL A   1      50.010  26.540  30.412  1.00  0.00     0.020 A 
ATOM     90  C   UNL A   1      49.263  25.689  32.396  1.00  0.00     0.020 A 
ATOM     91  C   UNL A   1      50.309  25.951  31.556  1.00  0.00     0.054 A 
BRANCH  91  92
ATOM     92  S   UNL A   1      52.012  25.516  31.989  1.00  0.00     0.124 S 
ATOM     93  O   UNL A   1      52.932  25.819  30.803  1.00  0.00    -0.237 OA
ATOM     94  O   UNL A   1      52.456  26.336  33.201  1.00  0.00    -0.237 OA
ATOM     95  O   UNL A   1      52.096  23.850  32.366  1.00  0.00    -0.744 OA
ENDBRANCH  91  92
ENDBRANCH  65  86
ENDBRANCH  39  40
ENDBRANCH  31  34
ENDBRANCH  29  30
ENDBRANCH   1  29
TORSDOF 16
ENDMDL
MODEL 2
REMARK VINA RESULT:     -12.7      0.393      7.970
REMARK SMILES O=C(NCCCCNC(=O)c1ccc(-c2c3nc(c(-c4ccc(S(=O)(=O)[O-])cc4)c4ccc([nH]4)c(-c4ccc(S(=O)(=O)[O-])cc4)c4nc(c(-c5ccc(S(=O)(=O)[O-])cc5)c5ccc2[nH]5)C=C4)C=C3)cc1)C1=Cc2cc(S(F)(F)(F)(F)F)cc(Br)c2O[C@@H]1C(F)(F)F
REMARK SMILES IDX 6 1 5 2 4 3 3 4 1 5 2 6 71 8 72 9 87 10 73 11 86 12 74 13
REMARK SMILES IDX 85 14 75 15 83 16 82 17 84 18 88 19 89 20 90 21 91 22 76 23
REMARK SMILES IDX 77 24 78 25 79 26 80 27 81 28 7 29 8 30 9 31 10 33 11 34
REMARK SMILES IDX 12 35 70 36 13 37 69 38 14 39 15 40 16 41 63 42 17 43 68 44
REMARK SMILES IDX 62 45 64 46 18 47 67 48 61 49 60 50 19 52 49 53 30 54 48 55
REMARK SMILES IDX 31 56 34 57 47 58 65 59 32 60 33 61 46 63 66 64 35 65 20 66
REMARK SMILES IDX 21 67 29 68 22 69 28 70 23 71 24 72 25 73 26 74 27 75 50 76
REMARK SMILES IDX 51 77 59 78 52 79 58 80 53 81 54 82 55 83 56 84 57 85 36 86
REMARK SMILES IDX 37 87 45 88 38 89 44 90 39 91 40 92 41 93 42 94 43 95
REMARK H PARENT 3 7 8 32 64 51 34 62
REMARK Flexibility Score: inf
ROOT
ATOM      1  C   UNL A   1      33.097  27.440  26.208  1.00  0.00     0.023 C 
ENDROOT
BRANCH   1   2
ATOM      2  C   UNL A   1      33.673  26.717  25.002  1.00  0.00     0.023 C 
BRANCH   2   3
ATOM      3  C   UNL A   1      33.822  25.238  25.323  1.00  0.00     0.116 C 
BRANCH   3   4
ATOM      4  N   UNL A   1      34.109  24.495  24.087  1.00  0.00    -0.352 N 
ATOM      5  O   UNL A   1      33.484  22.743  22.609  1.00  0.00    -0.270 OA
ATOM      6  C   UNL A   1      33.236  23.385  23.677  1.00  0.00     0.251 C 
ATOM      7  H   UNL A   1      34.885  24.741  23.534  1.00  0.00     0.163 HD
BRANCH   6   8
ATOM      8  C   UNL A   1      32.038  23.005  24.532  1.00  0.00     0.067 C 
ATOM      9  C   UNL A   1      31.952  21.756  25.066  1.00  0.00     0.025 C 
ATOM     10  C   UNL A   1      30.937  24.019  24.790  1.00  0.00     0.314 C 
ATOM     11  C   UNL A   1      33.054  20.742  24.807  1.00  0.00     0.020 A 
ATOM     12  O   UNL A   1      34.645  22.482  25.103  1.00  0.00    -0.474 OA
ATOM     13  C   UNL A   1      32.709  19.443  24.468  1.00  0.00     0.036 A 
ATOM     14  C   UNL A   1      34.325  21.112  24.912  1.00  0.00     0.142 A 
ATOM     15  C   UNL A   1      33.786  18.527  24.542  1.00  0.00     0.109 A 
ATOM     16  C   UNL A   1      35.333  20.181  24.839  1.00  0.00     0.062 A 
ATOM     17  C   UNL A   1      35.060  18.870  24.566  1.00  0.00     0.044 A 
ATOM     18  Br  UNL A   1      37.189  20.742  25.131  1.00  0.00    -0.047 Br
BRANCH  10  19
ATOM     19  C   UNL A   1      30.817  24.267  26.285  1.00  0.00     0.429 C 
ATOM     20  F   UNL A   1      29.874  23.479  26.791  1.00  0.00    -0.167 F 
ATOM     21  F   UNL A   1      31.980  24.001  26.874  1.00  0.00    -0.167 F 
ATOM     22  F   UNL A   1      30.493  25.540  26.498  1.00  0.00    -0.167 F 
ENDBRANCH  10  19
BRANCH  15  23
ATOM     23  S   UNL A   1      33.385  16.763  24.608  1.00  0.00     0.310 S 
ATOM     24  F   UNL A   1      34.847  16.385  25.093  1.00  0.00    -0.094 F 
ATOM     25  F   UNL A   1      33.911  16.616  23.130  1.00  0.00    -0.094 F 
ATOM     26  F   UNL A   1      33.041  15.248  24.665  1.00  0.00    -0.094 F 
ATOM     27  F   UNL A   1      32.994  16.901  26.132  1.00  0.00    -0.094 F 
ATOM     28  F   UNL A   1      33.835  18.279  24.600  1.00  0.00    -0.094 F 
ENDBRANCH  15  23
ENDBRANCH   6   8
ENDBRANCH   3   4
ENDBRANCH   2   3
ENDBRANCH   1   2
BRANCH   1  29
ATOM     29  C   UNL A   1      34.191  28.247  26.886  1.00  0.00     0.116 C 
BRANCH  29  30
ATOM     30  N   UNL A   1      33.646  29.538  27.329  1.00  0.00    -0.352 N 
ATOM     31  C   UNL A   1      34.503  30.489  28.053  1.00  0.00     0.251 C 
ATOM     32  H   UNL A   1      32.708  29.767  27.140  1.00  0.00     0.163 HD
ATOM     33  O   UNL A   1      34.032  31.606  28.435  1.00  0.00    -0.269 OA
BRANCH  31  34
ATOM     34  C   UNL A   1      35.953  30.136  28.343  1.00  0.00     0.039 A 
ATOM     35  C   UNL A   1      36.914  30.331  27.364  1.00  0.00     0.014 A 
ATOM     36  C   UNL A   1      36.273  29.645  29.534  1.00  0.00     0.014 A 
ATOM     37  C   UNL A   1      38.150  29.700  27.641  1.00  0.00     0.010 A 
ATOM     38  C   UNL A   1      37.539  29.170  29.778  1.00  0.00     0.010 A 
ATOM     39  C   UNL A   1      38.523  29.276  28.834  1.00  0.00    -0.014 A 
BRANCH  39  40
ATOM     40  C   UNL A   1      39.970  28.923  29.142  1.00  0.00     0.031 A 
ATOM     41  C   UNL A   1      40.400  27.639  28.807  1.00  0.00     0.074 A 
ATOM     42  C   UNL A   1      40.777  29.883  29.727  1.00  0.00     0.049 A 
ATOM     43  N   UNL A   1      41.625  27.129  28.950  1.00  0.00    -0.248 NA
ATOM     44  C   UNL A   1      39.536  26.606  28.218  1.00  0.00     0.031 C 
ATOM     45  C   UNL A   1      40.352  31.184  30.060  1.00  0.00     0.029 A 
ATOM     46  N   UNL A   1      42.101  29.768  30.089  1.00  0.00    -0.354 N 
ATOM     47  C   UNL A   1      41.656  25.873  28.499  1.00  0.00     0.074 A 
ATOM     48  C   UNL A   1      40.312  25.517  28.027  1.00  0.00     0.031 C 
ATOM     49  C   UNL A   1      41.400  31.839  30.624  1.00  0.00     0.029 A 
ATOM     50  C   UNL A   1      42.499  30.960  30.652  1.00  0.00     0.049 A 
ATOM     51  H   UNL A   1      42.666  28.971  29.964  1.00  0.00     0.167 HD
ATOM     52  C   UNL A   1      42.755  25.012  28.460  1.00  0.00     0.031 A 
ATOM     53  C   UNL A   1      43.745  31.280  31.170  1.00  0.00     0.031 A 
ATOM     54  C   UNL A   1      44.012  25.347  28.938  1.00  0.00     0.049 A 
ATOM     55  C   UNL A   1      44.829  30.398  31.185  1.00  0.00     0.074 A 
ATOM     56  C   UNL A   1      45.131  24.494  28.900  1.00  0.00     0.029 A 
ATOM     57  N   UNL A   1      44.402  26.531  29.524  1.00  0.00    -0.354 N 
ATOM     58  N   UNL A   1      44.870  29.157  30.697  1.00  0.00    -0.248 NA
ATOM     59  C   UNL A   1      46.142  30.716  31.758  1.00  0.00     0.031 C 
ATOM     60  C   UNL A   1      46.181  25.150  29.464  1.00  0.00     0.029 A 
ATOM     61  C   UNL A   1      45.734  26.423  29.864  1.00  0.00     0.049 A 
ATOM     62  H   UNL A   1      43.830  27.318  29.675  1.00  0.00     0.167 HD
ATOM     63  C   UNL A   1      46.084  28.634  30.878  1.00  0.00     0.074 A 
ATOM     64  C   UNL A   1      46.918  29.625  31.569  1.00  0.00     0.031 C 
ATOM     65  C   UNL A   1      46.530  27.369  30.490  1.00  0.00     0.031 A 
BRANCH  52  66
ATOM     66  C   UNL A   1      42.560  23.628  27.862  1.00  0.00    -0.014 A 
ATOM     67  C   UNL A   1      42.867  23.454  26.522  1.00  0.00     0.010 A 
ATOM     68  C   UNL A   1      42.198  22.604  28.625  1.00  0.00     0.010 A 
ATOM     69  C   UNL A   1      42.479  22.195  26.005  1.00  0.00     0.020 A 
ATOM     70  C   UNL A   1      41.967  21.367  28.072  1.00  0.00     0.020 A 
ATOM     71  C   UNL A   1      42.192  21.138  26.743  1.00  0.00     0.054 A 
BRANCH  71  72
ATOM     72  S   UNL A   1      42.101  19.476  26.033  1.00  0.00     0.124 S 
ATOM     73  O   UNL A   1      42.573  18.453  27.068  1.00  0.00    -0.237 OA
ATOM     74  O   UNL A   1      40.655  19.169  25.636  1.00  0.00    -0.237 OA
ATOM     75  O   UNL A   1      43.102  19.391  24.649  1.00  0.00    -0.744 OA
ENDBRANCH  71  72
ENDBRANCH  52  66
BRANCH  53  76
ATOM     76  C   UNL A   1      43.943  32.669  31.754  1.00  0.00    -0.014 A 
ATOM     77  C   UNL A   1      44.409  33.689  30.941  1.00  0.00     0.010 A 
ATOM     78  C   UNL A   1      43.754  32.857  33.054  1.00  0.00     0.010 A 
ATOM     79  C   UNL A   1      44.926  34.798  31.651  1.00  0.00     0.020 A 
ATOM     80  C   UNL A   1      44.162  34.022  33.659  1.00  0.00     0.020 A 
ATOM     81  C   UNL A   1      44.687  35.049  32.925  1.00  0.00     0.054 A 
BRANCH  81  82
ATOM     82  S   UNL A   1      45.034  36.666  33.659  1.00  0.00     0.124 S 
ATOM     83  O   UNL A   1      45.700  36.475  35.024  1.00  0.00    -0.237 OA
ATOM     84  O   UNL A   1      45.972  37.453  32.740  1.00  0.00    -0.237 OA
ATOM     85  O   UNL A   1      43.571  37.529  33.854  1.00  0.00    -0.744 OA
ENDBRANCH  81  82
ENDBRANCH  53  76
BRANCH  65  86
ATOM     86  C   UNL A   1      47.981  27.007  30.771  1.00  0.00    -0.014 A 
ATOM     87  C   UNL A   1      48.314  26.412  31.976  1.00  0.00     0.010 A 
ATOM     88  C   UNL A   1      48.905  27.270  29.854  1.00  0.00     0.010 A 
ATOM     89  C   UNL A   1      49.703  26.393  32.241  1.00  0.00     0.020 A 
ATOM     90  C   UNL A   1      50.238  27.099  30.136  1.00  0.00     0.020 A 
ATOM     91  C   UNL A   1      50.642  26.571  31.330  1.00  0.00     0.054 A 
BRANCH  91  92
ATOM     92  S   UNL A   1      52.371  26.139  31.646  1.00  0.00     0.124 S 
ATOM     93  O   UNL A   1      53.176  26.275  30.351  1.00  0.00    -0.237 OA
ATOM     94  O   UNL A   1      52.947  27.081  32.705  1.00  0.00    -0.237 OA
ATOM     95  O   UNL A   1      52.462  24.526  32.207  1.00  0.00    -0.744 OA
ENDBRANCH  91  92
ENDBRANCH  65  86
ENDBRANCH  39  40
ENDBRANCH  31  34
ENDBRANCH  29  30
ENDBRANCH   1  29
TORSDOF 16
ENDMDL
MODEL 3
REMARK VINA RESULT:     -12.3      3.855      9.873
REMARK SMILES O=C(NCCCCNC(=O)c1ccc(-c2c3nc(c(-c4ccc(S(=O)(=O)[O-])cc4)c4ccc([nH]4)c(-c4ccc(S(=O)(=O)[O-])cc4)c4nc(c(-c5ccc(S(=O)(=O)[O-])cc5)c5ccc2[nH]5)C=C4)C=C3)cc1)C1=Cc2cc(S(F)(F)(F)(F)F)cc(Br)c2O[C@@H]1C(F)(F)F
REMARK SMILES IDX 6 1 5 2 4 3 3 4 1 5 2 6 71 8 72 9 87 10 73 11 86 12 74 13
REMARK SMILES IDX 85 14 75 15 83 16 82 17 84 18 88 19 89 20 90 21 91 22 76 23
REMARK SMILES IDX 77 24 78 25 79 26 80 27 81 28 7 29 8 30 9 31 10 33 11 34
REMARK SMILES IDX 12 35 70 36 13 37 69 38 14 39 15 40 16 41 63 42 17 43 68 44
REMARK SMILES IDX 62 45 64 46 18 47 67 48 61 49 60 50 19 52 49 53 30 54 48 55
REMARK SMILES IDX 31 56 34 57 47 58 65 59 32 60 33 61 46 63 66 64 35 65 20 66
REMARK SMILES IDX 21 67 29 68 22 69 28 70 23 71 24 72 25 73 26 74 27 75 50 76
REMARK SMILES IDX 51 77 59 78 52 79 58 80 53 81 54 82 55 83 56 84 57 85 36 86
REMARK SMILES IDX 37 87 45 88 38 89 44 90 39 91 40 92 41 93 42 94 43 95
REMARK H PARENT 3 7 8 32 64 51 34 62
REMARK Flexibility Score: inf
ROOT
ATOM      1  C   UNL A   1      35.596  23.515  26.476  1.00  0.00     0.023 C 
ENDROOT
BRANCH   1   2
ATOM      2  C   UNL A   1      34.281  23.519  25.714  1.00  0.00     0.023 C 
BRANCH   2   3
ATOM      3  C   UNL A   1      33.937  24.942  25.304  1.00  0.00     0.116 C 
BRANCH   3   4
ATOM      4  N   UNL A   1      32.671  25.341  25.934  1.00  0.00    -0.352 N 
ATOM      5  O   UNL A   1      30.381  25.911  25.650  1.00  0.00    -0.270 OA
ATOM      6  C   UNL A   1      31.476  25.566  25.105  1.00  0.00     0.251 C 
ATOM      7  H   UNL A   1      32.622  25.459  26.909  1.00  0.00     0.163 HD
BRANCH   6   8
ATOM      8  C   UNL A   1      31.552  25.385  23.598  1.00  0.00     0.067 C 
ATOM      9  C   UNL A   1      31.230  26.417  22.771  1.00  0.00     0.025 C 
ATOM     10  C   UNL A   1      31.986  24.051  23.014  1.00  0.00     0.314 C 
ATOM     11  C   UNL A   1      30.796  27.751  23.356  1.00  0.00     0.020 A 
ATOM     12  O   UNL A   1      32.490  27.513  25.006  1.00  0.00    -0.474 OA
ATOM     13  C   UNL A   1      29.697  28.399  22.815  1.00  0.00     0.036 A 
ATOM     14  C   UNL A   1      31.473  28.275  24.372  1.00  0.00     0.142 A 
ATOM     15  C   UNL A   1      29.565  29.746  23.229  1.00  0.00     0.109 A 
ATOM     16  C   UNL A   1      31.199  29.547  24.814  1.00  0.00     0.062 A 
ATOM     17  C   UNL A   1      30.166  30.268  24.283  1.00  0.00     0.044 A 
ATOM     18  Br  UNL A   1      32.305  30.338  26.225  1.00  0.00    -0.047 Br
BRANCH  10  19
ATOM     19  C   UNL A   1      33.237  24.250  22.172  1.00  0.00     0.429 C 
ATOM     20  F   UNL A   1      33.838  25.379  22.531  1.00  0.00    -0.167 F 
ATOM     21  F   UNL A   1      34.066  23.227  22.360  1.00  0.00    -0.167 F 
ATOM     22  F   UNL A   1      32.898  24.316  20.887  1.00  0.00    -0.167 F 
ENDBRANCH  10  19
BRANCH  15  23
ATOM     23  S   UNL A   1      28.498  30.828  22.245  1.00  0.00     0.310 S 
ATOM     24  F   UNL A   1      27.925  29.607  21.410  1.00  0.00    -0.094 F 
ATOM     25  F   UNL A   1      29.645  30.937  21.171  1.00  0.00    -0.094 F 
ATOM     26  F   UNL A   1      27.581  31.756  21.401  1.00  0.00    -0.094 F 
ATOM     27  F   UNL A   1      27.311  30.594  23.262  1.00  0.00    -0.094 F 
ATOM     28  F   UNL A   1      29.378  29.794  23.056  1.00  0.00    -0.094 F 
ENDBRANCH  15  23
ENDBRANCH   6   8
ENDBRANCH   3   4
ENDBRANCH   2   3
ENDBRANCH   1   2
BRANCH   1  29
ATOM     29  C   UNL A   1      36.726  23.905  25.537  1.00  0.00     0.116 C 
BRANCH  29  30
ATOM     30  N   UNL A   1      37.645  22.769  25.378  1.00  0.00    -0.352 N 
ATOM     31  C   UNL A   1      38.992  22.826  25.965  1.00  0.00     0.251 C 
ATOM     32  H   UNL A   1      37.359  21.971  24.879  1.00  0.00     0.163 HD
ATOM     33  O   UNL A   1      39.787  21.844  25.827  1.00  0.00    -0.269 OA
BRANCH  31  34
ATOM     34  C   UNL A   1      39.434  24.059  26.736  1.00  0.00     0.039 A 
ATOM     35  C   UNL A   1      39.090  24.190  28.071  1.00  0.00     0.014 A 
ATOM     36  C   UNL A   1      40.143  24.993  26.113  1.00  0.00     0.014 A 
ATOM     37  C   UNL A   1      39.296  25.490  28.592  1.00  0.00     0.010 A 
ATOM     38  C   UNL A   1      40.424  26.187  26.731  1.00  0.00     0.010 A 
ATOM     39  C   UNL A   1      40.062  26.408  28.030  1.00  0.00    -0.014 A 
BRANCH  39  40
ATOM     40  C   UNL A   1      40.516  27.645  28.790  1.00  0.00     0.031 A 
ATOM     41  C   UNL A   1      41.797  27.621  29.342  1.00  0.00     0.074 A 
ATOM     42  C   UNL A   1      39.649  28.719  28.889  1.00  0.00     0.049 A 
ATOM     43  N   UNL A   1      42.412  28.599  30.011  1.00  0.00    -0.248 NA
ATOM     44  C   UNL A   1      42.707  26.470  29.268  1.00  0.00     0.031 C 
ATOM     45  C   UNL A   1      38.357  28.753  28.327  1.00  0.00     0.029 A 
ATOM     46  N   UNL A   1      39.860  29.919  29.531  1.00  0.00    -0.354 N 
ATOM     47  C   UNL A   1      43.639  28.212  30.368  1.00  0.00     0.074 A 
ATOM     48  C   UNL A   1      43.844  26.835  29.900  1.00  0.00     0.031 C 
ATOM     49  C   UNL A   1      37.795  29.950  28.635  1.00  0.00     0.029 A 
ATOM     50  C   UNL A   1      38.724  30.687  29.393  1.00  0.00     0.049 A 
ATOM     51  H   UNL A   1      40.681  30.183  30.005  1.00  0.00     0.167 HD
ATOM     52  C   UNL A   1      44.595  28.955  31.062  1.00  0.00     0.031 A 
ATOM     53  C   UNL A   1      38.493  31.957  29.896  1.00  0.00     0.031 A 
ATOM     54  C   UNL A   1      44.379  30.243  31.528  1.00  0.00     0.049 A 
ATOM     55  C   UNL A   1      39.429  32.679  30.642  1.00  0.00     0.074 A 
ATOM     56  C   UNL A   1      45.335  31.008  32.223  1.00  0.00     0.029 A 
ATOM     57  N   UNL A   1      43.235  31.000  31.411  1.00  0.00    -0.354 N 
ATOM     58  N   UNL A   1      40.669  32.307  30.963  1.00  0.00    -0.248 NA
ATOM     59  C   UNL A   1      39.183  34.012  31.205  1.00  0.00     0.031 C 
ATOM     60  C   UNL A   1      44.772  32.207  32.530  1.00  0.00     0.029 A 
ATOM     61  C   UNL A   1      43.455  32.210  32.032  1.00  0.00     0.049 A 
ATOM     62  H   UNL A   1      42.403  30.724  30.962  1.00  0.00     0.167 HD
ATOM     63  C   UNL A   1      41.268  33.269  31.668  1.00  0.00     0.074 A 
ATOM     64  C   UNL A   1      40.319  34.376  31.840  1.00  0.00     0.031 C 
ATOM     65  C   UNL A   1      42.571  33.268  32.170  1.00  0.00     0.031 A 
BRANCH  52  66
ATOM     66  C   UNL A   1      45.949  28.315  31.325  1.00  0.00    -0.014 A 
ATOM     67  C   UNL A   1      46.984  28.610  30.453  1.00  0.00     0.010 A 
ATOM     68  C   UNL A   1      46.150  27.573  32.408  1.00  0.00     0.010 A 
ATOM     69  C   UNL A   1      48.146  27.829  30.658  1.00  0.00     0.020 A 
ATOM     70  C   UNL A   1      47.357  26.949  32.613  1.00  0.00     0.020 A 
ATOM     71  C   UNL A   1      48.405  27.148  31.759  1.00  0.00     0.054 A 
BRANCH  71  72
ATOM     72  S   UNL A   1      50.061  26.511  32.119  1.00  0.00     0.124 S 
ATOM     73  O   UNL A   1      49.999  24.991  32.284  1.00  0.00    -0.237 OA
ATOM     74  O   UNL A   1      51.003  26.860  30.964  1.00  0.00    -0.237 OA
ATOM     75  O   UNL A   1      50.643  27.219  33.563  1.00  0.00    -0.744 OA
ENDBRANCH  71  72
ENDBRANCH  52  66
BRANCH  53  76
ATOM     76  C   UNL A   1      37.145  32.603  29.620  1.00  0.00    -0.014 A 
ATOM     77  C   UNL A   1      37.005  33.446  28.529  1.00  0.00     0.010 A 
ATOM     78  C   UNL A   1      36.152  32.421  30.481  1.00  0.00     0.010 A 
ATOM     79  C   UNL A   1      35.866  34.283  28.594  1.00  0.00     0.020 A 
ATOM     80  C   UNL A   1      35.010  33.182  30.403  1.00  0.00     0.020 A 
ATOM     81  C   UNL A   1      34.830  34.077  29.386  1.00  0.00     0.054 A 
BRANCH  81  82
ATOM     82  S   UNL A   1      33.256  34.935  29.137  1.00  0.00     0.124 S 
ATOM     83  O   UNL A   1      32.473  34.956  30.452  1.00  0.00    -0.237 OA
ATOM     84  O   UNL A   1      33.523  36.371  28.680  1.00  0.00    -0.237 OA
ATOM     85  O   UNL A   1      32.345  34.117  27.944  1.00  0.00    -0.744 OA
ENDBRANCH  81  82
ENDBRANCH  53  76
BRANCH  65  86
ATOM     86  C   UNL A   1      43.049  34.506  32.914  1.00  0.00    -0.014 A 
ATOM     87  C   UNL A   1      42.991  34.534  34.297  1.00  0.00     0.010 A 
ATOM     88  C   UNL A   1      43.514  35.540  32.222  1.00  0.00     0.010 A 
ATOM     89  C   UNL A   1      43.181  35.821  34.852  1.00  0.00     0.020 A 
ATOM     90  C   UNL A   1      43.808  36.726  32.850  1.00  0.00     0.020 A 
ATOM     91  C   UNL A   1      43.716  36.844  34.209  1.00  0.00     0.054 A 
BRANCH  91  92
ATOM     92  S   UNL A   1      44.297  38.320  35.080  1.00  0.00     0.124 S 
ATOM     93  O   UNL A   1      43.831  38.269  36.537  1.00  0.00    -0.237 OA
ATOM     94  O   UNL A   1      45.826  38.369  35.036  1.00  0.00    -0.237 OA
ATOM     95  O   UNL A   1      43.660  39.715  34.325  1.00  0.00    -0.744 OA
ENDBRANCH  91  92
ENDBRANCH  65  86
ENDBRANCH  39  40
ENDBRANCH  31  34
ENDBRANCH  29  30
ENDBRANCH   1  29
TORSDOF 16
ENDMDL
