MODEL 1
REMARK VINA RESULT:     -11.2      0.000      0.000
REMARK SMILES O=C(NCCCCNC(=O)c1cc(-c2ccn(C(F)F)c(=O)c2)ccc1O)c1ccc(-c2c3nc(c(-c4ccc(S(=O)(=O)[O-])cc4)c4ccc([nH]4)c(-c4ccc(S(=O)(=O)[O-])cc4)c4nc(c(-c5ccc(S(=O)(=O)[O-])cc5)c5ccc2[nH]5)C=C4)C=C3)cc1
REMARK SMILES IDX 5 1 4 2 3 3 1 4 2 5 28 7 29 8 87 9 30 10 86 11 31 12 32 13
REMARK SMILES IDX 33 14 80 15 34 16 85 17 79 18 81 19 35 20 84 21 78 22 77 23
REMARK SMILES IDX 36 25 66 26 47 27 65 28 48 29 51 30 64 31 82 32 49 33 50 34
REMARK SMILES IDX 63 36 83 37 52 38 37 39 38 40 46 41 39 42 45 43 40 44 41 45
REMARK SMILES IDX 42 46 43 47 44 48 67 49 68 50 76 51 69 52 75 53 70 54 71 55
REMARK SMILES IDX 72 56 73 57 74 58 53 59 54 60 62 61 55 62 61 63 56 64 57 65
REMARK SMILES IDX 58 66 59 67 60 68 6 69 7 70 8 71 9 72 10 74 11 75 12 76
REMARK SMILES IDX 26 77 13 78 25 79 24 80 27 81 14 83 15 84 23 85 16 86 21 87
REMARK SMILES IDX 17 88 22 89 18 90 19 91 20 92
REMARK H PARENT 3 6 81 24 51 35 8 73 27 82
REMARK Flexibility Score: inf
ROOT
ATOM      1  C   UNL A   1      32.404  27.809  26.569  1.00  0.00     0.023 C 
ENDROOT
BRANCH   1   2
ATOM      2  C   UNL A   1      33.753  28.411  26.953  1.00  0.00     0.116 C 
BRANCH   2   3
ATOM      3  N   UNL A   1      33.646  29.801  27.372  1.00  0.00    -0.352 N 
ATOM      4  O   UNL A   1      34.186  31.691  28.457  1.00  0.00    -0.269 OA
ATOM      5  C   UNL A   1      34.538  30.581  28.064  1.00  0.00     0.251 C 
ATOM      6  H   UNL A   1      32.806  30.248  27.122  1.00  0.00     0.163 HD
BRANCH   5   7
ATOM      7  C   UNL A   1      35.909  30.101  28.346  1.00  0.00     0.039 A 
ATOM      8  C   UNL A   1      36.203  29.616  29.625  1.00  0.00     0.014 A 
ATOM      9  C   UNL A   1      36.918  30.175  27.381  1.00  0.00     0.014 A 
ATOM     10  C   UNL A   1      37.495  29.174  29.925  1.00  0.00     0.010 A 
ATOM     11  C   UNL A   1      38.190  29.679  27.663  1.00  0.00     0.010 A 
ATOM     12  C   UNL A   1      38.495  29.189  28.942  1.00  0.00    -0.014 A 
BRANCH  12  13
ATOM     13  C   UNL A   1      39.879  28.737  29.235  1.00  0.00     0.031 A 
ATOM     14  C   UNL A   1      40.840  29.665  29.924  1.00  0.00     0.074 A 
ATOM     15  C   UNL A   1      40.292  27.519  28.833  1.00  0.00     0.049 A 
ATOM     16  N   UNL A   1      42.108  29.489  30.189  1.00  0.00    -0.248 NA
ATOM     17  C   UNL A   1      40.311  30.970  30.357  1.00  0.00     0.031 C 
ATOM     18  C   UNL A   1      39.457  26.530  28.153  1.00  0.00     0.029 A 
ATOM     19  N   UNL A   1      41.519  26.912  28.931  1.00  0.00    -0.354 N 
ATOM     20  C   UNL A   1      42.535  30.665  30.794  1.00  0.00     0.074 A 
ATOM     21  C   UNL A   1      41.401  31.561  30.825  1.00  0.00     0.031 C 
ATOM     22  C   UNL A   1      40.189  25.430  27.916  1.00  0.00     0.029 A 
ATOM     23  C   UNL A   1      41.557  25.653  28.381  1.00  0.00     0.049 A 
ATOM     24  H   UNL A   1      42.299  27.338  29.356  1.00  0.00     0.167 HD
ATOM     25  C   UNL A   1      43.757  30.961  31.293  1.00  0.00     0.031 A 
ATOM     26  C   UNL A   1      42.574  24.776  28.252  1.00  0.00     0.031 A 
ATOM     27  C   UNL A   1      44.871  30.052  31.287  1.00  0.00     0.049 A 
ATOM     28  C   UNL A   1      43.934  25.137  28.776  1.00  0.00     0.074 A 
ATOM     29  C   UNL A   1      46.122  30.232  31.850  1.00  0.00     0.029 A 
ATOM     30  N   UNL A   1      44.876  28.802  30.686  1.00  0.00    -0.354 N 
ATOM     31  N   UNL A   1      44.307  26.230  29.399  1.00  0.00    -0.248 NA
ATOM     32  C   UNL A   1      45.012  24.157  28.582  1.00  0.00     0.031 C 
ATOM     33  C   UNL A   1      46.905  29.122  31.529  1.00  0.00     0.029 A 
ATOM     34  C   UNL A   1      46.124  28.219  30.822  1.00  0.00     0.049 A 
ATOM     35  H   UNL A   1      44.106  28.391  30.231  1.00  0.00     0.167 HD
ATOM     36  C   UNL A   1      45.659  26.070  29.674  1.00  0.00     0.074 A 
ATOM     37  C   UNL A   1      46.039  24.768  29.165  1.00  0.00     0.031 C 
ATOM     38  C   UNL A   1      46.503  26.930  30.296  1.00  0.00     0.031 A 
BRANCH  25  39
ATOM     39  C   UNL A   1      43.966  32.328  31.891  1.00  0.00    -0.014 A 
ATOM     40  C   UNL A   1      43.661  32.546  33.248  1.00  0.00     0.010 A 
ATOM     41  C   UNL A   1      44.380  33.414  31.101  1.00  0.00     0.010 A 
ATOM     42  C   UNL A   1      43.757  33.825  33.801  1.00  0.00     0.020 A 
ATOM     43  C   UNL A   1      44.505  34.690  31.657  1.00  0.00     0.020 A 
ATOM     44  C   UNL A   1      44.175  34.891  33.000  1.00  0.00     0.054 A 
BRANCH  44  45
ATOM     45  S   UNL A   1      44.311  36.543  33.736  1.00  0.00     0.124 S 
ATOM     46  O   UNL A   1      44.095  37.412  32.583  1.00  0.00    -0.237 OA
ATOM     47  O   UNL A   1      43.245  36.540  34.735  1.00  0.00    -0.237 OA
ATOM     48  O   UNL A   1      45.665  36.558  34.287  1.00  0.00    -0.744 OA
ENDBRANCH  44  45
ENDBRANCH  25  39
BRANCH  26  49
ATOM     49  C   UNL A   1      42.296  23.458  27.618  1.00  0.00    -0.014 A 
ATOM     50  C   UNL A   1      41.801  22.387  28.387  1.00  0.00     0.010 A 
ATOM     51  C   UNL A   1      42.674  23.229  26.285  1.00  0.00     0.010 A 
ATOM     52  C   UNL A   1      41.770  21.093  27.859  1.00  0.00     0.020 A 
ATOM     53  C   UNL A   1      42.622  21.939  25.745  1.00  0.00     0.020 A 
ATOM     54  C   UNL A   1      42.209  20.874  26.551  1.00  0.00     0.054 A 
BRANCH  54  55
ATOM     55  S   UNL A   1      42.289  19.170  25.932  1.00  0.00     0.124 S 
ATOM     56  O   UNL A   1      43.159  19.316  24.768  1.00  0.00    -0.237 OA
ATOM     57  O   UNL A   1      42.866  18.447  27.062  1.00  0.00    -0.237 OA
ATOM     58  O   UNL A   1      40.896  18.848  25.634  1.00  0.00    -0.744 OA
ENDBRANCH  54  55
ENDBRANCH  26  49
BRANCH  38  59
ATOM     59  C   UNL A   1      47.948  26.535  30.450  1.00  0.00    -0.014 A 
ATOM     60  C   UNL A   1      48.381  25.913  31.637  1.00  0.00     0.010 A 
ATOM     61  C   UNL A   1      48.902  26.944  29.503  1.00  0.00     0.010 A 
ATOM     62  C   UNL A   1      49.743  25.761  31.901  1.00  0.00     0.020 A 
ATOM     63  C   UNL A   1      50.267  26.768  29.752  1.00  0.00     0.020 A 
ATOM     64  C   UNL A   1      50.679  26.208  30.964  1.00  0.00     0.054 A 
BRANCH  64  65
ATOM     65  S   UNL A   1      52.444  26.075  31.359  1.00  0.00     0.124 S 
ATOM     66  O   UNL A   1      52.532  24.731  31.924  1.00  0.00    -0.237 OA
ATOM     67  O   UNL A   1      53.080  26.255  30.057  1.00  0.00    -0.237 OA
ATOM     68  O   UNL A   1      52.666  27.165  32.308  1.00  0.00    -0.744 OA
ENDBRANCH  64  65
ENDBRANCH  38  59
ENDBRANCH  12  13
ENDBRANCH   5   7
ENDBRANCH   2   3
ENDBRANCH   1   2
BRANCH   1  69
ATOM     69  C   UNL A   1      31.347  28.804  26.085  1.00  0.00     0.023 C 
BRANCH  69  70
ATOM     70  C   UNL A   1      31.082  28.807  24.582  1.00  0.00     0.116 C 
BRANCH  70  71
ATOM     71  N   UNL A   1      32.214  29.294  23.814  1.00  0.00    -0.352 N 
ATOM     72  C   UNL A   1      33.099  28.585  23.042  1.00  0.00     0.255 C 
ATOM     73  H   UNL A   1      32.367  30.266  23.852  1.00  0.00     0.163 HD
ATOM     74  O   UNL A   1      34.042  29.156  22.497  1.00  0.00    -0.269 OA
BRANCH  72  75
ATOM     75  C   UNL A   1      32.984  27.117  22.918  1.00  0.00     0.082 A 
ATOM     76  C   UNL A   1      34.022  26.349  23.468  1.00  0.00     0.026 A 
ATOM     77  C   UNL A   1      31.935  26.490  22.238  1.00  0.00     0.128 A 
ATOM     78  C   UNL A   1      33.985  24.953  23.384  1.00  0.00    -0.017 A 
ATOM     79  C   UNL A   1      31.883  25.099  22.166  1.00  0.00     0.047 A 
ATOM     80  C   UNL A   1      32.902  24.336  22.743  1.00  0.00     0.012 A 
BRANCH  77  81
ATOM     81  O   UNL A   1      30.957  27.229  21.635  1.00  0.00    -0.507 OA
ATOM     82  H   UNL A   1      30.593  27.972  22.075  1.00  0.00     0.293 HD
ENDBRANCH  77  81
BRANCH  78  83
ATOM     83  C   UNL A   1      35.075  24.121  23.926  1.00  0.00    -0.011 A 
ATOM     84  C   UNL A   1      35.564  22.945  23.228  1.00  0.00     0.027 A 
ATOM     85  C   UNL A   1      35.603  24.436  25.121  1.00  0.00     0.080 A 
ATOM     86  C   UNL A   1      36.498  22.163  23.780  1.00  0.00     0.095 A 
ATOM     87  C   UNL A   1      36.650  23.577  25.745  1.00  0.00     0.255 A 
ATOM     88  N   UNL A   1      37.030  22.460  25.020  1.00  0.00    -0.258 N 
ATOM     89  O   UNL A   1      37.088  23.893  26.849  1.00  0.00    -0.269 OA
BRANCH  88  90
ATOM     90  C   UNL A   1      38.004  21.586  25.623  1.00  0.00     0.451 C 
ATOM     91  F   UNL A   1      38.107  20.416  24.949  1.00  0.00    -0.185 F 
ATOM     92  F   UNL A   1      39.228  22.168  25.649  1.00  0.00    -0.185 F 
ENDBRANCH  88  90
ENDBRANCH  78  83
ENDBRANCH  72  75
ENDBRANCH  70  71
ENDBRANCH  69  70
ENDBRANCH   1  69
TORSDOF 17
ENDMDL
MODEL 2
REMARK VINA RESULT:     -11.1      3.156      9.422
REMARK SMILES O=C(NCCCCNC(=O)c1cc(-c2ccn(C(F)F)c(=O)c2)ccc1O)c1ccc(-c2c3nc(c(-c4ccc(S(=O)(=O)[O-])cc4)c4ccc([nH]4)c(-c4ccc(S(=O)(=O)[O-])cc4)c4nc(c(-c5ccc(S(=O)(=O)[O-])cc5)c5ccc2[nH]5)C=C4)C=C3)cc1
REMARK SMILES IDX 5 1 4 2 3 3 1 4 2 5 28 7 29 8 87 9 30 10 86 11 31 12 32 13
REMARK SMILES IDX 33 14 80 15 34 16 85 17 79 18 81 19 35 20 84 21 78 22 77 23
REMARK SMILES IDX 36 25 66 26 47 27 65 28 48 29 51 30 64 31 82 32 49 33 50 34
REMARK SMILES IDX 63 36 83 37 52 38 37 39 38 40 46 41 39 42 45 43 40 44 41 45
REMARK SMILES IDX 42 46 43 47 44 48 67 49 68 50 76 51 69 52 75 53 70 54 71 55
REMARK SMILES IDX 72 56 73 57 74 58 53 59 54 60 62 61 55 62 61 63 56 64 57 65
REMARK SMILES IDX 58 66 59 67 60 68 6 69 7 70 8 71 9 72 10 74 11 75 12 76
REMARK SMILES IDX 26 77 13 78 25 79 24 80 27 81 14 83 15 84 23 85 16 86 21 87
REMARK SMILES IDX 17 88 22 89 18 90 19 91 20 92
REMARK H PARENT 3 6 81 24 51 35 8 73 27 82
REMARK Flexibility Score: inf
ROOT
ATOM      1  C   UNL A   1      35.175  23.555  26.132  1.00  0.00     0.023 C 
ENDROOT
BRANCH   1   2
ATOM      2  C   UNL A   1      36.524  23.739  25.442  1.00  0.00     0.116 C 
BRANCH   2   3
ATOM      3  N   UNL A   1      37.476  22.694  25.789  1.00  0.00    -0.352 N 
ATOM      4  O   UNL A   1      39.432  21.793  26.424  1.00  0.00    -0.269 OA
ATOM      5  C   UNL A   1      38.720  22.793  26.358  1.00  0.00     0.251 C 
ATOM      6  H   UNL A   1      37.182  21.777  25.583  1.00  0.00     0.163 HD
BRANCH   5   7
ATOM      7  C   UNL A   1      39.214  24.084  26.886  1.00  0.00     0.039 A 
ATOM      8  C   UNL A   1      38.895  24.441  28.201  1.00  0.00     0.014 A 
ATOM      9  C   UNL A   1      39.940  24.968  26.082  1.00  0.00     0.014 A 
ATOM     10  C   UNL A   1      39.332  25.663  28.719  1.00  0.00     0.010 A 
ATOM     11  C   UNL A   1      40.425  26.159  26.619  1.00  0.00     0.010 A 
ATOM     12  C   UNL A   1      40.112  26.526  27.936  1.00  0.00    -0.014 A 
BRANCH  12  13
ATOM     13  C   UNL A   1      40.581  27.836  28.456  1.00  0.00     0.031 A 
ATOM     14  C   UNL A   1      42.024  28.017  28.837  1.00  0.00     0.074 A 
ATOM     15  C   UNL A   1      39.706  28.843  28.641  1.00  0.00     0.049 A 
ATOM     16  N   UNL A   1      42.607  29.050  29.388  1.00  0.00    -0.248 NA
ATOM     17  C   UNL A   1      42.928  26.882  28.583  1.00  0.00     0.031 C 
ATOM     18  C   UNL A   1      38.281  28.791  28.314  1.00  0.00     0.029 A 
ATOM     19  N   UNL A   1      39.885  30.103  29.157  1.00  0.00    -0.354 N 
ATOM     20  C   UNL A   1      43.934  28.683  29.569  1.00  0.00     0.074 A 
ATOM     21  C   UNL A   1      44.065  27.320  29.105  1.00  0.00     0.031 C 
ATOM     22  C   UNL A   1      37.721  29.972  28.614  1.00  0.00     0.029 A 
ATOM     23  C   UNL A   1      38.732  30.850  29.201  1.00  0.00     0.049 A 
ATOM     24  H   UNL A   1      40.758  30.439  29.465  1.00  0.00     0.167 HD
ATOM     25  C   UNL A   1      44.955  29.422  30.063  1.00  0.00     0.031 A 
ATOM     26  C   UNL A   1      38.504  32.094  29.669  1.00  0.00     0.031 A 
ATOM     27  C   UNL A   1      44.824  30.787  30.493  1.00  0.00     0.049 A 
ATOM     28  C   UNL A   1      39.640  32.887  30.251  1.00  0.00     0.074 A 
ATOM     29  C   UNL A   1      45.820  31.645  30.924  1.00  0.00     0.029 A 
ATOM     30  N   UNL A   1      43.631  31.492  30.556  1.00  0.00    -0.354 N 
ATOM     31  N   UNL A   1      40.902  32.546  30.361  1.00  0.00    -0.248 NA
ATOM     32  C   UNL A   1      39.329  34.224  30.773  1.00  0.00     0.031 C 
ATOM     33  C   UNL A   1      45.221  32.844  31.314  1.00  0.00     0.029 A 
ATOM     34  C   UNL A   1      43.859  32.759  31.065  1.00  0.00     0.049 A 
ATOM     35  H   UNL A   1      42.753  31.143  30.280  1.00  0.00     0.167 HD
ATOM     36  C   UNL A   1      41.537  33.626  30.961  1.00  0.00     0.074 A 
ATOM     37  C   UNL A   1      40.525  34.640  31.178  1.00  0.00     0.031 C 
ATOM     38  C   UNL A   1      42.844  33.758  31.298  1.00  0.00     0.031 A 
BRANCH  25  39
ATOM     39  C   UNL A   1      46.311  28.776  30.169  1.00  0.00    -0.014 A 
ATOM     40  C   UNL A   1      46.688  28.146  31.371  1.00  0.00     0.010 A 
ATOM     41  C   UNL A   1      47.243  28.860  29.120  1.00  0.00     0.010 A 
ATOM     42  C   UNL A   1      47.973  27.623  31.525  1.00  0.00     0.020 A 
ATOM     43  C   UNL A   1      48.522  28.312  29.261  1.00  0.00     0.020 A 
ATOM     44  C   UNL A   1      48.884  27.712  30.470  1.00  0.00     0.054 A 
BRANCH  44  45
ATOM     45  S   UNL A   1      50.545  27.012  30.679  1.00  0.00     0.124 S 
ATOM     46  O   UNL A   1      51.255  27.556  29.525  1.00  0.00    -0.237 OA
ATOM     47  O   UNL A   1      50.955  27.538  31.980  1.00  0.00    -0.237 OA
ATOM     48  O   UNL A   1      50.311  25.570  30.649  1.00  0.00    -0.744 OA
ENDBRANCH  44  45
ENDBRANCH  25  39
BRANCH  26  49
ATOM     49  C   UNL A   1      37.128  32.651  29.559  1.00  0.00    -0.014 A 
ATOM     50  C   UNL A   1      36.740  33.375  28.416  1.00  0.00     0.010 A 
ATOM     51  C   UNL A   1      36.259  32.591  30.661  1.00  0.00     0.010 A 
ATOM     52  C   UNL A   1      35.547  34.101  28.410  1.00  0.00     0.020 A 
ATOM     53  C   UNL A   1      35.051  33.298  30.650  1.00  0.00     0.020 A 
ATOM     54  C   UNL A   1      34.724  34.081  29.539  1.00  0.00     0.054 A 
BRANCH  54  55
ATOM     55  S   UNL A   1      33.249  35.137  29.562  1.00  0.00     0.124 S 
ATOM     56  O   UNL A   1      32.439  34.541  28.503  1.00  0.00    -0.237 OA
ATOM     57  O   UNL A   1      32.744  34.952  30.920  1.00  0.00    -0.237 OA
ATOM     58  O   UNL A   1      33.776  36.468  29.272  1.00  0.00    -0.744 OA
ENDBRANCH  54  55
ENDBRANCH  26  49
BRANCH  38  59
ATOM     59  C   UNL A   1      43.288  35.029  31.973  1.00  0.00    -0.014 A 
ATOM     60  C   UNL A   1      42.980  35.246  33.329  1.00  0.00     0.010 A 
ATOM     61  C   UNL A   1      43.845  36.077  31.220  1.00  0.00     0.010 A 
ATOM     62  C   UNL A   1      43.165  36.504  33.905  1.00  0.00     0.020 A 
ATOM     63  C   UNL A   1      44.057  37.331  31.801  1.00  0.00     0.020 A 
ATOM     64  C   UNL A   1      43.684  37.545  33.131  1.00  0.00     0.054 A 
BRANCH  64  65
ATOM     65  S   UNL A   1      43.842  39.192  33.874  1.00  0.00     0.124 S 
ATOM     66  O   UNL A   1      44.033  38.875  35.286  1.00  0.00    -0.237 OA
ATOM     67  O   UNL A   1      45.007  39.744  33.188  1.00  0.00    -0.237 OA
ATOM     68  O   UNL A   1      42.573  39.839  33.546  1.00  0.00    -0.744 OA
ENDBRANCH  64  65
ENDBRANCH  38  59
ENDBRANCH  12  13
ENDBRANCH   5   7
ENDBRANCH   2   3
ENDBRANCH   1   2
BRANCH   1  69
ATOM     69  C   UNL A   1      34.676  22.113  26.241  1.00  0.00     0.023 C 
BRANCH  69  70
ATOM     70  C   UNL A   1      33.597  21.710  25.239  1.00  0.00     0.116 C 
BRANCH  70  71
ATOM     71  N   UNL A   1      32.264  21.729  25.813  1.00  0.00    -0.352 N 
ATOM     72  C   UNL A   1      31.280  22.674  25.670  1.00  0.00     0.255 C 
ATOM     73  H   UNL A   1      32.035  20.959  26.382  1.00  0.00     0.163 HD
ATOM     74  O   UNL A   1      30.216  22.557  26.277  1.00  0.00    -0.269 OA
BRANCH  72  75
ATOM     75  C   UNL A   1      31.507  23.884  24.854  1.00  0.00     0.082 A 
ATOM     76  C   UNL A   1      31.941  25.035  25.531  1.00  0.00     0.026 A 
ATOM     77  C   UNL A   1      31.254  23.935  23.479  1.00  0.00     0.128 A 
ATOM     78  C   UNL A   1      32.173  26.220  24.825  1.00  0.00    -0.017 A 
ATOM     79  C   UNL A   1      31.500  25.107  22.767  1.00  0.00     0.047 A 
ATOM     80  C   UNL A   1      31.963  26.242  23.438  1.00  0.00     0.012 A 
BRANCH  77  81
ATOM     81  O   UNL A   1      30.762  22.843  22.823  1.00  0.00    -0.507 OA
ATOM     82  H   UNL A   1      31.063  21.985  23.049  1.00  0.00     0.293 HD
ENDBRANCH  77  81
BRANCH  78  83
ATOM     83  C   UNL A   1      32.600  27.454  25.511  1.00  0.00    -0.011 A 
ATOM     84  C   UNL A   1      33.798  27.502  26.331  1.00  0.00     0.027 A 
ATOM     85  C   UNL A   1      31.835  28.554  25.409  1.00  0.00     0.080 A 
ATOM     86  C   UNL A   1      34.118  28.611  27.006  1.00  0.00     0.095 A 
ATOM     87  C   UNL A   1      32.183  29.799  26.151  1.00  0.00     0.255 A 
ATOM     88  N   UNL A   1      33.326  29.741  26.933  1.00  0.00    -0.258 N 
ATOM     89  O   UNL A   1      31.442  30.774  26.045  1.00  0.00    -0.269 OA
BRANCH  88  90
ATOM     90  C   UNL A   1      33.657  30.915  27.699  1.00  0.00     0.451 C 
ATOM     91  F   UNL A   1      34.578  30.642  28.653  1.00  0.00    -0.185 F 
ATOM     92  F   UNL A   1      34.153  31.891  26.901  1.00  0.00    -0.185 F 
ENDBRANCH  88  90
ENDBRANCH  78  83
ENDBRANCH  72  75
ENDBRANCH  70  71
ENDBRANCH  69  70
ENDBRANCH   1  69
TORSDOF 17
ENDMDL
MODEL 3
REMARK VINA RESULT:     -10.7      2.287      2.825
REMARK SMILES O=C(NCCCCNC(=O)c1cc(-c2ccn(C(F)F)c(=O)c2)ccc1O)c1ccc(-c2c3nc(c(-c4ccc(S(=O)(=O)[O-])cc4)c4ccc([nH]4)c(-c4ccc(S(=O)(=O)[O-])cc4)c4nc(c(-c5ccc(S(=O)(=O)[O-])cc5)c5ccc2[nH]5)C=C4)C=C3)cc1
REMARK SMILES IDX 5 1 4 2 3 3 1 4 2 5 28 7 29 8 87 9 30 10 86 11 31 12 32 13
REMARK SMILES IDX 33 14 80 15 34 16 85 17 79 18 81 19 35 20 84 21 78 22 77 23
REMARK SMILES IDX 36 25 66 26 47 27 65 28 48 29 51 30 64 31 82 32 49 33 50 34
REMARK SMILES IDX 63 36 83 37 52 38 37 39 38 40 46 41 39 42 45 43 40 44 41 45
REMARK SMILES IDX 42 46 43 47 44 48 67 49 68 50 76 51 69 52 75 53 70 54 71 55
REMARK SMILES IDX 72 56 73 57 74 58 53 59 54 60 62 61 55 62 61 63 56 64 57 65
REMARK SMILES IDX 58 66 59 67 60 68 6 69 7 70 8 71 9 72 10 74 11 75 12 76
REMARK SMILES IDX 26 77 13 78 25 79 24 80 27 81 14 83 15 84 23 85 16 86 21 87
REMARK SMILES IDX 17 88 22 89 18 90 19 91 20 92
REMARK H PARENT 3 6 81 24 51 35 8 73 27 82
REMARK Flexibility Score: inf
ROOT
ATOM      1  C   UNL A   1      32.666  27.858  26.636  1.00  0.00     0.023 C 
ENDROOT
BRANCH   1   2
ATOM      2  C   UNL A   1      33.916  28.691  26.368  1.00  0.00     0.116 C 
BRANCH   2   3
ATOM      3  N   UNL A   1      33.757  30.082  26.764  1.00  0.00    -0.352 N 
ATOM      4  O   UNL A   1      34.129  31.967  27.928  1.00  0.00    -0.269 OA
ATOM      5  C   UNL A   1      34.528  30.852  27.598  1.00  0.00     0.251 C 
ATOM      6  H   UNL A   1      32.977  30.540  26.376  1.00  0.00     0.163 HD
BRANCH   5   7
ATOM      7  C   UNL A   1      35.826  30.354  28.108  1.00  0.00     0.039 A 
ATOM      8  C   UNL A   1      36.958  30.472  27.294  1.00  0.00     0.014 A 
ATOM      9  C   UNL A   1      35.925  29.726  29.353  1.00  0.00     0.014 A 
ATOM     10  C   UNL A   1      38.192  29.993  27.741  1.00  0.00     0.010 A 
ATOM     11  C   UNL A   1      37.168  29.304  29.822  1.00  0.00     0.010 A 
ATOM     12  C   UNL A   1      38.310  29.417  29.015  1.00  0.00    -0.014 A 
BRANCH  12  13
ATOM     13  C   UNL A   1      39.606  28.890  29.513  1.00  0.00     0.031 A 
ATOM     14  C   UNL A   1      40.447  29.724  30.439  1.00  0.00     0.074 A 
ATOM     15  C   UNL A   1      40.057  27.693  29.091  1.00  0.00     0.049 A 
ATOM     16  N   UNL A   1      41.642  29.479  30.911  1.00  0.00    -0.248 NA
ATOM     17  C   UNL A   1      39.880  31.010  30.878  1.00  0.00     0.031 C 
ATOM     18  C   UNL A   1      39.336  26.792  28.191  1.00  0.00     0.029 A 
ATOM     19  N   UNL A   1      41.231  27.033  29.357  1.00  0.00    -0.354 N 
ATOM     20  C   UNL A   1      41.979  30.586  31.679  1.00  0.00     0.074 A 
ATOM     21  C   UNL A   1      40.880  31.521  31.581  1.00  0.00     0.031 C 
ATOM     22  C   UNL A   1      40.072  25.687  27.998  1.00  0.00     0.029 A 
ATOM     23  C   UNL A   1      41.338  25.820  28.719  1.00  0.00     0.049 A 
ATOM     24  H   UNL A   1      41.930  27.394  29.949  1.00  0.00     0.167 HD
ATOM     25  C   UNL A   1      43.097  30.796  32.413  1.00  0.00     0.031 A 
ATOM     26  C   UNL A   1      42.340  24.917  28.702  1.00  0.00     0.031 A 
ATOM     27  C   UNL A   1      44.171  29.848  32.530  1.00  0.00     0.049 A 
ATOM     28  C   UNL A   1      43.591  25.184  29.490  1.00  0.00     0.074 A 
ATOM     29  C   UNL A   1      45.302  29.934  33.322  1.00  0.00     0.029 A 
ATOM     30  N   UNL A   1      44.255  28.649  31.838  1.00  0.00    -0.354 N 
ATOM     31  N   UNL A   1      43.869  26.209  30.258  1.00  0.00    -0.248 NA
ATOM     32  C   UNL A   1      44.662  24.181  29.411  1.00  0.00     0.031 C 
ATOM     33  C   UNL A   1      46.104  28.823  33.055  1.00  0.00     0.029 A 
ATOM     34  C   UNL A   1      45.444  28.009  32.147  1.00  0.00     0.049 A 
ATOM     35  H   UNL A   1      43.572  28.304  31.219  1.00  0.00     0.167 HD
ATOM     36  C   UNL A   1      45.145  25.976  30.758  1.00  0.00     0.074 A 
ATOM     37  C   UNL A   1      45.580  24.704  30.217  1.00  0.00     0.031 C 
ATOM     38  C   UNL A   1      45.881  26.752  31.591  1.00  0.00     0.031 A 
BRANCH  25  39
ATOM     39  C   UNL A   1      43.225  32.103  33.151  1.00  0.00    -0.014 A 
ATOM     40  C   UNL A   1      42.697  32.221  34.450  1.00  0.00     0.010 A 
ATOM     41  C   UNL A   1      43.789  33.234  32.537  1.00  0.00     0.010 A 
ATOM     42  C   UNL A   1      42.721  33.448  35.118  1.00  0.00     0.020 A 
ATOM     43  C   UNL A   1      43.841  34.457  33.212  1.00  0.00     0.020 A 
ATOM     44  C   UNL A   1      43.289  34.560  34.492  1.00  0.00     0.054 A 
BRANCH  44  45
ATOM     45  S   UNL A   1      43.329  36.143  35.378  1.00  0.00     0.124 S 
ATOM     46  O   UNL A   1      43.323  37.108  34.283  1.00  0.00    -0.237 OA
ATOM     47  O   UNL A   1      42.110  36.092  36.183  1.00  0.00    -0.237 OA
ATOM     48  O   UNL A   1      44.571  36.072  36.145  1.00  0.00    -0.744 OA
ENDBRANCH  44  45
ENDBRANCH  25  39
BRANCH  26  49
ATOM     49  C   UNL A   1      42.151  23.664  27.920  1.00  0.00    -0.014 A 
ATOM     50  C   UNL A   1      41.303  22.646  28.397  1.00  0.00     0.010 A 
ATOM     51  C   UNL A   1      42.937  23.424  26.781  1.00  0.00     0.010 A 
ATOM     52  C   UNL A   1      41.311  21.383  27.801  1.00  0.00     0.020 A 
ATOM     53  C   UNL A   1      42.930  22.167  26.167  1.00  0.00     0.020 A 
ATOM     54  C   UNL A   1      42.146  21.144  26.707  1.00  0.00     0.054 A 
BRANCH  54  55
ATOM     55  S   UNL A   1      42.242  19.462  26.034  1.00  0.00     0.124 S 
ATOM     56  O   UNL A   1      43.174  19.637  24.924  1.00  0.00    -0.237 OA
ATOM     57  O   UNL A   1      42.750  18.692  27.167  1.00  0.00    -0.237 OA
ATOM     58  O   UNL A   1      40.864  19.166  25.652  1.00  0.00    -0.744 OA
ENDBRANCH  54  55
ENDBRANCH  26  49
BRANCH  38  59
ATOM     59  C   UNL A   1      47.264  26.291  31.968  1.00  0.00    -0.014 A 
ATOM     60  C   UNL A   1      48.329  26.455  31.062  1.00  0.00     0.010 A 
ATOM     61  C   UNL A   1      47.468  25.535  33.136  1.00  0.00     0.010 A 
ATOM     62  C   UNL A   1      49.554  25.824  31.286  1.00  0.00     0.020 A 
ATOM     63  C   UNL A   1      48.702  24.924  33.377  1.00  0.00     0.020 A 
ATOM     64  C   UNL A   1      49.726  25.045  32.434  1.00  0.00     0.054 A 
BRANCH  64  65
ATOM     65  S   UNL A   1      51.297  24.168  32.668  1.00  0.00     0.124 S 
ATOM     66  O   UNL A   1      50.966  22.820  32.217  1.00  0.00    -0.237 OA
ATOM     67  O   UNL A   1      52.212  24.914  31.809  1.00  0.00    -0.237 OA
ATOM     68  O   UNL A   1      51.554  24.301  34.101  1.00  0.00    -0.744 OA
ENDBRANCH  64  65
ENDBRANCH  38  59
ENDBRANCH  12  13
ENDBRANCH   5   7
ENDBRANCH   2   3
ENDBRANCH   1   2
BRANCH   1  69
ATOM     69  C   UNL A   1      32.605  26.504  25.927  1.00  0.00     0.023 C 
BRANCH  69  70
ATOM     70  C   UNL A   1      31.401  25.632  26.269  1.00  0.00     0.116 C 
BRANCH  70  71
ATOM     71  N   UNL A   1      30.279  25.847  25.372  1.00  0.00    -0.352 N 
ATOM     72  C   UNL A   1      30.113  25.408  24.083  1.00  0.00     0.255 C 
ATOM     73  H   UNL A   1      29.538  26.381  25.738  1.00  0.00     0.163 HD
ATOM     74  O   UNL A   1      29.114  25.731  23.442  1.00  0.00    -0.269 OA
BRANCH  72  75
ATOM     75  C   UNL A   1      31.162  24.611  23.415  1.00  0.00     0.082 A 
ATOM     76  C   UNL A   1      31.290  23.269  23.809  1.00  0.00     0.026 A 
ATOM     77  C   UNL A   1      32.046  25.150  22.474  1.00  0.00     0.128 A 
ATOM     78  C   UNL A   1      32.264  22.454  23.224  1.00  0.00    -0.017 A 
ATOM     79  C   UNL A   1      33.008  24.339  21.875  1.00  0.00     0.047 A 
ATOM     80  C   UNL A   1      33.111  22.996  22.246  1.00  0.00     0.012 A 
BRANCH  77  81
ATOM     81  O   UNL A   1      31.979  26.472  22.137  1.00  0.00    -0.507 OA
ATOM     82  H   UNL A   1      32.672  27.054  22.382  1.00  0.00     0.293 HD
ENDBRANCH  77  81
BRANCH  78  83
ATOM     83  C   UNL A   1      32.443  21.050  23.638  1.00  0.00    -0.011 A 
ATOM     84  C   UNL A   1      32.939  20.694  24.955  1.00  0.00     0.027 A 
ATOM     85  C   UNL A   1      32.177  20.072  22.754  1.00  0.00     0.080 A 
ATOM     86  C   UNL A   1      33.167  19.416  25.275  1.00  0.00     0.095 A 
ATOM     87  C   UNL A   1      32.420  18.643  23.100  1.00  0.00     0.255 A 
ATOM     88  N   UNL A   1      32.925  18.402  24.368  1.00  0.00    -0.258 N 
ATOM     89  O   UNL A   1      32.184  17.784  22.253  1.00  0.00    -0.269 OA
BRANCH  88  90
ATOM     90  C   UNL A   1      33.216  17.033  24.709  1.00  0.00     0.451 C 
ATOM     91  F   UNL A   1      34.534  16.755  24.570  1.00  0.00    -0.185 F 
ATOM     92  F   UNL A   1      32.863  16.767  25.991  1.00  0.00    -0.185 F 
ENDBRANCH  88  90
ENDBRANCH  78  83
ENDBRANCH  72  75
ENDBRANCH  70  71
ENDBRANCH  69  70
ENDBRANCH   1  69
TORSDOF 17
ENDMDL
