MODEL 1
REMARK VINA RESULT:     -11.5      0.000      0.000
REMARK SMILES CCCc1cc(S(F)(F)(F)(F)F)cc2c1O[C@@H](C(F)(F)F)C(C(=O)NCCCCNC(=O)c1ccc(-c3c4nc(c(-c5ccc(S(=O)(=O)[O-])cc5)c5ccc([nH]5)c(-c5ccc(S(=O)(=O)[O-])cc5)c5nc(c(-c6ccc(S(=O)(=O)[O-])cc6)c6ccc3[nH]6)C=C5)C=C4)cc1)=C2
REMARK SMILES IDX 28 1 27 2 26 3 25 4 23 5 24 6 22 8 4 9 5 10 15 11 6 12 14 13
REMARK SMILES IDX 16 14 13 15 93 16 17 17 3 18 2 19 1 20 7 21 8 22 9 23 10 24
REMARK SMILES IDX 11 25 12 26 18 27 19 28 20 29 21 30 29 31 30 32 31 33 32 35
REMARK SMILES IDX 33 36 34 37 92 38 35 39 91 40 36 41 37 42 38 43 85 44 39 45
REMARK SMILES IDX 90 46 84 47 86 48 40 49 89 50 83 51 82 52 41 54 71 55 52 56
REMARK SMILES IDX 70 57 53 58 56 59 69 60 87 61 54 62 55 63 68 65 88 66 57 67
REMARK SMILES IDX 42 68 43 69 51 70 44 71 50 72 45 73 46 74 47 75 48 76 49 77
REMARK SMILES IDX 72 78 73 79 81 80 74 81 80 82 75 83 76 84 77 85 78 86 79 87
REMARK SMILES IDX 58 88 59 89 67 90 60 91 66 92 61 93 62 94 63 95 64 96 65 97
REMARK H PARENT 25 7 30 34 86 53 56 64
REMARK Flexibility Score: inf
ROOT
ATOM      1  C   UNL A   1      35.538  23.720  24.991  1.00  0.00     0.023 C 
ENDROOT
BRANCH   1   2
ATOM      2  C   UNL A   1      35.520  22.332  24.372  1.00  0.00     0.023 C 
BRANCH   2   3
ATOM      3  C   UNL A   1      34.343  22.219  23.415  1.00  0.00     0.116 C 
BRANCH   3   4
ATOM      4  N   UNL A   1      33.372  21.252  23.946  1.00  0.00    -0.352 N 
ATOM      5  C   UNL A   1      32.228  21.722  24.742  1.00  0.00     0.251 C 
ATOM      6  O   UNL A   1      31.388  20.885  25.201  1.00  0.00    -0.270 OA
ATOM      7  H   UNL A   1      33.487  20.290  23.770  1.00  0.00     0.163 HD
BRANCH   5   8
ATOM      8  C   UNL A   1      32.050  23.206  25.015  1.00  0.00     0.067 C 
ATOM      9  C   UNL A   1      31.191  27.149  26.091  1.00  0.00    -0.004 A 
ATOM     10  C   UNL A   1      30.633  28.012  25.165  1.00  0.00     0.032 A 
ATOM     11  C   UNL A   1      31.414  25.844  25.726  1.00  0.00     0.131 A 
ATOM     12  C   UNL A   1      30.300  27.577  23.909  1.00  0.00     0.108 A 
ATOM     13  C   UNL A   1      31.108  25.374  24.462  1.00  0.00     0.019 A 
ATOM     14  O   UNL A   1      31.864  24.974  26.689  1.00  0.00    -0.475 OA
ATOM     15  C   UNL A   1      30.543  26.266  23.557  1.00  0.00     0.036 A 
ATOM     16  C   UNL A   1      31.345  23.967  24.187  1.00  0.00     0.025 C 
ATOM     17  C   UNL A   1      32.676  23.852  26.243  1.00  0.00     0.314 C 
BRANCH   9  18
ATOM     18  C   UNL A   1      31.635  27.644  27.458  1.00  0.00     0.039 C 
BRANCH  18  19
ATOM     19  C   UNL A   1      32.369  28.966  27.304  1.00  0.00     0.001 C 
ATOM     20  C   UNL A   1      33.860  28.703  27.165  1.00  0.00     0.004 C 
ENDBRANCH  18  19
ENDBRANCH   9  18
BRANCH  12  21
ATOM     21  S   UNL A   1      29.547  28.716  22.720  1.00  0.00     0.310 S 
ATOM     22  F   UNL A   1      29.493  30.031  23.606  1.00  0.00    -0.094 F 
ATOM     23  F   UNL A   1      28.098  28.386  23.246  1.00  0.00    -0.094 F 
ATOM     24  F   UNL A   1      28.960  29.555  21.549  1.00  0.00    -0.094 F 
ATOM     25  F   UNL A   1      31.003  29.150  22.292  1.00  0.00    -0.094 F 
ATOM     26  F   UNL A   1      30.154  27.961  23.969  1.00  0.00    -0.094 F 
ENDBRANCH  12  21
BRANCH  17  27
ATOM     27  C   UNL A   1      32.756  22.822  27.358  1.00  0.00     0.429 C 
ATOM     28  F   UNL A   1      33.322  23.372  28.429  1.00  0.00    -0.167 F 
ATOM     29  F   UNL A   1      31.530  22.408  27.668  1.00  0.00    -0.167 F 
ATOM     30  F   UNL A   1      33.485  21.786  26.953  1.00  0.00    -0.167 F 
ENDBRANCH  17  27
ENDBRANCH   5   8
ENDBRANCH   3   4
ENDBRANCH   2   3
ENDBRANCH   1   2
BRANCH   1  31
ATOM     31  C   UNL A   1      36.970  24.105  25.328  1.00  0.00     0.116 C 
BRANCH  31  32
ATOM     32  N   UNL A   1      37.814  22.901  25.327  1.00  0.00    -0.352 N 
ATOM     33  C   UNL A   1      39.076  22.888  26.081  1.00  0.00     0.251 C 
ATOM     34  H   UNL A   1      37.533  22.104  24.822  1.00  0.00     0.163 HD
ATOM     35  O   UNL A   1      39.805  21.847  26.080  1.00  0.00    -0.269 OA
BRANCH  33  36
ATOM     36  C   UNL A   1      39.508  24.118  26.861  1.00  0.00     0.039 A 
ATOM     37  C   UNL A   1      39.185  24.257  28.201  1.00  0.00     0.014 A 
ATOM     38  C   UNL A   1      40.209  25.047  26.222  1.00  0.00     0.014 A 
ATOM     39  C   UNL A   1      39.402  25.560  28.710  1.00  0.00     0.010 A 
ATOM     40  C   UNL A   1      40.502  26.244  26.829  1.00  0.00     0.010 A 
ATOM     41  C   UNL A   1      40.160  26.473  28.133  1.00  0.00    -0.014 A 
BRANCH  41  42
ATOM     42  C   UNL A   1      40.629  27.712  28.878  1.00  0.00     0.031 A 
ATOM     43  C   UNL A   1      39.741  28.786  28.950  1.00  0.00     0.074 A 
ATOM     44  C   UNL A   1      41.910  27.730  29.404  1.00  0.00     0.049 A 
ATOM     45  N   UNL A   1      39.937  29.967  29.540  1.00  0.00    -0.248 NA
ATOM     46  C   UNL A   1      38.392  28.782  28.364  1.00  0.00     0.031 C 
ATOM     47  C   UNL A   1      42.809  26.648  29.342  1.00  0.00     0.029 A 
ATOM     48  N   UNL A   1      42.539  28.764  30.061  1.00  0.00    -0.354 N 
ATOM     49  C   UNL A   1      38.850  30.731  29.416  1.00  0.00     0.074 A 
ATOM     50  C   UNL A   1      37.843  29.981  28.652  1.00  0.00     0.031 C 
ATOM     51  C   UNL A   1      43.967  27.027  29.944  1.00  0.00     0.029 A 
ATOM     52  C   UNL A   1      43.812  28.353  30.392  1.00  0.00     0.049 A 
ATOM     53  H   UNL A   1      42.147  29.645  30.259  1.00  0.00     0.167 HD
ATOM     54  C   UNL A   1      38.659  32.022  29.911  1.00  0.00     0.031 A 
ATOM     55  C   UNL A   1      44.795  29.078  31.045  1.00  0.00     0.031 A 
ATOM     56  C   UNL A   1      39.627  32.731  30.603  1.00  0.00     0.049 A 
ATOM     57  C   UNL A   1      44.624  30.392  31.489  1.00  0.00     0.074 A 
ATOM     58  C   UNL A   1      39.448  34.030  31.114  1.00  0.00     0.029 A 
ATOM     59  N   UNL A   1      40.908  32.329  30.912  1.00  0.00    -0.354 N 
ATOM     60  N   UNL A   1      43.523  31.140  31.400  1.00  0.00    -0.248 NA
ATOM     61  C   UNL A   1      45.669  31.181  32.154  1.00  0.00     0.031 C 
ATOM     62  C   UNL A   1      40.606  34.410  31.717  1.00  0.00     0.029 A 
ATOM     63  C   UNL A   1      41.529  33.354  31.589  1.00  0.00     0.049 A 
ATOM     64  H   UNL A   1      41.309  31.458  30.687  1.00  0.00     0.167 HD
ATOM     65  C   UNL A   1      43.735  32.336  31.954  1.00  0.00     0.074 A 
ATOM     66  C   UNL A   1      45.121  32.382  32.440  1.00  0.00     0.031 C 
ATOM     67  C   UNL A   1      42.826  33.389  32.077  1.00  0.00     0.031 A 
BRANCH  54  68
ATOM     68  C   UNL A   1      37.311  32.686  29.679  1.00  0.00    -0.014 A 
ATOM     69  C   UNL A   1      37.049  33.284  28.457  1.00  0.00     0.010 A 
ATOM     70  C   UNL A   1      36.407  32.682  30.651  1.00  0.00     0.010 A 
ATOM     71  C   UNL A   1      35.901  34.110  28.458  1.00  0.00     0.020 A 
ATOM     72  C   UNL A   1      35.244  33.403  30.529  1.00  0.00     0.020 A 
ATOM     73  C   UNL A   1      34.948  34.067  29.371  1.00  0.00     0.054 A 
BRANCH  73  74
ATOM     74  S   UNL A   1      33.336  34.846  29.105  1.00  0.00     0.124 S 
ATOM     75  O   UNL A   1      32.550  34.048  28.062  1.00  0.00    -0.237 OA
ATOM     76  O   UNL A   1      32.556  34.870  30.422  1.00  0.00    -0.237 OA
ATOM     77  O   UNL A   1      33.561  36.447  28.547  1.00  0.00    -0.744 OA
ENDBRANCH  73  74
ENDBRANCH  54  68
BRANCH  55  78
ATOM     78  C   UNL A   1      46.136  28.407  31.291  1.00  0.00    -0.014 A 
ATOM     79  C   UNL A   1      46.336  27.701  32.466  1.00  0.00     0.010 A 
ATOM     80  C   UNL A   1      47.093  28.508  30.377  1.00  0.00     0.010 A 
ATOM     81  C   UNL A   1      47.691  27.376  32.716  1.00  0.00     0.020 A 
ATOM     82  C   UNL A   1      48.361  28.046  30.637  1.00  0.00     0.020 A 
ATOM     83  C   UNL A   1      48.645  27.391  31.803  1.00  0.00     0.054 A 
BRANCH  83  84
ATOM     84  S   UNL A   1      50.244  26.589  32.081  1.00  0.00     0.124 S 
ATOM     85  O   UNL A   1      50.918  26.315  30.735  1.00  0.00    -0.237 OA
ATOM     86  O   UNL A   1      51.135  27.507  32.921  1.00  0.00    -0.237 OA
ATOM     87  O   UNL A   1      50.004  25.113  32.911  1.00  0.00    -0.744 OA
ENDBRANCH  83  84
ENDBRANCH  55  78
BRANCH  67  88
ATOM     88  C   UNL A   1      43.289  34.650  32.787  1.00  0.00    -0.014 A 
ATOM     89  C   UNL A   1      43.256  34.724  34.170  1.00  0.00     0.010 A 
ATOM     90  C   UNL A   1      43.722  35.669  32.054  1.00  0.00     0.010 A 
ATOM     91  C   UNL A   1      43.434  36.032  34.679  1.00  0.00     0.020 A 
ATOM     92  C   UNL A   1      44.007  36.880  32.636  1.00  0.00     0.020 A 
ATOM     93  C   UNL A   1      43.939  37.041  33.992  1.00  0.00     0.054 A 
BRANCH  93  94
ATOM     94  S   UNL A   1      44.511  38.555  34.803  1.00  0.00     0.124 S 
ATOM     95  O   UNL A   1      46.039  38.625  34.733  1.00  0.00    -0.237 OA
ATOM     96  O   UNL A   1      43.911  39.771  34.095  1.00  0.00    -0.237 OA
ATOM     97  O   UNL A   1      44.016  38.546  36.440  1.00  0.00    -0.744 OA
ENDBRANCH  93  94
ENDBRANCH  67  88
ENDBRANCH  41  42
ENDBRANCH  33  36
ENDBRANCH  31  32
ENDBRANCH   1  31
TORSDOF 18
ENDMDL
MODEL 2
REMARK VINA RESULT:     -11.3      3.740      7.995
REMARK SMILES CCCc1cc(S(F)(F)(F)(F)F)cc2c1O[C@@H](C(F)(F)F)C(C(=O)NCCCCNC(=O)c1ccc(-c3c4nc(c(-c5ccc(S(=O)(=O)[O-])cc5)c5ccc([nH]5)c(-c5ccc(S(=O)(=O)[O-])cc5)c5nc(c(-c6ccc(S(=O)(=O)[O-])cc6)c6ccc3[nH]6)C=C5)C=C4)cc1)=C2
REMARK SMILES IDX 28 1 27 2 26 3 25 4 23 5 24 6 22 8 4 9 5 10 15 11 6 12 14 13
REMARK SMILES IDX 16 14 13 15 93 16 17 17 3 18 2 19 1 20 7 21 8 22 9 23 10 24
REMARK SMILES IDX 11 25 12 26 18 27 19 28 20 29 21 30 29 31 30 32 31 33 32 35
REMARK SMILES IDX 33 36 34 37 92 38 35 39 91 40 36 41 37 42 38 43 85 44 39 45
REMARK SMILES IDX 90 46 84 47 86 48 40 49 89 50 83 51 82 52 41 54 71 55 52 56
REMARK SMILES IDX 70 57 53 58 56 59 69 60 87 61 54 62 55 63 68 65 88 66 57 67
REMARK SMILES IDX 42 68 43 69 51 70 44 71 50 72 45 73 46 74 47 75 48 76 49 77
REMARK SMILES IDX 72 78 73 79 81 80 74 81 80 82 75 83 76 84 77 85 78 86 79 87
REMARK SMILES IDX 58 88 59 89 67 90 60 91 66 92 61 93 62 94 63 95 64 96 65 97
REMARK H PARENT 25 7 30 34 86 53 56 64
REMARK Flexibility Score: inf
ROOT
ATOM      1  C   UNL A   1      32.182  30.938  26.772  1.00  0.00     0.023 C 
ENDROOT
BRANCH   1   2
ATOM      2  C   UNL A   1      32.603  29.484  26.909  1.00  0.00     0.023 C 
BRANCH   2   3
ATOM      3  C   UNL A   1      33.567  29.126  25.789  1.00  0.00     0.116 C 
BRANCH   3   4
ATOM      4  N   UNL A   1      33.038  29.623  24.510  1.00  0.00    -0.352 N 
ATOM      5  C   UNL A   1      32.587  28.672  23.483  1.00  0.00     0.251 C 
ATOM      6  O   UNL A   1      32.129  29.102  22.378  1.00  0.00    -0.270 OA
ATOM      7  H   UNL A   1      32.986  30.591  24.342  1.00  0.00     0.163 HD
BRANCH   5   8
ATOM      8  C   UNL A   1      32.667  27.177  23.743  1.00  0.00     0.067 C 
ATOM      9  C   UNL A   1      32.768  23.178  24.943  1.00  0.00    -0.004 A 
ATOM     10  C   UNL A   1      33.968  22.490  24.953  1.00  0.00     0.032 A 
ATOM     11  C   UNL A   1      32.772  24.507  24.595  1.00  0.00     0.131 A 
ATOM     12  C   UNL A   1      35.142  23.117  24.629  1.00  0.00     0.108 A 
ATOM     13  C   UNL A   1      33.935  25.169  24.245  1.00  0.00     0.019 A 
ATOM     14  O   UNL A   1      31.593  25.203  24.699  1.00  0.00    -0.475 OA
ATOM     15  C   UNL A   1      35.125  24.449  24.269  1.00  0.00     0.036 A 
ATOM     16  C   UNL A   1      33.840  26.584  23.930  1.00  0.00     0.025 C 
ATOM     17  C   UNL A   1      31.405  26.327  23.795  1.00  0.00     0.314 C 
BRANCH   9  18
ATOM     18  C   UNL A   1      31.454  22.468  25.225  1.00  0.00     0.039 C 
BRANCH  18  19
ATOM     19  C   UNL A   1      31.169  22.505  26.718  1.00  0.00     0.001 C 
ATOM     20  C   UNL A   1      29.769  23.048  26.952  1.00  0.00     0.004 C 
ENDBRANCH  18  19
ENDBRANCH   9  18
BRANCH  12  21
ATOM     21  S   UNL A   1      36.705  22.206  24.672  1.00  0.00     0.310 S 
ATOM     22  F   UNL A   1      36.157  20.727  24.499  1.00  0.00    -0.094 F 
ATOM     23  F   UNL A   1      36.595  21.991  26.229  1.00  0.00    -0.094 F 
ATOM     24  F   UNL A   1      38.142  21.608  24.663  1.00  0.00    -0.094 F 
ATOM     25  F   UNL A   1      36.743  22.299  23.096  1.00  0.00    -0.094 F 
ATOM     26  F   UNL A   1      35.207  22.708  24.652  1.00  0.00    -0.094 F 
ENDBRANCH  12  21
BRANCH  17  27
ATOM     27  C   UNL A   1      30.253  27.182  24.298  1.00  0.00     0.429 C 
ATOM     28  F   UNL A   1      29.242  26.396  24.657  1.00  0.00    -0.167 F 
ATOM     29  F   UNL A   1      30.654  27.894  25.347  1.00  0.00    -0.167 F 
ATOM     30  F   UNL A   1      29.854  28.003  23.331  1.00  0.00    -0.167 F 
ENDBRANCH  17  27
ENDBRANCH   5   8
ENDBRANCH   3   4
ENDBRANCH   2   3
ENDBRANCH   1   2
BRANCH   1  31
ATOM     31  C   UNL A   1      33.239  31.832  27.401  1.00  0.00     0.116 C 
BRANCH  31  32
ATOM     32  N   UNL A   1      32.670  33.167  27.641  1.00  0.00    -0.352 N 
ATOM     33  C   UNL A   1      33.335  34.093  28.569  1.00  0.00     0.251 C 
ATOM     34  H   UNL A   1      31.844  33.440  27.180  1.00  0.00     0.163 HD
ATOM     35  O   UNL A   1      32.843  35.246  28.776  1.00  0.00    -0.269 OA
BRANCH  33  36
ATOM     36  C   UNL A   1      34.610  33.671  29.280  1.00  0.00     0.039 A 
ATOM     37  C   UNL A   1      35.829  34.235  28.941  1.00  0.00     0.014 A 
ATOM     38  C   UNL A   1      34.516  32.757  30.238  1.00  0.00     0.014 A 
ATOM     39  C   UNL A   1      36.945  33.550  29.478  1.00  0.00     0.010 A 
ATOM     40  C   UNL A   1      35.646  32.229  30.814  1.00  0.00     0.010 A 
ATOM     41  C   UNL A   1      36.888  32.697  30.483  1.00  0.00    -0.014 A 
BRANCH  41  42
ATOM     42  C   UNL A   1      38.134  32.258  31.234  1.00  0.00     0.031 A 
ATOM     43  C   UNL A   1      38.416  32.907  32.437  1.00  0.00     0.074 A 
ATOM     44  C   UNL A   1      38.941  31.280  30.675  1.00  0.00     0.049 A 
ATOM     45  N   UNL A   1      39.449  32.696  33.254  1.00  0.00    -0.248 NA
ATOM     46  C   UNL A   1      37.579  33.969  33.015  1.00  0.00     0.031 C 
ATOM     47  C   UNL A   1      38.659  30.614  29.467  1.00  0.00     0.029 A 
ATOM     48  N   UNL A   1      40.128  30.783  31.164  1.00  0.00    -0.354 N 
ATOM     49  C   UNL A   1      39.366  33.498  34.318  1.00  0.00     0.074 A 
ATOM     50  C   UNL A   1      38.166  34.333  34.176  1.00  0.00     0.031 C 
ATOM     51  C   UNL A   1      39.669  29.737  29.224  1.00  0.00     0.029 A 
ATOM     52  C   UNL A   1      40.598  29.840  30.277  1.00  0.00     0.049 A 
ATOM     53  H   UNL A   1      40.567  31.057  32.002  1.00  0.00     0.167 HD
ATOM     54  C   UNL A   1      40.245  33.564  35.401  1.00  0.00     0.031 A 
ATOM     55  C   UNL A   1      41.767  29.101  30.364  1.00  0.00     0.031 A 
ATOM     56  C   UNL A   1      41.392  32.794  35.508  1.00  0.00     0.049 A 
ATOM     57  C   UNL A   1      42.676  29.210  31.419  1.00  0.00     0.074 A 
ATOM     58  C   UNL A   1      42.284  32.844  36.596  1.00  0.00     0.029 A 
ATOM     59  N   UNL A   1      41.874  31.867  34.609  1.00  0.00    -0.354 N 
ATOM     60  N   UNL A   1      42.574  29.983  32.501  1.00  0.00    -0.248 NA
ATOM     61  C   UNL A   1      43.934  28.455  31.505  1.00  0.00     0.031 C 
ATOM     62  C   UNL A   1      43.293  31.966  36.354  1.00  0.00     0.029 A 
ATOM     63  C   UNL A   1      43.050  31.355  35.109  1.00  0.00     0.049 A 
ATOM     64  H   UNL A   1      41.449  31.616  33.757  1.00  0.00     0.167 HD
ATOM     65  C   UNL A   1      43.629  29.800  33.297  1.00  0.00     0.074 A 
ATOM     66  C   UNL A   1      44.523  28.821  32.664  1.00  0.00     0.031 C 
ATOM     67  C   UNL A   1      43.879  30.408  34.529  1.00  0.00     0.031 A 
BRANCH  54  68
ATOM     68  C   UNL A   1      39.924  34.536  36.525  1.00  0.00    -0.014 A 
ATOM     69  C   UNL A   1      40.386  35.839  36.450  1.00  0.00     0.010 A 
ATOM     70  C   UNL A   1      39.207  34.118  37.562  1.00  0.00     0.010 A 
ATOM     71  C   UNL A   1      40.281  36.556  37.665  1.00  0.00     0.020 A 
ATOM     72  C   UNL A   1      39.032  34.923  38.661  1.00  0.00     0.020 A 
ATOM     73  C   UNL A   1      39.512  36.202  38.679  1.00  0.00     0.054 A 
BRANCH  73  74
ATOM     74  S   UNL A   1      39.115  37.351  40.020  1.00  0.00     0.124 S 
ATOM     75  O   UNL A   1      38.155  38.426  39.504  1.00  0.00    -0.237 OA
ATOM     76  O   UNL A   1      38.453  36.586  41.169  1.00  0.00    -0.237 OA
ATOM     77  O   UNL A   1      40.551  38.091  40.581  1.00  0.00    -0.744 OA
ENDBRANCH  73  74
ENDBRANCH  54  68
BRANCH  55  78
ATOM     78  C   UNL A   1      42.078  28.118  29.247  1.00  0.00    -0.014 A 
ATOM     79  C   UNL A   1      41.556  26.836  29.306  1.00  0.00     0.010 A 
ATOM     80  C   UNL A   1      42.844  28.504  28.234  1.00  0.00     0.010 A 
ATOM     81  C   UNL A   1      42.140  25.936  28.384  1.00  0.00     0.020 A 
ATOM     82  C   UNL A   1      43.268  27.597  27.293  1.00  0.00     0.020 A 
ATOM     83  C   UNL A   1      42.839  26.299  27.324  1.00  0.00     0.054 A 
BRANCH  83  84
ATOM     84  S   UNL A   1      43.210  25.140  25.983  1.00  0.00     0.124 S 
ATOM     85  O   UNL A   1      42.717  25.721  24.656  1.00  0.00    -0.237 OA
ATOM     86  O   UNL A   1      44.721  24.912  25.911  1.00  0.00    -0.237 OA
ATOM     87  O   UNL A   1      42.422  23.652  26.282  1.00  0.00    -0.744 OA
ENDBRANCH  83  84
ENDBRANCH  55  78
BRANCH  67  88
ATOM     88  C   UNL A   1      45.140  30.008  35.278  1.00  0.00    -0.014 A 
ATOM     89  C   UNL A   1      46.325  30.694  35.067  1.00  0.00     0.010 A 
ATOM     90  C   UNL A   1      45.075  28.995  36.135  1.00  0.00     0.010 A 
ATOM     91  C   UNL A   1      47.465  30.046  35.598  1.00  0.00     0.020 A 
ATOM     92  C   UNL A   1      46.213  28.500  36.722  1.00  0.00     0.020 A 
ATOM     93  C   UNL A   1      47.428  29.092  36.510  1.00  0.00     0.054 A 
BRANCH  93  94
ATOM     94  S   UNL A   1      48.905  28.596  37.432  1.00  0.00     0.124 S 
ATOM     95  O   UNL A   1      48.498  28.123  38.830  1.00  0.00    -0.237 OA
ATOM     96  O   UNL A   1      49.609  27.457  36.692  1.00  0.00    -0.237 OA
ATOM     97  O   UNL A   1      49.966  29.930  37.568  1.00  0.00    -0.744 OA
ENDBRANCH  93  94
ENDBRANCH  67  88
ENDBRANCH  41  42
ENDBRANCH  33  36
ENDBRANCH  31  32
ENDBRANCH   1  31
TORSDOF 18
ENDMDL
MODEL 3
REMARK VINA RESULT:     -11.2      3.825      9.247
REMARK SMILES CCCc1cc(S(F)(F)(F)(F)F)cc2c1O[C@@H](C(F)(F)F)C(C(=O)NCCCCNC(=O)c1ccc(-c3c4nc(c(-c5ccc(S(=O)(=O)[O-])cc5)c5ccc([nH]5)c(-c5ccc(S(=O)(=O)[O-])cc5)c5nc(c(-c6ccc(S(=O)(=O)[O-])cc6)c6ccc3[nH]6)C=C5)C=C4)cc1)=C2
REMARK SMILES IDX 28 1 27 2 26 3 25 4 23 5 24 6 22 8 4 9 5 10 15 11 6 12 14 13
REMARK SMILES IDX 16 14 13 15 93 16 17 17 3 18 2 19 1 20 7 21 8 22 9 23 10 24
REMARK SMILES IDX 11 25 12 26 18 27 19 28 20 29 21 30 29 31 30 32 31 33 32 35
REMARK SMILES IDX 33 36 34 37 92 38 35 39 91 40 36 41 37 42 38 43 85 44 39 45
REMARK SMILES IDX 90 46 84 47 86 48 40 49 89 50 83 51 82 52 41 54 71 55 52 56
REMARK SMILES IDX 70 57 53 58 56 59 69 60 87 61 54 62 55 63 68 65 88 66 57 67
REMARK SMILES IDX 42 68 43 69 51 70 44 71 50 72 45 73 46 74 47 75 48 76 49 77
REMARK SMILES IDX 72 78 73 79 81 80 74 81 80 82 75 83 76 84 77 85 78 86 79 87
REMARK SMILES IDX 58 88 59 89 67 90 60 91 66 92 61 93 62 94 63 95 64 96 65 97
REMARK H PARENT 25 7 30 34 86 53 56 64
REMARK Flexibility Score: inf
ROOT
ATOM      1  C   UNL A   1      32.313  31.051  26.802  1.00  0.00     0.023 C 
ENDROOT
BRANCH   1   2
ATOM      2  C   UNL A   1      32.658  29.594  27.064  1.00  0.00     0.023 C 
BRANCH   2   3
ATOM      3  C   UNL A   1      33.565  29.081  25.957  1.00  0.00     0.116 C 
BRANCH   3   4
ATOM      4  N   UNL A   1      33.141  29.652  24.671  1.00  0.00    -0.352 N 
ATOM      5  C   UNL A   1      32.731  28.765  23.572  1.00  0.00     0.251 C 
ATOM      6  O   UNL A   1      32.364  29.260  22.460  1.00  0.00    -0.270 OA
ATOM      7  H   UNL A   1      33.132  30.629  24.545  1.00  0.00     0.163 HD
BRANCH   5   8
ATOM      8  C   UNL A   1      32.745  27.258  23.766  1.00  0.00     0.067 C 
ATOM      9  C   UNL A   1      32.676  23.209  24.790  1.00  0.00    -0.004 A 
ATOM     10  C   UNL A   1      33.843  22.468  24.754  1.00  0.00     0.032 A 
ATOM     11  C   UNL A   1      32.737  24.551  24.500  1.00  0.00     0.131 A 
ATOM     12  C   UNL A   1      35.041  23.055  24.442  1.00  0.00     0.108 A 
ATOM     13  C   UNL A   1      33.925  25.174  24.163  1.00  0.00     0.019 A 
ATOM     14  O   UNL A   1      31.592  25.295  24.650  1.00  0.00    -0.475 OA
ATOM     15  C   UNL A   1      35.080  24.401  24.140  1.00  0.00     0.036 A 
ATOM     16  C   UNL A   1      33.892  26.604  23.912  1.00  0.00     0.025 C 
ATOM     17  C   UNL A   1      31.446  26.465  23.798  1.00  0.00     0.314 C 
BRANCH   9  18
ATOM     18  C   UNL A   1      31.333  22.549  25.059  1.00  0.00     0.039 C 
BRANCH  18  19
ATOM     19  C   UNL A   1      31.159  22.346  26.555  1.00  0.00     0.001 C 
ATOM     20  C   UNL A   1      29.834  22.946  26.996  1.00  0.00     0.004 C 
ENDBRANCH  18  19
ENDBRANCH   9  18
BRANCH  12  21
ATOM     21  S   UNL A   1      36.561  22.072  24.424  1.00  0.00     0.310 S 
ATOM     22  F   UNL A   1      37.617  23.208  24.755  1.00  0.00    -0.094 F 
ATOM     23  F   UNL A   1      36.805  22.385  22.899  1.00  0.00    -0.094 F 
ATOM     24  F   UNL A   1      37.740  21.058  24.432  1.00  0.00    -0.094 F 
ATOM     25  F   UNL A   1      36.391  21.876  25.981  1.00  0.00    -0.094 F 
ATOM     26  F   UNL A   1      35.435  23.181  24.455  1.00  0.00    -0.094 F 
ENDBRANCH  12  21
BRANCH  17  27
ATOM     27  C   UNL A   1      30.340  27.348  24.353  1.00  0.00     0.429 C 
ATOM     28  F   UNL A   1      30.138  28.374  23.532  1.00  0.00    -0.167 F 
ATOM     29  F   UNL A   1      29.220  26.640  24.462  1.00  0.00    -0.167 F 
ATOM     30  F   UNL A   1      30.696  27.803  25.552  1.00  0.00    -0.167 F 
ENDBRANCH  17  27
ENDBRANCH   5   8
ENDBRANCH   3   4
ENDBRANCH   2   3
ENDBRANCH   1   2
BRANCH   1  31
ATOM     31  C   UNL A   1      33.334  31.944  27.490  1.00  0.00     0.116 C 
BRANCH  31  32
ATOM     32  N   UNL A   1      32.720  33.246  27.791  1.00  0.00    -0.352 N 
ATOM     33  C   UNL A   1      33.357  34.153  28.757  1.00  0.00     0.251 C 
ATOM     34  H   UNL A   1      31.884  33.511  27.344  1.00  0.00     0.163 HD
ATOM     35  O   UNL A   1      32.827  35.278  29.017  1.00  0.00    -0.269 OA
BRANCH  33  36
ATOM     36  C   UNL A   1      34.648  33.744  29.446  1.00  0.00     0.039 A 
ATOM     37  C   UNL A   1      35.863  34.277  29.047  1.00  0.00     0.014 A 
ATOM     38  C   UNL A   1      34.574  32.871  30.443  1.00  0.00     0.014 A 
ATOM     39  C   UNL A   1      36.988  33.600  29.577  1.00  0.00     0.010 A 
ATOM     40  C   UNL A   1      35.715  32.353  31.006  1.00  0.00     0.010 A 
ATOM     41  C   UNL A   1      36.951  32.790  30.618  1.00  0.00    -0.014 A 
BRANCH  41  42
ATOM     42  C   UNL A   1      38.216  32.366  31.347  1.00  0.00     0.031 A 
ATOM     43  C   UNL A   1      38.976  31.350  30.766  1.00  0.00     0.074 A 
ATOM     44  C   UNL A   1      38.524  32.969  32.555  1.00  0.00     0.049 A 
ATOM     45  N   UNL A   1      40.109  30.816  31.227  1.00  0.00    -0.248 NA
ATOM     46  C   UNL A   1      38.633  30.685  29.500  1.00  0.00     0.031 C 
ATOM     47  C   UNL A   1      37.766  34.000  33.144  1.00  0.00     0.029 A 
ATOM     48  N   UNL A   1      39.583  32.694  33.391  1.00  0.00    -0.354 N 
ATOM     49  C   UNL A   1      40.553  29.880  30.384  1.00  0.00     0.074 A 
ATOM     50  C   UNL A   1      39.607  29.779  29.265  1.00  0.00     0.031 C 
ATOM     51  C   UNL A   1      38.354  34.335  34.323  1.00  0.00     0.029 A 
ATOM     52  C   UNL A   1      39.489  33.518  34.490  1.00  0.00     0.049 A 
ATOM     53  H   UNL A   1      40.286  32.024  33.230  1.00  0.00     0.167 HD
ATOM     54  C   UNL A   1      41.710  29.110  30.506  1.00  0.00     0.031 A 
ATOM     55  C   UNL A   1      40.334  33.569  35.588  1.00  0.00     0.031 A 
ATOM     56  C   UNL A   1      42.579  29.192  31.582  1.00  0.00     0.049 A 
ATOM     57  C   UNL A   1      41.461  32.757  35.737  1.00  0.00     0.074 A 
ATOM     58  C   UNL A   1      43.753  28.427  31.716  1.00  0.00     0.029 A 
ATOM     59  N   UNL A   1      42.472  29.999  32.694  1.00  0.00    -0.354 N 
ATOM     60  N   UNL A   1      41.926  31.850  34.876  1.00  0.00    -0.248 NA
ATOM     61  C   UNL A   1      42.345  32.780  36.910  1.00  0.00     0.031 C 
ATOM     62  C   UNL A   1      44.342  28.762  32.895  1.00  0.00     0.029 A 
ATOM     63  C   UNL A   1      43.543  29.740  33.518  1.00  0.00     0.049 A 
ATOM     64  H   UNL A   1      41.752  30.648  32.868  1.00  0.00     0.167 HD
ATOM     65  C   UNL A   1      43.036  31.288  35.358  1.00  0.00     0.074 A 
ATOM     66  C   UNL A   1      43.317  31.872  36.677  1.00  0.00     0.031 C 
ATOM     67  C   UNL A   1      43.828  30.313  34.748  1.00  0.00     0.031 A 
BRANCH  54  68
ATOM     68  C   UNL A   1      42.037  28.126  29.393  1.00  0.00    -0.014 A 
ATOM     69  C   UNL A   1      42.790  28.549  28.311  1.00  0.00     0.010 A 
ATOM     70  C   UNL A   1      41.594  26.877  29.478  1.00  0.00     0.010 A 
ATOM     71  C   UNL A   1      42.780  27.650  27.219  1.00  0.00     0.020 A 
ATOM     72  C   UNL A   1      41.740  26.010  28.423  1.00  0.00     0.020 A 
ATOM     73  C   UNL A   1      42.421  26.381  27.298  1.00  0.00     0.054 A 
BRANCH  73  74
ATOM     74  S   UNL A   1      42.811  25.197  25.985  1.00  0.00     0.124 S 
ATOM     75  O   UNL A   1      42.529  25.835  24.623  1.00  0.00    -0.237 OA
ATOM     76  O   UNL A   1      44.289  24.808  26.070  1.00  0.00    -0.237 OA
ATOM     77  O   UNL A   1      41.843  23.800  26.171  1.00  0.00    -0.744 OA
ENDBRANCH  73  74
ENDBRANCH  54  68
BRANCH  55  78
ATOM     78  C   UNL A   1      40.016  34.565  36.691  1.00  0.00    -0.014 A 
ATOM     79  C   UNL A   1      40.560  35.838  36.635  1.00  0.00     0.010 A 
ATOM     80  C   UNL A   1      39.222  34.199  37.690  1.00  0.00     0.010 A 
ATOM     81  C   UNL A   1      40.438  36.567  37.841  1.00  0.00     0.020 A 
ATOM     82  C   UNL A   1      39.041  35.020  38.777  1.00  0.00     0.020 A 
ATOM     83  C   UNL A   1      39.598  36.269  38.815  1.00  0.00     0.054 A 
BRANCH  83  84
ATOM     84  S   UNL A   1      39.205  37.448  40.131  1.00  0.00     0.124 S 
ATOM     85  O   UNL A   1      38.600  36.702  41.322  1.00  0.00    -0.237 OA
ATOM     86  O   UNL A   1      40.484  38.163  40.573  1.00  0.00    -0.237 OA
ATOM     87  O   UNL A   1      38.083  38.599  39.548  1.00  0.00    -0.744 OA
ENDBRANCH  83  84
ENDBRANCH  55  78
BRANCH  67  88
ATOM     88  C   UNL A   1      45.078  29.849  35.479  1.00  0.00    -0.014 A 
ATOM     89  C   UNL A   1      45.019  28.774  36.350  1.00  0.00     0.010 A 
ATOM     90  C   UNL A   1      46.217  30.496  35.261  1.00  0.00     0.010 A 
ATOM     91  C   UNL A   1      46.165  28.634  37.168  1.00  0.00     0.020 A 
ATOM     92  C   UNL A   1      47.336  30.215  36.006  1.00  0.00     0.020 A 
ATOM     93  C   UNL A   1      47.331  29.203  36.927  1.00  0.00     0.054 A 
BRANCH  93  94
ATOM     94  S   UNL A   1      48.844  28.672  37.768  1.00  0.00     0.124 S 
ATOM     95  O   UNL A   1      49.231  27.272  37.284  1.00  0.00    -0.237 OA
ATOM     96  O   UNL A   1      49.975  29.652  37.451  1.00  0.00    -0.237 OA
ATOM     97  O   UNL A   1      48.574  28.638  39.456  1.00  0.00    -0.744 OA
ENDBRANCH  93  94
ENDBRANCH  67  88
ENDBRANCH  41  42
ENDBRANCH  33  36
ENDBRANCH  31  32
ENDBRANCH   1  31
TORSDOF 18
ENDMDL
