MODEL 1
REMARK VINA RESULT:     -11.3      0.000      0.000
REMARK SMILES C[C@@H](C(=O)NCCCCNC(=O)c1ccc(-c2c3nc(c(-c4ccc(S(=O)(=O)[O-])cc4)c4ccc([nH]4)c(-c4ccc(S(=O)(=O)[O-])cc4)c4nc(c(-c5ccc(S(=O)(=O)[O-])cc5)c5ccc2[nH]5)C=C4)C=C3)cc1)c1cc(/C=C/S(C)(=O)=O)cc(C(=O)c2ccccc2)c1
REMARK SMILES IDX 7 1 6 2 5 3 3 4 4 5 2 7 1 8 73 9 74 10 92 11 75 12 83 13
REMARK SMILES IDX 82 14 76 15 77 16 78 17 79 18 80 19 81 20 84 21 85 22 86 23
REMARK SMILES IDX 87 24 91 25 88 26 90 27 89 28 8 29 9 30 10 31 11 32 12 34
REMARK SMILES IDX 13 35 14 36 72 37 15 38 71 39 16 40 17 41 18 42 65 43 19 44
REMARK SMILES IDX 70 45 64 46 66 47 20 48 69 49 63 50 62 51 21 53 51 54 32 55
REMARK SMILES IDX 50 56 33 57 36 58 49 59 67 60 34 61 35 62 48 64 68 65 37 66
REMARK SMILES IDX 22 67 23 68 31 69 24 70 30 71 25 72 26 73 27 74 28 75 29 76
REMARK SMILES IDX 52 77 53 78 61 79 54 80 60 81 55 82 56 83 57 84 58 85 59 86
REMARK SMILES IDX 38 87 39 88 47 89 40 90 46 91 41 92 42 93 43 94 44 95 45 96
REMARK H PARENT 5 6 10 33 66 52 36 63
REMARK Flexibility Score: inf
ROOT
ATOM      1  C   UNL A   1      31.875  27.651  26.891  1.00  0.00     0.023 C 
ENDROOT
BRANCH   1   2
ATOM      2  C   UNL A   1      30.955  26.643  26.195  1.00  0.00     0.116 C 
BRANCH   2   3
ATOM      3  N   UNL A   1      31.025  25.343  26.835  1.00  0.00    -0.356 N 
ATOM      4  C   UNL A   1      31.253  24.111  26.287  1.00  0.00     0.227 C 
ATOM      5  O   UNL A   1      31.099  23.132  27.017  1.00  0.00    -0.274 OA
ATOM      6  H   UNL A   1      30.887  25.348  27.809  1.00  0.00     0.163 HD
BRANCH   4   7
ATOM      7  C   UNL A   1      31.729  24.012  24.829  1.00  0.00     0.105 C 
ATOM      8  C   UNL A   1      30.520  23.836  23.897  1.00  0.00     0.023 C 
BRANCH   7   9
ATOM      9  C   UNL A   1      32.821  22.960  24.585  1.00  0.00    -0.035 A 
ATOM     10  C   UNL A   1      32.575  21.586  24.753  1.00  0.00     0.012 A 
ATOM     11  C   UNL A   1      34.131  23.345  24.280  1.00  0.00     0.016 A 
ATOM     12  C   UNL A   1      33.586  20.620  24.582  1.00  0.00    -0.024 A 
ATOM     13  C   UNL A   1      35.174  22.420  24.188  1.00  0.00     0.023 A 
ATOM     14  C   UNL A   1      34.893  21.057  24.309  1.00  0.00     0.020 A 
BRANCH  12  15
ATOM     15  C   UNL A   1      33.341  19.169  24.714  1.00  0.00     0.020 C 
ATOM     16  C   UNL A   1      34.267  18.204  24.594  1.00  0.00     0.106 C 
BRANCH  16  17
ATOM     17  S   UNL A   1      33.811  16.532  24.734  1.00  0.00     0.168 S 
ATOM     18  C   UNL A   1      35.315  15.812  25.346  1.00  0.00     0.163 C 
ATOM     19  O   UNL A   1      32.821  16.411  25.787  1.00  0.00    -0.225 OA
ATOM     20  O   UNL A   1      33.569  15.956  23.425  1.00  0.00    -0.225 OA
ENDBRANCH  16  17
ENDBRANCH  12  15
BRANCH  13  21
ATOM     21  C   UNL A   1      36.574  22.890  23.959  1.00  0.00     0.193 C 
ATOM     22  O   UNL A   1      36.929  23.293  22.857  1.00  0.00    -0.289 OA
BRANCH  21  23
ATOM     23  C   UNL A   1      37.551  22.895  25.081  1.00  0.00     0.022 A 
ATOM     24  C   UNL A   1      38.317  21.750  25.308  1.00  0.00     0.012 A 
ATOM     25  C   UNL A   1      37.754  24.045  25.858  1.00  0.00     0.012 A 
ATOM     26  C   UNL A   1      39.318  21.769  26.283  1.00  0.00     0.001 A 
ATOM     27  C   UNL A   1      38.760  24.061  26.826  1.00  0.00     0.001 A 
ATOM     28  C   UNL A   1      39.544  22.925  27.032  1.00  0.00     0.000 A 
ENDBRANCH  21  23
ENDBRANCH  13  21
ENDBRANCH   7   9
ENDBRANCH   4   7
ENDBRANCH   2   3
ENDBRANCH   1   2
BRANCH   1  29
ATOM     29  C   UNL A   1      32.547  28.647  25.952  1.00  0.00     0.023 C 
BRANCH  29  30
ATOM     30  C   UNL A   1      33.815  29.271  26.507  1.00  0.00     0.116 C 
BRANCH  30  31
ATOM     31  N   UNL A   1      33.602  30.619  27.014  1.00  0.00    -0.352 N 
ATOM     32  C   UNL A   1      34.368  31.304  27.929  1.00  0.00     0.251 C 
ATOM     33  H   UNL A   1      32.816  31.097  26.661  1.00  0.00     0.163 HD
ATOM     34  O   UNL A   1      33.994  32.382  28.381  1.00  0.00    -0.269 OA
BRANCH  32  35
ATOM     35  C   UNL A   1      35.631  30.689  28.375  1.00  0.00     0.039 A 
ATOM     36  C   UNL A   1      36.844  31.200  27.908  1.00  0.00     0.014 A 
ATOM     37  C   UNL A   1      35.603  29.680  29.340  1.00  0.00     0.014 A 
ATOM     38  C   UNL A   1      38.038  30.745  28.469  1.00  0.00     0.010 A 
ATOM     39  C   UNL A   1      36.785  29.295  29.956  1.00  0.00     0.010 A 
ATOM     40  C   UNL A   1      38.014  29.820  29.526  1.00  0.00    -0.014 A 
BRANCH  40  41
ATOM     41  C   UNL A   1      39.251  29.363  30.206  1.00  0.00     0.031 A 
ATOM     42  C   UNL A   1      39.773  30.136  31.383  1.00  0.00     0.074 A 
ATOM     43  C   UNL A   1      39.965  28.340  29.696  1.00  0.00     0.049 A 
ATOM     44  N   UNL A   1      40.912  30.019  32.012  1.00  0.00    -0.248 NA
ATOM     45  C   UNL A   1      38.910  31.215  31.894  1.00  0.00     0.031 C 
ATOM     46  C   UNL A   1      39.584  27.532  28.537  1.00  0.00     0.029 A 
ATOM     47  N   UNL A   1      41.180  27.824  30.076  1.00  0.00    -0.354 N 
ATOM     48  C   UNL A   1      40.921  31.029  32.965  1.00  0.00     0.074 A 
ATOM     49  C   UNL A   1      39.696  31.779  32.798  1.00  0.00     0.031 C 
ATOM     50  C   UNL A   1      40.541  26.619  28.303  1.00  0.00     0.029 A 
ATOM     51  C   UNL A   1      41.626  26.811  29.261  1.00  0.00     0.049 A 
ATOM     52  H   UNL A   1      41.682  28.149  30.857  1.00  0.00     0.167 HD
ATOM     53  C   UNL A   1      41.858  31.301  33.905  1.00  0.00     0.031 A 
ATOM     54  C   UNL A   1      42.789  26.129  29.265  1.00  0.00     0.031 A 
ATOM     55  C   UNL A   1      43.071  30.546  34.065  1.00  0.00     0.049 A 
ATOM     56  C   UNL A   1      43.823  26.447  30.310  1.00  0.00     0.074 A 
ATOM     57  C   UNL A   1      44.058  30.698  35.023  1.00  0.00     0.029 A 
ATOM     58  N   UNL A   1      43.468  29.502  33.242  1.00  0.00    -0.354 N 
ATOM     59  N   UNL A   1      43.790  27.364  31.245  1.00  0.00    -0.248 NA
ATOM     60  C   UNL A   1      45.044  25.629  30.308  1.00  0.00     0.031 C 
ATOM     61  C   UNL A   1      45.080  29.788  34.741  1.00  0.00     0.029 A 
ATOM     62  C   UNL A   1      44.697  29.017  33.653  1.00  0.00     0.049 A 
ATOM     63  H   UNL A   1      42.951  29.157  32.478  1.00  0.00     0.167 HD
ATOM     64  C   UNL A   1      44.970  27.216  31.966  1.00  0.00     0.074 A 
ATOM     65  C   UNL A   1      45.694  26.118  31.357  1.00  0.00     0.031 C 
ATOM     66  C   UNL A   1      45.406  27.920  33.040  1.00  0.00     0.031 A 
BRANCH  53  67
ATOM     67  C   UNL A   1      41.612  32.488  34.800  1.00  0.00    -0.014 A 
ATOM     68  C   UNL A   1      42.109  33.765  34.483  1.00  0.00     0.010 A 
ATOM     69  C   UNL A   1      40.880  32.318  35.990  1.00  0.00     0.010 A 
ATOM     70  C   UNL A   1      41.945  34.831  35.372  1.00  0.00     0.020 A 
ATOM     71  C   UNL A   1      40.680  33.390  36.865  1.00  0.00     0.020 A 
ATOM     72  C   UNL A   1      41.240  34.632  36.563  1.00  0.00     0.054 A 
BRANCH  72  73
ATOM     73  S   UNL A   1      41.068  36.024  37.712  1.00  0.00     0.124 S 
ATOM     74  O   UNL A   1      39.882  36.699  37.189  1.00  0.00    -0.237 OA
ATOM     75  O   UNL A   1      40.892  35.356  39.000  1.00  0.00    -0.237 OA
ATOM     76  O   UNL A   1      42.321  36.758  37.559  1.00  0.00    -0.744 OA
ENDBRANCH  72  73
ENDBRANCH  53  67
BRANCH  54  77
ATOM     77  C   UNL A   1      43.016  25.071  28.243  1.00  0.00    -0.014 A 
ATOM     78  C   UNL A   1      43.485  25.404  26.962  1.00  0.00     0.010 A 
ATOM     79  C   UNL A   1      42.831  23.714  28.572  1.00  0.00     0.010 A 
ATOM     80  C   UNL A   1      43.775  24.403  26.030  1.00  0.00     0.020 A 
ATOM     81  C   UNL A   1      43.144  22.709  27.653  1.00  0.00     0.020 A 
ATOM     82  C   UNL A   1      43.614  23.060  26.386  1.00  0.00     0.054 A 
BRANCH  82  83
ATOM     83  S   UNL A   1      44.099  21.778  25.196  1.00  0.00     0.124 S 
ATOM     84  O   UNL A   1      44.007  22.490  23.926  1.00  0.00    -0.237 OA
ATOM     85  O   UNL A   1      45.449  21.437  25.636  1.00  0.00    -0.237 OA
ATOM     86  O   UNL A   1      43.103  20.728  25.400  1.00  0.00    -0.744 OA
ENDBRANCH  82  83
ENDBRANCH  54  77
BRANCH  66  87
ATOM     87  C   UNL A   1      46.707  27.501  33.675  1.00  0.00    -0.014 A 
ATOM     88  C   UNL A   1      47.929  28.091  33.309  1.00  0.00     0.010 A 
ATOM     89  C   UNL A   1      46.684  26.568  34.730  1.00  0.00     0.010 A 
ATOM     90  C   UNL A   1      49.107  27.746  33.979  1.00  0.00     0.020 A 
ATOM     91  C   UNL A   1      47.853  26.242  35.420  1.00  0.00     0.020 A 
ATOM     92  C   UNL A   1      49.060  26.829  35.036  1.00  0.00     0.054 A 
BRANCH  92  93
ATOM     93  S   UNL A   1      50.588  26.459  35.940  1.00  0.00     0.124 S 
ATOM     94  O   UNL A   1      50.341  27.099  37.230  1.00  0.00    -0.237 OA
ATOM     95  O   UNL A   1      50.604  24.999  35.955  1.00  0.00    -0.237 OA
ATOM     96  O   UNL A   1      51.631  27.080  35.127  1.00  0.00    -0.744 OA
ENDBRANCH  92  93
ENDBRANCH  66  87
ENDBRANCH  40  41
ENDBRANCH  32  35
ENDBRANCH  30  31
ENDBRANCH  29  30
ENDBRANCH   1  29
TORSDOF 19
ENDMDL
MODEL 2
REMARK VINA RESULT:     -11.0      3.412      9.504
REMARK SMILES C[C@@H](C(=O)NCCCCNC(=O)c1ccc(-c2c3nc(c(-c4ccc(S(=O)(=O)[O-])cc4)c4ccc([nH]4)c(-c4ccc(S(=O)(=O)[O-])cc4)c4nc(c(-c5ccc(S(=O)(=O)[O-])cc5)c5ccc2[nH]5)C=C4)C=C3)cc1)c1cc(/C=C/S(C)(=O)=O)cc(C(=O)c2ccccc2)c1
REMARK SMILES IDX 7 1 6 2 5 3 3 4 4 5 2 7 1 8 73 9 74 10 92 11 75 12 83 13
REMARK SMILES IDX 82 14 76 15 77 16 78 17 79 18 80 19 81 20 84 21 85 22 86 23
REMARK SMILES IDX 87 24 91 25 88 26 90 27 89 28 8 29 9 30 10 31 11 32 12 34
REMARK SMILES IDX 13 35 14 36 72 37 15 38 71 39 16 40 17 41 18 42 65 43 19 44
REMARK SMILES IDX 70 45 64 46 66 47 20 48 69 49 63 50 62 51 21 53 51 54 32 55
REMARK SMILES IDX 50 56 33 57 36 58 49 59 67 60 34 61 35 62 48 64 68 65 37 66
REMARK SMILES IDX 22 67 23 68 31 69 24 70 30 71 25 72 26 73 27 74 28 75 29 76
REMARK SMILES IDX 52 77 53 78 61 79 54 80 60 81 55 82 56 83 57 84 58 85 59 86
REMARK SMILES IDX 38 87 39 88 47 89 40 90 46 91 41 92 42 93 43 94 44 95 45 96
REMARK H PARENT 5 6 10 33 66 52 36 63
REMARK Flexibility Score: inf
ROOT
ATOM      1  C   UNL A   1      34.530  22.709  26.284  1.00  0.00     0.023 C 
ENDROOT
BRANCH   1   2
ATOM      2  C   UNL A   1      33.335  21.840  25.879  1.00  0.00     0.116 C 
BRANCH   2   3
ATOM      3  N   UNL A   1      32.216  22.037  26.781  1.00  0.00    -0.356 N 
ATOM      4  C   UNL A   1      31.075  22.770  26.610  1.00  0.00     0.227 C 
ATOM      5  O   UNL A   1      30.347  22.916  27.592  1.00  0.00    -0.274 OA
ATOM      6  H   UNL A   1      32.290  21.573  27.646  1.00  0.00     0.163 HD
BRANCH   4   7
ATOM      7  C   UNL A   1      30.737  23.324  25.216  1.00  0.00     0.105 C 
ATOM      8  C   UNL A   1      31.494  22.528  24.142  1.00  0.00     0.023 C 
BRANCH   7   9
ATOM      9  C   UNL A   1      30.926  24.841  25.071  1.00  0.00    -0.035 A 
ATOM     10  C   UNL A   1      30.016  25.634  24.349  1.00  0.00     0.012 A 
ATOM     11  C   UNL A   1      32.069  25.473  25.575  1.00  0.00     0.016 A 
ATOM     12  C   UNL A   1      30.211  27.017  24.167  1.00  0.00    -0.024 A 
ATOM     13  C   UNL A   1      32.334  26.824  25.339  1.00  0.00     0.023 A 
ATOM     14  C   UNL A   1      31.390  27.599  24.662  1.00  0.00     0.020 A 
BRANCH  12  15
ATOM     15  C   UNL A   1      29.249  27.876  23.446  1.00  0.00     0.020 C 
ATOM     16  C   UNL A   1      29.341  29.208  23.306  1.00  0.00     0.106 C 
BRANCH  16  17
ATOM     17  S   UNL A   1      28.099  30.086  22.462  1.00  0.00     0.168 S 
ATOM     18  C   UNL A   1      28.446  31.752  22.971  1.00  0.00     0.163 C 
ATOM     19  O   UNL A   1      28.367  30.010  21.039  1.00  0.00    -0.225 OA
ATOM     20  O   UNL A   1      26.789  29.749  22.985  1.00  0.00    -0.225 OA
ENDBRANCH  16  17
ENDBRANCH  12  15
BRANCH  13  21
ATOM     21  C   UNL A   1      33.617  27.428  25.812  1.00  0.00     0.193 C 
ATOM     22  O   UNL A   1      34.671  26.809  25.726  1.00  0.00    -0.289 OA
BRANCH  21  23
ATOM     23  C   UNL A   1      33.628  28.805  26.376  1.00  0.00     0.022 A 
ATOM     24  C   UNL A   1      32.444  29.547  26.358  1.00  0.00     0.012 A 
ATOM     25  C   UNL A   1      34.780  29.332  26.975  1.00  0.00     0.012 A 
ATOM     26  C   UNL A   1      32.401  30.797  26.980  1.00  0.00     0.001 A 
ATOM     27  C   UNL A   1      34.730  30.578  27.602  1.00  0.00     0.001 A 
ATOM     28  C   UNL A   1      33.539  31.306  27.609  1.00  0.00     0.000 A 
ENDBRANCH  21  23
ENDBRANCH  13  21
ENDBRANCH   7   9
ENDBRANCH   4   7
ENDBRANCH   2   3
ENDBRANCH   1   2
BRANCH   1  29
ATOM     29  C   UNL A   1      35.634  22.795  25.234  1.00  0.00     0.023 C 
BRANCH  29  30
ATOM     30  C   UNL A   1      36.874  23.543  25.691  1.00  0.00     0.116 C 
BRANCH  30  31
ATOM     31  N   UNL A   1      38.043  22.681  25.792  1.00  0.00    -0.352 N 
ATOM     32  C   UNL A   1      39.288  23.007  26.280  1.00  0.00     0.251 C 
ATOM     33  H   UNL A   1      37.930  21.757  25.473  1.00  0.00     0.163 HD
ATOM     34  O   UNL A   1      40.228  22.228  26.173  1.00  0.00    -0.269 OA
BRANCH  32  35
ATOM     35  C   UNL A   1      39.464  24.332  26.902  1.00  0.00     0.039 A 
ATOM     36  C   UNL A   1      39.025  24.537  28.212  1.00  0.00     0.014 A 
ATOM     37  C   UNL A   1      40.164  25.327  26.216  1.00  0.00     0.014 A 
ATOM     38  C   UNL A   1      39.357  25.726  28.864  1.00  0.00     0.010 A 
ATOM     39  C   UNL A   1      40.566  26.468  26.897  1.00  0.00     0.010 A 
ATOM     40  C   UNL A   1      40.165  26.680  28.225  1.00  0.00    -0.014 A 
BRANCH  40  41
ATOM     41  C   UNL A   1      40.607  27.924  28.903  1.00  0.00     0.031 A 
ATOM     42  C   UNL A   1      41.943  27.954  29.589  1.00  0.00     0.074 A 
ATOM     43  C   UNL A   1      39.767  28.972  29.009  1.00  0.00     0.049 A 
ATOM     44  N   UNL A   1      42.449  28.864  30.378  1.00  0.00    -0.248 NA
ATOM     45  C   UNL A   1      42.809  26.778  29.391  1.00  0.00     0.031 C 
ATOM     46  C   UNL A   1      38.431  29.054  28.417  1.00  0.00     0.029 A 
ATOM     47  N   UNL A   1      39.908  30.163  29.678  1.00  0.00    -0.354 N 
ATOM     48  C   UNL A   1      43.671  28.357  30.801  1.00  0.00     0.074 A 
ATOM     49  C   UNL A   1      43.806  27.040  30.220  1.00  0.00     0.031 C 
ATOM     50  C   UNL A   1      37.876  30.233  28.745  1.00  0.00     0.029 A 
ATOM     51  C   UNL A   1      38.794  30.967  29.611  1.00  0.00     0.049 A 
ATOM     52  H   UNL A   1      40.727  30.417  30.160  1.00  0.00     0.167 HD
ATOM     53  C   UNL A   1      44.604  28.941  31.591  1.00  0.00     0.031 A 
ATOM     54  C   UNL A   1      38.528  32.150  30.201  1.00  0.00     0.031 A 
ATOM     55  C   UNL A   1      44.460  30.254  32.160  1.00  0.00     0.049 A 
ATOM     56  C   UNL A   1      39.570  32.783  31.081  1.00  0.00     0.074 A 
ATOM     57  C   UNL A   1      45.370  30.963  32.923  1.00  0.00     0.029 A 
ATOM     58  N   UNL A   1      43.332  31.051  32.036  1.00  0.00    -0.354 N 
ATOM     59  N   UNL A   1      40.749  32.319  31.420  1.00  0.00    -0.248 NA
ATOM     60  C   UNL A   1      39.254  34.101  31.645  1.00  0.00     0.031 C 
ATOM     61  C   UNL A   1      44.767  32.163  33.313  1.00  0.00     0.029 A 
ATOM     62  C   UNL A   1      43.511  32.235  32.730  1.00  0.00     0.049 A 
ATOM     63  H   UNL A   1      42.523  30.810  31.529  1.00  0.00     0.167 HD
ATOM     64  C   UNL A   1      41.330  33.303  32.213  1.00  0.00     0.074 A 
ATOM     65  C   UNL A   1      40.372  34.387  32.300  1.00  0.00     0.031 C 
ATOM     66  C   UNL A   1      42.550  33.309  32.805  1.00  0.00     0.031 A 
BRANCH  53  67
ATOM     67  C   UNL A   1      45.839  28.138  31.907  1.00  0.00    -0.014 A 
ATOM     68  C   UNL A   1      45.906  27.305  33.039  1.00  0.00     0.010 A 
ATOM     69  C   UNL A   1      46.960  28.230  31.061  1.00  0.00     0.010 A 
ATOM     70  C   UNL A   1      47.092  26.640  33.361  1.00  0.00     0.020 A 
ATOM     71  C   UNL A   1      48.137  27.536  31.358  1.00  0.00     0.020 A 
ATOM     72  C   UNL A   1      48.204  26.769  32.523  1.00  0.00     0.054 A 
BRANCH  72  73
ATOM     73  S   UNL A   1      49.739  25.920  32.979  1.00  0.00     0.124 S 
ATOM     74  O   UNL A   1      50.474  26.979  33.666  1.00  0.00    -0.237 OA
ATOM     75  O   UNL A   1      49.263  24.832  33.831  1.00  0.00    -0.237 OA
ATOM     76  O   UNL A   1      50.300  25.503  31.697  1.00  0.00    -0.744 OA
ENDBRANCH  72  73
ENDBRANCH  53  67
BRANCH  54  77
ATOM     77  C   UNL A   1      37.214  32.806  29.956  1.00  0.00    -0.014 A 
ATOM     78  C   UNL A   1      36.111  32.522  30.777  1.00  0.00     0.010 A 
ATOM     79  C   UNL A   1      37.082  33.774  28.942  1.00  0.00     0.010 A 
ATOM     80  C   UNL A   1      34.901  33.199  30.597  1.00  0.00     0.020 A 
ATOM     81  C   UNL A   1      35.882  34.471  28.776  1.00  0.00     0.020 A 
ATOM     82  C   UNL A   1      34.798  34.179  29.606  1.00  0.00     0.054 A 
BRANCH  82  83
ATOM     83  S   UNL A   1      33.251  35.118  29.463  1.00  0.00     0.124 S 
ATOM     84  O   UNL A   1      32.767  35.118  30.840  1.00  0.00    -0.237 OA
ATOM     85  O   UNL A   1      33.712  36.406  28.954  1.00  0.00    -0.237 OA
ATOM     86  O   UNL A   1      32.459  34.332  28.520  1.00  0.00    -0.744 OA
ENDBRANCH  82  83
ENDBRANCH  54  77
BRANCH  66  87
ATOM     87  C   UNL A   1      42.959  34.546  33.563  1.00  0.00    -0.014 A 
ATOM     88  C   UNL A   1      42.749  34.664  34.948  1.00  0.00     0.010 A 
ATOM     89  C   UNL A   1      43.657  35.564  32.885  1.00  0.00     0.010 A 
ATOM     90  C   UNL A   1      43.221  35.785  35.639  1.00  0.00     0.020 A 
ATOM     91  C   UNL A   1      44.153  36.671  33.576  1.00  0.00     0.020 A 
ATOM     92  C   UNL A   1      43.927  36.777  34.949  1.00  0.00     0.054 A 
BRANCH  92  93
ATOM     93  S   UNL A   1      44.596  38.182  35.882  1.00  0.00     0.124 S 
ATOM     94  O   UNL A   1      44.091  39.322  35.121  1.00  0.00    -0.237 OA
ATOM     95  O   UNL A   1      44.006  37.997  37.204  1.00  0.00    -0.237 OA
ATOM     96  O   UNL A   1      46.042  37.983  35.817  1.00  0.00    -0.744 OA
ENDBRANCH  92  93
ENDBRANCH  66  87
ENDBRANCH  40  41
ENDBRANCH  32  35
ENDBRANCH  30  31
ENDBRANCH  29  30
ENDBRANCH   1  29
TORSDOF 19
ENDMDL
MODEL 3
REMARK VINA RESULT:     -10.6      4.595     10.165
REMARK SMILES C[C@@H](C(=O)NCCCCNC(=O)c1ccc(-c2c3nc(c(-c4ccc(S(=O)(=O)[O-])cc4)c4ccc([nH]4)c(-c4ccc(S(=O)(=O)[O-])cc4)c4nc(c(-c5ccc(S(=O)(=O)[O-])cc5)c5ccc2[nH]5)C=C4)C=C3)cc1)c1cc(/C=C/S(C)(=O)=O)cc(C(=O)c2ccccc2)c1
REMARK SMILES IDX 7 1 6 2 5 3 3 4 4 5 2 7 1 8 73 9 74 10 92 11 75 12 83 13
REMARK SMILES IDX 82 14 76 15 77 16 78 17 79 18 80 19 81 20 84 21 85 22 86 23
REMARK SMILES IDX 87 24 91 25 88 26 90 27 89 28 8 29 9 30 10 31 11 32 12 34
REMARK SMILES IDX 13 35 14 36 72 37 15 38 71 39 16 40 17 41 18 42 65 43 19 44
REMARK SMILES IDX 70 45 64 46 66 47 20 48 69 49 63 50 62 51 21 53 51 54 32 55
REMARK SMILES IDX 50 56 33 57 36 58 49 59 67 60 34 61 35 62 48 64 68 65 37 66
REMARK SMILES IDX 22 67 23 68 31 69 24 70 30 71 25 72 26 73 27 74 28 75 29 76
REMARK SMILES IDX 52 77 53 78 61 79 54 80 60 81 55 82 56 83 57 84 58 85 59 86
REMARK SMILES IDX 38 87 39 88 47 89 40 90 46 91 41 92 42 93 43 94 44 95 45 96
REMARK H PARENT 5 6 10 33 66 52 36 63
REMARK Flexibility Score: inf
ROOT
ATOM      1  C   UNL A   1      36.106  22.328  24.544  1.00  0.00     0.023 C 
ENDROOT
BRANCH   1   2
ATOM      2  C   UNL A   1      34.626  22.663  24.338  1.00  0.00     0.116 C 
BRANCH   2   3
ATOM      3  N   UNL A   1      34.455  23.661  23.300  1.00  0.00    -0.356 N 
ATOM      4  C   UNL A   1      33.343  24.375  22.947  1.00  0.00     0.227 C 
ATOM      5  O   UNL A   1      33.408  25.047  21.918  1.00  0.00    -0.274 OA
ATOM      6  H   UNL A   1      35.261  23.854  22.768  1.00  0.00     0.163 HD
BRANCH   4   7
ATOM      7  C   UNL A   1      32.108  24.345  23.862  1.00  0.00     0.105 C 
ATOM      8  C   UNL A   1      30.994  23.516  23.205  1.00  0.00     0.023 C 
BRANCH   7   9
ATOM      9  C   UNL A   1      31.623  25.726  24.324  1.00  0.00    -0.035 A 
ATOM     10  C   UNL A   1      30.876  26.568  23.480  1.00  0.00     0.012 A 
ATOM     11  C   UNL A   1      31.994  26.235  25.574  1.00  0.00     0.016 A 
ATOM     12  C   UNL A   1      30.473  27.858  23.879  1.00  0.00    -0.024 A 
ATOM     13  C   UNL A   1      31.683  27.540  25.965  1.00  0.00     0.023 A 
ATOM     14  C   UNL A   1      30.898  28.337  25.130  1.00  0.00     0.020 A 
BRANCH  12  15
ATOM     15  C   UNL A   1      29.654  28.743  23.025  1.00  0.00     0.020 C 
ATOM     16  C   UNL A   1      29.631  30.084  23.083  1.00  0.00     0.106 C 
BRANCH  16  17
ATOM     17  S   UNL A   1      28.577  30.986  22.035  1.00  0.00     0.168 S 
ATOM     18  C   UNL A   1      27.251  31.395  23.144  1.00  0.00     0.163 C 
ATOM     19  O   UNL A   1      29.234  32.230  21.679  1.00  0.00    -0.225 OA
ATOM     20  O   UNL A   1      28.019  30.127  21.008  1.00  0.00    -0.225 OA
ENDBRANCH  16  17
ENDBRANCH  12  15
BRANCH  13  21
ATOM     21  C   UNL A   1      32.188  28.070  27.268  1.00  0.00     0.193 C 
ATOM     22  O   UNL A   1      31.703  27.693  28.329  1.00  0.00    -0.289 OA
BRANCH  21  23
ATOM     23  C   UNL A   1      33.306  29.051  27.290  1.00  0.00     0.022 A 
ATOM     24  C   UNL A   1      33.006  30.407  27.445  1.00  0.00     0.012 A 
ATOM     25  C   UNL A   1      34.641  28.628  27.225  1.00  0.00     0.012 A 
ATOM     26  C   UNL A   1      34.043  31.334  27.581  1.00  0.00     0.001 A 
ATOM     27  C   UNL A   1      35.673  29.558  27.368  1.00  0.00     0.001 A 
ATOM     28  C   UNL A   1      35.372  30.908  27.553  1.00  0.00     0.000 A 
ENDBRANCH  21  23
ENDBRANCH  13  21
ENDBRANCH   7   9
ENDBRANCH   4   7
ENDBRANCH   2   3
ENDBRANCH   1   2
BRANCH   1  29
ATOM     29  C   UNL A   1      37.021  23.544  24.653  1.00  0.00     0.023 C 
BRANCH  29  30
ATOM     30  C   UNL A   1      37.659  23.726  26.019  1.00  0.00     0.116 C 
BRANCH  30  31
ATOM     31  N   UNL A   1      38.427  22.563  26.440  1.00  0.00    -0.352 N 
ATOM     32  C   UNL A   1      39.732  22.529  26.874  1.00  0.00     0.251 C 
ATOM     33  H   UNL A   1      37.956  21.698  26.409  1.00  0.00     0.163 HD
ATOM     34  O   UNL A   1      40.305  21.461  27.060  1.00  0.00    -0.269 OA
BRANCH  32  35
ATOM     35  C   UNL A   1      40.429  23.813  27.075  1.00  0.00     0.039 A 
ATOM     36  C   UNL A   1      40.303  24.818  26.115  1.00  0.00     0.014 A 
ATOM     37  C   UNL A   1      41.113  24.044  28.271  1.00  0.00     0.014 A 
ATOM     38  C   UNL A   1      40.806  26.091  26.390  1.00  0.00     0.010 A 
ATOM     39  C   UNL A   1      41.532  25.331  28.576  1.00  0.00     0.010 A 
ATOM     40  C   UNL A   1      41.386  26.366  27.639  1.00  0.00    -0.014 A 
BRANCH  40  41
ATOM     41  C   UNL A   1      41.865  27.721  28.008  1.00  0.00     0.031 A 
ATOM     42  C   UNL A   1      43.341  28.007  28.003  1.00  0.00     0.074 A 
ATOM     43  C   UNL A   1      40.998  28.646  28.462  1.00  0.00     0.049 A 
ATOM     44  N   UNL A   1      43.984  29.053  28.450  1.00  0.00    -0.248 NA
ATOM     45  C   UNL A   1      44.211  26.951  27.458  1.00  0.00     0.031 C 
ATOM     46  C   UNL A   1      39.546  28.480  28.549  1.00  0.00     0.029 A 
ATOM     47  N   UNL A   1      41.219  29.906  28.963  1.00  0.00    -0.354 N 
ATOM     48  C   UNL A   1      45.332  28.768  28.275  1.00  0.00     0.074 A 
ATOM     49  C   UNL A   1      45.414  27.431  27.730  1.00  0.00     0.031 C 
ATOM     50  C   UNL A   1      39.006  29.596  29.066  1.00  0.00     0.029 A 
ATOM     51  C   UNL A   1      40.074  30.534  29.396  1.00  0.00     0.049 A 
ATOM     52  H   UNL A   1      42.111  30.319  29.009  1.00  0.00     0.167 HD
ATOM     53  C   UNL A   1      46.405  29.553  28.535  1.00  0.00     0.031 A 
ATOM     54  C   UNL A   1      39.904  31.721  30.013  1.00  0.00     0.031 A 
ATOM     55  C   UNL A   1      46.311  30.882  29.075  1.00  0.00     0.049 A 
ATOM     56  C   UNL A   1      41.106  32.578  30.300  1.00  0.00     0.074 A 
ATOM     57  C   UNL A   1      47.330  31.785  29.317  1.00  0.00     0.029 A 
ATOM     58  N   UNL A   1      45.129  31.496  29.463  1.00  0.00    -0.354 N 
ATOM     59  N   UNL A   1      42.371  32.321  30.072  1.00  0.00    -0.248 NA
ATOM     60  C   UNL A   1      40.856  33.889  30.916  1.00  0.00     0.031 C 
ATOM     61  C   UNL A   1      46.772  32.921  29.911  1.00  0.00     0.029 A 
ATOM     62  C   UNL A   1      45.396  32.757  29.968  1.00  0.00     0.049 A 
ATOM     63  H   UNL A   1      44.233  31.095  29.390  1.00  0.00     0.167 HD
ATOM     64  C   UNL A   1      43.069  33.450  30.486  1.00  0.00     0.074 A 
ATOM     65  C   UNL A   1      42.082  34.393  30.977  1.00  0.00     0.031 C 
ATOM     66  C   UNL A   1      44.404  33.687  30.451  1.00  0.00     0.031 A 
BRANCH  53  67
ATOM     67  C   UNL A   1      47.767  28.967  28.267  1.00  0.00    -0.014 A 
ATOM     68  C   UNL A   1      48.480  28.275  29.264  1.00  0.00     0.010 A 
ATOM     69  C   UNL A   1      48.351  29.123  26.997  1.00  0.00     0.010 A 
ATOM     70  C   UNL A   1      49.778  27.819  29.021  1.00  0.00     0.020 A 
ATOM     71  C   UNL A   1      49.635  28.635  26.737  1.00  0.00     0.020 A 
ATOM     72  C   UNL A   1      50.351  28.012  27.760  1.00  0.00     0.054 A 
BRANCH  72  73
ATOM     73  S   UNL A   1      52.047  27.437  27.480  1.00  0.00     0.124 S 
ATOM     74  O   UNL A   1      51.944  26.837  26.152  1.00  0.00    -0.237 OA
ATOM     75  O   UNL A   1      52.821  28.674  27.551  1.00  0.00    -0.237 OA
ATOM     76  O   UNL A   1      52.280  26.496  28.572  1.00  0.00    -0.744 OA
ENDBRANCH  72  73
ENDBRANCH  53  67
BRANCH  54  77
ATOM     77  C   UNL A   1      38.530  32.158  30.383  1.00  0.00    -0.014 A 
ATOM     78  C   UNL A   1      37.995  31.841  31.643  1.00  0.00     0.010 A 
ATOM     79  C   UNL A   1      37.777  32.957  29.502  1.00  0.00     0.010 A 
ATOM     80  C   UNL A   1      36.737  32.321  32.020  1.00  0.00     0.020 A 
ATOM     81  C   UNL A   1      36.531  33.460  29.885  1.00  0.00     0.020 A 
ATOM     82  C   UNL A   1      36.019  33.139  31.143  1.00  0.00     0.054 A 
BRANCH  82  83
ATOM     83  S   UNL A   1      34.437  33.836  31.698  1.00  0.00     0.124 S 
ATOM     84  O   UNL A   1      34.870  34.998  32.467  1.00  0.00    -0.237 OA
ATOM     85  O   UNL A   1      33.763  34.126  30.436  1.00  0.00    -0.237 OA
ATOM     86  O   UNL A   1      33.841  32.754  32.478  1.00  0.00    -0.744 OA
ENDBRANCH  82  83
ENDBRANCH  54  77
BRANCH  66  87
ATOM     87  C   UNL A   1      44.891  35.038  30.906  1.00  0.00    -0.014 A 
ATOM     88  C   UNL A   1      44.940  36.137  30.031  1.00  0.00     0.010 A 
ATOM     89  C   UNL A   1      45.209  35.228  32.265  1.00  0.00     0.010 A 
ATOM     90  C   UNL A   1      45.310  37.400  30.506  1.00  0.00     0.020 A 
ATOM     91  C   UNL A   1      45.552  36.493  32.748  1.00  0.00     0.020 A 
ATOM     92  C   UNL A   1      45.606  37.570  31.863  1.00  0.00     0.054 A 
BRANCH  92  93
ATOM     93  S   UNL A   1      46.007  39.234  32.468  1.00  0.00     0.124 S 
ATOM     94  O   UNL A   1      44.887  40.021  31.958  1.00  0.00    -0.237 OA
ATOM     95  O   UNL A   1      46.037  39.048  33.916  1.00  0.00    -0.237 OA
ATOM     96  O   UNL A   1      47.301  39.523  31.855  1.00  0.00    -0.744 OA
ENDBRANCH  92  93
ENDBRANCH  66  87
ENDBRANCH  40  41
ENDBRANCH  32  35
ENDBRANCH  30  31
ENDBRANCH  29  30
ENDBRANCH   1  29
TORSDOF 19
ENDMDL
