MODEL 1
REMARK VINA RESULT:     -11.3      0.000      0.000
REMARK SMILES COc1cc2c(cc1OC)C1=C(C#N)C[N@@H+](CC(=O)NCCCCNC(=O)c3ccc(-c4c5nc(c(-c6ccc(S(=O)(=O)[O-])cc6)c6ccc([nH]6)c(-c6ccc(S(=O)(=O)[O-])cc6)c6nc(c(-c7ccc(S(=O)(=O)[O-])cc7)c7ccc4[nH]7)C=C6)C=C5)cc3)CN1CC2
REMARK SMILES IDX 23 1 22 2 21 3 20 4 18 5 19 6 17 8 16 9 3 10 4 11 8 12 5 13
REMARK SMILES IDX 7 14 6 15 91 16 11 17 90 18 12 19 89 20 15 21 88 22 2 24
REMARK SMILES IDX 1 25 9 26 10 27 13 28 14 29 24 30 25 31 26 32 27 34 28 35
REMARK SMILES IDX 29 36 87 37 30 38 86 39 31 40 32 41 33 42 80 43 34 44 85 45
REMARK SMILES IDX 79 46 81 47 35 48 84 49 78 50 77 51 36 53 66 54 47 55 65 56
REMARK SMILES IDX 48 57 51 58 64 59 82 60 49 61 50 62 63 64 83 65 52 66 37 67
REMARK SMILES IDX 38 68 46 69 39 70 45 71 40 72 41 73 42 74 43 75 44 76 67 77
REMARK SMILES IDX 68 78 76 79 69 80 75 81 70 82 71 83 72 84 73 85 74 86 53 87
REMARK SMILES IDX 54 88 62 89 55 90 61 91 56 92 57 93 58 94 59 95 60 96
REMARK H PARENT 20 7 16 23 25 33 81 52 51 63
REMARK Flexibility Score: inf
ROOT
ATOM      1  C   UNL A   1      37.816  22.189  25.384  1.00  0.00     0.023 C 
ENDROOT
BRANCH   1   2
ATOM      2  C   UNL A   1      37.171  23.485  25.844  1.00  0.00     0.023 C 
BRANCH   2   3
ATOM      3  C   UNL A   1      35.657  23.554  25.811  1.00  0.00     0.116 C 
BRANCH   3   4
ATOM      4  N   UNL A   1      35.101  22.374  26.456  1.00  0.00    -0.351 N 
ATOM      5  C   UNL A   1      34.211  21.459  25.957  1.00  0.00     0.275 C 
ATOM      6  O   UNL A   1      33.742  20.626  26.739  1.00  0.00    -0.269 OA
ATOM      7  H   UNL A   1      35.405  22.211  27.379  1.00  0.00     0.163 HD
BRANCH   5   8
ATOM      8  C   UNL A   1      33.899  21.408  24.452  1.00  0.00     0.365 C 
BRANCH   8   9
ATOM      9  N   UNL A   1      32.594  21.922  24.003  1.00  0.00    -0.306 N 
ATOM     10  C   UNL A   1      31.426  29.044  24.872  1.00  0.00     0.161 A 
ATOM     11  C   UNL A   1      31.713  28.147  25.908  1.00  0.00     0.055 A 
ATOM     12  C   UNL A   1      31.240  28.546  23.580  1.00  0.00     0.161 A 
ATOM     13  C   UNL A   1      31.860  26.769  25.654  1.00  0.00    -0.033 A 
ATOM     14  C   UNL A   1      31.382  27.169  23.341  1.00  0.00     0.061 A 
ATOM     15  C   UNL A   1      31.773  26.265  24.342  1.00  0.00     0.006 A 
ATOM     16  C   UNL A   1      32.076  25.806  26.796  1.00  0.00     0.058 C 
ATOM     17  C   UNL A   1      32.005  24.794  24.108  1.00  0.00     0.068 C 
ATOM     18  C   UNL A   1      31.350  24.486  26.507  1.00  0.00     0.127 C 
ATOM     19  C   UNL A   1      32.471  24.244  22.961  1.00  0.00     0.108 C 
ATOM     20  N   UNL A   1      31.767  23.957  25.206  1.00  0.00    -0.323 N 
ATOM     21  C   UNL A   1      32.598  22.747  22.793  1.00  0.00     0.314 C 
ATOM     22  C   UNL A   1      31.748  22.510  25.037  1.00  0.00     0.390 C 
ATOM     23  H   UNL A   1      32.153  21.042  23.738  1.00  0.00     0.350 HD
BRANCH  10  24
ATOM     24  O   UNL A   1      31.181  30.367  25.124  1.00  0.00    -0.493 OA
ATOM     25  C   UNL A   1      31.715  30.846  26.359  1.00  0.00     0.278 C 
ENDBRANCH  10  24
BRANCH  12  26
ATOM     26  O   UNL A   1      30.880  29.257  22.463  1.00  0.00    -0.493 OA
ATOM     27  C   UNL A   1      29.485  29.395  22.213  1.00  0.00     0.278 C 
ENDBRANCH  12  26
BRANCH  19  28
ATOM     28  C   UNL A   1      32.885  25.122  21.790  1.00  0.00     0.103 C 
ATOM     29  N   UNL A   1      33.228  25.849  20.820  1.00  0.00    -0.192 NA
ENDBRANCH  19  28
ENDBRANCH   8   9
ENDBRANCH   5   8
ENDBRANCH   3   4
ENDBRANCH   2   3
ENDBRANCH   1   2
BRANCH   1  30
ATOM     30  C   UNL A   1      39.101  21.883  26.126  1.00  0.00     0.116 C 
BRANCH  30  31
ATOM     31  N   UNL A   1      39.626  20.529  25.946  1.00  0.00    -0.352 N 
ATOM     32  C   UNL A   1      40.923  20.089  26.142  1.00  0.00     0.251 C 
ATOM     33  H   UNL A   1      38.978  19.850  25.649  1.00  0.00     0.163 HD
ATOM     34  O   UNL A   1      41.237  18.913  26.001  1.00  0.00    -0.269 OA
BRANCH  32  35
ATOM     35  C   UNL A   1      41.955  21.104  26.428  1.00  0.00     0.039 A 
ATOM     36  C   UNL A   1      42.259  21.420  27.749  1.00  0.00     0.014 A 
ATOM     37  C   UNL A   1      42.432  21.893  25.378  1.00  0.00     0.014 A 
ATOM     38  C   UNL A   1      42.773  22.674  28.027  1.00  0.00     0.010 A 
ATOM     39  C   UNL A   1      43.098  23.086  25.666  1.00  0.00     0.010 A 
ATOM     40  C   UNL A   1      43.195  23.531  26.993  1.00  0.00    -0.014 A 
BRANCH  40  41
ATOM     41  C   UNL A   1      43.695  24.890  27.336  1.00  0.00     0.031 A 
ATOM     42  C   UNL A   1      45.121  25.293  27.052  1.00  0.00     0.074 A 
ATOM     43  C   UNL A   1      42.827  25.798  27.827  1.00  0.00     0.049 A 
ATOM     44  N   UNL A   1      45.719  26.425  27.329  1.00  0.00    -0.248 NA
ATOM     45  C   UNL A   1      45.993  24.311  26.384  1.00  0.00     0.031 C 
ATOM     46  C   UNL A   1      41.412  25.541  28.106  1.00  0.00     0.029 A 
ATOM     47  N   UNL A   1      42.986  27.127  28.126  1.00  0.00    -0.354 N 
ATOM     48  C   UNL A   1      47.042  26.270  26.927  1.00  0.00     0.074 A 
ATOM     49  C   UNL A   1      47.164  24.936  26.382  1.00  0.00     0.031 C 
ATOM     50  C   UNL A   1      40.810  26.692  28.424  1.00  0.00     0.029 A 
ATOM     51  C   UNL A   1      41.815  27.745  28.498  1.00  0.00     0.049 A 
ATOM     52  H   UNL A   1      43.852  27.592  28.080  1.00  0.00     0.167 HD
ATOM     53  C   UNL A   1      48.057  27.161  27.010  1.00  0.00     0.031 A 
ATOM     54  C   UNL A   1      41.568  29.010  28.890  1.00  0.00     0.031 A 
ATOM     55  C   UNL A   1      47.911  28.506  27.499  1.00  0.00     0.049 A 
ATOM     56  C   UNL A   1      42.709  29.970  28.997  1.00  0.00     0.074 A 
ATOM     57  C   UNL A   1      48.878  29.491  27.598  1.00  0.00     0.029 A 
ATOM     58  N   UNL A   1      46.726  29.062  27.956  1.00  0.00    -0.354 N 
ATOM     59  N   UNL A   1      43.964  29.783  28.671  1.00  0.00    -0.248 NA
ATOM     60  C   UNL A   1      42.416  31.295  29.559  1.00  0.00     0.031 C 
ATOM     61  C   UNL A   1      48.288  30.626  28.160  1.00  0.00     0.029 A 
ATOM     62  C   UNL A   1      46.942  30.366  28.362  1.00  0.00     0.049 A 
ATOM     63  H   UNL A   1      45.859  28.596  27.988  1.00  0.00     0.167 HD
ATOM     64  C   UNL A   1      44.620  30.958  29.008  1.00  0.00     0.074 A 
ATOM     65  C   UNL A   1      43.617  31.863  29.534  1.00  0.00     0.031 C 
ATOM     66  C   UNL A   1      45.939  31.248  28.903  1.00  0.00     0.031 A 
BRANCH  53  67
ATOM     67  C   UNL A   1      49.436  26.723  26.587  1.00  0.00    -0.014 A 
ATOM     68  C   UNL A   1      49.859  26.962  25.265  1.00  0.00     0.010 A 
ATOM     69  C   UNL A   1      50.263  25.980  27.446  1.00  0.00     0.010 A 
ATOM     70  C   UNL A   1      51.073  26.450  24.802  1.00  0.00     0.020 A 
ATOM     71  C   UNL A   1      51.490  25.483  26.991  1.00  0.00     0.020 A 
ATOM     72  C   UNL A   1      51.878  25.706  25.667  1.00  0.00     0.054 A 
BRANCH  72  73
ATOM     73  S   UNL A   1      53.456  25.046  25.059  1.00  0.00     0.124 S 
ATOM     74  O   UNL A   1      53.283  23.609  25.250  1.00  0.00    -0.237 OA
ATOM     75  O   UNL A   1      53.486  25.501  23.672  1.00  0.00    -0.237 OA
ATOM     76  O   UNL A   1      54.441  25.682  25.932  1.00  0.00    -0.744 OA
ENDBRANCH  72  73
ENDBRANCH  53  67
BRANCH  54  77
ATOM     77  C   UNL A   1      40.169  29.383  29.233  1.00  0.00    -0.014 A 
ATOM     78  C   UNL A   1      39.271  29.758  28.215  1.00  0.00     0.010 A 
ATOM     79  C   UNL A   1      39.786  29.530  30.575  1.00  0.00     0.010 A 
ATOM     80  C   UNL A   1      38.053  30.361  28.533  1.00  0.00     0.020 A 
ATOM     81  C   UNL A   1      38.553  30.105  30.898  1.00  0.00     0.020 A 
ATOM     82  C   UNL A   1      37.715  30.556  29.874  1.00  0.00     0.054 A 
BRANCH  82  83
ATOM     83  S   UNL A   1      36.181  31.440  30.271  1.00  0.00     0.124 S 
ATOM     84  O   UNL A   1      35.799  30.815  31.536  1.00  0.00    -0.237 OA
ATOM     85  O   UNL A   1      36.620  32.829  30.363  1.00  0.00    -0.237 OA
ATOM     86  O   UNL A   1      35.314  31.137  29.135  1.00  0.00    -0.744 OA
ENDBRANCH  82  83
ENDBRANCH  54  77
BRANCH  66  87
ATOM     87  C   UNL A   1      46.403  32.590  29.390  1.00  0.00    -0.014 A 
ATOM     88  C   UNL A   1      46.388  33.695  28.520  1.00  0.00     0.010 A 
ATOM     89  C   UNL A   1      46.987  32.718  30.661  1.00  0.00     0.010 A 
ATOM     90  C   UNL A   1      46.987  34.898  28.899  1.00  0.00     0.020 A 
ATOM     91  C   UNL A   1      47.571  33.926  31.051  1.00  0.00     0.020 A 
ATOM     92  C   UNL A   1      47.589  35.000  30.157  1.00  0.00     0.054 A 
BRANCH  92  93
ATOM     93  S   UNL A   1      48.407  36.552  30.612  1.00  0.00     0.124 S 
ATOM     94  O   UNL A   1      48.076  36.669  32.029  1.00  0.00    -0.237 OA
ATOM     95  O   UNL A   1      49.812  36.278  30.315  1.00  0.00    -0.237 OA
ATOM     96  O   UNL A   1      47.777  37.539  29.739  1.00  0.00    -0.744 OA
ENDBRANCH  92  93
ENDBRANCH  66  87
ENDBRANCH  40  41
ENDBRANCH  32  35
ENDBRANCH  30  31
ENDBRANCH   1  30
TORSDOF 18
ENDMDL
MODEL 2
REMARK VINA RESULT:     -11.1      3.053      4.233
REMARK SMILES COc1cc2c(cc1OC)C1=C(C#N)C[N@@H+](CC(=O)NCCCCNC(=O)c3ccc(-c4c5nc(c(-c6ccc(S(=O)(=O)[O-])cc6)c6ccc([nH]6)c(-c6ccc(S(=O)(=O)[O-])cc6)c6nc(c(-c7ccc(S(=O)(=O)[O-])cc7)c7ccc4[nH]7)C=C6)C=C5)cc3)CN1CC2
REMARK SMILES IDX 23 1 22 2 21 3 20 4 18 5 19 6 17 8 16 9 3 10 4 11 8 12 5 13
REMARK SMILES IDX 7 14 6 15 91 16 11 17 90 18 12 19 89 20 15 21 88 22 2 24
REMARK SMILES IDX 1 25 9 26 10 27 13 28 14 29 24 30 25 31 26 32 27 34 28 35
REMARK SMILES IDX 29 36 87 37 30 38 86 39 31 40 32 41 33 42 80 43 34 44 85 45
REMARK SMILES IDX 79 46 81 47 35 48 84 49 78 50 77 51 36 53 66 54 47 55 65 56
REMARK SMILES IDX 48 57 51 58 64 59 82 60 49 61 50 62 63 64 83 65 52 66 37 67
REMARK SMILES IDX 38 68 46 69 39 70 45 71 40 72 41 73 42 74 43 75 44 76 67 77
REMARK SMILES IDX 68 78 76 79 69 80 75 81 70 82 71 83 72 84 73 85 74 86 53 87
REMARK SMILES IDX 54 88 62 89 55 90 61 91 56 92 57 93 58 94 59 95 60 96
REMARK H PARENT 20 7 16 23 25 33 81 52 51 63
REMARK Flexibility Score: inf
ROOT
ATOM      1  C   UNL A   1      36.520  22.674  24.787  1.00  0.00     0.023 C 
ENDROOT
BRANCH   1   2
ATOM      2  C   UNL A   1      35.414  21.642  24.651  1.00  0.00     0.023 C 
BRANCH   2   3
ATOM      3  C   UNL A   1      35.800  20.186  24.824  1.00  0.00     0.116 C 
BRANCH   3   4
ATOM      4  N   UNL A   1      34.661  19.437  25.332  1.00  0.00    -0.351 N 
ATOM      5  C   UNL A   1      33.362  19.444  24.894  1.00  0.00     0.275 C 
ATOM      6  O   UNL A   1      32.520  18.857  25.582  1.00  0.00    -0.269 OA
ATOM      7  H   UNL A   1      34.849  18.844  26.096  1.00  0.00     0.163 HD
BRANCH   5   8
ATOM      8  C   UNL A   1      32.995  20.066  23.538  1.00  0.00     0.365 C 
BRANCH   8   9
ATOM      9  N   UNL A   1      31.907  21.059  23.509  1.00  0.00    -0.306 N 
ATOM     10  C   UNL A   1      33.693  27.897  25.208  1.00  0.00     0.161 A 
ATOM     11  C   UNL A   1      33.858  26.793  26.052  1.00  0.00     0.055 A 
ATOM     12  C   UNL A   1      33.042  27.720  23.984  1.00  0.00     0.161 A 
ATOM     13  C   UNL A   1      33.422  25.511  25.662  1.00  0.00    -0.033 A 
ATOM     14  C   UNL A   1      32.605  26.438  23.610  1.00  0.00     0.061 A 
ATOM     15  C   UNL A   1      32.854  25.298  24.392  1.00  0.00     0.006 A 
ATOM     16  C   UNL A   1      33.524  24.350  26.623  1.00  0.00     0.058 C 
ATOM     17  C   UNL A   1      32.463  23.898  23.992  1.00  0.00     0.068 C 
ATOM     18  C   UNL A   1      32.315  23.422  26.447  1.00  0.00     0.127 C 
ATOM     19  C   UNL A   1      32.415  23.428  22.721  1.00  0.00     0.108 C 
ATOM     20  N   UNL A   1      32.193  23.016  25.045  1.00  0.00    -0.323 N 
ATOM     21  C   UNL A   1      31.936  22.028  22.411  1.00  0.00     0.314 C 
ATOM     22  C   UNL A   1      31.602  21.711  24.778  1.00  0.00     0.390 C 
ATOM     23  H   UNL A   1      31.123  20.438  23.310  1.00  0.00     0.350 HD
BRANCH  10  24
ATOM     24  O   UNL A   1      34.020  29.162  25.618  1.00  0.00    -0.493 OA
ATOM     25  C   UNL A   1      33.214  29.669  26.681  1.00  0.00     0.278 C 
ENDBRANCH  10  24
BRANCH  12  26
ATOM     26  O   UNL A   1      32.723  28.691  23.068  1.00  0.00    -0.493 OA
ATOM     27  C   UNL A   1      31.337  28.914  22.827  1.00  0.00     0.278 C 
ENDBRANCH  12  26
BRANCH  19  28
ATOM     28  C   UNL A   1      32.841  24.302  21.552  1.00  0.00     0.103 C 
ATOM     29  N   UNL A   1      33.195  25.026  20.583  1.00  0.00    -0.192 NA
ENDBRANCH  19  28
ENDBRANCH   8   9
ENDBRANCH   5   8
ENDBRANCH   3   4
ENDBRANCH   2   3
ENDBRANCH   1   2
BRANCH   1  30
ATOM     30  C   UNL A   1      37.190  22.635  26.146  1.00  0.00     0.116 C 
BRANCH  30  31
ATOM     31  N   UNL A   1      38.561  22.123  26.157  1.00  0.00    -0.352 N 
ATOM     32  C   UNL A   1      39.699  22.760  26.619  1.00  0.00     0.251 C 
ATOM     33  H   UNL A   1      38.688  21.218  25.793  1.00  0.00     0.163 HD
ATOM     34  O   UNL A   1      40.795  22.209  26.620  1.00  0.00    -0.269 OA
BRANCH  32  35
ATOM     35  C   UNL A   1      39.579  24.174  27.023  1.00  0.00     0.039 A 
ATOM     36  C   UNL A   1      39.977  25.175  26.142  1.00  0.00     0.014 A 
ATOM     37  C   UNL A   1      39.295  24.470  28.359  1.00  0.00     0.014 A 
ATOM     38  C   UNL A   1      40.379  26.392  26.664  1.00  0.00     0.010 A 
ATOM     39  C   UNL A   1      39.552  25.754  28.844  1.00  0.00     0.010 A 
ATOM     40  C   UNL A   1      40.181  26.701  28.022  1.00  0.00    -0.014 A 
BRANCH  40  41
ATOM     41  C   UNL A   1      40.673  28.001  28.550  1.00  0.00     0.031 A 
ATOM     42  C   UNL A   1      42.148  28.276  28.704  1.00  0.00     0.074 A 
ATOM     43  C   UNL A   1      39.779  28.978  28.810  1.00  0.00     0.049 A 
ATOM     44  N   UNL A   1      42.735  29.343  29.187  1.00  0.00    -0.248 NA
ATOM     45  C   UNL A   1      43.091  27.228  28.273  1.00  0.00     0.031 C 
ATOM     46  C   UNL A   1      38.328  28.849  28.662  1.00  0.00     0.029 A 
ATOM     47  N   UNL A   1      39.956  30.281  29.198  1.00  0.00    -0.354 N 
ATOM     48  C   UNL A   1      44.099  29.073  29.175  1.00  0.00     0.074 A 
ATOM     49  C   UNL A   1      44.261  27.742  28.632  1.00  0.00     0.031 C 
ATOM     50  C   UNL A   1      37.759  30.046  28.842  1.00  0.00     0.029 A 
ATOM     51  C   UNL A   1      38.784  31.000  29.244  1.00  0.00     0.049 A 
ATOM     52  H   UNL A   1      40.834  30.665  29.421  1.00  0.00     0.167 HD
ATOM     53  C   UNL A   1      45.118  29.865  29.582  1.00  0.00     0.031 A 
ATOM     54  C   UNL A   1      38.541  32.275  29.602  1.00  0.00     0.031 A 
ATOM     55  C   UNL A   1      44.950  31.209  30.065  1.00  0.00     0.049 A 
ATOM     56  C   UNL A   1      39.679  33.124  30.072  1.00  0.00     0.074 A 
ATOM     57  C   UNL A   1      45.927  32.099  30.478  1.00  0.00     0.029 A 
ATOM     58  N   UNL A   1      43.735  31.865  30.187  1.00  0.00    -0.354 N 
ATOM     59  N   UNL A   1      40.955  32.827  30.111  1.00  0.00    -0.248 NA
ATOM     60  C   UNL A   1      39.349  34.461  30.581  1.00  0.00     0.031 C 
ATOM     61  C   UNL A   1      45.297  33.275  30.895  1.00  0.00     0.029 A 
ATOM     62  C   UNL A   1      43.934  33.137  30.692  1.00  0.00     0.049 A 
ATOM     63  H   UNL A   1      42.860  31.481  29.949  1.00  0.00     0.167 HD
ATOM     64  C   UNL A   1      41.582  33.931  30.671  1.00  0.00     0.074 A 
ATOM     65  C   UNL A   1      40.550  34.916  30.924  1.00  0.00     0.031 C 
ATOM     66  C   UNL A   1      42.894  34.099  30.959  1.00  0.00     0.031 A 
BRANCH  53  67
ATOM     67  C   UNL A   1      46.519  29.308  29.554  1.00  0.00    -0.014 A 
ATOM     68  C   UNL A   1      47.277  29.414  28.372  1.00  0.00     0.010 A 
ATOM     69  C   UNL A   1      47.041  28.584  30.638  1.00  0.00     0.010 A 
ATOM     70  C   UNL A   1      48.523  28.790  28.266  1.00  0.00     0.020 A 
ATOM     71  C   UNL A   1      48.297  27.976  30.544  1.00  0.00     0.020 A 
ATOM     72  C   UNL A   1      49.021  28.067  29.352  1.00  0.00     0.054 A 
BRANCH  72  73
ATOM     73  S   UNL A   1      50.642  27.262  29.210  1.00  0.00     0.124 S 
ATOM     74  O   UNL A   1      51.422  27.957  30.230  1.00  0.00    -0.237 OA
ATOM     75  O   UNL A   1      50.335  25.862  29.492  1.00  0.00    -0.237 OA
ATOM     76  O   UNL A   1      51.030  27.536  27.827  1.00  0.00    -0.744 OA
ENDBRANCH  72  73
ENDBRANCH  53  67
BRANCH  54  77
ATOM     77  C   UNL A   1      37.140  32.771  29.546  1.00  0.00    -0.014 A 
ATOM     78  C   UNL A   1      36.599  33.216  28.323  1.00  0.00     0.010 A 
ATOM     79  C   UNL A   1      36.409  32.959  30.729  1.00  0.00     0.010 A 
ATOM     80  C   UNL A   1      35.396  33.924  28.298  1.00  0.00     0.020 A 
ATOM     81  C   UNL A   1      35.188  33.642  30.703  1.00  0.00     0.020 A 
ATOM     82  C   UNL A   1      34.713  34.157  29.494  1.00  0.00     0.054 A 
BRANCH  82  83
ATOM     83  S   UNL A   1      33.211  35.173  29.461  1.00  0.00     0.124 S 
ATOM     84  O   UNL A   1      32.679  34.958  30.805  1.00  0.00    -0.237 OA
ATOM     85  O   UNL A   1      33.729  36.512  29.196  1.00  0.00    -0.237 OA
ATOM     86  O   UNL A   1      32.430  34.584  28.376  1.00  0.00    -0.744 OA
ENDBRANCH  82  83
ENDBRANCH  54  77
BRANCH  66  87
ATOM     87  C   UNL A   1      43.309  35.385  31.615  1.00  0.00    -0.014 A 
ATOM     88  C   UNL A   1      43.076  35.577  32.988  1.00  0.00     0.010 A 
ATOM     89  C   UNL A   1      43.795  36.450  30.839  1.00  0.00     0.010 A 
ATOM     90  C   UNL A   1      43.284  36.830  33.569  1.00  0.00     0.020 A 
ATOM     91  C   UNL A   1      44.023  37.700  31.422  1.00  0.00     0.020 A 
ATOM     92  C   UNL A   1      43.741  37.887  32.777  1.00  0.00     0.054 A 
BRANCH  92  93
ATOM     93  S   UNL A   1      43.958  39.519  33.537  1.00  0.00     0.124 S 
ATOM     94  O   UNL A   1      42.678  39.715  34.211  1.00  0.00    -0.237 OA
ATOM     95  O   UNL A   1      45.108  39.317  34.415  1.00  0.00    -0.237 OA
ATOM     96  O   UNL A   1      44.205  40.397  32.395  1.00  0.00    -0.744 OA
ENDBRANCH  92  93
ENDBRANCH  66  87
ENDBRANCH  40  41
ENDBRANCH  32  35
ENDBRANCH  30  31
ENDBRANCH   1  30
TORSDOF 18
ENDMDL
MODEL 3
REMARK VINA RESULT:     -11.0      0.780      7.960
REMARK SMILES COc1cc2c(cc1OC)C1=C(C#N)C[N@@H+](CC(=O)NCCCCNC(=O)c3ccc(-c4c5nc(c(-c6ccc(S(=O)(=O)[O-])cc6)c6ccc([nH]6)c(-c6ccc(S(=O)(=O)[O-])cc6)c6nc(c(-c7ccc(S(=O)(=O)[O-])cc7)c7ccc4[nH]7)C=C6)C=C5)cc3)CN1CC2
REMARK SMILES IDX 23 1 22 2 21 3 20 4 18 5 19 6 17 8 16 9 3 10 4 11 8 12 5 13
REMARK SMILES IDX 7 14 6 15 91 16 11 17 90 18 12 19 89 20 15 21 88 22 2 24
REMARK SMILES IDX 1 25 9 26 10 27 13 28 14 29 24 30 25 31 26 32 27 34 28 35
REMARK SMILES IDX 29 36 87 37 30 38 86 39 31 40 32 41 33 42 80 43 34 44 85 45
REMARK SMILES IDX 79 46 81 47 35 48 84 49 78 50 77 51 36 53 66 54 47 55 65 56
REMARK SMILES IDX 48 57 51 58 64 59 82 60 49 61 50 62 63 64 83 65 52 66 37 67
REMARK SMILES IDX 38 68 46 69 39 70 45 71 40 72 41 73 42 74 43 75 44 76 67 77
REMARK SMILES IDX 68 78 76 79 69 80 75 81 70 82 71 83 72 84 73 85 74 86 53 87
REMARK SMILES IDX 54 88 62 89 55 90 61 91 56 92 57 93 58 94 59 95 60 96
REMARK H PARENT 20 7 16 23 25 33 81 52 51 63
REMARK Flexibility Score: inf
ROOT
ATOM      1  C   UNL A   1      38.125  22.318  25.283  1.00  0.00     0.023 C 
ENDROOT
BRANCH   1   2
ATOM      2  C   UNL A   1      37.236  23.424  25.825  1.00  0.00     0.023 C 
BRANCH   2   3
ATOM      3  C   UNL A   1      35.754  23.338  25.514  1.00  0.00     0.116 C 
BRANCH   3   4
ATOM      4  N   UNL A   1      35.129  22.359  26.391  1.00  0.00    -0.351 N 
ATOM      5  C   UNL A   1      34.147  21.447  26.101  1.00  0.00     0.275 C 
ATOM      6  O   UNL A   1      33.642  20.827  27.043  1.00  0.00    -0.269 OA
ATOM      7  H   UNL A   1      35.454  22.352  27.320  1.00  0.00     0.163 HD
BRANCH   5   8
ATOM      8  C   UNL A   1      33.774  21.133  24.643  1.00  0.00     0.365 C 
BRANCH   8   9
ATOM      9  N   UNL A   1      32.494  21.655  24.134  1.00  0.00    -0.306 N 
ATOM     10  C   UNL A   1      31.356  28.794  24.893  1.00  0.00     0.161 A 
ATOM     11  C   UNL A   1      31.589  27.904  25.948  1.00  0.00     0.055 A 
ATOM     12  C   UNL A   1      31.221  28.287  23.598  1.00  0.00     0.161 A 
ATOM     13  C   UNL A   1      31.735  26.522  25.711  1.00  0.00    -0.033 A 
ATOM     14  C   UNL A   1      31.361  26.906  23.377  1.00  0.00     0.061 A 
ATOM     15  C   UNL A   1      31.700  26.008  24.401  1.00  0.00     0.006 A 
ATOM     16  C   UNL A   1      31.892  25.567  26.870  1.00  0.00     0.058 C 
ATOM     17  C   UNL A   1      31.927  24.533  24.190  1.00  0.00     0.068 C 
ATOM     18  C   UNL A   1      31.167  24.251  26.561  1.00  0.00     0.127 C 
ATOM     19  C   UNL A   1      32.438  23.969  23.068  1.00  0.00     0.108 C 
ATOM     20  N   UNL A   1      31.634  23.707  25.283  1.00  0.00    -0.323 N 
ATOM     21  C   UNL A   1      32.558  22.469  22.918  1.00  0.00     0.314 C 
ATOM     22  C   UNL A   1      31.610  22.259  25.125  1.00  0.00     0.390 C 
ATOM     23  H   UNL A   1      32.057  20.776  23.857  1.00  0.00     0.350 HD
BRANCH  10  24
ATOM     24  O   UNL A   1      31.112  30.121  25.123  1.00  0.00    -0.493 OA
ATOM     25  C   UNL A   1      31.876  30.690  26.187  1.00  0.00     0.278 C 
ENDBRANCH  10  24
BRANCH  12  26
ATOM     26  O   UNL A   1      30.916  28.991  22.461  1.00  0.00    -0.493 OA
ATOM     27  C   UNL A   1      29.536  29.232  22.207  1.00  0.00     0.278 C 
ENDBRANCH  12  26
BRANCH  19  28
ATOM     28  C   UNL A   1      32.910  24.833  21.909  1.00  0.00     0.103 C 
ATOM     29  N   UNL A   1      33.302  25.549  20.949  1.00  0.00    -0.192 NA
ENDBRANCH  19  28
ENDBRANCH   8   9
ENDBRANCH   5   8
ENDBRANCH   3   4
ENDBRANCH   2   3
ENDBRANCH   1   2
BRANCH   1  30
ATOM     30  C   UNL A   1      39.106  21.801  26.314  1.00  0.00     0.116 C 
BRANCH  30  31
ATOM     31  N   UNL A   1      39.601  20.443  26.088  1.00  0.00    -0.352 N 
ATOM     32  C   UNL A   1      40.906  19.992  26.171  1.00  0.00     0.251 C 
ATOM     33  H   UNL A   1      38.924  19.770  25.847  1.00  0.00     0.163 HD
ATOM     34  O   UNL A   1      41.196  18.812  26.004  1.00  0.00    -0.269 OA
BRANCH  32  35
ATOM     35  C   UNL A   1      41.968  20.996  26.370  1.00  0.00     0.039 A 
ATOM     36  C   UNL A   1      42.307  21.391  27.660  1.00  0.00     0.014 A 
ATOM     37  C   UNL A   1      42.442  21.701  25.260  1.00  0.00     0.014 A 
ATOM     38  C   UNL A   1      42.858  22.647  27.843  1.00  0.00     0.010 A 
ATOM     39  C   UNL A   1      43.142  22.894  25.455  1.00  0.00     0.010 A 
ATOM     40  C   UNL A   1      43.278  23.423  26.747  1.00  0.00    -0.014 A 
BRANCH  40  41
ATOM     41  C   UNL A   1      43.818  24.788  26.988  1.00  0.00     0.031 A 
ATOM     42  C   UNL A   1      42.987  25.851  27.662  1.00  0.00     0.074 A 
ATOM     43  C   UNL A   1      45.106  25.043  26.674  1.00  0.00     0.049 A 
ATOM     44  N   UNL A   1      43.301  27.099  27.907  1.00  0.00    -0.248 NA
ATOM     45  C   UNL A   1      41.635  25.481  28.115  1.00  0.00     0.031 C 
ATOM     46  C   UNL A   1      46.024  24.084  26.055  1.00  0.00     0.029 A 
ATOM     47  N   UNL A   1      45.880  26.155  26.879  1.00  0.00    -0.354 N 
ATOM     48  C   UNL A   1      42.172  27.674  28.482  1.00  0.00     0.074 A 
ATOM     49  C   UNL A   1      41.163  26.641  28.556  1.00  0.00     0.031 C 
ATOM     50  C   UNL A   1      47.256  24.604  26.035  1.00  0.00     0.029 A 
ATOM     51  C   UNL A   1      47.195  25.978  26.518  1.00  0.00     0.049 A 
ATOM     52  H   UNL A   1      45.530  26.998  27.247  1.00  0.00     0.167 HD
ATOM     53  C   UNL A   1      41.998  28.948  28.904  1.00  0.00     0.031 A 
ATOM     54  C   UNL A   1      48.241  26.827  26.537  1.00  0.00     0.031 A 
ATOM     55  C   UNL A   1      43.029  29.952  28.880  1.00  0.00     0.049 A 
ATOM     56  C   UNL A   1      48.020  28.237  26.984  1.00  0.00     0.074 A 
ATOM     57  C   UNL A   1      42.953  31.266  29.310  1.00  0.00     0.029 A 
ATOM     58  N   UNL A   1      44.320  29.756  28.416  1.00  0.00    -0.354 N 
ATOM     59  N   UNL A   1      46.927  28.777  27.465  1.00  0.00    -0.248 NA
ATOM     60  C   UNL A   1      49.152  29.163  26.858  1.00  0.00     0.031 C 
ATOM     61  C   UNL A   1      44.185  31.877  29.061  1.00  0.00     0.029 A 
ATOM     62  C   UNL A   1      45.044  30.930  28.526  1.00  0.00     0.049 A 
ATOM     63  H   UNL A   1      44.670  28.907  28.062  1.00  0.00     0.167 HD
ATOM     64  C   UNL A   1      47.230  30.113  27.680  1.00  0.00     0.074 A 
ATOM     65  C   UNL A   1      48.619  30.294  27.307  1.00  0.00     0.031 C 
ATOM     66  C   UNL A   1      46.420  31.100  28.131  1.00  0.00     0.031 A 
BRANCH  53  67
ATOM     67  C   UNL A   1      40.640  29.360  29.413  1.00  0.00    -0.014 A 
ATOM     68  C   UNL A   1      39.631  29.689  28.489  1.00  0.00     0.010 A 
ATOM     69  C   UNL A   1      40.395  29.534  30.785  1.00  0.00     0.010 A 
ATOM     70  C   UNL A   1      38.407  30.204  28.923  1.00  0.00     0.020 A 
ATOM     71  C   UNL A   1      39.163  30.030  31.226  1.00  0.00     0.020 A 
ATOM     72  C   UNL A   1      38.184  30.379  30.291  1.00  0.00     0.054 A 
BRANCH  72  73
ATOM     73  S   UNL A   1      36.591  31.046  30.849  1.00  0.00     0.124 S 
ATOM     74  O   UNL A   1      35.846  31.152  29.599  1.00  0.00    -0.237 OA
ATOM     75  O   UNL A   1      36.121  30.024  31.782  1.00  0.00    -0.237 OA
ATOM     76  O   UNL A   1      36.961  32.316  31.471  1.00  0.00    -0.744 OA
ENDBRANCH  72  73
ENDBRANCH  53  67
BRANCH  54  77
ATOM     77  C   UNL A   1      49.564  26.330  26.075  1.00  0.00    -0.014 A 
ATOM     78  C   UNL A   1      50.432  25.692  26.983  1.00  0.00     0.010 A 
ATOM     79  C   UNL A   1      50.026  26.641  24.787  1.00  0.00     0.010 A 
ATOM     80  C   UNL A   1      51.766  25.460  26.643  1.00  0.00     0.020 A 
ATOM     81  C   UNL A   1      51.355  26.383  24.432  1.00  0.00     0.020 A 
ATOM     82  C   UNL A   1      52.225  25.834  25.379  1.00  0.00     0.054 A 
BRANCH  82  83
ATOM     83  S   UNL A   1      53.985  25.630  24.990  1.00  0.00     0.124 S 
ATOM     84  O   UNL A   1      54.116  24.174  24.969  1.00  0.00    -0.237 OA
ATOM     85  O   UNL A   1      54.112  26.291  23.695  1.00  0.00    -0.237 OA
ATOM     86  O   UNL A   1      54.656  26.304  26.099  1.00  0.00    -0.744 OA
ENDBRANCH  82  83
ENDBRANCH  54  77
BRANCH  66  87
ATOM     87  C   UNL A   1      46.988  32.486  28.226  1.00  0.00    -0.014 A 
ATOM     88  C   UNL A   1      47.076  33.288  27.074  1.00  0.00     0.010 A 
ATOM     89  C   UNL A   1      47.566  32.934  29.426  1.00  0.00     0.010 A 
ATOM     90  C   UNL A   1      47.768  34.500  27.111  1.00  0.00     0.020 A 
ATOM     91  C   UNL A   1      48.243  34.155  29.471  1.00  0.00     0.020 A 
ATOM     92  C   UNL A   1      48.361  34.918  28.306  1.00  0.00     0.054 A 
BRANCH  92  93
ATOM     93  S   UNL A   1      49.299  36.468  28.322  1.00  0.00     0.124 S 
ATOM     94  O   UNL A   1      48.940  37.030  29.621  1.00  0.00    -0.237 OA
ATOM     95  O   UNL A   1      50.682  36.012  28.195  1.00  0.00    -0.237 OA
ATOM     96  O   UNL A   1      48.783  37.192  27.162  1.00  0.00    -0.744 OA
ENDBRANCH  92  93
ENDBRANCH  66  87
ENDBRANCH  40  41
ENDBRANCH  32  35
ENDBRANCH  30  31
ENDBRANCH   1  30
TORSDOF 18
ENDMDL
