MODEL 1
REMARK VINA RESULT:     -12.8      0.000      0.000
REMARK SMILES CC(C)=C1[C@H]2CC[C@@H]1[C@@H](C(=O)Nc1cc(C)cc(C)c1)[C@@H]2C(=O)NCCCCNC(=O)c1ccc(-c2c3nc(c(-c4ccc(S(=O)(=O)[O-])cc4)c4ccc([nH]4)c(-c4ccc(S(=O)(=O)[O-])cc4)c4nc(c(-c5ccc(S(=O)(=O)[O-])cc5)c5ccc2[nH]5)C=C4)C=C3)cc1
REMARK SMILES IDX 27 1 26 2 25 3 24 4 22 5 23 6 21 8 1 9 2 10 3 11 4 12 5 13
REMARK SMILES IDX 8 14 6 15 7 16 9 17 10 18 11 19 12 20 13 22 14 23 20 24
REMARK SMILES IDX 15 25 18 26 16 27 17 28 19 29 28 30 29 31 30 32 31 34 32 35
REMARK SMILES IDX 33 36 91 37 34 38 90 39 35 40 36 41 37 42 84 43 38 44 89 45
REMARK SMILES IDX 83 46 85 47 39 48 88 49 82 50 81 51 40 53 70 54 51 55 69 56
REMARK SMILES IDX 52 57 55 58 68 59 86 60 53 61 54 62 67 64 87 65 56 66 41 67
REMARK SMILES IDX 42 68 50 69 43 70 49 71 44 72 45 73 46 74 47 75 48 76 71 77
REMARK SMILES IDX 72 78 80 79 73 80 79 81 74 82 75 83 76 84 77 85 78 86 57 87
REMARK SMILES IDX 58 88 66 89 59 90 65 91 60 92 61 93 62 94 63 95 64 96
REMARK H PARENT 24 7 12 21 29 33 85 52 55 63
REMARK Flexibility Score: inf
ROOT
ATOM      1  C   UNL A   1      32.169  29.031  26.727  1.00  0.00     0.023 C 
ENDROOT
BRANCH   1   2
ATOM      2  C   UNL A   1      31.720  27.633  27.125  1.00  0.00     0.023 C 
BRANCH   2   3
ATOM      3  C   UNL A   1      32.492  26.487  26.507  1.00  0.00     0.116 C 
BRANCH   3   4
ATOM      4  N   UNL A   1      31.844  25.624  25.571  1.00  0.00    -0.356 N 
ATOM      5  C   UNL A   1      32.167  24.327  25.298  1.00  0.00     0.224 C 
ATOM      6  O   UNL A   1      31.301  23.665  24.710  1.00  0.00    -0.275 OA
ATOM      7  H   UNL A   1      31.086  26.005  25.070  1.00  0.00     0.163 HD
BRANCH   5   8
ATOM      8  C   UNL A   1      33.533  23.665  25.594  1.00  0.00     0.098 C 
ATOM      9  C   UNL A   1      37.876  21.656  25.633  1.00  0.00     0.039 C 
ATOM     10  C   UNL A   1      37.112  22.951  25.727  1.00  0.00    -0.077 C 
ATOM     11  C   UNL A   1      37.919  24.177  26.033  1.00  0.00     0.039 C 
ATOM     12  C   UNL A   1      35.815  23.025  25.375  1.00  0.00    -0.064 C 
ATOM     13  C   UNL A   1      34.900  24.209  25.098  1.00  0.00     0.028 C 
ATOM     14  C   UNL A   1      35.002  21.960  24.702  1.00  0.00     0.028 C 
ATOM     15  C   UNL A   1      35.134  24.132  23.591  1.00  0.00     0.009 C 
ATOM     16  C   UNL A   1      35.140  22.604  23.301  1.00  0.00     0.009 C 
ATOM     17  C   UNL A   1      33.612  22.159  25.345  1.00  0.00     0.099 C 
BRANCH  17  18
ATOM     18  C   UNL A   1      33.387  21.200  26.539  1.00  0.00     0.228 C 
ATOM     19  O   UNL A   1      33.396  21.698  27.677  1.00  0.00    -0.274 OA
ATOM     20  N   UNL A   1      32.999  19.893  26.487  1.00  0.00    -0.326 N 
ATOM     21  H   UNL A   1      32.661  19.554  27.347  1.00  0.00     0.169 HD
BRANCH  20  22
ATOM     22  C   UNL A   1      32.980  18.927  25.472  1.00  0.00     0.041 A 
ATOM     23  C   UNL A   1      32.824  19.253  24.127  1.00  0.00     0.029 A 
ATOM     24  C   UNL A   1      33.194  17.593  25.826  1.00  0.00     0.029 A 
ATOM     25  C   UNL A   1      32.652  18.253  23.162  1.00  0.00    -0.049 A 
ATOM     26  C   UNL A   1      33.064  16.573  24.870  1.00  0.00    -0.049 A 
ATOM     27  C   UNL A   1      32.216  18.611  21.771  1.00  0.00     0.044 C 
ATOM     28  C   UNL A   1      32.763  16.913  23.545  1.00  0.00     0.007 A 
ATOM     29  C   UNL A   1      33.093  15.130  25.278  1.00  0.00     0.044 C 
ENDBRANCH  20  22
ENDBRANCH  17  18
ENDBRANCH   5   8
ENDBRANCH   3   4
ENDBRANCH   2   3
ENDBRANCH   1   2
BRANCH   1  30
ATOM     30  C   UNL A   1      33.587  29.439  27.115  1.00  0.00     0.116 C 
BRANCH  30  31
ATOM     31  N   UNL A   1      33.693  30.642  27.940  1.00  0.00    -0.352 N 
ATOM     32  C   UNL A   1      34.793  31.083  28.649  1.00  0.00     0.251 C 
ATOM     33  H   UNL A   1      32.887  31.203  27.995  1.00  0.00     0.163 HD
ATOM     34  O   UNL A   1      34.764  32.126  29.293  1.00  0.00    -0.269 OA
BRANCH  32  35
ATOM     35  C   UNL A   1      35.990  30.220  28.659  1.00  0.00     0.039 A 
ATOM     36  C   UNL A   1      36.827  30.226  27.542  1.00  0.00     0.014 A 
ATOM     37  C   UNL A   1      36.379  29.609  29.852  1.00  0.00     0.014 A 
ATOM     38  C   UNL A   1      38.124  29.725  27.663  1.00  0.00     0.010 A 
ATOM     39  C   UNL A   1      37.698  29.196  29.991  1.00  0.00     0.010 A 
ATOM     40  C   UNL A   1      38.592  29.275  28.908  1.00  0.00    -0.014 A 
BRANCH  40  41
ATOM     41  C   UNL A   1      40.014  28.903  29.131  1.00  0.00     0.031 A 
ATOM     42  C   UNL A   1      40.974  29.947  29.628  1.00  0.00     0.074 A 
ATOM     43  C   UNL A   1      40.466  27.683  28.776  1.00  0.00     0.049 A 
ATOM     44  N   UNL A   1      42.278  29.903  29.698  1.00  0.00    -0.248 NA
ATOM     45  C   UNL A   1      40.389  31.227  30.061  1.00  0.00     0.031 C 
ATOM     46  C   UNL A   1      39.649  26.588  28.244  1.00  0.00     0.029 A 
ATOM     47  N   UNL A   1      41.738  27.162  28.790  1.00  0.00    -0.354 N 
ATOM     48  C   UNL A   1      42.672  31.161  30.136  1.00  0.00     0.074 A 
ATOM     49  C   UNL A   1      41.472  31.957  30.278  1.00  0.00     0.031 C 
ATOM     50  C   UNL A   1      40.434  25.524  28.004  1.00  0.00     0.029 A 
ATOM     51  C   UNL A   1      41.816  25.872  28.315  1.00  0.00     0.049 A 
ATOM     52  H   UNL A   1      42.521  27.666  29.109  1.00  0.00     0.167 HD
ATOM     53  C   UNL A   1      43.918  31.611  30.412  1.00  0.00     0.031 A 
ATOM     54  C   UNL A   1      42.882  25.067  28.135  1.00  0.00     0.031 A 
ATOM     55  C   UNL A   1      45.103  30.806  30.313  1.00  0.00     0.049 A 
ATOM     56  C   UNL A   1      44.256  25.578  28.477  1.00  0.00     0.074 A 
ATOM     57  C   UNL A   1      46.405  31.152  30.626  1.00  0.00     0.029 A 
ATOM     58  N   UNL A   1      45.128  29.489  29.882  1.00  0.00    -0.354 N 
ATOM     59  N   UNL A   1      44.604  26.760  28.925  1.00  0.00    -0.248 NA
ATOM     60  C   UNL A   1      45.380  24.647  28.296  1.00  0.00     0.031 C 
ATOM     61  C   UNL A   1      47.224  30.051  30.358  1.00  0.00     0.029 A 
ATOM     62  C   UNL A   1      46.423  29.006  29.919  1.00  0.00     0.049 A 
ATOM     63  H   UNL A   1      44.340  28.973  29.593  1.00  0.00     0.167 HD
ATOM     64  C   UNL A   1      45.982  26.703  29.111  1.00  0.00     0.074 A 
ATOM     65  C   UNL A   1      46.403  25.372  28.729  1.00  0.00     0.031 C 
ATOM     66  C   UNL A   1      46.820  27.669  29.562  1.00  0.00     0.031 A 
BRANCH  53  67
ATOM     67  C   UNL A   1      44.051  33.045  30.847  1.00  0.00    -0.014 A 
ATOM     68  C   UNL A   1      44.055  33.391  32.211  1.00  0.00     0.010 A 
ATOM     69  C   UNL A   1      44.187  34.057  29.881  1.00  0.00     0.010 A 
ATOM     70  C   UNL A   1      44.138  34.730  32.599  1.00  0.00     0.020 A 
ATOM     71  C   UNL A   1      44.299  35.396  30.267  1.00  0.00     0.020 A 
ATOM     72  C   UNL A   1      44.250  35.724  31.624  1.00  0.00     0.054 A 
BRANCH  72  73
ATOM     73  S   UNL A   1      44.360  37.455  32.155  1.00  0.00     0.124 S 
ATOM     74  O   UNL A   1      45.757  37.551  32.572  1.00  0.00    -0.237 OA
ATOM     75  O   UNL A   1      44.015  38.189  30.941  1.00  0.00    -0.237 OA
ATOM     76  O   UNL A   1      43.380  37.547  33.234  1.00  0.00    -0.744 OA
ENDBRANCH  72  73
ENDBRANCH  53  67
BRANCH  54  77
ATOM     77  C   UNL A   1      42.695  23.683  27.621  1.00  0.00    -0.014 A 
ATOM     78  C   UNL A   1      42.437  22.626  28.512  1.00  0.00     0.010 A 
ATOM     79  C   UNL A   1      42.765  23.412  26.242  1.00  0.00     0.010 A 
ATOM     80  C   UNL A   1      42.270  21.321  28.037  1.00  0.00     0.020 A 
ATOM     81  C   UNL A   1      42.574  22.111  25.761  1.00  0.00     0.020 A 
ATOM     82  C   UNL A   1      42.339  21.072  26.663  1.00  0.00     0.054 A 
BRANCH  82  83
ATOM     83  S   UNL A   1      42.069  19.380  26.065  1.00  0.00     0.124 S 
ATOM     84  O   UNL A   1      42.913  19.340  24.876  1.00  0.00    -0.237 OA
ATOM     85  O   UNL A   1      42.522  18.569  27.192  1.00  0.00    -0.237 OA
ATOM     86  O   UNL A   1      40.629  19.334  25.815  1.00  0.00    -0.744 OA
ENDBRANCH  82  83
ENDBRANCH  54  77
BRANCH  66  87
ATOM     87  C   UNL A   1      48.271  27.316  29.729  1.00  0.00    -0.014 A 
ATOM     88  C   UNL A   1      49.209  27.593  28.722  1.00  0.00     0.010 A 
ATOM     89  C   UNL A   1      48.713  26.798  30.960  1.00  0.00     0.010 A 
ATOM     90  C   UNL A   1      50.569  27.354  28.942  1.00  0.00     0.020 A 
ATOM     91  C   UNL A   1      50.072  26.577  31.191  1.00  0.00     0.020 A 
ATOM     92  C   UNL A   1      50.992  26.852  30.177  1.00  0.00     0.054 A 
BRANCH  92  93
ATOM     93  S   UNL A   1      52.769  26.636  30.472  1.00  0.00     0.124 S 
ATOM     94  O   UNL A   1      52.785  25.559  31.457  1.00  0.00    -0.237 OA
ATOM     95  O   UNL A   1      53.275  26.284  29.147  1.00  0.00    -0.237 OA
ATOM     96  O   UNL A   1      53.199  27.941  30.968  1.00  0.00    -0.744 OA
ENDBRANCH  92  93
ENDBRANCH  66  87
ENDBRANCH  40  41
ENDBRANCH  32  35
ENDBRANCH  30  31
ENDBRANCH   1  30
TORSDOF 16
ENDMDL
MODEL 2
REMARK VINA RESULT:     -12.4      3.452     10.034
REMARK SMILES CC(C)=C1[C@H]2CC[C@@H]1[C@@H](C(=O)Nc1cc(C)cc(C)c1)[C@@H]2C(=O)NCCCCNC(=O)c1ccc(-c2c3nc(c(-c4ccc(S(=O)(=O)[O-])cc4)c4ccc([nH]4)c(-c4ccc(S(=O)(=O)[O-])cc4)c4nc(c(-c5ccc(S(=O)(=O)[O-])cc5)c5ccc2[nH]5)C=C4)C=C3)cc1
REMARK SMILES IDX 27 1 26 2 25 3 24 4 22 5 23 6 21 8 1 9 2 10 3 11 4 12 5 13
REMARK SMILES IDX 8 14 6 15 7 16 9 17 10 18 11 19 12 20 13 22 14 23 20 24
REMARK SMILES IDX 15 25 18 26 16 27 17 28 19 29 28 30 29 31 30 32 31 34 32 35
REMARK SMILES IDX 33 36 91 37 34 38 90 39 35 40 36 41 37 42 84 43 38 44 89 45
REMARK SMILES IDX 83 46 85 47 39 48 88 49 82 50 81 51 40 53 70 54 51 55 69 56
REMARK SMILES IDX 52 57 55 58 68 59 86 60 53 61 54 62 67 64 87 65 56 66 41 67
REMARK SMILES IDX 42 68 50 69 43 70 49 71 44 72 45 73 46 74 47 75 48 76 71 77
REMARK SMILES IDX 72 78 80 79 73 80 79 81 74 82 75 83 76 84 77 85 78 86 57 87
REMARK SMILES IDX 58 88 66 89 59 90 65 91 60 92 61 93 62 94 63 95 64 96
REMARK H PARENT 24 7 12 21 29 33 85 52 55 63
REMARK Flexibility Score: inf
ROOT
ATOM      1  C   UNL A   1      36.187  22.207  25.205  1.00  0.00     0.023 C 
ENDROOT
BRANCH   1   2
ATOM      2  C   UNL A   1      35.017  22.670  26.061  1.00  0.00     0.023 C 
BRANCH   2   3
ATOM      3  C   UNL A   1      34.402  24.000  25.679  1.00  0.00     0.116 C 
BRANCH   3   4
ATOM      4  N   UNL A   1      33.584  24.088  24.511  1.00  0.00    -0.356 N 
ATOM      5  C   UNL A   1      33.233  25.225  23.845  1.00  0.00     0.224 C 
ATOM      6  O   UNL A   1      32.802  25.069  22.695  1.00  0.00    -0.275 OA
ATOM      7  H   UNL A   1      33.238  23.240  24.149  1.00  0.00     0.163 HD
BRANCH   5   8
ATOM      8  C   UNL A   1      33.262  26.653  24.439  1.00  0.00     0.098 C 
ATOM      9  C   UNL A   1      32.712  30.773  26.811  1.00  0.00     0.039 C 
ATOM     10  C   UNL A   1      33.463  29.468  26.756  1.00  0.00    -0.077 C 
ATOM     11  C   UNL A   1      34.573  29.299  27.751  1.00  0.00     0.039 C 
ATOM     12  C   UNL A   1      33.042  28.449  25.985  1.00  0.00    -0.064 C 
ATOM     13  C   UNL A   1      33.414  26.975  25.950  1.00  0.00     0.028 C 
ATOM     14  C   UNL A   1      31.746  28.363  25.236  1.00  0.00     0.028 C 
ATOM     15  C   UNL A   1      32.233  26.579  26.832  1.00  0.00     0.009 C 
ATOM     16  C   UNL A   1      31.073  27.474  26.310  1.00  0.00     0.009 C 
ATOM     17  C   UNL A   1      32.159  27.597  23.961  1.00  0.00     0.099 C 
BRANCH  17  18
ATOM     18  C   UNL A   1      32.464  28.556  22.785  1.00  0.00     0.228 C 
ATOM     19  O   UNL A   1      33.636  28.594  22.373  1.00  0.00    -0.274 OA
ATOM     20  N   UNL A   1      31.564  29.241  22.022  1.00  0.00    -0.326 N 
ATOM     21  H   UNL A   1      31.946  29.572  21.177  1.00  0.00     0.169 HD
BRANCH  20  22
ATOM     22  C   UNL A   1      30.213  29.574  22.182  1.00  0.00     0.041 A 
ATOM     23  C   UNL A   1      29.328  28.794  22.921  1.00  0.00     0.029 A 
ATOM     24  C   UNL A   1      29.760  30.776  21.631  1.00  0.00     0.029 A 
ATOM     25  C   UNL A   1      27.956  29.074  22.927  1.00  0.00    -0.049 A 
ATOM     26  C   UNL A   1      28.394  31.099  21.655  1.00  0.00    -0.049 A 
ATOM     27  C   UNL A   1      26.983  28.082  23.495  1.00  0.00     0.044 C 
ATOM     28  C   UNL A   1      27.496  30.226  22.281  1.00  0.00     0.007 A 
ATOM     29  C   UNL A   1      27.872  32.282  20.895  1.00  0.00     0.044 C 
ENDBRANCH  20  22
ENDBRANCH  17  18
ENDBRANCH   5   8
ENDBRANCH   3   4
ENDBRANCH   2   3
ENDBRANCH   1   2
BRANCH   1  30
ATOM     30  C   UNL A   1      37.427  23.096  25.189  1.00  0.00     0.116 C 
BRANCH  30  31
ATOM     31  N   UNL A   1      38.690  22.421  25.488  1.00  0.00    -0.352 N 
ATOM     32  C   UNL A   1      39.737  22.893  26.254  1.00  0.00     0.251 C 
ATOM     33  H   UNL A   1      38.807  21.525  25.096  1.00  0.00     0.163 HD
ATOM     34  O   UNL A   1      40.743  22.219  26.449  1.00  0.00    -0.269 OA
BRANCH  32  35
ATOM     35  C   UNL A   1      39.631  24.266  26.783  1.00  0.00     0.039 A 
ATOM     36  C   UNL A   1      39.039  24.458  28.032  1.00  0.00     0.014 A 
ATOM     37  C   UNL A   1      40.322  25.296  26.144  1.00  0.00     0.014 A 
ATOM     38  C   UNL A   1      39.253  25.660  28.708  1.00  0.00     0.010 A 
ATOM     39  C   UNL A   1      40.607  26.453  26.858  1.00  0.00     0.010 A 
ATOM     40  C   UNL A   1      40.099  26.636  28.157  1.00  0.00    -0.014 A 
BRANCH  40  41
ATOM     41  C   UNL A   1      40.504  27.851  28.913  1.00  0.00     0.031 A 
ATOM     42  C   UNL A   1      41.810  27.849  29.657  1.00  0.00     0.074 A 
ATOM     43  C   UNL A   1      39.657  28.895  29.035  1.00  0.00     0.049 A 
ATOM     44  N   UNL A   1      42.261  28.706  30.534  1.00  0.00    -0.248 NA
ATOM     45  C   UNL A   1      42.705  26.706  29.413  1.00  0.00     0.031 C 
ATOM     46  C   UNL A   1      38.342  29.010  28.397  1.00  0.00     0.029 A 
ATOM     47  N   UNL A   1      39.770  30.057  29.760  1.00  0.00    -0.354 N 
ATOM     48  C   UNL A   1      43.468  28.182  30.981  1.00  0.00     0.074 A 
ATOM     49  C   UNL A   1      43.658  26.916  30.308  1.00  0.00     0.031 C 
ATOM     50  C   UNL A   1      37.784  30.182  28.742  1.00  0.00     0.029 A 
ATOM     51  C   UNL A   1      38.673  30.881  29.663  1.00  0.00     0.049 A 
ATOM     52  H   UNL A   1      40.563  30.277  30.300  1.00  0.00     0.167 HD
ATOM     53  C   UNL A   1      44.348  28.713  31.861  1.00  0.00     0.031 A 
ATOM     54  C   UNL A   1      38.405  32.059  30.261  1.00  0.00     0.031 A 
ATOM     55  C   UNL A   1      44.179  29.991  32.495  1.00  0.00     0.049 A 
ATOM     56  C   UNL A   1      39.413  32.647  31.213  1.00  0.00     0.074 A 
ATOM     57  C   UNL A   1      45.043  30.643  33.357  1.00  0.00     0.029 A 
ATOM     58  N   UNL A   1      43.079  30.817  32.324  1.00  0.00    -0.354 N 
ATOM     59  N   UNL A   1      40.566  32.153  31.595  1.00  0.00    -0.248 NA
ATOM     60  C   UNL A   1      39.088  33.951  31.810  1.00  0.00     0.031 C 
ATOM     61  C   UNL A   1      44.451  31.854  33.729  1.00  0.00     0.029 A 
ATOM     62  C   UNL A   1      43.240  31.973  33.064  1.00  0.00     0.049 A 
ATOM     63  H   UNL A   1      42.300  30.610  31.758  1.00  0.00     0.167 HD
ATOM     64  C   UNL A   1      41.118  33.101  32.450  1.00  0.00     0.074 A 
ATOM     65  C   UNL A   1      40.175  34.197  32.528  1.00  0.00     0.031 C 
ATOM     66  C   UNL A   1      42.303  33.066  33.108  1.00  0.00     0.031 A 
BRANCH  53  67
ATOM     67  C   UNL A   1      45.573  27.902  32.183  1.00  0.00    -0.014 A 
ATOM     68  C   UNL A   1      46.755  28.043  31.432  1.00  0.00     0.010 A 
ATOM     69  C   UNL A   1      45.548  26.996  33.258  1.00  0.00     0.010 A 
ATOM     70  C   UNL A   1      47.871  27.253  31.716  1.00  0.00     0.020 A 
ATOM     71  C   UNL A   1      46.673  26.225  33.563  1.00  0.00     0.020 A 
ATOM     72  C   UNL A   1      47.819  26.343  32.775  1.00  0.00     0.054 A 
BRANCH  72  73
ATOM     73  S   UNL A   1      49.284  25.333  33.125  1.00  0.00     0.124 S 
ATOM     74  O   UNL A   1      50.116  26.265  33.882  1.00  0.00    -0.237 OA
ATOM     75  O   UNL A   1      48.733  24.218  33.891  1.00  0.00    -0.237 OA
ATOM     76  O   UNL A   1      49.787  24.984  31.798  1.00  0.00    -0.744 OA
ENDBRANCH  72  73
ENDBRANCH  53  67
BRANCH  54  77
ATOM     77  C   UNL A   1      37.135  32.777  29.965  1.00  0.00    -0.014 A 
ATOM     78  C   UNL A   1      35.994  32.552  30.756  1.00  0.00     0.010 A 
ATOM     79  C   UNL A   1      37.058  33.694  28.901  1.00  0.00     0.010 A 
ATOM     80  C   UNL A   1      34.795  33.215  30.478  1.00  0.00     0.020 A 
ATOM     81  C   UNL A   1      35.866  34.378  28.635  1.00  0.00     0.020 A 
ATOM     82  C   UNL A   1      34.739  34.125  29.419  1.00  0.00     0.054 A 
BRANCH  82  83
ATOM     83  S   UNL A   1      33.187  35.014  29.108  1.00  0.00     0.124 S 
ATOM     84  O   UNL A   1      32.571  35.020  30.431  1.00  0.00    -0.237 OA
ATOM     85  O   UNL A   1      33.655  36.309  28.621  1.00  0.00    -0.237 OA
ATOM     86  O   UNL A   1      32.516  34.186  28.107  1.00  0.00    -0.744 OA
ENDBRANCH  82  83
ENDBRANCH  54  77
BRANCH  66  87
ATOM     87  C   UNL A   1      42.688  34.267  33.925  1.00  0.00    -0.014 A 
ATOM     88  C   UNL A   1      42.355  34.358  35.287  1.00  0.00     0.010 A 
ATOM     89  C   UNL A   1      43.488  35.266  33.342  1.00  0.00     0.010 A 
ATOM     90  C   UNL A   1      42.815  35.434  36.052  1.00  0.00     0.020 A 
ATOM     91  C   UNL A   1      43.967  36.331  34.108  1.00  0.00     0.020 A 
ATOM     92  C   UNL A   1      43.622  36.410  35.459  1.00  0.00     0.054 A 
BRANCH  92  93
ATOM     93  S   UNL A   1      44.281  37.747  36.493  1.00  0.00     0.124 S 
ATOM     94  O   UNL A   1      43.369  37.728  37.632  1.00  0.00    -0.237 OA
ATOM     95  O   UNL A   1      45.644  37.298  36.770  1.00  0.00    -0.237 OA
ATOM     96  O   UNL A   1      44.184  38.927  35.636  1.00  0.00    -0.744 OA
ENDBRANCH  92  93
ENDBRANCH  66  87
ENDBRANCH  40  41
ENDBRANCH  32  35
ENDBRANCH  30  31
ENDBRANCH   1  30
TORSDOF 16
ENDMDL
MODEL 3
REMARK VINA RESULT:     -12.4      5.098     11.036
REMARK SMILES CC(C)=C1[C@H]2CC[C@@H]1[C@@H](C(=O)Nc1cc(C)cc(C)c1)[C@@H]2C(=O)NCCCCNC(=O)c1ccc(-c2c3nc(c(-c4ccc(S(=O)(=O)[O-])cc4)c4ccc([nH]4)c(-c4ccc(S(=O)(=O)[O-])cc4)c4nc(c(-c5ccc(S(=O)(=O)[O-])cc5)c5ccc2[nH]5)C=C4)C=C3)cc1
REMARK SMILES IDX 27 1 26 2 25 3 24 4 22 5 23 6 21 8 1 9 2 10 3 11 4 12 5 13
REMARK SMILES IDX 8 14 6 15 7 16 9 17 10 18 11 19 12 20 13 22 14 23 20 24
REMARK SMILES IDX 15 25 18 26 16 27 17 28 19 29 28 30 29 31 30 32 31 34 32 35
REMARK SMILES IDX 33 36 91 37 34 38 90 39 35 40 36 41 37 42 84 43 38 44 89 45
REMARK SMILES IDX 83 46 85 47 39 48 88 49 82 50 81 51 40 53 70 54 51 55 69 56
REMARK SMILES IDX 52 57 55 58 68 59 86 60 53 61 54 62 67 64 87 65 56 66 41 67
REMARK SMILES IDX 42 68 50 69 43 70 49 71 44 72 45 73 46 74 47 75 48 76 71 77
REMARK SMILES IDX 72 78 80 79 73 80 79 81 74 82 75 83 76 84 77 85 78 86 57 87
REMARK SMILES IDX 58 88 66 89 59 90 65 91 60 92 61 93 62 94 63 95 64 96
REMARK H PARENT 24 7 12 21 29 33 85 52 55 63
REMARK Flexibility Score: inf
ROOT
ATOM      1  C   UNL A   1      37.640  23.327  25.407  1.00  0.00     0.023 C 
ENDROOT
BRANCH   1   2
ATOM      2  C   UNL A   1      36.164  23.685  25.496  1.00  0.00     0.023 C 
BRANCH   2   3
ATOM      3  C   UNL A   1      35.454  23.898  24.176  1.00  0.00     0.116 C 
BRANCH   3   4
ATOM      4  N   UNL A   1      34.059  23.604  24.072  1.00  0.00    -0.356 N 
ATOM      5  C   UNL A   1      33.041  24.506  23.974  1.00  0.00     0.224 C 
ATOM      6  O   UNL A   1      31.958  24.060  23.572  1.00  0.00    -0.275 OA
ATOM      7  H   UNL A   1      33.807  22.653  24.071  1.00  0.00     0.163 HD
BRANCH   5   8
ATOM      8  C   UNL A   1      33.121  25.993  24.393  1.00  0.00     0.098 C 
ATOM      9  C   UNL A   1      32.781  30.364  26.311  1.00  0.00     0.039 C 
ATOM     10  C   UNL A   1      33.526  29.056  26.340  1.00  0.00    -0.077 C 
ATOM     11  C   UNL A   1      34.721  28.993  27.244  1.00  0.00     0.039 C 
ATOM     12  C   UNL A   1      33.039  27.958  25.734  1.00  0.00    -0.064 C 
ATOM     13  C   UNL A   1      33.409  26.486  25.837  1.00  0.00     0.028 C 
ATOM     14  C   UNL A   1      31.680  27.797  25.120  1.00  0.00     0.028 C 
ATOM     15  C   UNL A   1      32.313  26.205  26.861  1.00  0.00     0.009 C 
ATOM     16  C   UNL A   1      31.108  27.044  26.345  1.00  0.00     0.009 C 
ATOM     17  C   UNL A   1      31.977  26.885  23.910  1.00  0.00     0.099 C 
BRANCH  17  18
ATOM     18  C   UNL A   1      32.174  27.698  22.608  1.00  0.00     0.228 C 
ATOM     19  O   UNL A   1      33.222  27.505  21.970  1.00  0.00    -0.274 OA
ATOM     20  N   UNL A   1      31.251  28.480  21.975  1.00  0.00    -0.326 N 
ATOM     21  H   UNL A   1      31.492  28.685  21.043  1.00  0.00     0.169 HD
BRANCH  20  22
ATOM     22  C   UNL A   1      30.035  29.054  22.367  1.00  0.00     0.041 A 
ATOM     23  C   UNL A   1      29.012  28.318  22.959  1.00  0.00     0.029 A 
ATOM     24  C   UNL A   1      29.877  30.434  22.214  1.00  0.00     0.029 A 
ATOM     25  C   UNL A   1      27.756  28.892  23.191  1.00  0.00    -0.049 A 
ATOM     26  C   UNL A   1      28.639  31.041  22.475  1.00  0.00    -0.049 A 
ATOM     27  C   UNL A   1      26.588  28.029  23.571  1.00  0.00     0.044 C 
ATOM     28  C   UNL A   1      27.575  30.255  22.935  1.00  0.00     0.007 A 
ATOM     29  C   UNL A   1      28.401  32.481  22.126  1.00  0.00     0.044 C 
ENDBRANCH  20  22
ENDBRANCH  17  18
ENDBRANCH   5   8
ENDBRANCH   3   4
ENDBRANCH   2   3
ENDBRANCH   1   2
BRANCH   1  30
ATOM     30  C   UNL A   1      38.536  23.798  26.549  1.00  0.00     0.116 C 
BRANCH  30  31
ATOM     31  N   UNL A   1      39.974  23.744  26.286  1.00  0.00    -0.352 N 
ATOM     32  C   UNL A   1      40.943  24.632  26.710  1.00  0.00     0.251 C 
ATOM     33  H   UNL A   1      40.288  22.985  25.743  1.00  0.00     0.163 HD
ATOM     34  O   UNL A   1      42.127  24.467  26.438  1.00  0.00    -0.269 OA
BRANCH  32  35
ATOM     35  C   UNL A   1      40.496  25.827  27.450  1.00  0.00     0.039 A 
ATOM     36  C   UNL A   1      39.587  25.664  28.497  1.00  0.00     0.014 A 
ATOM     37  C   UNL A   1      41.156  27.040  27.249  1.00  0.00     0.014 A 
ATOM     38  C   UNL A   1      39.435  26.689  29.432  1.00  0.00     0.010 A 
ATOM     39  C   UNL A   1      41.069  28.020  28.230  1.00  0.00     0.010 A 
ATOM     40  C   UNL A   1      40.230  27.844  29.345  1.00  0.00    -0.014 A 
BRANCH  40  41
ATOM     41  C   UNL A   1      40.238  28.881  30.411  1.00  0.00     0.031 A 
ATOM     42  C   UNL A   1      41.170  28.722  31.580  1.00  0.00     0.074 A 
ATOM     43  C   UNL A   1      39.336  29.884  30.396  1.00  0.00     0.049 A 
ATOM     44  N   UNL A   1      41.202  29.384  32.705  1.00  0.00    -0.248 NA
ATOM     45  C   UNL A   1      42.169  27.645  31.483  1.00  0.00     0.031 C 
ATOM     46  C   UNL A   1      38.349  30.133  29.341  1.00  0.00     0.029 A 
ATOM     47  N   UNL A   1      39.090  30.878  31.313  1.00  0.00    -0.354 N 
ATOM     48  C   UNL A   1      42.188  28.774  33.470  1.00  0.00     0.074 A 
ATOM     49  C   UNL A   1      42.703  27.667  32.695  1.00  0.00     0.031 C 
ATOM     50  C   UNL A   1      37.622  31.216  29.661  1.00  0.00     0.029 A 
ATOM     51  C   UNL A   1      38.053  31.712  30.963  1.00  0.00     0.049 A 
ATOM     52  H   UNL A   1      39.608  30.982  32.144  1.00  0.00     0.167 HD
ATOM     53  C   UNL A   1      42.639  29.113  34.699  1.00  0.00     0.031 A 
ATOM     54  C   UNL A   1      37.500  32.749  31.624  1.00  0.00     0.031 A 
ATOM     55  C   UNL A   1      42.157  30.240  35.449  1.00  0.00     0.049 A 
ATOM     56  C   UNL A   1      38.038  33.129  32.978  1.00  0.00     0.074 A 
ATOM     57  C   UNL A   1      42.590  30.702  36.679  1.00  0.00     0.029 A 
ATOM     58  N   UNL A   1      41.145  31.091  35.032  1.00  0.00    -0.354 N 
ATOM     59  N   UNL A   1      38.997  32.562  33.669  1.00  0.00    -0.248 NA
ATOM     60  C   UNL A   1      37.424  34.290  33.640  1.00  0.00     0.031 C 
ATOM     61  C   UNL A   1      41.819  31.819  37.019  1.00  0.00     0.029 A 
ATOM     62  C   UNL A   1      40.938  32.075  35.980  1.00  0.00     0.049 A 
ATOM     63  H   UNL A   1      40.649  31.006  34.185  1.00  0.00     0.167 HD
ATOM     64  C   UNL A   1      39.124  33.317  34.830  1.00  0.00     0.074 A 
ATOM     65  C   UNL A   1      38.146  34.381  34.748  1.00  0.00     0.031 C 
ATOM     66  C   UNL A   1      39.978  33.144  35.868  1.00  0.00     0.031 A 
BRANCH  53  67
ATOM     67  C   UNL A   1      43.709  28.247  35.304  1.00  0.00    -0.014 A 
ATOM     68  C   UNL A   1      43.378  27.115  36.072  1.00  0.00     0.010 A 
ATOM     69  C   UNL A   1      45.063  28.561  35.093  1.00  0.00     0.010 A 
ATOM     70  C   UNL A   1      44.382  26.345  36.663  1.00  0.00     0.020 A 
ATOM     71  C   UNL A   1      46.071  27.775  35.659  1.00  0.00     0.020 A 
ATOM     72  C   UNL A   1      45.722  26.685  36.459  1.00  0.00     0.054 A 
BRANCH  72  73
ATOM     73  S   UNL A   1      47.005  25.665  37.234  1.00  0.00     0.124 S 
ATOM     74  O   UNL A   1      46.274  24.433  37.521  1.00  0.00    -0.237 OA
ATOM     75  O   UNL A   1      48.016  25.565  36.184  1.00  0.00    -0.237 OA
ATOM     76  O   UNL A   1      47.403  26.442  38.405  1.00  0.00    -0.744 OA
ENDBRANCH  72  73
ENDBRANCH  53  67
BRANCH  54  77
ATOM     77  C   UNL A   1      36.385  33.519  31.009  1.00  0.00    -0.014 A 
ATOM     78  C   UNL A   1      36.551  34.122  29.749  1.00  0.00     0.010 A 
ATOM     79  C   UNL A   1      35.150  33.649  31.671  1.00  0.00     0.010 A 
ATOM     80  C   UNL A   1      35.510  34.855  29.170  1.00  0.00     0.020 A 
ATOM     81  C   UNL A   1      34.098  34.362  31.083  1.00  0.00     0.020 A 
ATOM     82  C   UNL A   1      34.290  34.970  29.840  1.00  0.00     0.054 A 
BRANCH  82  83
ATOM     83  S   UNL A   1      32.936  35.882  29.047  1.00  0.00     0.124 S 
ATOM     84  O   UNL A   1      32.355  34.866  28.176  1.00  0.00    -0.237 OA
ATOM     85  O   UNL A   1      32.115  36.284  30.186  1.00  0.00    -0.237 OA
ATOM     86  O   UNL A   1      33.620  36.979  28.364  1.00  0.00    -0.744 OA
ENDBRANCH  82  83
ENDBRANCH  54  77
BRANCH  66  87
ATOM     87  C   UNL A   1      39.946  34.155  36.979  1.00  0.00    -0.014 A 
ATOM     88  C   UNL A   1      40.609  35.388  36.862  1.00  0.00     0.010 A 
ATOM     89  C   UNL A   1      39.148  33.905  38.111  1.00  0.00     0.010 A 
ATOM     90  C   UNL A   1      40.476  36.355  37.863  1.00  0.00     0.020 A 
ATOM     91  C   UNL A   1      38.997  34.877  39.103  1.00  0.00     0.020 A 
ATOM     92  C   UNL A   1      39.667  36.095  38.974  1.00  0.00     0.054 A 
BRANCH  92  93
ATOM     93  S   UNL A   1      39.439  37.399  40.215  1.00  0.00     0.124 S 
ATOM     94  O   UNL A   1      38.629  38.371  39.487  1.00  0.00    -0.237 OA
ATOM     95  O   UNL A   1      38.756  36.697  41.299  1.00  0.00    -0.237 OA
ATOM     96  O   UNL A   1      40.802  37.828  40.520  1.00  0.00    -0.744 OA
ENDBRANCH  92  93
ENDBRANCH  66  87
ENDBRANCH  40  41
ENDBRANCH  32  35
ENDBRANCH  30  31
ENDBRANCH   1  30
TORSDOF 16
ENDMDL
