MODEL 1
REMARK VINA RESULT:     -13.1      0.000      0.000
REMARK SMILES C[C@]12CCC[C@](C)(C(=O)NCCCCNC(=O)c3ccc(-c4c5nc(c(-c6ccc(S(=O)(=O)[O-])cc6)c6ccc([nH]6)c(-c6ccc(S(=O)(=O)[O-])cc6)c6nc(c(-c7ccc(S(=O)(=O)[O-])cc7)c7ccc4[nH]7)C=C6)C=C5)cc3)[C@@H]1CC[C@]13C=C(CO)[C@H](CC[C@H]12)C3
REMARK SMILES IDX 13 1 12 2 11 3 10 4 8 5 9 6 6 8 1 9 2 10 3 11 78 12 89 13
REMARK SMILES IDX 4 14 79 15 81 16 88 17 5 18 7 19 80 20 82 21 90 22 87 23
REMARK SMILES IDX 83 24 86 25 84 26 85 27 14 29 15 30 16 31 17 33 18 34 19 35
REMARK SMILES IDX 77 36 20 37 76 38 21 39 22 40 23 41 70 42 24 43 75 44 69 45
REMARK SMILES IDX 71 46 25 47 74 48 68 49 67 50 26 52 56 53 37 54 55 55 38 56
REMARK SMILES IDX 41 57 54 58 72 59 39 60 40 61 53 63 73 64 42 65 27 66 28 67
REMARK SMILES IDX 36 68 29 69 35 70 30 71 31 72 32 73 33 74 34 75 57 76 58 77
REMARK SMILES IDX 66 78 59 79 65 80 60 81 61 82 62 83 63 84 64 85 43 86 44 87
REMARK SMILES IDX 52 88 45 89 51 90 46 91 47 92 48 93 49 94 50 95
REMARK H PARENT 10 7 85 28 15 32 71 51 41 62
REMARK Flexibility Score: inf
ROOT
ATOM      1  C   UNL A   1      40.267  22.321  27.547  1.00  0.00     0.023 C 
ENDROOT
BRANCH   1   2
ATOM      2  C   UNL A   1      39.542  21.800  26.333  1.00  0.00     0.023 C 
BRANCH   2   3
ATOM      3  C   UNL A   1      38.245  22.457  25.892  1.00  0.00     0.116 C 
BRANCH   3   4
ATOM      4  N   UNL A   1      37.780  22.470  24.505  1.00  0.00    -0.356 N 
ATOM      5  C   UNL A   1      36.451  22.586  24.059  1.00  0.00     0.226 C 
ATOM      6  O   UNL A   1      36.261  23.163  22.989  1.00  0.00    -0.274 OA
ATOM      7  H   UNL A   1      38.471  22.389  23.808  1.00  0.00     0.163 HD
BRANCH   5   8
ATOM      8  C   UNL A   1      35.300  21.899  24.889  1.00  0.00     0.050 C 
ATOM      9  C   UNL A   1      34.829  24.790  25.470  1.00  0.00     0.012 C 
ATOM     10  C   UNL A   1      33.558  23.861  25.327  1.00  0.00    -0.025 C 
ATOM     11  C   UNL A   1      33.205  23.317  26.711  1.00  0.00     0.007 C 
ATOM     12  C   UNL A   1      33.895  22.624  24.382  1.00  0.00     0.010 C 
ATOM     13  C   UNL A   1      32.422  24.836  24.875  1.00  0.00     0.005 C 
ATOM     14  C   UNL A   1      34.428  22.762  27.386  1.00  0.00     0.002 C 
ATOM     15  C   UNL A   1      33.794  23.122  22.898  1.00  0.00     0.006 C 
ATOM     16  C   UNL A   1      32.379  25.221  23.356  1.00  0.00    -0.008 C 
ATOM     17  C   UNL A   1      31.007  24.947  25.452  1.00  0.00     0.006 C 
ATOM     18  C   UNL A   1      35.265  21.863  26.487  1.00  0.00     0.017 C 
ATOM     19  C   UNL A   1      35.704  20.378  24.742  1.00  0.00     0.022 C 
ATOM     20  C   UNL A   1      32.567  23.973  22.506  1.00  0.00     0.012 C 
ATOM     21  C   UNL A   1      33.303  26.408  23.248  1.00  0.00    -0.018 C 
ATOM     22  C   UNL A   1      31.097  26.028  22.981  1.00  0.00     0.019 C 
ATOM     23  C   UNL A   1      30.667  26.487  25.359  1.00  0.00     0.008 C 
ATOM     24  C   UNL A   1      32.684  27.454  23.842  1.00  0.00    -0.045 C 
ATOM     25  C   UNL A   1      31.182  27.149  24.029  1.00  0.00     0.018 C 
BRANCH  24  26
ATOM     26  C   UNL A   1      33.378  28.703  24.272  1.00  0.00     0.187 C 
BRANCH  26  27
ATOM     27  O   UNL A   1      33.593  29.561  23.155  1.00  0.00    -0.392 OA
ATOM     28  H   UNL A   1      34.053  29.072  22.456  1.00  0.00     0.211 HD
ENDBRANCH  26  27
ENDBRANCH  24  26
ENDBRANCH   5   8
ENDBRANCH   3   4
ENDBRANCH   2   3
ENDBRANCH   1   2
BRANCH   1  29
ATOM     29  C   UNL A   1      41.525  23.128  27.296  1.00  0.00     0.116 C 
BRANCH  29  30
ATOM     30  N   UNL A   1      41.473  23.995  26.133  1.00  0.00    -0.352 N 
ATOM     31  C   UNL A   1      41.351  25.371  26.067  1.00  0.00     0.251 C 
ATOM     32  H   UNL A   1      41.533  23.537  25.263  1.00  0.00     0.163 HD
ATOM     33  O   UNL A   1      41.302  25.929  24.994  1.00  0.00    -0.269 OA
BRANCH  31  34
ATOM     34  C   UNL A   1      41.224  26.141  27.328  1.00  0.00     0.039 A 
ATOM     35  C   UNL A   1      42.193  27.103  27.618  1.00  0.00     0.014 A 
ATOM     36  C   UNL A   1      40.136  25.960  28.182  1.00  0.00     0.014 A 
ATOM     37  C   UNL A   1      42.024  27.936  28.725  1.00  0.00     0.010 A 
ATOM     38  C   UNL A   1      39.909  26.864  29.213  1.00  0.00     0.010 A 
ATOM     39  C   UNL A   1      40.861  27.851  29.508  1.00  0.00    -0.014 A 
BRANCH  39  40
ATOM     40  C   UNL A   1      40.643  28.767  30.656  1.00  0.00     0.031 A 
ATOM     41  C   UNL A   1      41.488  28.632  31.895  1.00  0.00     0.074 A 
ATOM     42  C   UNL A   1      39.666  29.694  30.599  1.00  0.00     0.049 A 
ATOM     43  N   UNL A   1      41.454  29.338  32.996  1.00  0.00    -0.248 NA
ATOM     44  C   UNL A   1      42.481  27.544  31.913  1.00  0.00     0.031 C 
ATOM     45  C   UNL A   1      38.740  29.886  29.479  1.00  0.00     0.029 A 
ATOM     46  N   UNL A   1      39.291  30.655  31.504  1.00  0.00    -0.354 N 
ATOM     47  C   UNL A   1      42.406  28.773  33.836  1.00  0.00     0.074 A 
ATOM     48  C   UNL A   1      42.952  27.625  33.147  1.00  0.00     0.031 C 
ATOM     49  C   UNL A   1      37.937  30.929  29.745  1.00  0.00     0.029 A 
ATOM     50  C   UNL A   1      38.264  31.457  31.064  1.00  0.00     0.049 A 
ATOM     51  H   UNL A   1      39.718  30.761  32.384  1.00  0.00     0.167 HD
ATOM     52  C   UNL A   1      42.815  29.186  35.059  1.00  0.00     0.031 A 
ATOM     53  C   UNL A   1      37.659  32.506  31.656  1.00  0.00     0.031 A 
ATOM     54  C   UNL A   1      42.281  30.338  35.734  1.00  0.00     0.049 A 
ATOM     55  C   UNL A   1      38.138  32.958  33.009  1.00  0.00     0.074 A 
ATOM     56  C   UNL A   1      42.663  30.875  36.951  1.00  0.00     0.029 A 
ATOM     57  N   UNL A   1      41.252  31.132  35.250  1.00  0.00    -0.354 N 
ATOM     58  N   UNL A   1      39.092  32.453  33.756  1.00  0.00    -0.248 NA
ATOM     59  C   UNL A   1      37.474  34.132  33.589  1.00  0.00     0.031 C 
ATOM     60  C   UNL A   1      41.832  31.967  37.224  1.00  0.00     0.029 A 
ATOM     61  C   UNL A   1      40.973  32.145  36.151  1.00  0.00     0.049 A 
ATOM     62  H   UNL A   1      40.789  30.995  34.392  1.00  0.00     0.167 HD
ATOM     63  C   UNL A   1      39.162  33.268  34.882  1.00  0.00     0.074 A 
ATOM     64  C   UNL A   1      38.167  34.307  34.705  1.00  0.00     0.031 C 
ATOM     65  C   UNL A   1      39.976  33.168  35.961  1.00  0.00     0.031 A 
BRANCH  52  66
ATOM     66  C   UNL A   1      43.892  28.382  35.739  1.00  0.00    -0.014 A 
ATOM     67  C   UNL A   1      45.255  28.680  35.541  1.00  0.00     0.010 A 
ATOM     68  C   UNL A   1      43.542  27.333  36.608  1.00  0.00     0.010 A 
ATOM     69  C   UNL A   1      46.244  27.914  36.162  1.00  0.00     0.020 A 
ATOM     70  C   UNL A   1      44.529  26.585  37.256  1.00  0.00     0.020 A 
ATOM     71  C   UNL A   1      45.875  26.870  37.014  1.00  0.00     0.054 A 
BRANCH  71  72
ATOM     72  S   UNL A   1      47.181  25.909  37.826  1.00  0.00     0.124 S 
ATOM     73  O   UNL A   1      46.559  25.576  39.105  1.00  0.00    -0.237 OA
ATOM     74  O   UNL A   1      47.371  24.787  36.909  1.00  0.00    -0.237 OA
ATOM     75  O   UNL A   1      48.302  26.842  37.903  1.00  0.00    -0.744 OA
ENDBRANCH  71  72
ENDBRANCH  52  66
BRANCH  53  76
ATOM     76  C   UNL A   1      36.557  33.224  30.956  1.00  0.00    -0.014 A 
ATOM     77  C   UNL A   1      35.265  33.268  31.511  1.00  0.00     0.010 A 
ATOM     78  C   UNL A   1      36.797  33.875  29.732  1.00  0.00     0.010 A 
ATOM     79  C   UNL A   1      34.229  33.931  30.845  1.00  0.00     0.020 A 
ATOM     80  C   UNL A   1      35.771  34.564  29.079  1.00  0.00     0.020 A 
ATOM     81  C   UNL A   1      34.490  34.576  29.633  1.00  0.00     0.054 A 
BRANCH  81  82
ATOM     82  S   UNL A   1      33.142  35.471  28.810  1.00  0.00     0.124 S 
ATOM     83  O   UNL A   1      33.869  36.467  28.030  1.00  0.00    -0.237 OA
ATOM     84  O   UNL A   1      32.487  34.417  28.039  1.00  0.00    -0.237 OA
ATOM     85  O   UNL A   1      32.355  36.000  29.923  1.00  0.00    -0.744 OA
ENDBRANCH  81  82
ENDBRANCH  53  76
BRANCH  65  86
ATOM     86  C   UNL A   1      39.852  34.233  37.019  1.00  0.00    -0.014 A 
ATOM     87  C   UNL A   1      40.473  35.486  36.874  1.00  0.00     0.010 A 
ATOM     88  C   UNL A   1      39.073  33.982  38.164  1.00  0.00     0.010 A 
ATOM     89  C   UNL A   1      40.358  36.451  37.877  1.00  0.00     0.020 A 
ATOM     90  C   UNL A   1      38.929  34.956  39.154  1.00  0.00     0.020 A 
ATOM     91  C   UNL A   1      39.590  36.178  39.013  1.00  0.00     0.054 A 
BRANCH  91  92
ATOM     92  S   UNL A   1      39.441  37.452  40.295  1.00  0.00     0.124 S 
ATOM     93  O   UNL A   1      38.854  36.701  41.402  1.00  0.00    -0.237 OA
ATOM     94  O   UNL A   1      40.826  37.877  40.489  1.00  0.00    -0.237 OA
ATOM     95  O   UNL A   1      38.567  38.454  39.688  1.00  0.00    -0.744 OA
ENDBRANCH  91  92
ENDBRANCH  65  86
ENDBRANCH  39  40
ENDBRANCH  31  34
ENDBRANCH  29  30
ENDBRANCH   1  29
TORSDOF 16
ENDMDL
MODEL 2
REMARK VINA RESULT:     -12.9      6.354     11.908
REMARK SMILES C[C@]12CCC[C@](C)(C(=O)NCCCCNC(=O)c3ccc(-c4c5nc(c(-c6ccc(S(=O)(=O)[O-])cc6)c6ccc([nH]6)c(-c6ccc(S(=O)(=O)[O-])cc6)c6nc(c(-c7ccc(S(=O)(=O)[O-])cc7)c7ccc4[nH]7)C=C6)C=C5)cc3)[C@@H]1CC[C@]13C=C(CO)[C@H](CC[C@H]12)C3
REMARK SMILES IDX 13 1 12 2 11 3 10 4 8 5 9 6 6 8 1 9 2 10 3 11 78 12 89 13
REMARK SMILES IDX 4 14 79 15 81 16 88 17 5 18 7 19 80 20 82 21 90 22 87 23
REMARK SMILES IDX 83 24 86 25 84 26 85 27 14 29 15 30 16 31 17 33 18 34 19 35
REMARK SMILES IDX 77 36 20 37 76 38 21 39 22 40 23 41 70 42 24 43 75 44 69 45
REMARK SMILES IDX 71 46 25 47 74 48 68 49 67 50 26 52 56 53 37 54 55 55 38 56
REMARK SMILES IDX 41 57 54 58 72 59 39 60 40 61 53 63 73 64 42 65 27 66 28 67
REMARK SMILES IDX 36 68 29 69 35 70 30 71 31 72 32 73 33 74 34 75 57 76 58 77
REMARK SMILES IDX 66 78 59 79 65 80 60 81 61 82 62 83 63 84 64 85 43 86 44 87
REMARK SMILES IDX 52 88 45 89 51 90 46 91 47 92 48 93 49 94 50 95
REMARK H PARENT 10 7 85 28 15 32 71 51 41 62
REMARK Flexibility Score: inf
ROOT
ATOM      1  C   UNL A   1      34.066  29.700  26.786  1.00  0.00     0.023 C 
ENDROOT
BRANCH   1   2
ATOM      2  C   UNL A   1      32.669  29.389  27.259  1.00  0.00     0.023 C 
BRANCH   2   3
ATOM      3  C   UNL A   1      31.800  28.433  26.460  1.00  0.00     0.116 C 
BRANCH   3   4
ATOM      4  N   UNL A   1      31.242  27.198  27.012  1.00  0.00    -0.356 N 
ATOM      5  C   UNL A   1      31.292  25.916  26.438  1.00  0.00     0.226 C 
ATOM      6  O   UNL A   1      31.346  24.954  27.203  1.00  0.00    -0.274 OA
ATOM      7  H   UNL A   1      30.782  27.273  27.879  1.00  0.00     0.163 HD
BRANCH   5   8
ATOM      8  C   UNL A   1      31.181  25.770  24.872  1.00  0.00     0.050 C 
ATOM      9  C   UNL A   1      34.140  25.827  25.271  1.00  0.00     0.012 C 
ATOM     10  C   UNL A   1      33.578  24.885  24.132  1.00  0.00    -0.025 C 
ATOM     11  C   UNL A   1      33.534  25.684  22.829  1.00  0.00     0.007 C 
ATOM     12  C   UNL A   1      32.091  24.437  24.485  1.00  0.00     0.010 C 
ATOM     13  C   UNL A   1      34.663  23.768  23.990  1.00  0.00     0.005 C 
ATOM     14  C   UNL A   1      32.875  27.017  23.050  1.00  0.00     0.002 C 
ATOM     15  C   UNL A   1      32.185  23.260  25.518  1.00  0.00     0.006 C 
ATOM     16  C   UNL A   1      34.628  22.607  25.043  1.00  0.00    -0.008 C 
ATOM     17  C   UNL A   1      35.294  23.243  22.697  1.00  0.00     0.006 C 
ATOM     18  C   UNL A   1      31.581  26.931  23.847  1.00  0.00     0.017 C 
ATOM     19  C   UNL A   1      29.624  25.963  24.672  1.00  0.00     0.022 C 
ATOM     20  C   UNL A   1      33.196  22.129  25.230  1.00  0.00     0.012 C 
ATOM     21  C   UNL A   1      35.455  23.125  26.193  1.00  0.00    -0.018 C 
ATOM     22  C   UNL A   1      35.616  21.453  24.690  1.00  0.00     0.019 C 
ATOM     23  C   UNL A   1      36.787  22.916  23.096  1.00  0.00     0.008 C 
ATOM     24  C   UNL A   1      36.746  23.128  25.791  1.00  0.00    -0.045 C 
ATOM     25  C   UNL A   1      36.912  22.264  24.522  1.00  0.00     0.018 C 
BRANCH  24  26
ATOM     26  C   UNL A   1      37.834  23.888  26.473  1.00  0.00     0.187 C 
BRANCH  26  27
ATOM     27  O   UNL A   1      38.848  22.999  26.931  1.00  0.00    -0.392 OA
ATOM     28  H   UNL A   1      39.713  23.305  26.616  1.00  0.00     0.211 HD
ENDBRANCH  26  27
ENDBRANCH  24  26
ENDBRANCH   5   8
ENDBRANCH   3   4
ENDBRANCH   2   3
ENDBRANCH   1   2
BRANCH   1  29
ATOM     29  C   UNL A   1      35.202  29.286  27.699  1.00  0.00     0.116 C 
BRANCH  29  30
ATOM     30  N   UNL A   1      35.282  30.022  28.949  1.00  0.00    -0.352 N 
ATOM     31  C   UNL A   1      36.378  30.270  29.755  1.00  0.00     0.251 C 
ATOM     32  H   UNL A   1      34.431  30.400  29.270  1.00  0.00     0.163 HD
ATOM     33  O   UNL A   1      36.250  30.891  30.786  1.00  0.00    -0.269 OA
BRANCH  31  34
ATOM     34  C   UNL A   1      37.696  29.713  29.364  1.00  0.00     0.039 A 
ATOM     35  C   UNL A   1      38.062  29.757  28.018  1.00  0.00     0.014 A 
ATOM     36  C   UNL A   1      38.582  29.209  30.318  1.00  0.00     0.014 A 
ATOM     37  C   UNL A   1      39.349  29.368  27.643  1.00  0.00     0.010 A 
ATOM     38  C   UNL A   1      39.897  28.934  29.961  1.00  0.00     0.010 A 
ATOM     39  C   UNL A   1      40.290  28.992  28.615  1.00  0.00    -0.014 A 
BRANCH  39  40
ATOM     40  C   UNL A   1      41.679  28.629  28.236  1.00  0.00     0.031 A 
ATOM     41  C   UNL A   1      42.750  29.687  28.208  1.00  0.00     0.074 A 
ATOM     42  C   UNL A   1      41.969  27.360  27.886  1.00  0.00     0.049 A 
ATOM     43  N   UNL A   1      44.018  29.567  27.912  1.00  0.00    -0.248 NA
ATOM     44  C   UNL A   1      42.339  31.065  28.527  1.00  0.00     0.031 C 
ATOM     45  C   UNL A   1      41.007  26.256  27.815  1.00  0.00     0.029 A 
ATOM     46  N   UNL A   1      43.160  26.782  27.527  1.00  0.00    -0.354 N 
ATOM     47  C   UNL A   1      44.549  30.849  27.994  1.00  0.00     0.074 A 
ATOM     48  C   UNL A   1      43.454  31.742  28.301  1.00  0.00     0.031 C 
ATOM     49  C   UNL A   1      41.655  25.128  27.481  1.00  0.00     0.029 A 
ATOM     50  C   UNL A   1      43.067  25.432  27.280  1.00  0.00     0.049 A 
ATOM     51  H   UNL A   1      44.002  27.285  27.455  1.00  0.00     0.167 HD
ATOM     52  C   UNL A   1      45.835  31.248  27.858  1.00  0.00     0.031 A 
ATOM     53  C   UNL A   1      44.015  24.538  26.937  1.00  0.00     0.031 A 
ATOM     54  C   UNL A   1      46.924  30.355  27.569  1.00  0.00     0.049 A 
ATOM     55  C   UNL A   1      45.442  25.001  26.805  1.00  0.00     0.074 A 
ATOM     56  C   UNL A   1      48.272  30.648  27.465  1.00  0.00     0.029 A 
ATOM     57  N   UNL A   1      46.791  28.994  27.340  1.00  0.00    -0.354 N 
ATOM     58  N   UNL A   1      45.934  26.207  26.960  1.00  0.00    -0.248 NA
ATOM     59  C   UNL A   1      46.441  23.978  26.473  1.00  0.00     0.031 C 
ATOM     60  C   UNL A   1      48.948  29.472  27.125  1.00  0.00     0.029 A 
ATOM     61  C   UNL A   1      48.030  28.435  27.077  1.00  0.00     0.049 A 
ATOM     62  H   UNL A   1      45.940  28.499  27.360  1.00  0.00     0.167 HD
ATOM     63  C   UNL A   1      47.307  26.082  26.773  1.00  0.00     0.074 A 
ATOM     64  C   UNL A   1      47.565  24.680  26.513  1.00  0.00     0.031 C 
ATOM     65  C   UNL A   1      48.268  27.038  26.815  1.00  0.00     0.031 A 
BRANCH  52  66
ATOM     66  C   UNL A   1      46.127  32.717  28.022  1.00  0.00    -0.014 A 
ATOM     67  C   UNL A   1      46.102  33.590  26.917  1.00  0.00     0.010 A 
ATOM     68  C   UNL A   1      46.404  33.239  29.299  1.00  0.00     0.010 A 
ATOM     69  C   UNL A   1      46.394  34.946  27.080  1.00  0.00     0.020 A 
ATOM     70  C   UNL A   1      46.665  34.601  29.470  1.00  0.00     0.020 A 
ATOM     71  C   UNL A   1      46.675  35.443  28.356  1.00  0.00     0.054 A 
BRANCH  71  72
ATOM     72  S   UNL A   1      47.026  37.213  28.540  1.00  0.00     0.124 S 
ATOM     73  O   UNL A   1      48.421  37.289  28.113  1.00  0.00    -0.237 OA
ATOM     74  O   UNL A   1      46.059  37.828  27.635  1.00  0.00    -0.237 OA
ATOM     75  O   UNL A   1      46.795  37.467  29.960  1.00  0.00    -0.744 OA
ENDBRANCH  71  72
ENDBRANCH  52  66
BRANCH  53  76
ATOM     76  C   UNL A   1      43.653  23.108  26.729  1.00  0.00    -0.014 A 
ATOM     77  C   UNL A   1      43.028  22.372  27.752  1.00  0.00     0.010 A 
ATOM     78  C   UNL A   1      43.926  22.476  25.503  1.00  0.00     0.010 A 
ATOM     79  C   UNL A   1      42.703  21.025  27.560  1.00  0.00     0.020 A 
ATOM     80  C   UNL A   1      43.574  21.138  25.296  1.00  0.00     0.020 A 
ATOM     81  C   UNL A   1      42.977  20.418  26.332  1.00  0.00     0.054 A 
BRANCH  81  82
ATOM     82  S   UNL A   1      42.501  18.683  26.088  1.00  0.00     0.124 S 
ATOM     83  O   UNL A   1      42.708  18.121  27.419  1.00  0.00    -0.237 OA
ATOM     84  O   UNL A   1      41.110  18.795  25.657  1.00  0.00    -0.237 OA
ATOM     85  O   UNL A   1      43.429  18.217  25.060  1.00  0.00    -0.744 OA
ENDBRANCH  81  82
ENDBRANCH  53  76
BRANCH  65  86
ATOM     86  C   UNL A   1      49.692  26.594  26.614  1.00  0.00    -0.014 A 
ATOM     87  C   UNL A   1      50.273  26.553  25.335  1.00  0.00     0.010 A 
ATOM     88  C   UNL A   1      50.470  26.242  27.733  1.00  0.00     0.010 A 
ATOM     89  C   UNL A   1      51.593  26.120  25.173  1.00  0.00     0.020 A 
ATOM     90  C   UNL A   1      51.798  25.839  27.578  1.00  0.00     0.020 A 
ATOM     91  C   UNL A   1      52.345  25.762  26.295  1.00  0.00     0.054 A 
BRANCH  91  92
ATOM     92  S   UNL A   1      54.059  25.219  26.062  1.00  0.00     0.124 S 
ATOM     93  O   UNL A   1      54.573  26.227  25.139  1.00  0.00    -0.237 OA
ATOM     94  O   UNL A   1      54.601  25.274  27.417  1.00  0.00    -0.237 OA
ATOM     95  O   UNL A   1      53.924  23.874  25.505  1.00  0.00    -0.744 OA
ENDBRANCH  91  92
ENDBRANCH  65  86
ENDBRANCH  39  40
ENDBRANCH  31  34
ENDBRANCH  29  30
ENDBRANCH   1  29
TORSDOF 16
ENDMDL
MODEL 3
REMARK VINA RESULT:     -12.8      6.258     12.046
REMARK SMILES C[C@]12CCC[C@](C)(C(=O)NCCCCNC(=O)c3ccc(-c4c5nc(c(-c6ccc(S(=O)(=O)[O-])cc6)c6ccc([nH]6)c(-c6ccc(S(=O)(=O)[O-])cc6)c6nc(c(-c7ccc(S(=O)(=O)[O-])cc7)c7ccc4[nH]7)C=C6)C=C5)cc3)[C@@H]1CC[C@]13C=C(CO)[C@H](CC[C@H]12)C3
REMARK SMILES IDX 13 1 12 2 11 3 10 4 8 5 9 6 6 8 1 9 2 10 3 11 78 12 89 13
REMARK SMILES IDX 4 14 79 15 81 16 88 17 5 18 7 19 80 20 82 21 90 22 87 23
REMARK SMILES IDX 83 24 86 25 84 26 85 27 14 29 15 30 16 31 17 33 18 34 19 35
REMARK SMILES IDX 77 36 20 37 76 38 21 39 22 40 23 41 70 42 24 43 75 44 69 45
REMARK SMILES IDX 71 46 25 47 74 48 68 49 67 50 26 52 56 53 37 54 55 55 38 56
REMARK SMILES IDX 41 57 54 58 72 59 39 60 40 61 53 63 73 64 42 65 27 66 28 67
REMARK SMILES IDX 36 68 29 69 35 70 30 71 31 72 32 73 33 74 34 75 57 76 58 77
REMARK SMILES IDX 66 78 59 79 65 80 60 81 61 82 62 83 63 84 64 85 43 86 44 87
REMARK SMILES IDX 52 88 45 89 51 90 46 91 47 92 48 93 49 94 50 95
REMARK H PARENT 10 7 85 28 15 32 71 51 41 62
REMARK Flexibility Score: inf
ROOT
ATOM      1  C   UNL A   1      35.648  31.935  27.800  1.00  0.00     0.023 C 
ENDROOT
BRANCH   1   2
ATOM      2  C   UNL A   1      34.200  31.519  27.757  1.00  0.00     0.023 C 
BRANCH   2   3
ATOM      3  C   UNL A   1      33.833  30.123  27.285  1.00  0.00     0.116 C 
BRANCH   3   4
ATOM      4  N   UNL A   1      32.573  29.462  27.625  1.00  0.00    -0.356 N 
ATOM      5  C   UNL A   1      31.873  28.522  26.849  1.00  0.00     0.226 C 
ATOM      6  O   UNL A   1      31.235  27.656  27.445  1.00  0.00    -0.274 OA
ATOM      7  H   UNL A   1      32.172  29.700  28.493  1.00  0.00     0.163 HD
BRANCH   5   8
ATOM      8  C   UNL A   1      31.861  28.679  25.279  1.00  0.00     0.050 C 
ATOM      9  C   UNL A   1      33.878  26.510  25.660  1.00  0.00     0.012 C 
ATOM     10  C   UNL A   1      32.937  26.414  24.393  1.00  0.00    -0.025 C 
ATOM     11  C   UNL A   1      33.625  27.128  23.230  1.00  0.00     0.007 C 
ATOM     12  C   UNL A   1      31.560  27.159  24.684  1.00  0.00     0.010 C 
ATOM     13  C   UNL A   1      32.885  24.884  24.073  1.00  0.00     0.005 C 
ATOM     14  C   UNL A   1      34.115  28.483  23.660  1.00  0.00     0.002 C 
ATOM     15  C   UNL A   1      30.662  26.183  25.522  1.00  0.00     0.006 C 
ATOM     16  C   UNL A   1      31.909  24.010  24.933  1.00  0.00    -0.008 C 
ATOM     17  C   UNL A   1      33.075  24.212  22.709  1.00  0.00     0.006 C 
ATOM     18  C   UNL A   1      33.083  29.282  24.444  1.00  0.00     0.017 C 
ATOM     19  C   UNL A   1      30.960  29.969  25.124  1.00  0.00     0.022 C 
ATOM     20  C   UNL A   1      30.565  24.715  25.055  1.00  0.00     0.012 C 
ATOM     21  C   UNL A   1      32.722  23.627  26.144  1.00  0.00    -0.018 C 
ATOM     22  C   UNL A   1      31.786  22.550  24.399  1.00  0.00     0.019 C 
ATOM     23  C   UNL A   1      33.815  22.856  23.042  1.00  0.00     0.008 C 
ATOM     24  C   UNL A   1      33.650  22.730  25.737  1.00  0.00    -0.045 C 
ATOM     25  C   UNL A   1      33.275  22.168  24.348  1.00  0.00     0.018 C 
BRANCH  24  26
ATOM     26  C   UNL A   1      34.868  22.372  26.520  1.00  0.00     0.187 C 
BRANCH  26  27
ATOM     27  O   UNL A   1      35.271  21.037  26.228  1.00  0.00    -0.392 OA
ATOM     28  H   UNL A   1      36.142  21.047  25.803  1.00  0.00     0.211 HD
ENDBRANCH  26  27
ENDBRANCH  24  26
ENDBRANCH   5   8
ENDBRANCH   3   4
ENDBRANCH   2   3
ENDBRANCH   1   2
BRANCH   1  29
ATOM     29  C   UNL A   1      36.255  32.148  29.172  1.00  0.00     0.116 C 
BRANCH  29  30
ATOM     30  N   UNL A   1      35.926  31.128  30.152  1.00  0.00    -0.352 N 
ATOM     31  C   UNL A   1      36.695  30.081  30.625  1.00  0.00     0.251 C 
ATOM     32  H   UNL A   1      35.021  31.191  30.538  1.00  0.00     0.163 HD
ATOM     33  O   UNL A   1      36.240  29.306  31.436  1.00  0.00    -0.269 OA
BRANCH  31  34
ATOM     34  C   UNL A   1      38.060  29.890  30.078  1.00  0.00     0.039 A 
ATOM     35  C   UNL A   1      39.128  29.811  30.973  1.00  0.00     0.014 A 
ATOM     36  C   UNL A   1      38.278  29.734  28.708  1.00  0.00     0.014 A 
ATOM     37  C   UNL A   1      40.401  29.494  30.497  1.00  0.00     0.010 A 
ATOM     38  C   UNL A   1      39.518  29.305  28.251  1.00  0.00     0.010 A 
ATOM     39  C   UNL A   1      40.599  29.198  29.139  1.00  0.00    -0.014 A 
BRANCH  39  40
ATOM     40  C   UNL A   1      41.937  28.807  28.627  1.00  0.00     0.031 A 
ATOM     41  C   UNL A   1      43.033  29.835  28.530  1.00  0.00     0.074 A 
ATOM     42  C   UNL A   1      42.157  27.541  28.221  1.00  0.00     0.049 A 
ATOM     43  N   UNL A   1      44.266  29.688  28.118  1.00  0.00    -0.248 NA
ATOM     44  C   UNL A   1      42.694  31.215  28.918  1.00  0.00     0.031 C 
ATOM     45  C   UNL A   1      41.160  26.466  28.209  1.00  0.00     0.029 A 
ATOM     46  N   UNL A   1      43.293  26.939  27.741  1.00  0.00    -0.354 N 
ATOM     47  C   UNL A   1      44.840  30.952  28.184  1.00  0.00     0.074 A 
ATOM     48  C   UNL A   1      43.805  31.866  28.611  1.00  0.00     0.031 C 
ATOM     49  C   UNL A   1      41.741  25.331  27.790  1.00  0.00     0.029 A 
ATOM     50  C   UNL A   1      43.138  25.600  27.470  1.00  0.00     0.049 A 
ATOM     51  H   UNL A   1      44.141  27.421  27.607  1.00  0.00     0.167 HD
ATOM     52  C   UNL A   1      46.121  31.319  27.943  1.00  0.00     0.031 A 
ATOM     53  C   UNL A   1      44.024  24.690  27.021  1.00  0.00     0.031 A 
ATOM     54  C   UNL A   1      47.152  30.405  27.535  1.00  0.00     0.049 A 
ATOM     55  C   UNL A   1      45.447  25.116  26.774  1.00  0.00     0.074 A 
ATOM     56  C   UNL A   1      48.494  30.663  27.318  1.00  0.00     0.029 A 
ATOM     57  N   UNL A   1      46.958  29.054  27.285  1.00  0.00    -0.354 N 
ATOM     58  N   UNL A   1      45.987  26.304  26.913  1.00  0.00    -0.248 NA
ATOM     59  C   UNL A   1      46.381  24.076  26.327  1.00  0.00     0.031 C 
ATOM     60  C   UNL A   1      49.101  29.478  26.890  1.00  0.00     0.029 A 
ATOM     61  C   UNL A   1      48.151  28.469  26.898  1.00  0.00     0.049 A 
ATOM     62  H   UNL A   1      46.098  28.583  27.369  1.00  0.00     0.167 HD
ATOM     63  C   UNL A   1      47.334  26.145  26.601  1.00  0.00     0.074 A 
ATOM     64  C   UNL A   1      47.525  24.745  26.285  1.00  0.00     0.031 C 
ATOM     65  C   UNL A   1      48.322  27.074  26.581  1.00  0.00     0.031 A 
BRANCH  52  66
ATOM     66  C   UNL A   1      46.470  32.774  28.117  1.00  0.00    -0.014 A 
ATOM     67  C   UNL A   1      46.909  33.272  29.360  1.00  0.00     0.010 A 
ATOM     68  C   UNL A   1      46.385  33.651  27.022  1.00  0.00     0.010 A 
ATOM     69  C   UNL A   1      47.210  34.627  29.513  1.00  0.00     0.020 A 
ATOM     70  C   UNL A   1      46.716  35.002  27.163  1.00  0.00     0.020 A 
ATOM     71  C   UNL A   1      47.111  35.484  28.413  1.00  0.00     0.054 A 
BRANCH  71  72
ATOM     72  S   UNL A   1      47.532  37.234  28.637  1.00  0.00     0.124 S 
ATOM     73  O   UNL A   1      48.574  37.164  29.658  1.00  0.00    -0.237 OA
ATOM     74  O   UNL A   1      47.985  37.628  27.305  1.00  0.00    -0.237 OA
ATOM     75  O   UNL A   1      46.276  37.842  29.070  1.00  0.00    -0.744 OA
ENDBRANCH  71  72
ENDBRANCH  52  66
BRANCH  53  76
ATOM     76  C   UNL A   1      43.602  23.277  26.811  1.00  0.00    -0.014 A 
ATOM     77  C   UNL A   1      43.791  22.651  25.566  1.00  0.00     0.010 A 
ATOM     78  C   UNL A   1      43.015  22.547  27.861  1.00  0.00     0.010 A 
ATOM     79  C   UNL A   1      43.380  21.328  25.368  1.00  0.00     0.020 A 
ATOM     80  C   UNL A   1      42.631  21.215  27.675  1.00  0.00     0.020 A 
ATOM     81  C   UNL A   1      42.804  20.619  26.425  1.00  0.00     0.054 A 
BRANCH  81  82
ATOM     82  S   UNL A   1      42.324  18.889  26.159  1.00  0.00     0.124 S 
ATOM     83  O   UNL A   1      43.249  18.474  25.109  1.00  0.00    -0.237 OA
ATOM     84  O   UNL A   1      42.549  18.293  27.474  1.00  0.00    -0.237 OA
ATOM     85  O   UNL A   1      40.922  18.982  25.757  1.00  0.00    -0.744 OA
ENDBRANCH  81  82
ENDBRANCH  53  76
BRANCH  65  86
ATOM     86  C   UNL A   1      49.709  26.595  26.242  1.00  0.00    -0.014 A 
ATOM     87  C   UNL A   1      50.523  25.967  27.201  1.00  0.00     0.010 A 
ATOM     88  C   UNL A   1      50.192  26.751  24.929  1.00  0.00     0.010 A 
ATOM     89  C   UNL A   1      51.814  25.548  26.866  1.00  0.00     0.020 A 
ATOM     90  C   UNL A   1      51.468  26.305  24.582  1.00  0.00     0.020 A 
ATOM     91  C   UNL A   1      52.279  25.724  25.560  1.00  0.00     0.054 A 
BRANCH  91  92
ATOM     92  S   UNL A   1      53.951  25.158  25.144  1.00  0.00     0.124 S 
ATOM     93  O   UNL A   1      54.706  25.542  26.334  1.00  0.00    -0.237 OA
ATOM     94  O   UNL A   1      53.766  23.721  24.954  1.00  0.00    -0.237 OA
ATOM     95  O   UNL A   1      54.279  25.904  23.931  1.00  0.00    -0.744 OA
ENDBRANCH  91  92
ENDBRANCH  65  86
ENDBRANCH  39  40
ENDBRANCH  31  34
ENDBRANCH  29  30
ENDBRANCH   1  29
TORSDOF 16
ENDMDL
