MODEL 1
REMARK VINA RESULT:     -11.3      0.000      0.000
REMARK SMILES O=C(COc1ccccc1/C=N\N1CC[NH+](Cc2ccc(Cl)cc2)CC1)NCCCCNC(=O)c1ccc(-c2c3nc(c(-c4ccc(S(=O)(=O)[O-])cc4)c4ccc([nH]4)c(-c4ccc(S(=O)(=O)[O-])cc4)c4nc(c(-c5ccc(S(=O)(=O)[O-])cc5)c5ccc2[nH]5)C=C4)C=C3)cc1
REMARK SMILES IDX 28 1 27 2 1 3 2 4 3 6 4 7 5 8 6 9 10 10 7 11 9 12 8 13 11 14
REMARK SMILES IDX 12 15 13 16 14 17 26 18 15 19 25 20 16 21 17 23 18 24 19 25
REMARK SMILES IDX 24 26 20 27 23 28 21 29 22 30 29 31 30 32 31 33 32 34 33 35
REMARK SMILES IDX 34 37 35 38 36 39 94 40 37 41 93 42 38 43 39 44 40 45 87 46
REMARK SMILES IDX 41 47 92 48 86 49 88 50 42 51 91 52 85 53 84 54 43 56 73 57
REMARK SMILES IDX 54 58 72 59 55 60 58 61 71 62 89 63 56 64 57 65 70 67 90 68
REMARK SMILES IDX 59 69 44 70 45 71 53 72 46 73 52 74 47 75 48 76 49 77 50 78
REMARK SMILES IDX 51 79 74 80 75 81 83 82 76 83 82 84 77 85 78 86 79 87 80 88
REMARK SMILES IDX 81 89 60 90 61 91 69 92 62 93 68 94 63 95 64 96 65 97 66 98
REMARK SMILES IDX 67 99
REMARK H PARENT 27 5 16 22 32 36 88 55 58 66
REMARK Flexibility Score: inf
ROOT
ATOM      1  C   UNL A   1      32.701  29.947  25.943  1.00  0.00     0.116 C 
ENDROOT
BRANCH   1   2
ATOM      2  N   UNL A   1      33.497  28.774  25.587  1.00  0.00    -0.353 N 
ATOM      3  O   UNL A   1      32.806  27.504  27.382  1.00  0.00    -0.271 OA
ATOM      4  C   UNL A   1      33.324  27.574  26.268  1.00  0.00     0.257 C 
ATOM      5  H   UNL A   1      34.160  28.834  24.862  1.00  0.00     0.163 HD
BRANCH   4   6
ATOM      6  C   UNL A   1      33.840  26.301  25.555  1.00  0.00     0.329 C 
BRANCH   6   7
ATOM      7  O   UNL A   1      33.718  25.057  26.245  1.00  0.00    -0.483 OA
BRANCH   7   8
ATOM      8  C   UNL A   1      34.375  23.994  25.665  1.00  0.00     0.128 A 
ATOM      9  C   UNL A   1      35.497  24.238  24.869  1.00  0.00     0.047 A 
ATOM     10  C   UNL A   1      33.819  22.707  25.676  1.00  0.00     0.037 A 
ATOM     11  C   UNL A   1      36.058  23.202  24.108  1.00  0.00     0.004 A 
ATOM     12  C   UNL A   1      34.342  21.694  24.869  1.00  0.00     0.013 A 
ATOM     13  C   UNL A   1      35.476  21.934  24.100  1.00  0.00     0.001 A 
BRANCH  10  14
ATOM     14  C   UNL A   1      32.658  22.487  26.536  1.00  0.00     0.145 C 
ATOM     15  N   UNL A   1      31.435  22.919  26.484  1.00  0.00    -0.185 NA
BRANCH  15  16
ATOM     16  N   UNL A   1      31.100  23.912  25.655  1.00  0.00    -0.286 NA
ATOM     17  C   UNL A   1      30.110  24.819  26.243  1.00  0.00     0.200 C 
ATOM     18  C   UNL A   1      30.747  23.726  24.234  1.00  0.00     0.200 C 
ATOM     19  C   UNL A   1      30.283  26.205  25.622  1.00  0.00     0.286 C 
ATOM     20  C   UNL A   1      30.870  25.102  23.512  1.00  0.00     0.286 C 
ATOM     21  N   UNL A   1      30.216  26.261  24.155  1.00  0.00    -0.328 N 
ATOM     22  H   UNL A   1      30.789  27.056  23.874  1.00  0.00     0.348 HD
BRANCH  21  23
ATOM     23  C   UNL A   1      28.908  26.642  23.621  1.00  0.00     0.299 C 
BRANCH  23  24
ATOM     24  C   UNL A   1      28.805  28.035  23.050  1.00  0.00     0.006 A 
ATOM     25  C   UNL A   1      27.589  28.731  23.127  1.00  0.00     0.011 A 
ATOM     26  C   UNL A   1      29.925  28.681  22.509  1.00  0.00     0.011 A 
ATOM     27  C   UNL A   1      27.515  30.070  22.745  1.00  0.00     0.021 A 
ATOM     28  C   UNL A   1      29.854  30.024  22.139  1.00  0.00     0.021 A 
ATOM     29  C   UNL A   1      28.653  30.716  22.272  1.00  0.00     0.041 A 
ATOM     30  Cl  UNL A   1      28.576  32.386  21.865  1.00  0.00    -0.084 Cl
ENDBRANCH  23  24
ENDBRANCH  21  23
ENDBRANCH  15  16
ENDBRANCH  10  14
ENDBRANCH   7   8
ENDBRANCH   6   7
ENDBRANCH   4   6
ENDBRANCH   1   2
BRANCH   1  31
ATOM     31  C   UNL A   1      33.290  30.866  27.011  1.00  0.00     0.023 C 
BRANCH  31  32
ATOM     32  C   UNL A   1      34.571  30.381  27.697  1.00  0.00     0.023 C 
BRANCH  32  33
ATOM     33  C   UNL A   1      35.492  31.458  28.272  1.00  0.00     0.116 C 
BRANCH  33  34
ATOM     34  N   UNL A   1      35.477  31.524  29.728  1.00  0.00    -0.352 N 
ATOM     35  C   UNL A   1      36.384  31.057  30.653  1.00  0.00     0.251 C 
ATOM     36  H   UNL A   1      34.691  31.974  30.113  1.00  0.00     0.163 HD
ATOM     37  O   UNL A   1      36.108  31.114  31.854  1.00  0.00    -0.269 OA
BRANCH  35  38
ATOM     38  C   UNL A   1      37.675  30.461  30.232  1.00  0.00     0.039 A 
ATOM     39  C   UNL A   1      37.984  30.406  28.869  1.00  0.00     0.014 A 
ATOM     40  C   UNL A   1      38.574  29.935  31.163  1.00  0.00     0.014 A 
ATOM     41  C   UNL A   1      39.224  29.911  28.450  1.00  0.00     0.010 A 
ATOM     42  C   UNL A   1      39.838  29.510  30.751  1.00  0.00     0.010 A 
ATOM     43  C   UNL A   1      40.184  29.500  29.390  1.00  0.00    -0.014 A 
BRANCH  43  44
ATOM     44  C   UNL A   1      41.553  29.085  28.971  1.00  0.00     0.031 A 
ATOM     45  C   UNL A   1      42.675  30.089  28.905  1.00  0.00     0.074 A 
ATOM     46  C   UNL A   1      41.777  27.812  28.583  1.00  0.00     0.049 A 
ATOM     47  N   UNL A   1      43.909  29.922  28.503  1.00  0.00    -0.248 NA
ATOM     48  C   UNL A   1      42.363  31.464  29.326  1.00  0.00     0.031 C 
ATOM     49  C   UNL A   1      40.772  26.745  28.561  1.00  0.00     0.029 A 
ATOM     50  N   UNL A   1      42.918  27.198  28.125  1.00  0.00    -0.354 N 
ATOM     51  C   UNL A   1      44.518  31.168  28.613  1.00  0.00     0.074 A 
ATOM     52  C   UNL A   1      43.502  32.092  29.067  1.00  0.00     0.031 C 
ATOM     53  C   UNL A   1      41.346  25.607  28.136  1.00  0.00     0.029 A 
ATOM     54  C   UNL A   1      42.745  25.870  27.811  1.00  0.00     0.049 A 
ATOM     55  H   UNL A   1      43.779  27.665  28.032  1.00  0.00     0.167 HD
ATOM     56  C   UNL A   1      45.809  31.510  28.375  1.00  0.00     0.031 A 
ATOM     57  C   UNL A   1      43.604  24.963  27.305  1.00  0.00     0.031 A 
ATOM     58  C   UNL A   1      46.820  30.590  27.922  1.00  0.00     0.049 A 
ATOM     59  C   UNL A   1      45.025  25.373  27.022  1.00  0.00     0.074 A 
ATOM     60  C   UNL A   1      48.164  30.836  27.696  1.00  0.00     0.029 A 
ATOM     61  N   UNL A   1      46.602  29.255  27.620  1.00  0.00    -0.354 N 
ATOM     62  N   UNL A   1      45.594  26.543  27.190  1.00  0.00    -0.248 NA
ATOM     63  C   UNL A   1      45.922  24.337  26.492  1.00  0.00     0.031 C 
ATOM     64  C   UNL A   1      48.746  29.664  27.200  1.00  0.00     0.029 A 
ATOM     65  C   UNL A   1      47.781  28.670  27.184  1.00  0.00     0.049 A 
ATOM     66  H   UNL A   1      45.738  28.791  27.702  1.00  0.00     0.167 HD
ATOM     67  C   UNL A   1      46.923  26.375  26.816  1.00  0.00     0.074 A 
ATOM     68  C   UNL A   1      47.076  24.989  26.428  1.00  0.00     0.031 C 
ATOM     69  C   UNL A   1      47.925  27.289  26.798  1.00  0.00     0.031 A 
BRANCH  56  70
ATOM     70  C   UNL A   1      46.202  32.949  28.598  1.00  0.00    -0.014 A 
ATOM     71  C   UNL A   1      46.098  33.899  27.565  1.00  0.00     0.010 A 
ATOM     72  C   UNL A   1      46.636  33.369  29.869  1.00  0.00     0.010 A 
ATOM     73  C   UNL A   1      46.463  35.230  27.786  1.00  0.00     0.020 A 
ATOM     74  C   UNL A   1      46.971  34.707  30.103  1.00  0.00     0.020 A 
ATOM     75  C   UNL A   1      46.900  35.625  29.054  1.00  0.00     0.054 A 
BRANCH  75  76
ATOM     76  S   UNL A   1      47.346  37.363  29.315  1.00  0.00     0.124 S 
ATOM     77  O   UNL A   1      46.655  38.020  28.208  1.00  0.00    -0.237 OA
ATOM     78  O   UNL A   1      46.804  37.637  30.643  1.00  0.00    -0.237 OA
ATOM     79  O   UNL A   1      48.804  37.366  29.227  1.00  0.00    -0.744 OA
ENDBRANCH  75  76
ENDBRANCH  56  70
BRANCH  57  80
ATOM     80  C   UNL A   1      43.144  23.572  27.030  1.00  0.00    -0.014 A 
ATOM     81  C   UNL A   1      42.870  23.151  25.717  1.00  0.00     0.010 A 
ATOM     82  C   UNL A   1      42.986  22.656  28.086  1.00  0.00     0.010 A 
ATOM     83  C   UNL A   1      42.428  21.848  25.467  1.00  0.00     0.020 A 
ATOM     84  C   UNL A   1      42.574  21.344  27.837  1.00  0.00     0.020 A 
ATOM     85  C   UNL A   1      42.286  20.951  26.530  1.00  0.00     0.054 A 
BRANCH  85  86
ATOM     86  S   UNL A   1      41.758  19.252  26.176  1.00  0.00     0.124 S 
ATOM     87  O   UNL A   1      40.329  19.422  25.932  1.00  0.00    -0.237 OA
ATOM     88  O   UNL A   1      42.564  18.909  25.008  1.00  0.00    -0.237 OA
ATOM     89  O   UNL A   1      42.103  18.526  27.397  1.00  0.00    -0.744 OA
ENDBRANCH  85  86
ENDBRANCH  57  80
BRANCH  69  90
ATOM     90  C   UNL A   1      49.294  26.814  26.379  1.00  0.00    -0.014 A 
ATOM     91  C   UNL A   1      49.791  27.055  25.085  1.00  0.00     0.010 A 
ATOM     92  C   UNL A   1      50.117  26.163  27.317  1.00  0.00     0.010 A 
ATOM     93  C   UNL A   1      51.073  26.625  24.729  1.00  0.00     0.020 A 
ATOM     94  C   UNL A   1      51.410  25.761  26.974  1.00  0.00     0.020 A 
ATOM     95  C   UNL A   1      51.874  25.982  25.676  1.00  0.00     0.054 A 
BRANCH  95  96
ATOM     96  S   UNL A   1      53.550  25.476  25.202  1.00  0.00     0.124 S 
ATOM     97  O   UNL A   1      53.531  25.678  23.755  1.00  0.00    -0.237 OA
ATOM     98  O   UNL A   1      54.391  26.404  25.954  1.00  0.00    -0.237 OA
ATOM     99  O   UNL A   1      53.629  24.082  25.634  1.00  0.00    -0.744 OA
ENDBRANCH  95  96
ENDBRANCH  69  90
ENDBRANCH  43  44
ENDBRANCH  35  38
ENDBRANCH  33  34
ENDBRANCH  32  33
ENDBRANCH  31  32
ENDBRANCH   1  31
TORSDOF 20
ENDMDL
MODEL 2
REMARK VINA RESULT:     -11.1      5.666      7.635
REMARK SMILES O=C(COc1ccccc1/C=N\N1CC[NH+](Cc2ccc(Cl)cc2)CC1)NCCCCNC(=O)c1ccc(-c2c3nc(c(-c4ccc(S(=O)(=O)[O-])cc4)c4ccc([nH]4)c(-c4ccc(S(=O)(=O)[O-])cc4)c4nc(c(-c5ccc(S(=O)(=O)[O-])cc5)c5ccc2[nH]5)C=C4)C=C3)cc1
REMARK SMILES IDX 28 1 27 2 1 3 2 4 3 6 4 7 5 8 6 9 10 10 7 11 9 12 8 13 11 14
REMARK SMILES IDX 12 15 13 16 14 17 26 18 15 19 25 20 16 21 17 23 18 24 19 25
REMARK SMILES IDX 24 26 20 27 23 28 21 29 22 30 29 31 30 32 31 33 32 34 33 35
REMARK SMILES IDX 34 37 35 38 36 39 94 40 37 41 93 42 38 43 39 44 40 45 87 46
REMARK SMILES IDX 41 47 92 48 86 49 88 50 42 51 91 52 85 53 84 54 43 56 73 57
REMARK SMILES IDX 54 58 72 59 55 60 58 61 71 62 89 63 56 64 57 65 70 67 90 68
REMARK SMILES IDX 59 69 44 70 45 71 53 72 46 73 52 74 47 75 48 76 49 77 50 78
REMARK SMILES IDX 51 79 74 80 75 81 83 82 76 83 82 84 77 85 78 86 79 87 80 88
REMARK SMILES IDX 81 89 60 90 61 91 69 92 62 93 68 94 63 95 64 96 65 97 66 98
REMARK SMILES IDX 67 99
REMARK H PARENT 27 5 16 22 32 36 88 55 58 66
REMARK Flexibility Score: inf
ROOT
ATOM      1  C   UNL A   1      32.020  29.388  27.232  1.00  0.00     0.116 C 
ENDROOT
BRANCH   1   2
ATOM      2  N   UNL A   1      32.382  28.409  26.209  1.00  0.00    -0.353 N 
ATOM      3  O   UNL A   1      34.570  28.187  26.900  1.00  0.00    -0.271 OA
ATOM      4  C   UNL A   1      33.610  27.758  26.262  1.00  0.00     0.257 C 
ATOM      5  H   UNL A   1      31.754  28.211  25.477  1.00  0.00     0.163 HD
BRANCH   4   6
ATOM      6  C   UNL A   1      33.725  26.446  25.448  1.00  0.00     0.329 C 
BRANCH   6   7
ATOM      7  O   UNL A   1      33.658  25.212  26.164  1.00  0.00    -0.483 OA
BRANCH   7   8
ATOM      8  C   UNL A   1      34.302  24.150  25.568  1.00  0.00     0.128 A 
ATOM      9  C   UNL A   1      35.422  24.392  24.769  1.00  0.00     0.047 A 
ATOM     10  C   UNL A   1      33.733  22.869  25.565  1.00  0.00     0.037 A 
ATOM     11  C   UNL A   1      35.970  23.360  23.993  1.00  0.00     0.004 A 
ATOM     12  C   UNL A   1      34.242  21.860  24.744  1.00  0.00     0.013 A 
ATOM     13  C   UNL A   1      35.375  22.098  23.972  1.00  0.00     0.001 A 
BRANCH  10  14
ATOM     14  C   UNL A   1      32.573  22.650  26.428  1.00  0.00     0.145 C 
ATOM     15  N   UNL A   1      31.350  23.078  26.376  1.00  0.00    -0.185 NA
BRANCH  15  16
ATOM     16  N   UNL A   1      31.010  24.066  25.542  1.00  0.00    -0.286 NA
ATOM     17  C   UNL A   1      30.021  24.975  26.127  1.00  0.00     0.200 C 
ATOM     18  C   UNL A   1      30.653  23.871  24.123  1.00  0.00     0.200 C 
ATOM     19  C   UNL A   1      30.191  26.357  25.498  1.00  0.00     0.286 C 
ATOM     20  C   UNL A   1      30.772  25.243  23.392  1.00  0.00     0.286 C 
ATOM     21  N   UNL A   1      30.118  26.405  24.030  1.00  0.00    -0.328 N 
ATOM     22  H   UNL A   1      30.690  27.199  23.742  1.00  0.00     0.348 HD
BRANCH  21  23
ATOM     23  C   UNL A   1      28.809  26.780  23.499  1.00  0.00     0.299 C 
BRANCH  23  24
ATOM     24  C   UNL A   1      28.683  28.193  22.983  1.00  0.00     0.006 A 
ATOM     25  C   UNL A   1      27.470  28.883  23.130  1.00  0.00     0.011 A 
ATOM     26  C   UNL A   1      29.782  28.862  22.424  1.00  0.00     0.011 A 
ATOM     27  C   UNL A   1      27.379  30.235  22.801  1.00  0.00     0.021 A 
ATOM     28  C   UNL A   1      29.695  30.217  22.107  1.00  0.00     0.021 A 
ATOM     29  C   UNL A   1      28.499  30.901  22.311  1.00  0.00     0.041 A 
ATOM     30  Cl  UNL A   1      28.405  32.584  21.967  1.00  0.00    -0.084 Cl
ENDBRANCH  23  24
ENDBRANCH  21  23
ENDBRANCH  15  16
ENDBRANCH  10  14
ENDBRANCH   7   8
ENDBRANCH   6   7
ENDBRANCH   4   6
ENDBRANCH   1   2
BRANCH   1  31
ATOM     31  C   UNL A   1      32.221  30.856  26.866  1.00  0.00     0.023 C 
BRANCH  31  32
ATOM     32  C   UNL A   1      33.259  31.629  27.686  1.00  0.00     0.023 C 
BRANCH  32  33
ATOM     33  C   UNL A   1      33.627  33.027  27.185  1.00  0.00     0.116 C 
BRANCH  33  34
ATOM     34  N   UNL A   1      32.998  34.102  27.942  1.00  0.00    -0.352 N 
ATOM     35  C   UNL A   1      33.276  34.591  29.198  1.00  0.00     0.251 C 
ATOM     36  H   UNL A   1      32.254  34.551  27.481  1.00  0.00     0.163 HD
ATOM     37  O   UNL A   1      32.530  35.436  29.699  1.00  0.00    -0.269 OA
BRANCH  35  38
ATOM     38  C   UNL A   1      34.441  34.102  29.975  1.00  0.00     0.039 A 
ATOM     39  C   UNL A   1      34.217  33.296  31.097  1.00  0.00     0.014 A 
ATOM     40  C   UNL A   1      35.749  34.445  29.624  1.00  0.00     0.014 A 
ATOM     41  C   UNL A   1      35.302  32.766  31.807  1.00  0.00     0.010 A 
ATOM     42  C   UNL A   1      36.828  33.857  30.287  1.00  0.00     0.010 A 
ATOM     43  C   UNL A   1      36.619  33.003  31.381  1.00  0.00    -0.014 A 
BRANCH  43  44
ATOM     44  C   UNL A   1      37.780  32.348  32.049  1.00  0.00     0.031 A 
ATOM     45  C   UNL A   1      38.281  32.845  33.380  1.00  0.00     0.074 A 
ATOM     46  C   UNL A   1      38.430  31.342  31.427  1.00  0.00     0.049 A 
ATOM     47  N   UNL A   1      39.313  32.440  34.077  1.00  0.00    -0.248 NA
ATOM     48  C   UNL A   1      37.539  33.954  34.000  1.00  0.00     0.031 C 
ATOM     49  C   UNL A   1      38.075  30.787  30.118  1.00  0.00     0.029 A 
ATOM     50  N   UNL A   1      39.531  30.612  31.806  1.00  0.00    -0.354 N 
ATOM     51  C   UNL A   1      39.351  33.249  35.208  1.00  0.00     0.074 A 
ATOM     52  C   UNL A   1      38.270  34.202  35.077  1.00  0.00     0.031 C 
ATOM     53  C   UNL A   1      38.925  29.791  29.816  1.00  0.00     0.029 A 
ATOM     54  C   UNL A   1      39.914  29.666  30.883  1.00  0.00     0.049 A 
ATOM     55  H   UNL A   1      40.001  30.753  32.659  1.00  0.00     0.167 HD
ATOM     56  C   UNL A   1      40.195  33.193  36.268  1.00  0.00     0.031 A 
ATOM     57  C   UNL A   1      40.948  28.802  30.881  1.00  0.00     0.031 A 
ATOM     58  C   UNL A   1      41.271  32.245  36.398  1.00  0.00     0.049 A 
ATOM     59  C   UNL A   1      41.889  28.778  32.057  1.00  0.00     0.074 A 
ATOM     60  C   UNL A   1      42.150  32.085  37.455  1.00  0.00     0.029 A 
ATOM     61  N   UNL A   1      41.620  31.304  35.442  1.00  0.00    -0.354 N 
ATOM     62  N   UNL A   1      41.869  29.512  33.143  1.00  0.00    -0.248 NA
ATOM     63  C   UNL A   1      42.986  27.801  32.009  1.00  0.00     0.031 C 
ATOM     64  C   UNL A   1      43.069  31.086  37.113  1.00  0.00     0.029 A 
ATOM     65  C   UNL A   1      42.718  30.577  35.873  1.00  0.00     0.049 A 
ATOM     66  H   UNL A   1      41.157  31.172  34.583  1.00  0.00     0.167 HD
ATOM     67  C   UNL A   1      42.931  29.063  33.923  1.00  0.00     0.074 A 
ATOM     68  C   UNL A   1      43.561  27.986  33.190  1.00  0.00     0.031 C 
ATOM     69  C   UNL A   1      43.343  29.505  35.137  1.00  0.00     0.031 A 
BRANCH  56  70
ATOM     70  C   UNL A   1      39.989  34.195  37.377  1.00  0.00    -0.014 A 
ATOM     71  C   UNL A   1      40.641  35.442  37.360  1.00  0.00     0.010 A 
ATOM     72  C   UNL A   1      39.098  33.906  38.427  1.00  0.00     0.010 A 
ATOM     73  C   UNL A   1      40.439  36.362  38.393  1.00  0.00     0.020 A 
ATOM     74  C   UNL A   1      38.868  34.838  39.445  1.00  0.00     0.020 A 
ATOM     75  C   UNL A   1      39.556  36.052  39.430  1.00  0.00     0.054 A 
BRANCH  75  76
ATOM     76  S   UNL A   1      39.298  37.275  40.744  1.00  0.00     0.124 S 
ATOM     77  O   UNL A   1      38.904  36.430  41.869  1.00  0.00    -0.237 OA
ATOM     78  O   UNL A   1      40.612  37.902  40.861  1.00  0.00    -0.237 OA
ATOM     79  O   UNL A   1      38.244  38.139  40.217  1.00  0.00    -0.744 OA
ENDBRANCH  75  76
ENDBRANCH  56  70
BRANCH  57  80
ATOM     80  C   UNL A   1      41.151  27.885  29.724  1.00  0.00    -0.014 A 
ATOM     81  C   UNL A   1      40.383  26.715  29.590  1.00  0.00     0.010 A 
ATOM     82  C   UNL A   1      42.113  28.184  28.741  1.00  0.00     0.010 A 
ATOM     83  C   UNL A   1      40.585  25.853  28.508  1.00  0.00     0.020 A 
ATOM     84  C   UNL A   1      42.297  27.341  27.642  1.00  0.00     0.020 A 
ATOM     85  C   UNL A   1      41.540  26.174  27.538  1.00  0.00     0.054 A 
BRANCH  85  86
ATOM     86  S   UNL A   1      41.751  25.065  26.118  1.00  0.00     0.124 S 
ATOM     87  O   UNL A   1      40.907  23.933  26.488  1.00  0.00    -0.237 OA
ATOM     88  O   UNL A   1      41.268  25.880  25.008  1.00  0.00    -0.237 OA
ATOM     89  O   UNL A   1      43.188  24.796  26.105  1.00  0.00    -0.744 OA
ENDBRANCH  85  86
ENDBRANCH  57  80
BRANCH  69  90
ATOM     90  C   UNL A   1      44.512  28.800  35.775  1.00  0.00    -0.014 A 
ATOM     91  C   UNL A   1      45.834  29.229  35.561  1.00  0.00     0.010 A 
ATOM     92  C   UNL A   1      44.276  27.722  36.650  1.00  0.00     0.010 A 
ATOM     93  C   UNL A   1      46.901  28.573  36.183  1.00  0.00     0.020 A 
ATOM     94  C   UNL A   1      45.337  27.085  37.299  1.00  0.00     0.020 A 
ATOM     95  C   UNL A   1      46.644  27.505  37.049  1.00  0.00     0.054 A 
BRANCH  95  96
ATOM     96  S   UNL A   1      48.042  26.701  37.880  1.00  0.00     0.124 S 
ATOM     97  O   UNL A   1      48.146  27.473  39.116  1.00  0.00    -0.237 OA
ATOM     98  O   UNL A   1      47.575  25.326  38.035  1.00  0.00    -0.237 OA
ATOM     99  O   UNL A   1      49.150  26.875  36.944  1.00  0.00    -0.744 OA
ENDBRANCH  95  96
ENDBRANCH  69  90
ENDBRANCH  43  44
ENDBRANCH  35  38
ENDBRANCH  33  34
ENDBRANCH  32  33
ENDBRANCH  31  32
ENDBRANCH   1  31
TORSDOF 20
ENDMDL
MODEL 3
REMARK VINA RESULT:     -10.9      5.726      9.752
REMARK SMILES O=C(COc1ccccc1/C=N\N1CC[NH+](Cc2ccc(Cl)cc2)CC1)NCCCCNC(=O)c1ccc(-c2c3nc(c(-c4ccc(S(=O)(=O)[O-])cc4)c4ccc([nH]4)c(-c4ccc(S(=O)(=O)[O-])cc4)c4nc(c(-c5ccc(S(=O)(=O)[O-])cc5)c5ccc2[nH]5)C=C4)C=C3)cc1
REMARK SMILES IDX 28 1 27 2 1 3 2 4 3 6 4 7 5 8 6 9 10 10 7 11 9 12 8 13 11 14
REMARK SMILES IDX 12 15 13 16 14 17 26 18 15 19 25 20 16 21 17 23 18 24 19 25
REMARK SMILES IDX 24 26 20 27 23 28 21 29 22 30 29 31 30 32 31 33 32 34 33 35
REMARK SMILES IDX 34 37 35 38 36 39 94 40 37 41 93 42 38 43 39 44 40 45 87 46
REMARK SMILES IDX 41 47 92 48 86 49 88 50 42 51 91 52 85 53 84 54 43 56 73 57
REMARK SMILES IDX 54 58 72 59 55 60 58 61 71 62 89 63 56 64 57 65 70 67 90 68
REMARK SMILES IDX 59 69 44 70 45 71 53 72 46 73 52 74 47 75 48 76 49 77 50 78
REMARK SMILES IDX 51 79 74 80 75 81 83 82 76 83 82 84 77 85 78 86 79 87 80 88
REMARK SMILES IDX 81 89 60 90 61 91 69 92 62 93 68 94 63 95 64 96 65 97 66 98
REMARK SMILES IDX 67 99
REMARK H PARENT 27 5 16 22 32 36 88 55 58 66
REMARK Flexibility Score: inf
ROOT
ATOM      1  C   UNL A   1      32.277  29.694  25.514  1.00  0.00     0.116 C 
ENDROOT
BRANCH   1   2
ATOM      2  N   UNL A   1      33.322  28.674  25.469  1.00  0.00    -0.353 N 
ATOM      3  O   UNL A   1      32.487  27.444  27.230  1.00  0.00    -0.271 OA
ATOM      4  C   UNL A   1      33.215  27.523  26.242  1.00  0.00     0.257 C 
ATOM      5  H   UNL A   1      34.107  28.802  24.889  1.00  0.00     0.163 HD
BRANCH   4   6
ATOM      6  C   UNL A   1      34.088  26.321  25.806  1.00  0.00     0.329 C 
BRANCH   6   7
ATOM      7  O   UNL A   1      33.753  25.034  26.327  1.00  0.00    -0.483 OA
BRANCH   7   8
ATOM      8  C   UNL A   1      34.397  23.972  25.730  1.00  0.00     0.128 A 
ATOM      9  C   UNL A   1      35.533  24.211  24.953  1.00  0.00     0.047 A 
ATOM     10  C   UNL A   1      33.814  22.697  25.702  1.00  0.00     0.037 A 
ATOM     11  C   UNL A   1      36.084  23.182  24.175  1.00  0.00     0.004 A 
ATOM     12  C   UNL A   1      34.327  21.692  24.879  1.00  0.00     0.013 A 
ATOM     13  C   UNL A   1      35.476  21.927  24.129  1.00  0.00     0.001 A 
BRANCH  10  14
ATOM     14  C   UNL A   1      32.637  22.481  26.542  1.00  0.00     0.145 C 
ATOM     15  N   UNL A   1      31.418  22.916  26.469  1.00  0.00    -0.185 NA
BRANCH  15  16
ATOM     16  N   UNL A   1      31.100  23.910  25.634  1.00  0.00    -0.286 NA
ATOM     17  C   UNL A   1      30.095  24.815  26.200  1.00  0.00     0.200 C 
ATOM     18  C   UNL A   1      30.780  23.726  24.205  1.00  0.00     0.200 C 
ATOM     19  C   UNL A   1      30.281  26.202  25.587  1.00  0.00     0.286 C 
ATOM     20  C   UNL A   1      30.918  25.105  23.489  1.00  0.00     0.286 C 
ATOM     21  N   UNL A   1      30.247  26.261  24.118  1.00  0.00    -0.328 N 
ATOM     22  H   UNL A   1      30.825  27.057  23.852  1.00  0.00     0.348 HD
BRANCH  21  23
ATOM     23  C   UNL A   1      28.952  26.640  23.556  1.00  0.00     0.299 C 
BRANCH  23  24
ATOM     24  C   UNL A   1      28.829  28.066  23.076  1.00  0.00     0.006 A 
ATOM     25  C   UNL A   1      29.939  28.707  22.504  1.00  0.00     0.011 A 
ATOM     26  C   UNL A   1      27.602  28.743  23.121  1.00  0.00     0.011 A 
ATOM     27  C   UNL A   1      29.806  29.965  21.918  1.00  0.00     0.021 A 
ATOM     28  C   UNL A   1      27.466  29.996  22.523  1.00  0.00     0.021 A 
ATOM     29  C   UNL A   1      28.564  30.594  21.911  1.00  0.00     0.041 A 
ATOM     30  Cl  UNL A   1      28.386  32.116  21.129  1.00  0.00    -0.084 Cl
ENDBRANCH  23  24
ENDBRANCH  21  23
ENDBRANCH  15  16
ENDBRANCH  10  14
ENDBRANCH   7   8
ENDBRANCH   6   7
ENDBRANCH   4   6
ENDBRANCH   1   2
BRANCH   1  31
ATOM     31  C   UNL A   1      32.088  30.412  26.848  1.00  0.00     0.023 C 
BRANCH  31  32
ATOM     32  C   UNL A   1      33.364  30.762  27.621  1.00  0.00     0.023 C 
BRANCH  32  33
ATOM     33  C   UNL A   1      34.021  32.103  27.289  1.00  0.00     0.116 C 
BRANCH  33  34
ATOM     34  N   UNL A   1      33.360  33.246  27.906  1.00  0.00    -0.352 N 
ATOM     35  C   UNL A   1      33.629  33.905  29.084  1.00  0.00     0.251 C 
ATOM     36  H   UNL A   1      32.597  33.605  27.399  1.00  0.00     0.163 HD
ATOM     37  O   UNL A   1      32.857  34.782  29.479  1.00  0.00    -0.269 OA
BRANCH  35  38
ATOM     38  C   UNL A   1      34.817  33.561  29.904  1.00  0.00     0.039 A 
ATOM     39  C   UNL A   1      34.699  32.571  30.886  1.00  0.00     0.014 A 
ATOM     40  C   UNL A   1      36.037  34.219  29.733  1.00  0.00     0.014 A 
ATOM     41  C   UNL A   1      35.821  32.180  31.627  1.00  0.00     0.010 A 
ATOM     42  C   UNL A   1      37.170  33.778  30.419  1.00  0.00     0.010 A 
ATOM     43  C   UNL A   1      37.080  32.748  31.368  1.00  0.00    -0.014 A 
BRANCH  43  44
ATOM     44  C   UNL A   1      38.307  32.260  32.060  1.00  0.00     0.031 A 
ATOM     45  C   UNL A   1      39.224  31.268  31.392  1.00  0.00     0.074 A 
ATOM     46  C   UNL A   1      38.566  32.659  33.323  1.00  0.00     0.049 A 
ATOM     47  N   UNL A   1      40.297  30.688  31.865  1.00  0.00    -0.248 NA
ATOM     48  C   UNL A   1      38.878  30.861  30.021  1.00  0.00     0.031 C 
ATOM     49  C   UNL A   1      37.743  33.587  34.103  1.00  0.00     0.029 A 
ATOM     50  N   UNL A   1      39.592  32.331  34.178  1.00  0.00    -0.354 N 
ATOM     51  C   UNL A   1      40.749  29.840  30.858  1.00  0.00     0.074 A 
ATOM     52  C   UNL A   1      39.801  29.943  29.769  1.00  0.00     0.031 C 
ATOM     53  C   UNL A   1      38.307  33.770  35.309  1.00  0.00     0.029 A 
ATOM     54  C   UNL A   1      39.504  32.940  35.409  1.00  0.00     0.049 A 
ATOM     55  H   UNL A   1      40.321  31.718  33.931  1.00  0.00     0.167 HD
ATOM     56  C   UNL A   1      41.859  29.062  30.832  1.00  0.00     0.031 A 
ATOM     57  C   UNL A   1      40.285  32.837  36.502  1.00  0.00     0.031 A 
ATOM     58  C   UNL A   1      42.801  28.959  31.917  1.00  0.00     0.049 A 
ATOM     59  C   UNL A   1      41.497  31.944  36.460  1.00  0.00     0.074 A 
ATOM     60  C   UNL A   1      43.977  28.230  31.965  1.00  0.00     0.029 A 
ATOM     61  N   UNL A   1      42.675  29.595  33.142  1.00  0.00    -0.354 N 
ATOM     62  N   UNL A   1      41.937  31.199  35.475  1.00  0.00    -0.248 NA
ATOM     63  C   UNL A   1      42.323  31.889  37.674  1.00  0.00     0.031 C 
ATOM     64  C   UNL A   1      44.532  28.378  33.241  1.00  0.00     0.029 A 
ATOM     65  C   UNL A   1      43.738  29.255  33.963  1.00  0.00     0.049 A 
ATOM     66  H   UNL A   1      41.938  30.199  33.393  1.00  0.00     0.167 HD
ATOM     67  C   UNL A   1      43.109  30.610  35.940  1.00  0.00     0.074 A 
ATOM     68  C   UNL A   1      43.315  31.098  37.287  1.00  0.00     0.031 C 
ATOM     69  C   UNL A   1      43.937  29.744  35.305  1.00  0.00     0.031 A 
BRANCH  56  70
ATOM     70  C   UNL A   1      42.114  28.251  29.586  1.00  0.00    -0.014 A 
ATOM     71  C   UNL A   1      41.580  26.958  29.439  1.00  0.00     0.010 A 
ATOM     72  C   UNL A   1      42.859  28.806  28.529  1.00  0.00     0.010 A 
ATOM     73  C   UNL A   1      41.822  26.219  28.277  1.00  0.00     0.020 A 
ATOM     74  C   UNL A   1      43.076  28.082  27.352  1.00  0.00     0.020 A 
ATOM     75  C   UNL A   1      42.571  26.785  27.242  1.00  0.00     0.054 A 
BRANCH  75  76
ATOM     76  S   UNL A   1      42.850  25.810  25.739  1.00  0.00     0.124 S 
ATOM     77  O   UNL A   1      42.817  24.444  26.258  1.00  0.00    -0.237 OA
ATOM     78  O   UNL A   1      41.719  26.188  24.897  1.00  0.00    -0.237 OA
ATOM     79  O   UNL A   1      44.156  26.263  25.266  1.00  0.00    -0.744 OA
ENDBRANCH  75  76
ENDBRANCH  56  70
BRANCH  57  80
ATOM     80  C   UNL A   1      39.945  33.601  37.735  1.00  0.00    -0.014 A 
ATOM     81  C   UNL A   1      39.085  33.056  38.705  1.00  0.00     0.010 A 
ATOM     82  C   UNL A   1      40.489  34.881  37.950  1.00  0.00     0.010 A 
ATOM     83  C   UNL A   1      38.760  33.783  39.855  1.00  0.00     0.020 A 
ATOM     84  C   UNL A   1      40.192  35.597  39.113  1.00  0.00     0.020 A 
ATOM     85  C   UNL A   1      39.319  35.049  40.053  1.00  0.00     0.054 A 
BRANCH  85  86
ATOM     86  S   UNL A   1      38.922  35.953  41.575  1.00  0.00     0.124 S 
ATOM     87  O   UNL A   1      38.873  37.333  41.105  1.00  0.00    -0.237 OA
ATOM     88  O   UNL A   1      37.642  35.368  41.963  1.00  0.00    -0.237 OA
ATOM     89  O   UNL A   1      40.038  35.633  42.463  1.00  0.00    -0.744 OA
ENDBRANCH  85  86
ENDBRANCH  57  80
BRANCH  69  90
ATOM     90  C   UNL A   1      45.171  29.292  36.044  1.00  0.00    -0.014 A 
ATOM     91  C   UNL A   1      46.353  30.054  36.035  1.00  0.00     0.010 A 
ATOM     92  C   UNL A   1      45.126  28.109  36.806  1.00  0.00     0.010 A 
ATOM     93  C   UNL A   1      47.476  29.625  36.748  1.00  0.00     0.020 A 
ATOM     94  C   UNL A   1      46.236  27.694  37.545  1.00  0.00     0.020 A 
ATOM     95  C   UNL A   1      47.410  28.448  37.500  1.00  0.00     0.054 A 
BRANCH  95  96
ATOM     96  S   UNL A   1      48.867  27.938  38.452  1.00  0.00     0.124 S 
ATOM     97  O   UNL A   1      48.785  26.481  38.378  1.00  0.00    -0.237 OA
ATOM     98  O   UNL A   1      49.967  28.543  37.705  1.00  0.00    -0.237 OA
ATOM     99  O   UNL A   1      48.634  28.507  39.777  1.00  0.00    -0.744 OA
ENDBRANCH  95  96
ENDBRANCH  69  90
ENDBRANCH  43  44
ENDBRANCH  35  38
ENDBRANCH  33  34
ENDBRANCH  32  33
ENDBRANCH  31  32
ENDBRANCH   1  31
TORSDOF 20
ENDMDL
