MODEL 1
REMARK VINA RESULT:     -11.1      0.000      0.000
REMARK SMILES Cc1cc(C(=O)NC[C@@H]2CC[C@H](C(=O)NCCCCNC(=O)c3ccc(-c4c5nc(c(-c6ccc(S(=O)(=O)[O-])cc6)c6ccc([nH]6)c(-c6ccc(S(=O)(=O)[O-])cc6)c6nc(c(-c7ccc(S(=O)(=O)[O-])cc7)c7ccc4[nH]7)C=C6)C=C5)cc3)O2)on1
REMARK SMILES IDX 17 1 16 2 15 3 13 4 14 5 12 7 9 8 10 9 83 10 11 11 8 12 7 13
REMARK SMILES IDX 5 14 6 15 4 17 1 18 2 19 3 20 85 21 84 22 18 23 19 24 20 25
REMARK SMILES IDX 21 26 22 28 23 29 24 30 82 31 25 32 81 33 26 34 27 35 28 36
REMARK SMILES IDX 75 37 29 38 80 39 74 40 76 41 30 42 79 43 73 44 72 45 31 47
REMARK SMILES IDX 61 48 42 49 60 50 43 51 46 52 59 53 77 54 44 55 45 56 58 58
REMARK SMILES IDX 78 59 47 60 32 61 33 62 41 63 34 64 40 65 35 66 36 67 37 68
REMARK SMILES IDX 38 69 39 70 62 71 63 72 71 73 64 74 70 75 65 76 66 77 67 78
REMARK SMILES IDX 68 79 69 80 48 81 49 82 57 83 50 84 56 85 51 86 52 87 53 88
REMARK SMILES IDX 54 89 55 90
REMARK H PARENT 15 6 7 16 20 27 76 46 46 57
REMARK Flexibility Score: inf
ROOT
ATOM      1  C   UNL A   1      34.605  30.132  27.543  1.00  0.00     0.023 C 
ENDROOT
BRANCH   1   2
ATOM      2  C   UNL A   1      33.453  29.922  26.567  1.00  0.00     0.116 C 
BRANCH   2   3
ATOM      3  N   UNL A   1      33.868  29.347  25.312  1.00  0.00    -0.354 N 
ATOM      4  C   UNL A   1      33.114  28.903  24.263  1.00  0.00     0.249 C 
ATOM      5  O   UNL A   1      33.717  28.504  23.261  1.00  0.00    -0.272 OA
ATOM      6  H   UNL A   1      34.841  29.262  25.192  1.00  0.00     0.163 HD
BRANCH   4   7
ATOM      7  C   UNL A   1      31.564  28.874  24.305  1.00  0.00     0.207 C 
ATOM      8  C   UNL A   1      30.041  27.096  24.049  1.00  0.00     0.138 C 
ATOM      9  C   UNL A   1      30.095  27.817  22.706  1.00  0.00     0.037 C 
ATOM     10  O   UNL A   1      31.017  27.704  24.909  1.00  0.00    -0.363 OA
ATOM     11  C   UNL A   1      30.884  29.082  22.964  1.00  0.00     0.045 C 
BRANCH   8  12
ATOM     12  C   UNL A   1      30.369  25.590  23.985  1.00  0.00     0.148 C 
BRANCH  12  13
ATOM     13  N   UNL A   1      30.028  24.898  25.209  1.00  0.00    -0.347 N 
ATOM     14  C   UNL A   1      30.795  24.276  26.163  1.00  0.00     0.289 C 
ATOM     15  O   UNL A   1      30.191  23.934  27.181  1.00  0.00    -0.266 OA
ATOM     16  H   UNL A   1      29.061  24.868  25.394  1.00  0.00     0.164 HD
BRANCH  14  17
ATOM     17  C   UNL A   1      32.209  24.036  25.976  1.00  0.00     0.224 A 
ATOM     18  C   UNL A   1      35.862  24.109  25.644  1.00  0.00     0.070 C 
ATOM     19  C   UNL A   1      34.407  23.858  25.722  1.00  0.00     0.081 A 
ATOM     20  C   UNL A   1      33.370  24.781  25.983  1.00  0.00     0.083 A 
ATOM     21  N   UNL A   1      33.920  22.633  25.517  1.00  0.00    -0.084 NA
ATOM     22  O   UNL A   1      32.553  22.743  25.676  1.00  0.00    -0.351 OA
ENDBRANCH  14  17
ENDBRANCH  12  13
ENDBRANCH   8  12
ENDBRANCH   4   7
ENDBRANCH   2   3
ENDBRANCH   1   2
BRANCH   1  23
ATOM     23  C   UNL A   1      34.963  31.596  27.771  1.00  0.00     0.023 C 
BRANCH  23  24
ATOM     24  C   UNL A   1      35.877  31.854  28.965  1.00  0.00     0.116 C 
BRANCH  24  25
ATOM     25  N   UNL A   1      35.694  30.913  30.063  1.00  0.00    -0.352 N 
ATOM     26  C   UNL A   1      36.632  30.049  30.587  1.00  0.00     0.251 C 
ATOM     27  H   UNL A   1      34.802  30.893  30.477  1.00  0.00     0.163 HD
ATOM     28  O   UNL A   1      36.324  29.239  31.453  1.00  0.00    -0.269 OA
BRANCH  26  29
ATOM     29  C   UNL A   1      38.002  30.096  30.038  1.00  0.00     0.039 A 
ATOM     30  C   UNL A   1      39.082  30.238  30.911  1.00  0.00     0.014 A 
ATOM     31  C   UNL A   1      38.209  29.856  28.678  1.00  0.00     0.014 A 
ATOM     32  C   UNL A   1      40.380  30.046  30.430  1.00  0.00     0.010 A 
ATOM     33  C   UNL A   1      39.494  29.586  28.222  1.00  0.00     0.010 A 
ATOM     34  C   UNL A   1      40.591  29.668  29.094  1.00  0.00    -0.014 A 
BRANCH  34  35
ATOM     35  C   UNL A   1      41.945  29.347  28.572  1.00  0.00     0.031 A 
ATOM     36  C   UNL A   1      42.261  27.937  28.155  1.00  0.00     0.074 A 
ATOM     37  C   UNL A   1      42.907  30.291  28.556  1.00  0.00     0.049 A 
ATOM     38  N   UNL A   1      43.409  27.418  27.807  1.00  0.00    -0.248 NA
ATOM     39  C   UNL A   1      41.143  26.978  28.158  1.00  0.00     0.031 C 
ATOM     40  C   UNL A   1      42.736  31.691  28.954  1.00  0.00     0.029 A 
ATOM     41  N   UNL A   1      44.232  30.212  28.200  1.00  0.00    -0.354 N 
ATOM     42  C   UNL A   1      43.155  26.072  27.566  1.00  0.00     0.074 A 
ATOM     43  C   UNL A   1      41.759  25.843  27.863  1.00  0.00     0.031 C 
ATOM     44  C   UNL A   1      43.902  32.341  28.798  1.00  0.00     0.029 A 
ATOM     45  C   UNL A   1      44.917  31.398  28.340  1.00  0.00     0.049 A 
ATOM     46  H   UNL A   1      44.653  29.383  27.875  1.00  0.00     0.167 HD
ATOM     47  C   UNL A   1      44.002  25.117  27.115  1.00  0.00     0.031 A 
ATOM     48  C   UNL A   1      46.218  31.689  28.138  1.00  0.00     0.031 A 
ATOM     49  C   UNL A   1      45.386  25.351  26.809  1.00  0.00     0.049 A 
ATOM     50  C   UNL A   1      47.150  30.599  27.677  1.00  0.00     0.074 A 
ATOM     51  C   UNL A   1      46.320  24.456  26.317  1.00  0.00     0.029 A 
ATOM     52  N   UNL A   1      46.035  26.567  26.958  1.00  0.00    -0.354 N 
ATOM     53  N   UNL A   1      46.882  29.341  27.419  1.00  0.00    -0.248 NA
ATOM     54  C   UNL A   1      48.559  30.967  27.474  1.00  0.00     0.031 C 
ATOM     55  C   UNL A   1      47.545  25.119  26.213  1.00  0.00     0.029 A 
ATOM     56  C   UNL A   1      47.360  26.443  26.579  1.00  0.00     0.049 A 
ATOM     57  H   UNL A   1      45.615  27.395  27.284  1.00  0.00     0.167 HD
ATOM     58  C   UNL A   1      48.077  28.782  26.980  1.00  0.00     0.074 A 
ATOM     59  C   UNL A   1      49.070  29.835  27.007  1.00  0.00     0.031 C 
ATOM     60  C   UNL A   1      48.327  27.511  26.584  1.00  0.00     0.031 A 
BRANCH  47  61
ATOM     61  C   UNL A   1      43.448  23.731  26.920  1.00  0.00    -0.014 A 
ATOM     62  C   UNL A   1      43.151  23.248  25.633  1.00  0.00     0.010 A 
ATOM     63  C   UNL A   1      43.265  22.885  28.028  1.00  0.00     0.010 A 
ATOM     64  C   UNL A   1      42.646  21.958  25.460  1.00  0.00     0.020 A 
ATOM     65  C   UNL A   1      42.789  21.583  27.857  1.00  0.00     0.020 A 
ATOM     66  C   UNL A   1      42.467  21.133  26.574  1.00  0.00     0.054 A 
BRANCH  66  67
ATOM     67  S   UNL A   1      41.839  19.451  26.314  1.00  0.00     0.124 S 
ATOM     68  O   UNL A   1      42.525  19.062  25.084  1.00  0.00    -0.237 OA
ATOM     69  O   UNL A   1      42.275  18.757  27.523  1.00  0.00    -0.237 OA
ATOM     70  O   UNL A   1      40.395  19.635  26.190  1.00  0.00    -0.744 OA
ENDBRANCH  66  67
ENDBRANCH  47  61
BRANCH  48  71
ATOM     71  C   UNL A   1      46.723  33.074  28.357  1.00  0.00    -0.014 A 
ATOM     72  C   UNL A   1      46.718  34.009  27.307  1.00  0.00     0.010 A 
ATOM     73  C   UNL A   1      47.228  33.462  29.612  1.00  0.00     0.010 A 
ATOM     74  C   UNL A   1      47.235  35.294  27.497  1.00  0.00     0.020 A 
ATOM     75  C   UNL A   1      47.718  34.756  29.815  1.00  0.00     0.020 A 
ATOM     76  C   UNL A   1      47.732  35.659  28.750  1.00  0.00     0.054 A 
BRANCH  76  77
ATOM     77  S   UNL A   1      48.374  37.341  28.981  1.00  0.00     0.124 S 
ATOM     78  O   UNL A   1      48.183  37.544  30.413  1.00  0.00    -0.237 OA
ATOM     79  O   UNL A   1      49.760  37.213  28.538  1.00  0.00    -0.237 OA
ATOM     80  O   UNL A   1      47.523  38.153  28.114  1.00  0.00    -0.744 OA
ENDBRANCH  76  77
ENDBRANCH  48  71
BRANCH  60  81
ATOM     81  C   UNL A   1      49.707  27.186  26.076  1.00  0.00    -0.014 A 
ATOM     82  C   UNL A   1      50.668  26.579  26.901  1.00  0.00     0.010 A 
ATOM     83  C   UNL A   1      50.002  27.398  24.716  1.00  0.00     0.010 A 
ATOM     84  C   UNL A   1      51.905  26.195  26.374  1.00  0.00     0.020 A 
ATOM     85  C   UNL A   1      51.225  26.990  24.181  1.00  0.00     0.020 A 
ATOM     86  C   UNL A   1      52.171  26.393  25.015  1.00  0.00     0.054 A 
BRANCH  86  87
ATOM     87  S   UNL A   1      53.746  25.800  24.339  1.00  0.00     0.124 S 
ATOM     88  O   UNL A   1      53.549  25.980  22.903  1.00  0.00    -0.237 OA
ATOM     89  O   UNL A   1      54.717  26.699  24.958  1.00  0.00    -0.237 OA
ATOM     90  O   UNL A   1      53.817  24.412  24.788  1.00  0.00    -0.744 OA
ENDBRANCH  86  87
ENDBRANCH  60  81
ENDBRANCH  34  35
ENDBRANCH  26  29
ENDBRANCH  24  25
ENDBRANCH  23  24
ENDBRANCH   1  23
TORSDOF 17
ENDMDL
MODEL 2
REMARK VINA RESULT:     -11.1      6.580     11.620
REMARK SMILES Cc1cc(C(=O)NC[C@@H]2CC[C@H](C(=O)NCCCCNC(=O)c3ccc(-c4c5nc(c(-c6ccc(S(=O)(=O)[O-])cc6)c6ccc([nH]6)c(-c6ccc(S(=O)(=O)[O-])cc6)c6nc(c(-c7ccc(S(=O)(=O)[O-])cc7)c7ccc4[nH]7)C=C6)C=C5)cc3)O2)on1
REMARK SMILES IDX 17 1 16 2 15 3 13 4 14 5 12 7 9 8 10 9 83 10 11 11 8 12 7 13
REMARK SMILES IDX 5 14 6 15 4 17 1 18 2 19 3 20 85 21 84 22 18 23 19 24 20 25
REMARK SMILES IDX 21 26 22 28 23 29 24 30 82 31 25 32 81 33 26 34 27 35 28 36
REMARK SMILES IDX 75 37 29 38 80 39 74 40 76 41 30 42 79 43 73 44 72 45 31 47
REMARK SMILES IDX 61 48 42 49 60 50 43 51 46 52 59 53 77 54 44 55 45 56 58 58
REMARK SMILES IDX 78 59 47 60 32 61 33 62 41 63 34 64 40 65 35 66 36 67 37 68
REMARK SMILES IDX 38 69 39 70 62 71 63 72 71 73 64 74 70 75 65 76 66 77 67 78
REMARK SMILES IDX 68 79 69 80 48 81 49 82 57 83 50 84 56 85 51 86 52 87 53 88
REMARK SMILES IDX 54 89 55 90
REMARK H PARENT 15 6 7 16 20 27 76 46 46 57
REMARK Flexibility Score: inf
ROOT
ATOM      1  C   UNL A   1      37.608  21.807  25.638  1.00  0.00     0.023 C 
ENDROOT
BRANCH   1   2
ATOM      2  C   UNL A   1      36.427  21.082  25.005  1.00  0.00     0.116 C 
BRANCH   2   3
ATOM      3  N   UNL A   1      35.179  21.325  25.683  1.00  0.00    -0.354 N 
ATOM      4  C   UNL A   1      34.063  21.982  25.249  1.00  0.00     0.249 C 
ATOM      5  O   UNL A   1      33.087  22.003  26.008  1.00  0.00    -0.272 OA
ATOM      6  H   UNL A   1      35.121  20.963  26.597  1.00  0.00     0.163 HD
BRANCH   4   7
ATOM      7  C   UNL A   1      33.998  22.695  23.874  1.00  0.00     0.207 C 
ATOM      8  C   UNL A   1      33.530  24.934  23.310  1.00  0.00     0.138 C 
ATOM      9  C   UNL A   1      32.241  24.152  23.082  1.00  0.00     0.037 C 
ATOM     10  O   UNL A   1      34.490  24.034  23.885  1.00  0.00    -0.363 OA
ATOM     11  C   UNL A   1      32.629  22.696  23.216  1.00  0.00     0.045 C 
BRANCH   8  12
ATOM     12  C   UNL A   1      33.394  26.129  24.277  1.00  0.00     0.148 C 
BRANCH  12  13
ATOM     13  N   UNL A   1      32.285  25.975  25.193  1.00  0.00    -0.347 N 
ATOM     14  C   UNL A   1      31.706  26.833  26.095  1.00  0.00     0.289 C 
ATOM     15  O   UNL A   1      30.654  26.433  26.599  1.00  0.00    -0.266 OA
ATOM     16  H   UNL A   1      31.865  25.085  25.164  1.00  0.00     0.164 HD
BRANCH  14  17
ATOM     17  C   UNL A   1      32.298  28.109  26.433  1.00  0.00     0.224 A 
ATOM     18  C   UNL A   1      34.267  30.960  27.641  1.00  0.00     0.070 C 
ATOM     19  C   UNL A   1      33.338  29.968  27.056  1.00  0.00     0.081 A 
ATOM     20  C   UNL A   1      33.352  28.563  27.197  1.00  0.00     0.083 A 
ATOM     21  N   UNL A   1      32.316  30.365  26.296  1.00  0.00    -0.084 NA
ATOM     22  O   UNL A   1      31.669  29.208  25.907  1.00  0.00    -0.351 OA
ENDBRANCH  14  17
ENDBRANCH  12  13
ENDBRANCH   8  12
ENDBRANCH   4   7
ENDBRANCH   2   3
ENDBRANCH   1   2
BRANCH   1  23
ATOM     23  C   UNL A   1      37.547  23.325  25.502  1.00  0.00     0.023 C 
BRANCH  23  24
ATOM     24  C   UNL A   1      38.449  24.091  26.463  1.00  0.00     0.116 C 
BRANCH  24  25
ATOM     25  N   UNL A   1      39.873  23.866  26.244  1.00  0.00    -0.352 N 
ATOM     26  C   UNL A   1      40.921  24.635  26.705  1.00  0.00     0.251 C 
ATOM     27  H   UNL A   1      40.113  23.076  25.709  1.00  0.00     0.163 HD
ATOM     28  O   UNL A   1      42.073  24.388  26.371  1.00  0.00    -0.269 OA
BRANCH  26  29
ATOM     29  C   UNL A   1      40.606  25.791  27.568  1.00  0.00     0.039 A 
ATOM     30  C   UNL A   1      39.654  25.647  28.579  1.00  0.00     0.014 A 
ATOM     31  C   UNL A   1      41.360  26.961  27.456  1.00  0.00     0.014 A 
ATOM     32  C   UNL A   1      39.523  26.651  29.542  1.00  0.00     0.010 A 
ATOM     33  C   UNL A   1      41.284  27.918  28.461  1.00  0.00     0.010 A 
ATOM     34  C   UNL A   1      40.373  27.769  29.519  1.00  0.00    -0.014 A 
BRANCH  34  35
ATOM     35  C   UNL A   1      40.340  28.803  30.585  1.00  0.00     0.031 A 
ATOM     36  C   UNL A   1      41.256  28.670  31.772  1.00  0.00     0.074 A 
ATOM     37  C   UNL A   1      39.438  29.804  30.534  1.00  0.00     0.049 A 
ATOM     38  N   UNL A   1      41.289  29.378  32.871  1.00  0.00    -0.248 NA
ATOM     39  C   UNL A   1      42.242  27.578  31.729  1.00  0.00     0.031 C 
ATOM     40  C   UNL A   1      38.480  30.034  29.449  1.00  0.00     0.029 A 
ATOM     41  N   UNL A   1      39.168  30.812  31.428  1.00  0.00    -0.354 N 
ATOM     42  C   UNL A   1      42.287  28.807  33.654  1.00  0.00     0.074 A 
ATOM     43  C   UNL A   1      42.793  27.663  32.931  1.00  0.00     0.031 C 
ATOM     44  C   UNL A   1      37.747  31.124  29.729  1.00  0.00     0.029 A 
ATOM     45  C   UNL A   1      38.143  31.643  31.035  1.00  0.00     0.049 A 
ATOM     46  H   UNL A   1      39.663  30.930  32.271  1.00  0.00     0.167 HD
ATOM     47  C   UNL A   1      42.757  29.215  34.856  1.00  0.00     0.031 A 
ATOM     48  C   UNL A   1      37.576  32.693  31.662  1.00  0.00     0.031 A 
ATOM     49  C   UNL A   1      42.260  30.361  35.567  1.00  0.00     0.049 A 
ATOM     50  C   UNL A   1      38.088  33.101  33.019  1.00  0.00     0.074 A 
ATOM     51  C   UNL A   1      42.690  30.873  36.778  1.00  0.00     0.029 A 
ATOM     52  N   UNL A   1      41.228  31.177  35.129  1.00  0.00    -0.354 N 
ATOM     53  N   UNL A   1      39.058  32.572  33.726  1.00  0.00    -0.248 NA
ATOM     54  C   UNL A   1      37.434  34.251  33.662  1.00  0.00     0.031 C 
ATOM     55  C   UNL A   1      41.887  31.972  37.095  1.00  0.00     0.029 A 
ATOM     56  C   UNL A   1      40.999  32.181  36.052  1.00  0.00     0.049 A 
ATOM     57  H   UNL A   1      40.732  31.058  34.287  1.00  0.00     0.167 HD
ATOM     58  C   UNL A   1      39.159  33.351  34.873  1.00  0.00     0.074 A 
ATOM     59  C   UNL A   1      38.154  34.388  34.768  1.00  0.00     0.031 C 
ATOM     60  C   UNL A   1      40.014  33.224  35.917  1.00  0.00     0.031 A 
BRANCH  47  61
ATOM     61  C   UNL A   1      43.872  28.415  35.475  1.00  0.00    -0.014 A 
ATOM     62  C   UNL A   1      45.217  28.733  35.217  1.00  0.00     0.010 A 
ATOM     63  C   UNL A   1      43.575  27.363  36.361  1.00  0.00     0.010 A 
ATOM     64  C   UNL A   1      46.245  27.991  35.802  1.00  0.00     0.020 A 
ATOM     65  C   UNL A   1      44.600  26.638  36.972  1.00  0.00     0.020 A 
ATOM     66  C   UNL A   1      45.930  26.948  36.676  1.00  0.00     0.054 A 
BRANCH  66  67
ATOM     67  S   UNL A   1      47.287  26.023  37.445  1.00  0.00     0.124 S 
ATOM     68  O   UNL A   1      48.358  27.017  37.459  1.00  0.00    -0.237 OA
ATOM     69  O   UNL A   1      46.737  25.675  38.752  1.00  0.00    -0.237 OA
ATOM     70  O   UNL A   1      47.498  24.896  36.540  1.00  0.00    -0.744 OA
ENDBRANCH  66  67
ENDBRANCH  47  61
BRANCH  48  71
ATOM     71  C   UNL A   1      36.465  33.448  31.015  1.00  0.00    -0.014 A 
ATOM     72  C   UNL A   1      35.259  33.668  31.703  1.00  0.00     0.010 A 
ATOM     73  C   UNL A   1      36.599  33.936  29.703  1.00  0.00     0.010 A 
ATOM     74  C   UNL A   1      34.198  34.334  31.082  1.00  0.00     0.020 A 
ATOM     75  C   UNL A   1      35.552  34.630  29.088  1.00  0.00     0.020 A 
ATOM     76  C   UNL A   1      34.351  34.811  29.778  1.00  0.00     0.054 A 
BRANCH  76  77
ATOM     77  S   UNL A   1      32.970  35.696  29.001  1.00  0.00     0.124 S 
ATOM     78  O   UNL A   1      33.658  36.781  28.309  1.00  0.00    -0.237 OA
ATOM     79  O   UNL A   1      32.381  34.670  28.144  1.00  0.00    -0.237 OA
ATOM     80  O   UNL A   1      32.143  36.099  30.135  1.00  0.00    -0.744 OA
ENDBRANCH  76  77
ENDBRANCH  48  71
BRANCH  60  81
ATOM     81  C   UNL A   1      39.962  34.262  37.005  1.00  0.00    -0.014 A 
ATOM     82  C   UNL A   1      40.649  35.482  36.888  1.00  0.00     0.010 A 
ATOM     83  C   UNL A   1      39.120  34.049  38.114  1.00  0.00     0.010 A 
ATOM     84  C   UNL A   1      40.498  36.470  37.866  1.00  0.00     0.020 A 
ATOM     85  C   UNL A   1      38.947  35.045  39.077  1.00  0.00     0.020 A 
ATOM     86  C   UNL A   1      39.640  36.248  38.949  1.00  0.00     0.054 A 
BRANCH  86  87
ATOM     87  S   UNL A   1      39.392  37.581  40.153  1.00  0.00     0.124 S 
ATOM     88  O   UNL A   1      40.723  38.179  40.225  1.00  0.00    -0.237 OA
ATOM     89  O   UNL A   1      38.368  38.403  39.512  1.00  0.00    -0.237 OA
ATOM     90  O   UNL A   1      38.957  36.883  41.360  1.00  0.00    -0.744 OA
ENDBRANCH  86  87
ENDBRANCH  60  81
ENDBRANCH  34  35
ENDBRANCH  26  29
ENDBRANCH  24  25
ENDBRANCH  23  24
ENDBRANCH   1  23
TORSDOF 17
ENDMDL
MODEL 3
REMARK VINA RESULT:     -11.0      5.321      7.319
REMARK SMILES Cc1cc(C(=O)NC[C@@H]2CC[C@H](C(=O)NCCCCNC(=O)c3ccc(-c4c5nc(c(-c6ccc(S(=O)(=O)[O-])cc6)c6ccc([nH]6)c(-c6ccc(S(=O)(=O)[O-])cc6)c6nc(c(-c7ccc(S(=O)(=O)[O-])cc7)c7ccc4[nH]7)C=C6)C=C5)cc3)O2)on1
REMARK SMILES IDX 17 1 16 2 15 3 13 4 14 5 12 7 9 8 10 9 83 10 11 11 8 12 7 13
REMARK SMILES IDX 5 14 6 15 4 17 1 18 2 19 3 20 85 21 84 22 18 23 19 24 20 25
REMARK SMILES IDX 21 26 22 28 23 29 24 30 82 31 25 32 81 33 26 34 27 35 28 36
REMARK SMILES IDX 75 37 29 38 80 39 74 40 76 41 30 42 79 43 73 44 72 45 31 47
REMARK SMILES IDX 61 48 42 49 60 50 43 51 46 52 59 53 77 54 44 55 45 56 58 58
REMARK SMILES IDX 78 59 47 60 32 61 33 62 41 63 34 64 40 65 35 66 36 67 37 68
REMARK SMILES IDX 38 69 39 70 62 71 63 72 71 73 64 74 70 75 65 76 66 77 67 78
REMARK SMILES IDX 68 79 69 80 48 81 49 82 57 83 50 84 56 85 51 86 52 87 53 88
REMARK SMILES IDX 54 89 55 90
REMARK H PARENT 15 6 7 16 20 27 76 46 46 57
REMARK Flexibility Score: inf
ROOT
ATOM      1  C   UNL A   1      31.737  27.958  26.544  1.00  0.00     0.023 C 
ENDROOT
BRANCH   1   2
ATOM      2  C   UNL A   1      31.011  26.738  25.989  1.00  0.00     0.116 C 
BRANCH   2   3
ATOM      3  N   UNL A   1      31.066  25.595  26.865  1.00  0.00    -0.354 N 
ATOM      4  C   UNL A   1      31.556  24.341  26.634  1.00  0.00     0.249 C 
ATOM      5  O   UNL A   1      31.544  23.546  27.580  1.00  0.00    -0.272 OA
ATOM      6  H   UNL A   1      30.697  25.740  27.766  1.00  0.00     0.163 HD
BRANCH   4   7
ATOM      7  C   UNL A   1      32.096  23.900  25.249  1.00  0.00     0.207 C 
ATOM      8  C   UNL A   1      31.797  24.825  23.103  1.00  0.00     0.138 C 
ATOM      9  C   UNL A   1      30.822  23.657  23.211  1.00  0.00     0.037 C 
ATOM     10  O   UNL A   1      32.433  24.981  24.382  1.00  0.00    -0.363 OA
ATOM     11  C   UNL A   1      31.199  22.939  24.489  1.00  0.00     0.045 C 
BRANCH   8  12
ATOM     12  C   UNL A   1      31.143  26.178  22.755  1.00  0.00     0.148 C 
BRANCH  12  13
ATOM     13  N   UNL A   1      32.111  27.250  22.662  1.00  0.00    -0.347 N 
ATOM     14  C   UNL A   1      31.986  28.616  22.736  1.00  0.00     0.289 C 
ATOM     15  O   UNL A   1      33.049  29.237  22.790  1.00  0.00    -0.266 OA
ATOM     16  H   UNL A   1      33.035  26.942  22.518  1.00  0.00     0.164 HD
BRANCH  14  17
ATOM     17  C   UNL A   1      30.697  29.272  22.740  1.00  0.00     0.224 A 
ATOM     18  C   UNL A   1      27.571  31.066  23.425  1.00  0.00     0.070 C 
ATOM     19  C   UNL A   1      28.747  30.314  22.938  1.00  0.00     0.081 A 
ATOM     20  C   UNL A   1      29.892  29.911  23.660  1.00  0.00     0.083 A 
ATOM     21  N   UNL A   1      28.813  29.910  21.668  1.00  0.00    -0.084 NA
ATOM     22  O   UNL A   1      30.027  29.262  21.545  1.00  0.00    -0.351 OA
ENDBRANCH  14  17
ENDBRANCH  12  13
ENDBRANCH   8  12
ENDBRANCH   4   7
ENDBRANCH   2   3
ENDBRANCH   1   2
BRANCH   1  23
ATOM     23  C   UNL A   1      33.254  27.813  26.577  1.00  0.00     0.023 C 
BRANCH  23  24
ATOM     24  C   UNL A   1      34.026  29.027  26.072  1.00  0.00     0.116 C 
BRANCH  24  25
ATOM     25  N   UNL A   1      33.596  30.289  26.662  1.00  0.00    -0.352 N 
ATOM     26  C   UNL A   1      34.246  31.022  27.633  1.00  0.00     0.251 C 
ATOM     27  H   UNL A   1      32.747  30.660  26.331  1.00  0.00     0.163 HD
ATOM     28  O   UNL A   1      33.730  32.023  28.114  1.00  0.00    -0.269 OA
BRANCH  26  29
ATOM     29  C   UNL A   1      35.556  30.534  28.108  1.00  0.00     0.039 A 
ATOM     30  C   UNL A   1      36.721  31.155  27.653  1.00  0.00     0.014 A 
ATOM     31  C   UNL A   1      35.609  29.561  29.108  1.00  0.00     0.014 A 
ATOM     32  C   UNL A   1      37.939  30.862  28.272  1.00  0.00     0.010 A 
ATOM     33  C   UNL A   1      36.808  29.333  29.774  1.00  0.00     0.010 A 
ATOM     34  C   UNL A   1      37.982  29.989  29.371  1.00  0.00    -0.014 A 
BRANCH  34  35
ATOM     35  C   UNL A   1      39.237  29.736  30.125  1.00  0.00     0.031 A 
ATOM     36  C   UNL A   1      40.156  28.630  29.681  1.00  0.00     0.074 A 
ATOM     37  C   UNL A   1      39.506  30.431  31.249  1.00  0.00     0.049 A 
ATOM     38  N   UNL A   1      41.220  28.155  30.274  1.00  0.00    -0.248 NA
ATOM     39  C   UNL A   1      39.815  27.951  28.420  1.00  0.00     0.031 C 
ATOM     40  C   UNL A   1      38.686  31.514  31.799  1.00  0.00     0.029 A 
ATOM     41  N   UNL A   1      40.544  30.320  32.143  1.00  0.00    -0.354 N 
ATOM     42  C   UNL A   1      41.665  27.113  29.467  1.00  0.00     0.074 A 
ATOM     43  C   UNL A   1      40.724  26.989  28.376  1.00  0.00     0.031 C 
ATOM     44  C   UNL A   1      39.263  31.981  32.918  1.00  0.00     0.029 A 
ATOM     45  C   UNL A   1      40.465  31.201  33.198  1.00  0.00     0.049 A 
ATOM     46  H   UNL A   1      41.276  29.671  32.038  1.00  0.00     0.167 HD
ATOM     47  C   UNL A   1      42.770  26.346  29.608  1.00  0.00     0.031 A 
ATOM     48  C   UNL A   1      41.260  31.353  34.275  1.00  0.00     0.031 A 
ATOM     49  C   UNL A   1      43.710  26.480  30.686  1.00  0.00     0.049 A 
ATOM     50  C   UNL A   1      42.462  30.457  34.432  1.00  0.00     0.074 A 
ATOM     51  C   UNL A   1      44.878  25.769  30.902  1.00  0.00     0.029 A 
ATOM     52  N   UNL A   1      43.596  27.389  31.727  1.00  0.00    -0.354 N 
ATOM     53  N   UNL A   1      42.886  29.503  33.638  1.00  0.00    -0.248 NA
ATOM     54  C   UNL A   1      43.295  30.661  35.626  1.00  0.00     0.031 C 
ATOM     55  C   UNL A   1      45.445  26.218  32.097  1.00  0.00     0.029 A 
ATOM     56  C   UNL A   1      44.665  27.249  32.594  1.00  0.00     0.049 A 
ATOM     57  H   UNL A   1      42.862  28.037  31.833  1.00  0.00     0.167 HD
ATOM     58  C   UNL A   1      44.059  29.026  34.213  1.00  0.00     0.074 A 
ATOM     59  C   UNL A   1      44.278  29.793  35.421  1.00  0.00     0.031 C 
ATOM     60  C   UNL A   1      44.883  28.044  33.776  1.00  0.00     0.031 A 
BRANCH  47  61
ATOM     61  C   UNL A   1      43.025  25.293  28.561  1.00  0.00    -0.014 A 
ATOM     62  C   UNL A   1      42.598  23.967  28.752  1.00  0.00     0.010 A 
ATOM     63  C   UNL A   1      43.657  25.642  27.354  1.00  0.00     0.010 A 
ATOM     64  C   UNL A   1      42.831  23.000  27.773  1.00  0.00     0.020 A 
ATOM     65  C   UNL A   1      43.865  24.684  26.358  1.00  0.00     0.020 A 
ATOM     66  C   UNL A   1      43.463  23.364  26.581  1.00  0.00     0.054 A 
BRANCH  66  67
ATOM     67  S   UNL A   1      43.723  22.093  25.315  1.00  0.00     0.124 S 
ATOM     68  O   UNL A   1      45.036  21.567  25.683  1.00  0.00    -0.237 OA
ATOM     69  O   UNL A   1      42.599  21.187  25.536  1.00  0.00    -0.237 OA
ATOM     70  O   UNL A   1      43.683  22.839  24.059  1.00  0.00    -0.744 OA
ENDBRANCH  66  67
ENDBRANCH  47  61
BRANCH  48  71
ATOM     71  C   UNL A   1      40.961  32.401  35.292  1.00  0.00    -0.014 A 
ATOM     72  C   UNL A   1      41.492  33.696  35.158  1.00  0.00     0.010 A 
ATOM     73  C   UNL A   1      40.156  32.107  36.408  1.00  0.00     0.010 A 
ATOM     74  C   UNL A   1      41.251  34.668  36.135  1.00  0.00     0.020 A 
ATOM     75  C   UNL A   1      39.887  33.084  37.372  1.00  0.00     0.020 A 
ATOM     76  C   UNL A   1      40.451  34.355  37.236  1.00  0.00     0.054 A 
BRANCH  76  77
ATOM     77  S   UNL A   1      40.129  35.639  38.478  1.00  0.00     0.124 S 
ATOM     78  O   UNL A   1      41.382  35.658  39.225  1.00  0.00    -0.237 OA
ATOM     79  O   UNL A   1      39.865  36.815  37.653  1.00  0.00    -0.237 OA
ATOM     80  O   UNL A   1      38.972  35.126  39.207  1.00  0.00    -0.744 OA
ENDBRANCH  76  77
ENDBRANCH  48  71
BRANCH  60  81
ATOM     81  C   UNL A   1      46.142  27.777  34.556  1.00  0.00    -0.014 A 
ATOM     82  C   UNL A   1      46.178  26.823  35.587  1.00  0.00     0.010 A 
ATOM     83  C   UNL A   1      47.334  28.421  34.172  1.00  0.00     0.010 A 
ATOM     84  C   UNL A   1      47.386  26.522  36.224  1.00  0.00     0.020 A 
ATOM     85  C   UNL A   1      48.546  28.101  34.788  1.00  0.00     0.020 A 
ATOM     86  C   UNL A   1      48.563  27.156  35.813  1.00  0.00     0.054 A 
BRANCH  86  87
ATOM     87  S   UNL A   1      50.129  26.678  36.593  1.00  0.00     0.124 S 
ATOM     88  O   UNL A   1      51.096  27.495  35.863  1.00  0.00    -0.237 OA
ATOM     89  O   UNL A   1      49.917  27.052  37.989  1.00  0.00    -0.237 OA
ATOM     90  O   UNL A   1      50.217  25.241  36.346  1.00  0.00    -0.744 OA
ENDBRANCH  86  87
ENDBRANCH  60  81
ENDBRANCH  34  35
ENDBRANCH  26  29
ENDBRANCH  24  25
ENDBRANCH  23  24
ENDBRANCH   1  23
TORSDOF 17
ENDMDL
