MODEL 1
REMARK VINA RESULT:     -10.2      0.000      0.000
REMARK SMILES CCn1cnc(S(=O)(=O)N[C@H](Cc2cnc[nH]2)C(=O)NCCCCNC(=O)c2ccc(-c3c4nc(c(-c5ccc(S(=O)(=O)[O-])cc5)c5ccc([nH]5)c(-c5ccc(S(=O)(=O)[O-])cc5)c5nc(c(-c6ccc(S(=O)(=O)[O-])cc6)c6ccc3[nH]6)C=C5)C=C4)cc2)c1
REMARK SMILES IDX 22 1 21 2 20 3 18 4 19 5 11 7 10 8 7 10 8 11 9 12 6 13 3 14
REMARK SMILES IDX 4 15 88 16 5 17 2 18 1 19 12 20 13 21 14 22 17 23 15 24
REMARK SMILES IDX 16 25 23 27 24 28 25 29 26 30 27 32 28 33 29 34 87 35 30 36
REMARK SMILES IDX 86 37 31 38 32 39 33 40 80 41 34 42 85 43 79 44 81 45 35 46
REMARK SMILES IDX 84 47 78 48 77 49 36 51 66 52 47 53 65 54 48 55 51 56 64 57
REMARK SMILES IDX 82 58 49 59 50 60 63 62 83 63 52 64 37 65 38 66 46 67 39 68
REMARK SMILES IDX 45 69 40 70 41 71 42 72 43 73 44 74 67 75 68 76 76 77 69 78
REMARK SMILES IDX 75 79 70 80 71 81 72 82 73 83 74 84 53 85 54 86 62 87 55 88
REMARK SMILES IDX 61 89 56 90 57 91 58 92 59 93 60 94
REMARK H PARENT 20 6 10 9 17 26 25 31 81 50 51 61
REMARK Flexibility Score: inf
ROOT
ATOM      1  C   UNL A   1      33.642  28.750  23.816  1.00  0.00     0.023 C 
ENDROOT
BRANCH   1   2
ATOM      2  C   UNL A   1      32.617  28.651  22.691  1.00  0.00     0.116 C 
BRANCH   2   3
ATOM      3  N   UNL A   1      32.378  27.273  22.319  1.00  0.00    -0.355 N 
ATOM      4  C   UNL A   1      31.403  26.419  22.716  1.00  0.00     0.238 C 
ATOM      5  O   UNL A   1      31.467  25.245  22.338  1.00  0.00    -0.273 OA
ATOM      6  H   UNL A   1      33.026  26.897  21.680  1.00  0.00     0.163 HD
BRANCH   4   7
ATOM      7  C   UNL A   1      30.269  26.862  23.633  1.00  0.00     0.165 C 
BRANCH   7   8
ATOM      8  N   UNL A   1      29.681  25.881  24.584  1.00  0.00    -0.197 NA
ATOM      9  H   UNL A   1      28.684  26.092  24.633  1.00  0.00     0.142 HD
BRANCH   8  10
ATOM     10  S   UNL A   1      30.219  25.756  26.182  1.00  0.00     0.260 S 
ATOM     11  O   UNL A   1      29.143  25.083  26.879  1.00  0.00    -0.205 OA
ATOM     12  O   UNL A   1      30.637  27.089  26.554  1.00  0.00    -0.205 OA
BRANCH  10  13
ATOM     13  C   UNL A   1      31.631  24.771  26.394  1.00  0.00     0.188 A 
ATOM     14  N   UNL A   1      33.626  23.897  26.236  1.00  0.00    -0.336 N 
ATOM     15  C   UNL A   1      32.875  23.181  27.123  1.00  0.00     0.201 A 
ATOM     16  C   UNL A   1      32.863  24.948  25.795  1.00  0.00     0.129 A 
ATOM     17  N   UNL A   1      31.661  23.666  27.227  1.00  0.00    -0.224 NA
BRANCH  14  18
ATOM     18  C   UNL A   1      34.992  23.631  25.829  1.00  0.00     0.120 C 
ATOM     19  C   UNL A   1      35.295  23.899  24.362  1.00  0.00     0.027 C 
ENDBRANCH  14  18
ENDBRANCH  10  13
ENDBRANCH   8  10
ENDBRANCH   7   8
BRANCH   7  20
ATOM     20  C   UNL A   1      29.188  27.642  22.829  1.00  0.00     0.085 C 
BRANCH  20  21
ATOM     21  C   UNL A   1      28.965  29.069  23.225  1.00  0.00     0.037 A 
ATOM     22  C   UNL A   1      29.794  30.014  23.793  1.00  0.00     0.134 A 
ATOM     23  N   UNL A   1      27.766  29.724  23.054  1.00  0.00    -0.348 N 
ATOM     24  N   UNL A   1      29.158  31.221  23.898  1.00  0.00    -0.245 NA
ATOM     25  C   UNL A   1      27.948  31.023  23.432  1.00  0.00     0.196 A 
ATOM     26  H   UNL A   1      26.929  29.327  22.720  1.00  0.00     0.167 HD
ENDBRANCH  20  21
ENDBRANCH   7  20
ENDBRANCH   4   7
ENDBRANCH   2   3
ENDBRANCH   1   2
BRANCH   1  27
ATOM     27  C   UNL A   1      33.035  28.711  25.219  1.00  0.00     0.023 C 
BRANCH  27  28
ATOM     28  C   UNL A   1      34.034  28.886  26.360  1.00  0.00     0.116 C 
BRANCH  28  29
ATOM     29  N   UNL A   1      33.835  30.121  27.103  1.00  0.00    -0.352 N 
ATOM     30  C   UNL A   1      34.664  30.702  28.030  1.00  0.00     0.251 C 
ATOM     31  H   UNL A   1      32.997  30.603  26.916  1.00  0.00     0.163 HD
ATOM     32  O   UNL A   1      34.299  31.684  28.668  1.00  0.00    -0.269 OA
BRANCH  30  33
ATOM     33  C   UNL A   1      35.988  30.100  28.276  1.00  0.00     0.039 A 
ATOM     34  C   UNL A   1      36.951  30.151  27.266  1.00  0.00     0.014 A 
ATOM     35  C   UNL A   1      36.289  29.545  29.523  1.00  0.00     0.014 A 
ATOM     36  C   UNL A   1      38.246  29.710  27.534  1.00  0.00     0.010 A 
ATOM     37  C   UNL A   1      37.597  29.168  29.807  1.00  0.00     0.010 A 
ATOM     38  C   UNL A   1      38.588  29.252  28.817  1.00  0.00    -0.014 A 
BRANCH  38  39
ATOM     39  C   UNL A   1      39.983  28.868  29.148  1.00  0.00     0.031 A 
ATOM     40  C   UNL A   1      40.904  29.864  29.794  1.00  0.00     0.074 A 
ATOM     41  C   UNL A   1      40.437  27.648  28.801  1.00  0.00     0.049 A 
ATOM     42  N   UNL A   1      42.169  29.735  30.102  1.00  0.00    -0.248 NA
ATOM     43  C   UNL A   1      40.338  31.185  30.112  1.00  0.00     0.031 C 
ATOM     44  C   UNL A   1      39.653  26.610  28.126  1.00  0.00     0.029 A 
ATOM     45  N   UNL A   1      41.674  27.075  28.961  1.00  0.00    -0.354 N 
ATOM     46  C   UNL A   1      42.554  30.961  30.632  1.00  0.00     0.074 A 
ATOM     47  C   UNL A   1      41.402  31.834  30.562  1.00  0.00     0.031 C 
ATOM     48  C   UNL A   1      40.420  25.521  27.953  1.00  0.00     0.029 A 
ATOM     49  C   UNL A   1      41.756  25.793  28.471  1.00  0.00     0.049 A 
ATOM     50  H   UNL A   1      42.430  27.538  29.388  1.00  0.00     0.167 HD
ATOM     51  C   UNL A   1      43.752  31.322  31.148  1.00  0.00     0.031 A 
ATOM     52  C   UNL A   1      42.793  24.934  28.437  1.00  0.00     0.031 A 
ATOM     53  C   UNL A   1      44.891  30.448  31.230  1.00  0.00     0.049 A 
ATOM     54  C   UNL A   1      44.112  25.355  29.023  1.00  0.00     0.074 A 
ATOM     55  C   UNL A   1      46.132  30.699  31.788  1.00  0.00     0.029 A 
ATOM     56  N   UNL A   1      44.929  29.150  30.742  1.00  0.00    -0.354 N 
ATOM     57  N   UNL A   1      44.439  26.497  29.578  1.00  0.00    -0.248 NA
ATOM     58  C   UNL A   1      45.199  24.366  28.989  1.00  0.00     0.031 C 
ATOM     59  C   UNL A   1      46.934  29.569  31.600  1.00  0.00     0.029 A 
ATOM     60  C   UNL A   1      46.176  28.594  30.968  1.00  0.00     0.049 A 
ATOM     61  H   UNL A   1      44.178  28.691  30.299  1.00  0.00     0.167 HD
ATOM     62  C   UNL A   1      45.762  26.357  29.981  1.00  0.00     0.074 A 
ATOM     63  C   UNL A   1      46.170  25.016  29.618  1.00  0.00     0.031 C 
ATOM     64  C   UNL A   1      46.565  27.258  30.599  1.00  0.00     0.031 A 
BRANCH  51  65
ATOM     65  C   UNL A   1      43.888  32.730  31.662  1.00  0.00    -0.014 A 
ATOM     66  C   UNL A   1      44.377  33.759  30.835  1.00  0.00     0.010 A 
ATOM     67  C   UNL A   1      43.497  33.037  32.977  1.00  0.00     0.010 A 
ATOM     68  C   UNL A   1      44.513  35.058  31.329  1.00  0.00     0.020 A 
ATOM     69  C   UNL A   1      43.606  34.341  33.467  1.00  0.00     0.020 A 
ATOM     70  C   UNL A   1      44.131  35.341  32.644  1.00  0.00     0.054 A 
BRANCH  70  71
ATOM     71  S   UNL A   1      44.300  37.040  33.254  1.00  0.00     0.124 S 
ATOM     72  O   UNL A   1      45.710  37.086  33.632  1.00  0.00    -0.237 OA
ATOM     73  O   UNL A   1      43.937  37.839  32.086  1.00  0.00    -0.237 OA
ATOM     74  O   UNL A   1      43.355  37.105  34.366  1.00  0.00    -0.744 OA
ENDBRANCH  70  71
ENDBRANCH  51  65
BRANCH  52  75
ATOM     75  C   UNL A   1      42.617  23.581  27.844  1.00  0.00    -0.014 A 
ATOM     76  C   UNL A   1      42.884  23.360  26.482  1.00  0.00     0.010 A 
ATOM     77  C   UNL A   1      42.197  22.502  28.644  1.00  0.00     0.010 A 
ATOM     78  C   UNL A   1      42.719  22.089  25.926  1.00  0.00     0.020 A 
ATOM     79  C   UNL A   1      42.055  21.224  28.096  1.00  0.00     0.020 A 
ATOM     80  C   UNL A   1      42.306  21.027  26.737  1.00  0.00     0.054 A 
BRANCH  80  81
ATOM     81  S   UNL A   1      42.152  19.373  26.007  1.00  0.00     0.124 S 
ATOM     82  O   UNL A   1      42.987  19.488  24.816  1.00  0.00    -0.237 OA
ATOM     83  O   UNL A   1      42.671  18.510  27.065  1.00  0.00    -0.237 OA
ATOM     84  O   UNL A   1      40.717  19.244  25.758  1.00  0.00    -0.744 OA
ENDBRANCH  80  81
ENDBRANCH  52  75
BRANCH  64  85
ATOM     85  C   UNL A   1      47.959  26.814  30.948  1.00  0.00    -0.014 A 
ATOM     86  C   UNL A   1      49.038  27.058  30.081  1.00  0.00     0.010 A 
ATOM     87  C   UNL A   1      48.200  26.192  32.187  1.00  0.00     0.010 A 
ATOM     88  C   UNL A   1      50.331  26.663  30.435  1.00  0.00     0.020 A 
ATOM     89  C   UNL A   1      49.494  25.818  32.556  1.00  0.00     0.020 A 
ATOM     90  C   UNL A   1      50.550  26.045  31.670  1.00  0.00     0.054 A 
BRANCH  90  91
ATOM     91  S   UNL A   1      52.243  25.582  32.128  1.00  0.00     0.124 S 
ATOM     92  O   UNL A   1      52.159  24.125  32.172  1.00  0.00    -0.237 OA
ATOM     93  O   UNL A   1      53.036  26.134  31.033  1.00  0.00    -0.237 OA
ATOM     94  O   UNL A   1      52.441  26.234  33.422  1.00  0.00    -0.744 OA
ENDBRANCH  90  91
ENDBRANCH  64  85
ENDBRANCH  38  39
ENDBRANCH  30  33
ENDBRANCH  28  29
ENDBRANCH  27  28
ENDBRANCH   1  27
TORSDOF 20
ENDMDL
MODEL 2
REMARK VINA RESULT:     -10.2      1.951      3.039
REMARK SMILES CCn1cnc(S(=O)(=O)N[C@H](Cc2cnc[nH]2)C(=O)NCCCCNC(=O)c2ccc(-c3c4nc(c(-c5ccc(S(=O)(=O)[O-])cc5)c5ccc([nH]5)c(-c5ccc(S(=O)(=O)[O-])cc5)c5nc(c(-c6ccc(S(=O)(=O)[O-])cc6)c6ccc3[nH]6)C=C5)C=C4)cc2)c1
REMARK SMILES IDX 22 1 21 2 20 3 18 4 19 5 11 7 10 8 7 10 8 11 9 12 6 13 3 14
REMARK SMILES IDX 4 15 88 16 5 17 2 18 1 19 12 20 13 21 14 22 17 23 15 24
REMARK SMILES IDX 16 25 23 27 24 28 25 29 26 30 27 32 28 33 29 34 87 35 30 36
REMARK SMILES IDX 86 37 31 38 32 39 33 40 80 41 34 42 85 43 79 44 81 45 35 46
REMARK SMILES IDX 84 47 78 48 77 49 36 51 66 52 47 53 65 54 48 55 51 56 64 57
REMARK SMILES IDX 82 58 49 59 50 60 63 62 83 63 52 64 37 65 38 66 46 67 39 68
REMARK SMILES IDX 45 69 40 70 41 71 42 72 43 73 44 74 67 75 68 76 76 77 69 78
REMARK SMILES IDX 75 79 70 80 71 81 72 82 73 83 74 84 53 85 54 86 62 87 55 88
REMARK SMILES IDX 61 89 56 90 57 91 58 92 59 93 60 94
REMARK H PARENT 20 6 10 9 17 26 25 31 81 50 51 61
REMARK Flexibility Score: inf
ROOT
ATOM      1  C   UNL A   1      32.569  26.976  25.817  1.00  0.00     0.023 C 
ENDROOT
BRANCH   1   2
ATOM      2  C   UNL A   1      31.138  26.452  25.877  1.00  0.00     0.116 C 
BRANCH   2   3
ATOM      3  N   UNL A   1      31.023  25.347  26.804  1.00  0.00    -0.355 N 
ATOM      4  C   UNL A   1      31.336  24.038  26.642  1.00  0.00     0.238 C 
ATOM      5  O   UNL A   1      31.049  23.253  27.552  1.00  0.00    -0.273 OA
ATOM      6  H   UNL A   1      30.661  25.582  27.689  1.00  0.00     0.163 HD
BRANCH   4   7
ATOM      7  C   UNL A   1      31.988  23.517  25.367  1.00  0.00     0.165 C 
BRANCH   7   8
ATOM      8  N   UNL A   1      33.382  23.927  25.046  1.00  0.00    -0.197 NA
ATOM      9  H   UNL A   1      33.326  24.495  24.201  1.00  0.00     0.142 HD
BRANCH   8  10
ATOM     10  S   UNL A   1      34.604  22.790  24.774  1.00  0.00     0.260 S 
ATOM     11  O   UNL A   1      35.353  22.755  26.013  1.00  0.00    -0.205 OA
ATOM     12  O   UNL A   1      35.228  23.184  23.531  1.00  0.00    -0.205 OA
BRANCH  10  13
ATOM     13  C   UNL A   1      34.039  21.174  24.498  1.00  0.00     0.188 A 
ATOM     14  N   UNL A   1      33.849  19.000  24.417  1.00  0.00    -0.336 N 
ATOM     15  C   UNL A   1      32.783  19.582  23.795  1.00  0.00     0.201 A 
ATOM     16  C   UNL A   1      34.640  20.002  24.917  1.00  0.00     0.129 A 
ATOM     17  N   UNL A   1      32.874  20.891  23.806  1.00  0.00    -0.224 NA
BRANCH  14  18
ATOM     18  C   UNL A   1      34.114  17.582  24.557  1.00  0.00     0.120 C 
ATOM     19  C   UNL A   1      33.589  16.709  23.427  1.00  0.00     0.027 C 
ENDBRANCH  14  18
ENDBRANCH  10  13
ENDBRANCH   8  10
ENDBRANCH   7   8
BRANCH   7  20
ATOM     20  C   UNL A   1      31.022  23.674  24.156  1.00  0.00     0.085 C 
BRANCH  20  21
ATOM     21  C   UNL A   1      31.587  24.335  22.936  1.00  0.00     0.037 A 
ATOM     22  C   UNL A   1      31.420  25.597  22.405  1.00  0.00     0.134 A 
ATOM     23  N   UNL A   1      32.461  23.713  22.073  1.00  0.00    -0.348 N 
ATOM     24  N   UNL A   1      32.215  25.772  21.304  1.00  0.00    -0.245 NA
ATOM     25  C   UNL A   1      32.841  24.631  21.138  1.00  0.00     0.196 A 
ATOM     26  H   UNL A   1      32.758  22.776  22.123  1.00  0.00     0.167 HD
ENDBRANCH  20  21
ENDBRANCH   7  20
ENDBRANCH   4   7
ENDBRANCH   2   3
ENDBRANCH   1   2
BRANCH   1  27
ATOM     27  C   UNL A   1      32.916  27.975  26.923  1.00  0.00     0.023 C 
BRANCH  27  28
ATOM     28  C   UNL A   1      33.994  28.993  26.558  1.00  0.00     0.116 C 
BRANCH  28  29
ATOM     29  N   UNL A   1      33.826  30.264  27.245  1.00  0.00    -0.352 N 
ATOM     30  C   UNL A   1      34.680  30.875  28.131  1.00  0.00     0.251 C 
ATOM     31  H   UNL A   1      32.992  30.751  27.050  1.00  0.00     0.163 HD
ATOM     32  O   UNL A   1      34.341  31.892  28.727  1.00  0.00    -0.269 OA
BRANCH  30  33
ATOM     33  C   UNL A   1      35.998  30.263  28.383  1.00  0.00     0.039 A 
ATOM     34  C   UNL A   1      36.972  30.323  27.384  1.00  0.00     0.014 A 
ATOM     35  C   UNL A   1      36.284  29.692  29.626  1.00  0.00     0.014 A 
ATOM     36  C   UNL A   1      38.263  29.872  27.660  1.00  0.00     0.010 A 
ATOM     37  C   UNL A   1      37.587  29.305  29.919  1.00  0.00     0.010 A 
ATOM     38  C   UNL A   1      38.589  29.396  28.941  1.00  0.00    -0.014 A 
BRANCH  38  39
ATOM     39  C   UNL A   1      39.978  29.002  29.281  1.00  0.00     0.031 A 
ATOM     40  C   UNL A   1      40.898  29.986  29.948  1.00  0.00     0.074 A 
ATOM     41  C   UNL A   1      40.429  27.783  28.926  1.00  0.00     0.049 A 
ATOM     42  N   UNL A   1      42.159  29.847  30.268  1.00  0.00    -0.248 NA
ATOM     43  C   UNL A   1      40.335  31.306  30.275  1.00  0.00     0.031 C 
ATOM     44  C   UNL A   1      39.647  26.757  28.231  1.00  0.00     0.029 A 
ATOM     45  N   UNL A   1      41.662  27.202  29.092  1.00  0.00    -0.354 N 
ATOM     46  C   UNL A   1      42.544  31.064  30.815  1.00  0.00     0.074 A 
ATOM     47  C   UNL A   1      41.397  31.945  30.743  1.00  0.00     0.031 C 
ATOM     48  C   UNL A   1      40.410  25.666  28.054  1.00  0.00     0.029 A 
ATOM     49  C   UNL A   1      41.743  25.925  28.588  1.00  0.00     0.049 A 
ATOM     50  H   UNL A   1      42.416  27.657  29.531  1.00  0.00     0.167 HD
ATOM     51  C   UNL A   1      43.739  31.414  31.348  1.00  0.00     0.031 A 
ATOM     52  C   UNL A   1      42.776  25.061  28.555  1.00  0.00     0.031 A 
ATOM     53  C   UNL A   1      44.872  30.533  31.431  1.00  0.00     0.049 A 
ATOM     54  C   UNL A   1      44.091  25.469  29.160  1.00  0.00     0.074 A 
ATOM     55  C   UNL A   1      46.109  30.772  32.005  1.00  0.00     0.029 A 
ATOM     56  N   UNL A   1      44.908  29.240  30.929  1.00  0.00    -0.354 N 
ATOM     57  N   UNL A   1      44.417  26.604  29.731  1.00  0.00    -0.248 NA
ATOM     58  C   UNL A   1      45.173  24.475  29.126  1.00  0.00     0.031 C 
ATOM     59  C   UNL A   1      46.906  29.640  31.812  1.00  0.00     0.029 A 
ATOM     60  C   UNL A   1      46.151  28.676  31.162  1.00  0.00     0.049 A 
ATOM     61  H   UNL A   1      44.160  28.791  30.473  1.00  0.00     0.167 HD
ATOM     62  C   UNL A   1      45.735  26.452  30.146  1.00  0.00     0.074 A 
ATOM     63  C   UNL A   1      46.141  25.113  29.772  1.00  0.00     0.031 C 
ATOM     64  C   UNL A   1      46.537  27.342  30.782  1.00  0.00     0.031 A 
BRANCH  51  65
ATOM     65  C   UNL A   1      43.877  32.816  31.879  1.00  0.00    -0.014 A 
ATOM     66  C   UNL A   1      43.648  33.101  33.237  1.00  0.00     0.010 A 
ATOM     67  C   UNL A   1      44.266  33.856  31.017  1.00  0.00     0.010 A 
ATOM     68  C   UNL A   1      43.763  34.409  33.714  1.00  0.00     0.020 A 
ATOM     69  C   UNL A   1      44.410  35.161  31.496  1.00  0.00     0.020 A 
ATOM     70  C   UNL A   1      44.139  35.432  32.839  1.00  0.00     0.054 A 
BRANCH  70  71
ATOM     71  S   UNL A   1      44.301  37.118  33.488  1.00  0.00     0.124 S 
ATOM     72  O   UNL A   1      44.860  37.829  32.343  1.00  0.00    -0.237 OA
ATOM     73  O   UNL A   1      42.925  37.464  33.831  1.00  0.00    -0.237 OA
ATOM     74  O   UNL A   1      45.203  36.965  34.628  1.00  0.00    -0.744 OA
ENDBRANCH  70  71
ENDBRANCH  51  65
BRANCH  52  75
ATOM     75  C   UNL A   1      42.599  23.716  27.946  1.00  0.00    -0.014 A 
ATOM     76  C   UNL A   1      42.220  22.619  28.739  1.00  0.00     0.010 A 
ATOM     77  C   UNL A   1      42.793  23.528  26.566  1.00  0.00     0.010 A 
ATOM     78  C   UNL A   1      42.053  21.356  28.167  1.00  0.00     0.020 A 
ATOM     79  C   UNL A   1      42.603  22.270  25.986  1.00  0.00     0.020 A 
ATOM     80  C   UNL A   1      42.245  21.189  26.793  1.00  0.00     0.054 A 
BRANCH  80  81
ATOM     81  S   UNL A   1      41.970  19.551  26.060  1.00  0.00     0.124 S 
ATOM     82  O   UNL A   1      42.843  19.591  24.892  1.00  0.00    -0.237 OA
ATOM     83  O   UNL A   1      42.385  18.650  27.132  1.00  0.00    -0.237 OA
ATOM     84  O   UNL A   1      40.537  19.544  25.774  1.00  0.00    -0.744 OA
ENDBRANCH  80  81
ENDBRANCH  52  75
BRANCH  64  85
ATOM     85  C   UNL A   1      47.925  26.887  31.140  1.00  0.00    -0.014 A 
ATOM     86  C   UNL A   1      48.189  26.259  32.369  1.00  0.00     0.010 A 
ATOM     87  C   UNL A   1      48.968  27.042  30.209  1.00  0.00     0.010 A 
ATOM     88  C   UNL A   1      49.480  25.819  32.673  1.00  0.00     0.020 A 
ATOM     89  C   UNL A   1      50.254  26.580  30.498  1.00  0.00     0.020 A 
ATOM     90  C   UNL A   1      50.504  25.983  31.735  1.00  0.00     0.054 A 
BRANCH  90  91
ATOM     91  S   UNL A   1      52.161  25.361  32.133  1.00  0.00     0.124 S 
ATOM     92  O   UNL A   1      51.924  23.927  32.267  1.00  0.00    -0.237 OA
ATOM     93  O   UNL A   1      52.946  25.764  30.969  1.00  0.00    -0.237 OA
ATOM     94  O   UNL A   1      52.501  26.054  33.375  1.00  0.00    -0.744 OA
ENDBRANCH  90  91
ENDBRANCH  64  85
ENDBRANCH  38  39
ENDBRANCH  30  33
ENDBRANCH  28  29
ENDBRANCH  27  28
ENDBRANCH   1  27
TORSDOF 20
ENDMDL
MODEL 3
REMARK VINA RESULT:     -10.0      3.092      4.737
REMARK SMILES CCn1cnc(S(=O)(=O)N[C@H](Cc2cnc[nH]2)C(=O)NCCCCNC(=O)c2ccc(-c3c4nc(c(-c5ccc(S(=O)(=O)[O-])cc5)c5ccc([nH]5)c(-c5ccc(S(=O)(=O)[O-])cc5)c5nc(c(-c6ccc(S(=O)(=O)[O-])cc6)c6ccc3[nH]6)C=C5)C=C4)cc2)c1
REMARK SMILES IDX 22 1 21 2 20 3 18 4 19 5 11 7 10 8 7 10 8 11 9 12 6 13 3 14
REMARK SMILES IDX 4 15 88 16 5 17 2 18 1 19 12 20 13 21 14 22 17 23 15 24
REMARK SMILES IDX 16 25 23 27 24 28 25 29 26 30 27 32 28 33 29 34 87 35 30 36
REMARK SMILES IDX 86 37 31 38 32 39 33 40 80 41 34 42 85 43 79 44 81 45 35 46
REMARK SMILES IDX 84 47 78 48 77 49 36 51 66 52 47 53 65 54 48 55 51 56 64 57
REMARK SMILES IDX 82 58 49 59 50 60 63 62 83 63 52 64 37 65 38 66 46 67 39 68
REMARK SMILES IDX 45 69 40 70 41 71 42 72 43 73 44 74 67 75 68 76 76 77 69 78
REMARK SMILES IDX 75 79 70 80 71 81 72 82 73 83 74 84 53 85 54 86 62 87 55 88
REMARK SMILES IDX 61 89 56 90 57 91 58 92 59 93 60 94
REMARK H PARENT 20 6 10 9 17 26 25 31 81 50 51 61
REMARK Flexibility Score: inf
ROOT
ATOM      1  C   UNL A   1      33.717  26.941  24.233  1.00  0.00     0.023 C 
ENDROOT
BRANCH   1   2
ATOM      2  C   UNL A   1      32.690  25.814  24.211  1.00  0.00     0.116 C 
BRANCH   2   3
ATOM      3  N   UNL A   1      32.839  24.992  23.030  1.00  0.00    -0.355 N 
ATOM      4  C   UNL A   1      33.620  23.904  22.818  1.00  0.00     0.238 C 
ATOM      5  O   UNL A   1      33.657  23.426  21.679  1.00  0.00    -0.273 OA
ATOM      6  H   UNL A   1      32.288  25.265  22.260  1.00  0.00     0.163 HD
BRANCH   4   7
ATOM      7  C   UNL A   1      34.469  23.294  23.927  1.00  0.00     0.165 C 
BRANCH   7   8
ATOM      8  N   UNL A   1      34.020  23.425  25.339  1.00  0.00    -0.197 NA
ATOM      9  H   UNL A   1      34.867  23.504  25.902  1.00  0.00     0.142 HD
BRANCH   8  10
ATOM     10  S   UNL A   1      33.063  22.247  26.082  1.00  0.00     0.260 S 
ATOM     11  O   UNL A   1      31.703  22.709  25.898  1.00  0.00    -0.205 OA
ATOM     12  O   UNL A   1      33.623  22.071  27.404  1.00  0.00    -0.205 OA
BRANCH  10  13
ATOM     13  C   UNL A   1      33.149  20.677  25.349  1.00  0.00     0.188 A 
ATOM     14  N   UNL A   1      33.841  18.761  24.561  1.00  0.00    -0.336 N 
ATOM     15  C   UNL A   1      32.507  18.910  24.313  1.00  0.00     0.201 A 
ATOM     16  C   UNL A   1      34.260  19.860  25.267  1.00  0.00     0.129 A 
ATOM     17  N   UNL A   1      32.061  20.062  24.755  1.00  0.00    -0.224 NA
BRANCH  14  18
ATOM     18  C   UNL A   1      34.685  17.646  24.179  1.00  0.00     0.120 C 
ATOM     19  C   UNL A   1      33.999  16.569  23.351  1.00  0.00     0.027 C 
ENDBRANCH  14  18
ENDBRANCH  10  13
ENDBRANCH   8  10
ENDBRANCH   7   8
BRANCH   7  20
ATOM     20  C   UNL A   1      35.968  23.667  23.736  1.00  0.00     0.085 C 
BRANCH  20  21
ATOM     21  C   UNL A   1      36.955  22.902  24.563  1.00  0.00     0.037 A 
ATOM     22  C   UNL A   1      37.281  21.562  24.614  1.00  0.00     0.134 A 
ATOM     23  N   UNL A   1      37.780  23.490  25.495  1.00  0.00    -0.348 N 
ATOM     24  N   UNL A   1      38.315  21.344  25.483  1.00  0.00    -0.245 NA
ATOM     25  C   UNL A   1      38.606  22.521  25.986  1.00  0.00     0.196 A 
ATOM     26  H   UNL A   1      37.775  24.438  25.759  1.00  0.00     0.167 HD
ENDBRANCH  20  21
ENDBRANCH   7  20
ENDBRANCH   4   7
ENDBRANCH   2   3
ENDBRANCH   1   2
BRANCH   1  27
ATOM     27  C   UNL A   1      33.229  28.219  24.917  1.00  0.00     0.023 C 
BRANCH  27  28
ATOM     28  C   UNL A   1      34.005  28.618  26.170  1.00  0.00     0.116 C 
BRANCH  28  29
ATOM     29  N   UNL A   1      33.790  30.005  26.552  1.00  0.00    -0.352 N 
ATOM     30  C   UNL A   1      34.519  30.772  27.427  1.00  0.00     0.251 C 
ATOM     31  H   UNL A   1      33.021  30.452  26.128  1.00  0.00     0.163 HD
ATOM     32  O   UNL A   1      34.137  31.894  27.744  1.00  0.00    -0.269 OA
BRANCH  30  33
ATOM     33  C   UNL A   1      35.750  30.208  28.010  1.00  0.00     0.039 A 
ATOM     34  C   UNL A   1      36.965  30.418  27.355  1.00  0.00     0.014 A 
ATOM     35  C   UNL A   1      35.705  29.530  29.232  1.00  0.00     0.014 A 
ATOM     36  C   UNL A   1      38.151  30.010  27.966  1.00  0.00     0.010 A 
ATOM     37  C   UNL A   1      36.892  29.184  29.867  1.00  0.00     0.010 A 
ATOM     38  C   UNL A   1      38.126  29.425  29.243  1.00  0.00    -0.014 A 
BRANCH  38  39
ATOM     39  C   UNL A   1      39.381  29.072  29.949  1.00  0.00     0.031 A 
ATOM     40  C   UNL A   1      39.801  29.842  31.170  1.00  0.00     0.074 A 
ATOM     41  C   UNL A   1      40.176  28.106  29.449  1.00  0.00     0.049 A 
ATOM     42  N   UNL A   1      40.890  29.721  31.885  1.00  0.00    -0.248 NA
ATOM     43  C   UNL A   1      38.891  30.902  31.633  1.00  0.00     0.031 C 
ATOM     44  C   UNL A   1      39.901  27.319  28.243  1.00  0.00     0.029 A 
ATOM     45  N   UNL A   1      41.384  27.624  29.889  1.00  0.00    -0.354 N 
ATOM     46  C   UNL A   1      40.805  30.699  32.868  1.00  0.00     0.074 A 
ATOM     47  C   UNL A   1      39.581  31.434  32.631  1.00  0.00     0.031 C 
ATOM     48  C   UNL A   1      40.898  26.439  28.055  1.00  0.00     0.029 A 
ATOM     49  C   UNL A   1      41.898  26.620  29.102  1.00  0.00     0.049 A 
ATOM     50  H   UNL A   1      41.839  27.965  30.692  1.00  0.00     0.167 HD
ATOM     51  C   UNL A   1      41.659  30.951  33.888  1.00  0.00     0.031 A 
ATOM     52  C   UNL A   1      43.048  25.927  29.208  1.00  0.00     0.031 A 
ATOM     53  C   UNL A   1      42.868  30.211  34.130  1.00  0.00     0.049 A 
ATOM     54  C   UNL A   1      43.976  26.219  30.354  1.00  0.00     0.074 A 
ATOM     55  C   UNL A   1      43.771  30.350  35.169  1.00  0.00     0.029 A 
ATOM     56  N   UNL A   1      43.343  29.187  33.322  1.00  0.00    -0.354 N 
ATOM     57  N   UNL A   1      43.847  27.107  31.311  1.00  0.00    -0.248 NA
ATOM     58  C   UNL A   1      45.200  25.410  30.439  1.00  0.00     0.031 C 
ATOM     59  C   UNL A   1      44.813  29.440  34.967  1.00  0.00     0.029 A 
ATOM     60  C   UNL A   1      44.535  28.699  33.829  1.00  0.00     0.049 A 
ATOM     61  H   UNL A   1      42.897  28.857  32.508  1.00  0.00     0.167 HD
ATOM     62  C   UNL A   1      44.961  26.946  32.127  1.00  0.00     0.074 A 
ATOM     63  C   UNL A   1      45.746  25.870  31.558  1.00  0.00     0.031 C 
ATOM     64  C   UNL A   1      45.302  27.628  33.248  1.00  0.00     0.031 A 
BRANCH  51  65
ATOM     65  C   UNL A   1      41.311  32.083  34.817  1.00  0.00    -0.014 A 
ATOM     66  C   UNL A   1      40.519  31.865  35.960  1.00  0.00     0.010 A 
ATOM     67  C   UNL A   1      41.804  33.375  34.563  1.00  0.00     0.010 A 
ATOM     68  C   UNL A   1      40.190  32.926  36.806  1.00  0.00     0.020 A 
ATOM     69  C   UNL A   1      41.500  34.435  35.422  1.00  0.00     0.020 A 
ATOM     70  C   UNL A   1      40.679  34.206  36.529  1.00  0.00     0.054 A 
BRANCH  70  71
ATOM     71  S   UNL A   1      40.253  35.563  37.655  1.00  0.00     0.124 S 
ATOM     72  O   UNL A   1      39.910  36.632  36.721  1.00  0.00    -0.237 OA
ATOM     73  O   UNL A   1      39.135  35.012  38.415  1.00  0.00    -0.237 OA
ATOM     74  O   UNL A   1      41.478  35.775  38.421  1.00  0.00    -0.744 OA
ENDBRANCH  70  71
ENDBRANCH  51  65
BRANCH  52  75
ATOM     75  C   UNL A   1      43.372  24.871  28.211  1.00  0.00    -0.014 A 
ATOM     76  C   UNL A   1      42.973  23.541  28.427  1.00  0.00     0.010 A 
ATOM     77  C   UNL A   1      44.069  25.195  27.033  1.00  0.00     0.010 A 
ATOM     78  C   UNL A   1      43.278  22.550  27.491  1.00  0.00     0.020 A 
ATOM     79  C   UNL A   1      44.354  24.210  26.083  1.00  0.00     0.020 A 
ATOM     80  C   UNL A   1      43.966  22.890  26.323  1.00  0.00     0.054 A 
BRANCH  80  81
ATOM     81  S   UNL A   1      44.303  21.598  25.094  1.00  0.00     0.124 S 
ATOM     82  O   UNL A   1      43.228  20.647  25.352  1.00  0.00    -0.237 OA
ATOM     83  O   UNL A   1      44.214  22.330  23.832  1.00  0.00    -0.237 OA
ATOM     84  O   UNL A   1      45.646  21.139  25.443  1.00  0.00    -0.744 OA
ENDBRANCH  80  81
ENDBRANCH  52  75
BRANCH  64  85
ATOM     85  C   UNL A   1      46.565  27.211  33.952  1.00  0.00    -0.014 A 
ATOM     86  C   UNL A   1      47.797  27.817  33.653  1.00  0.00     0.010 A 
ATOM     87  C   UNL A   1      46.505  26.238  34.966  1.00  0.00     0.010 A 
ATOM     88  C   UNL A   1      48.954  27.436  34.337  1.00  0.00     0.020 A 
ATOM     89  C   UNL A   1      47.655  25.872  35.670  1.00  0.00     0.020 A 
ATOM     90  C   UNL A   1      48.876  26.466  35.341  1.00  0.00     0.054 A 
BRANCH  90  91
ATOM     91  S   UNL A   1      50.383  26.021  36.247  1.00  0.00     0.124 S 
ATOM     92  O   UNL A   1      50.122  26.587  37.567  1.00  0.00    -0.237 OA
ATOM     93  O   UNL A   1      50.384  24.562  36.177  1.00  0.00    -0.237 OA
ATOM     94  O   UNL A   1      51.448  26.675  35.488  1.00  0.00    -0.744 OA
ENDBRANCH  90  91
ENDBRANCH  64  85
ENDBRANCH  38  39
ENDBRANCH  30  33
ENDBRANCH  28  29
ENDBRANCH  27  28
ENDBRANCH   1  27
TORSDOF 20
ENDMDL
