MODEL 1
REMARK VINA RESULT:     -13.1      0.000      0.000
REMARK SMILES Cc1ccc(S(=O)(=O)N(c2ccccc2)[C@H](C)C(=O)NCCCCNC(=O)c2ccc(-c3c4nc(c(-c5ccc(S(=O)(=O)[O-])cc5)c5ccc([nH]5)c(-c5ccc(S(=O)(=O)[O-])cc5)c5nc(c(-c6ccc(S(=O)(=O)[O-])cc6)c6ccc3[nH]6)C=C5)C=C4)cc2)cc1
REMARK SMILES IDX 22 1 21 2 20 3 18 4 19 5 16 7 17 8 9 9 6 10 7 11 8 12 5 13
REMARK SMILES IDX 1 14 2 15 3 16 89 17 4 18 88 19 10 20 11 21 15 22 12 23
REMARK SMILES IDX 14 24 13 25 23 26 24 27 25 28 26 29 27 31 28 32 29 33 87 34
REMARK SMILES IDX 30 35 86 36 31 37 32 38 33 39 80 40 34 41 85 42 79 43 81 44
REMARK SMILES IDX 35 45 84 46 78 47 77 48 36 50 66 51 47 52 65 53 48 54 51 55
REMARK SMILES IDX 64 56 82 57 49 58 50 59 63 61 83 62 52 63 37 64 38 65 46 66
REMARK SMILES IDX 39 67 45 68 40 69 41 70 42 71 43 72 44 73 67 74 68 75 76 76
REMARK SMILES IDX 69 77 75 78 70 79 71 80 72 81 73 82 74 83 53 84 54 85 62 86
REMARK SMILES IDX 55 87 61 88 56 89 57 90 58 91 59 92 60 93
REMARK H PARENT 20 6 25 30 81 49 51 60
REMARK Flexibility Score: inf
ROOT
ATOM      1  C   UNL A   1      32.019  28.215  26.850  1.00  0.00     0.023 C 
ENDROOT
BRANCH   1   2
ATOM      2  C   UNL A   1      31.556  26.765  26.690  1.00  0.00     0.116 C 
BRANCH   2   3
ATOM      3  N   UNL A   1      31.004  26.418  25.391  1.00  0.00    -0.354 N 
ATOM      4  C   UNL A   1      30.863  25.204  24.771  1.00  0.00     0.243 C 
ATOM      5  O   UNL A   1      30.058  25.183  23.828  1.00  0.00    -0.273 OA
ATOM      6  H   UNL A   1      30.675  27.184  24.868  1.00  0.00     0.163 HD
BRANCH   4   7
ATOM      7  C   UNL A   1      31.675  23.938  25.106  1.00  0.00     0.185 C 
ATOM      8  C   UNL A   1      30.853  22.928  25.909  1.00  0.00     0.043 C 
BRANCH   7   9
ATOM      9  N   UNL A   1      32.518  23.342  24.001  1.00  0.00    -0.254 N 
BRANCH   9  10
ATOM     10  S   UNL A   1      33.827  24.326  23.499  1.00  0.00     0.265 S 
ATOM     11  O   UNL A   1      33.668  25.603  24.177  1.00  0.00    -0.201 OA
ATOM     12  O   UNL A   1      33.871  24.294  22.051  1.00  0.00    -0.201 OA
BRANCH  10  13
ATOM     13  C   UNL A   1      35.393  23.685  24.074  1.00  0.00     0.088 A 
ATOM     14  C   UNL A   1      38.759  21.791  25.988  1.00  0.00     0.044 C 
ATOM     15  C   UNL A   1      37.615  22.485  25.310  1.00  0.00    -0.051 A 
ATOM     16  C   UNL A   1      36.923  23.513  25.955  1.00  0.00     0.005 A 
ATOM     17  C   UNL A   1      37.242  22.132  24.005  1.00  0.00     0.005 A 
ATOM     18  C   UNL A   1      35.809  24.096  25.349  1.00  0.00     0.022 A 
ATOM     19  C   UNL A   1      36.155  22.752  23.375  1.00  0.00     0.022 A 
ENDBRANCH  10  13
ENDBRANCH   9  10
BRANCH   9  20
ATOM     20  C   UNL A   1      32.670  21.927  23.977  1.00  0.00     0.053 A 
ATOM     21  C   UNL A   1      32.179  21.270  22.843  1.00  0.00     0.027 A 
ATOM     22  C   UNL A   1      33.204  21.198  25.039  1.00  0.00     0.027 A 
ATOM     23  C   UNL A   1      32.204  19.883  22.779  1.00  0.00     0.002 A 
ATOM     24  C   UNL A   1      33.225  19.805  24.969  1.00  0.00     0.002 A 
ATOM     25  C   UNL A   1      32.715  19.151  23.846  1.00  0.00     0.000 A 
ENDBRANCH   9  20
ENDBRANCH   7   9
ENDBRANCH   4   7
ENDBRANCH   2   3
ENDBRANCH   1   2
BRANCH   1  26
ATOM     26  C   UNL A   1      33.530  28.458  26.872  1.00  0.00     0.023 C 
BRANCH  26  27
ATOM     27  C   UNL A   1      34.002  29.731  27.558  1.00  0.00     0.116 C 
BRANCH  27  28
ATOM     28  N   UNL A   1      35.111  30.450  26.950  1.00  0.00    -0.352 N 
ATOM     29  C   UNL A   1      36.138  30.891  27.792  1.00  0.00     0.251 C 
ATOM     30  H   UNL A   1      35.137  30.622  25.982  1.00  0.00     0.163 HD
ATOM     31  O   UNL A   1      36.155  31.964  28.368  1.00  0.00    -0.269 OA
BRANCH  29  32
ATOM     32  C   UNL A   1      37.108  29.821  28.136  1.00  0.00     0.039 A 
ATOM     33  C   UNL A   1      37.057  29.099  29.328  1.00  0.00     0.014 A 
ATOM     34  C   UNL A   1      38.174  29.658  27.251  1.00  0.00     0.014 A 
ATOM     35  C   UNL A   1      38.152  28.298  29.685  1.00  0.00     0.010 A 
ATOM     36  C   UNL A   1      39.286  28.955  27.648  1.00  0.00     0.010 A 
ATOM     37  C   UNL A   1      39.289  28.282  28.872  1.00  0.00    -0.014 A 
BRANCH  37  38
ATOM     38  C   UNL A   1      40.570  27.659  29.189  1.00  0.00     0.031 A 
ATOM     39  C   UNL A   1      40.884  26.285  28.730  1.00  0.00     0.074 A 
ATOM     40  C   UNL A   1      41.576  28.436  29.647  1.00  0.00     0.049 A 
ATOM     41  N   UNL A   1      41.878  25.589  29.173  1.00  0.00    -0.248 NA
ATOM     42  C   UNL A   1      40.084  25.575  27.736  1.00  0.00     0.031 C 
ATOM     43  C   UNL A   1      43.009  28.171  29.548  1.00  0.00     0.029 A 
ATOM     44  N   UNL A   1      41.500  29.550  30.477  1.00  0.00    -0.354 N 
ATOM     45  C   UNL A   1      42.033  24.513  28.330  1.00  0.00     0.074 A 
ATOM     46  C   UNL A   1      40.847  24.502  27.503  1.00  0.00     0.031 C 
ATOM     47  C   UNL A   1      43.642  28.887  30.490  1.00  0.00     0.029 A 
ATOM     48  C   UNL A   1      42.619  29.495  31.323  1.00  0.00     0.049 A 
ATOM     49  H   UNL A   1      40.799  30.241  30.472  1.00  0.00     0.167 HD
ATOM     50  C   UNL A   1      43.204  23.817  28.311  1.00  0.00     0.031 A 
ATOM     51  C   UNL A   1      42.532  29.395  32.682  1.00  0.00     0.031 A 
ATOM     52  C   UNL A   1      44.186  24.335  29.262  1.00  0.00     0.049 A 
ATOM     53  C   UNL A   1      43.210  28.160  33.244  1.00  0.00     0.074 A 
ATOM     54  C   UNL A   1      45.356  25.068  29.145  1.00  0.00     0.029 A 
ATOM     55  N   UNL A   1      43.879  24.326  30.612  1.00  0.00    -0.354 N 
ATOM     56  N   UNL A   1      43.824  27.263  32.524  1.00  0.00    -0.248 NA
ATOM     57  C   UNL A   1      43.149  27.784  34.657  1.00  0.00     0.031 C 
ATOM     58  C   UNL A   1      45.761  25.475  30.448  1.00  0.00     0.029 A 
ATOM     59  C   UNL A   1      44.838  24.988  31.352  1.00  0.00     0.049 A 
ATOM     60  H   UNL A   1      43.078  23.900  30.995  1.00  0.00     0.167 HD
ATOM     61  C   UNL A   1      44.151  26.190  33.308  1.00  0.00     0.074 A 
ATOM     62  C   UNL A   1      43.730  26.572  34.643  1.00  0.00     0.031 C 
ATOM     63  C   UNL A   1      44.686  25.045  32.795  1.00  0.00     0.031 A 
BRANCH  50  64
ATOM     64  C   UNL A   1      43.534  22.800  27.244  1.00  0.00    -0.014 A 
ATOM     65  C   UNL A   1      42.706  21.673  27.067  1.00  0.00     0.010 A 
ATOM     66  C   UNL A   1      44.654  22.892  26.395  1.00  0.00     0.010 A 
ATOM     67  C   UNL A   1      43.035  20.640  26.178  1.00  0.00     0.020 A 
ATOM     68  C   UNL A   1      45.018  21.848  25.530  1.00  0.00     0.020 A 
ATOM     69  C   UNL A   1      44.210  20.720  25.437  1.00  0.00     0.054 A 
BRANCH  69  70
ATOM     70  S   UNL A   1      44.670  19.328  24.371  1.00  0.00     0.124 S 
ATOM     71  O   UNL A   1      43.738  18.285  24.794  1.00  0.00    -0.237 OA
ATOM     72  O   UNL A   1      44.447  19.869  23.035  1.00  0.00    -0.237 OA
ATOM     73  O   UNL A   1      46.069  19.077  24.716  1.00  0.00    -0.744 OA
ENDBRANCH  69  70
ENDBRANCH  50  64
BRANCH  51  74
ATOM     74  C   UNL A   1      41.302  30.022  33.248  1.00  0.00    -0.014 A 
ATOM     75  C   UNL A   1      41.268  31.432  33.302  1.00  0.00     0.010 A 
ATOM     76  C   UNL A   1      40.091  29.306  33.245  1.00  0.00     0.010 A 
ATOM     77  C   UNL A   1      40.060  32.113  33.142  1.00  0.00     0.020 A 
ATOM     78  C   UNL A   1      38.879  29.990  33.079  1.00  0.00     0.020 A 
ATOM     79  C   UNL A   1      38.889  31.381  32.940  1.00  0.00     0.054 A 
BRANCH  79  80
ATOM     80  S   UNL A   1      37.445  32.252  32.257  1.00  0.00     0.124 S 
ATOM     81  O   UNL A   1      38.025  33.017  31.159  1.00  0.00    -0.237 OA
ATOM     82  O   UNL A   1      36.587  31.133  31.862  1.00  0.00    -0.237 OA
ATOM     83  O   UNL A   1      36.957  33.034  33.388  1.00  0.00    -0.744 OA
ENDBRANCH  79  80
ENDBRANCH  51  74
BRANCH  63  84
ATOM     84  C   UNL A   1      45.067  23.843  33.616  1.00  0.00    -0.014 A 
ATOM     85  C   UNL A   1      44.218  22.739  33.788  1.00  0.00     0.010 A 
ATOM     86  C   UNL A   1      46.274  23.853  34.354  1.00  0.00     0.010 A 
ATOM     87  C   UNL A   1      44.592  21.660  34.602  1.00  0.00     0.020 A 
ATOM     88  C   UNL A   1      46.646  22.793  35.184  1.00  0.00     0.020 A 
ATOM     89  C   UNL A   1      45.809  21.690  35.286  1.00  0.00     0.054 A 
BRANCH  89  90
ATOM     90  S   UNL A   1      46.261  20.297  36.350  1.00  0.00     0.124 S 
ATOM     91  O   UNL A   1      45.407  19.223  35.849  1.00  0.00    -0.237 OA
ATOM     92  O   UNL A   1      47.685  20.152  36.065  1.00  0.00    -0.237 OA
ATOM     93  O   UNL A   1      45.937  20.765  37.696  1.00  0.00    -0.744 OA
ENDBRANCH  89  90
ENDBRANCH  63  84
ENDBRANCH  37  38
ENDBRANCH  29  32
ENDBRANCH  27  28
ENDBRANCH  26  27
ENDBRANCH   1  26
TORSDOF 18
ENDMDL
MODEL 2
REMARK VINA RESULT:     -13.0      1.219      2.384
REMARK SMILES Cc1ccc(S(=O)(=O)N(c2ccccc2)[C@H](C)C(=O)NCCCCNC(=O)c2ccc(-c3c4nc(c(-c5ccc(S(=O)(=O)[O-])cc5)c5ccc([nH]5)c(-c5ccc(S(=O)(=O)[O-])cc5)c5nc(c(-c6ccc(S(=O)(=O)[O-])cc6)c6ccc3[nH]6)C=C5)C=C4)cc2)cc1
REMARK SMILES IDX 22 1 21 2 20 3 18 4 19 5 16 7 17 8 9 9 6 10 7 11 8 12 5 13
REMARK SMILES IDX 1 14 2 15 3 16 89 17 4 18 88 19 10 20 11 21 15 22 12 23
REMARK SMILES IDX 14 24 13 25 23 26 24 27 25 28 26 29 27 31 28 32 29 33 87 34
REMARK SMILES IDX 30 35 86 36 31 37 32 38 33 39 80 40 34 41 85 42 79 43 81 44
REMARK SMILES IDX 35 45 84 46 78 47 77 48 36 50 66 51 47 52 65 53 48 54 51 55
REMARK SMILES IDX 64 56 82 57 49 58 50 59 63 61 83 62 52 63 37 64 38 65 46 66
REMARK SMILES IDX 39 67 45 68 40 69 41 70 42 71 43 72 44 73 67 74 68 75 76 76
REMARK SMILES IDX 69 77 75 78 70 79 71 80 72 81 73 82 74 83 53 84 54 85 62 86
REMARK SMILES IDX 55 87 61 88 56 89 57 90 58 91 59 92 60 93
REMARK H PARENT 20 6 25 30 81 49 51 60
REMARK Flexibility Score: inf
ROOT
ATOM      1  C   UNL A   1      31.876  28.323  26.584  1.00  0.00     0.023 C 
ENDROOT
BRANCH   1   2
ATOM      2  C   UNL A   1      32.561  26.956  26.639  1.00  0.00     0.116 C 
BRANCH   2   3
ATOM      3  N   UNL A   1      31.673  25.805  26.671  1.00  0.00    -0.354 N 
ATOM      4  C   UNL A   1      31.945  24.462  26.714  1.00  0.00     0.243 C 
ATOM      5  O   UNL A   1      31.000  23.744  27.073  1.00  0.00    -0.273 OA
ATOM      6  H   UNL A   1      30.714  26.027  26.659  1.00  0.00     0.163 HD
BRANCH   4   7
ATOM      7  C   UNL A   1      33.273  23.813  26.280  1.00  0.00     0.185 C 
ATOM      8  C   UNL A   1      33.905  22.995  27.408  1.00  0.00     0.043 C 
BRANCH   7   9
ATOM      9  N   UNL A   1      33.311  23.158  24.917  1.00  0.00    -0.254 N 
BRANCH   9  10
ATOM     10  S   UNL A   1      34.130  24.067  23.717  1.00  0.00     0.265 S 
ATOM     11  O   UNL A   1      34.179  23.232  22.527  1.00  0.00    -0.201 OA
ATOM     12  O   UNL A   1      35.369  24.545  24.297  1.00  0.00    -0.201 OA
BRANCH  10  13
ATOM     13  C   UNL A   1      33.198  25.513  23.234  1.00  0.00     0.088 A 
ATOM     14  C   UNL A   1      30.621  28.932  22.740  1.00  0.00     0.044 C 
ATOM     15  C   UNL A   1      31.517  27.735  22.867  1.00  0.00    -0.051 A 
ATOM     16  C   UNL A   1      30.983  26.445  22.868  1.00  0.00     0.005 A 
ATOM     17  C   UNL A   1      32.907  27.895  22.955  1.00  0.00     0.005 A 
ATOM     18  C   UNL A   1      31.815  25.342  23.069  1.00  0.00     0.022 A 
ATOM     19  C   UNL A   1      33.749  26.785  23.105  1.00  0.00     0.022 A 
ENDBRANCH  10  13
ENDBRANCH   9  10
BRANCH   9  20
ATOM     20  C   UNL A   1      33.376  21.737  24.869  1.00  0.00     0.053 A 
ATOM     21  C   UNL A   1      34.653  21.172  24.954  1.00  0.00     0.027 A 
ATOM     22  C   UNL A   1      32.257  20.928  24.671  1.00  0.00     0.027 A 
ATOM     23  C   UNL A   1      34.814  19.799  24.823  1.00  0.00     0.002 A 
ATOM     24  C   UNL A   1      32.426  19.549  24.539  1.00  0.00     0.002 A 
ATOM     25  C   UNL A   1      33.704  18.990  24.603  1.00  0.00     0.000 A 
ENDBRANCH   9  20
ENDBRANCH   7   9
ENDBRANCH   4   7
ENDBRANCH   2   3
ENDBRANCH   1   2
BRANCH   1  26
ATOM     26  C   UNL A   1      32.789  29.549  26.506  1.00  0.00     0.023 C 
BRANCH  26  27
ATOM     27  C   UNL A   1      34.074  29.490  27.317  1.00  0.00     0.116 C 
BRANCH  27  28
ATOM     28  N   UNL A   1      35.203  30.276  26.844  1.00  0.00    -0.352 N 
ATOM     29  C   UNL A   1      36.132  30.716  27.794  1.00  0.00     0.251 C 
ATOM     30  H   UNL A   1      35.310  30.491  25.890  1.00  0.00     0.163 HD
ATOM     31  O   UNL A   1      36.054  31.762  28.413  1.00  0.00    -0.269 OA
BRANCH  29  32
ATOM     32  C   UNL A   1      37.109  29.668  28.181  1.00  0.00     0.039 A 
ATOM     33  C   UNL A   1      37.110  29.050  29.431  1.00  0.00     0.014 A 
ATOM     34  C   UNL A   1      38.130  29.417  27.264  1.00  0.00     0.014 A 
ATOM     35  C   UNL A   1      38.215  28.269  29.803  1.00  0.00     0.010 A 
ATOM     36  C   UNL A   1      39.254  28.737  27.666  1.00  0.00     0.010 A 
ATOM     37  C   UNL A   1      39.311  28.170  28.942  1.00  0.00    -0.014 A 
BRANCH  37  38
ATOM     38  C   UNL A   1      40.602  27.561  29.249  1.00  0.00     0.031 A 
ATOM     39  C   UNL A   1      40.943  26.208  28.753  1.00  0.00     0.074 A 
ATOM     40  C   UNL A   1      41.590  28.343  29.737  1.00  0.00     0.049 A 
ATOM     41  N   UNL A   1      41.947  25.516  29.182  1.00  0.00    -0.248 NA
ATOM     42  C   UNL A   1      40.162  25.512  27.733  1.00  0.00     0.031 C 
ATOM     43  C   UNL A   1      43.028  28.107  29.640  1.00  0.00     0.029 A 
ATOM     44  N   UNL A   1      41.488  29.431  30.598  1.00  0.00    -0.354 N 
ATOM     45  C   UNL A   1      42.126  24.469  28.310  1.00  0.00     0.074 A 
ATOM     46  C   UNL A   1      40.947  24.461  27.475  1.00  0.00     0.031 C 
ATOM     47  C   UNL A   1      43.642  28.806  30.607  1.00  0.00     0.029 A 
ATOM     48  C   UNL A   1      42.603  29.371  31.450  1.00  0.00     0.049 A 
ATOM     49  H   UNL A   1      40.775  30.109  30.609  1.00  0.00     0.167 HD
ATOM     50  C   UNL A   1      43.310  23.794  28.279  1.00  0.00     0.031 A 
ATOM     51  C   UNL A   1      42.509  29.230  32.805  1.00  0.00     0.031 A 
ATOM     52  C   UNL A   1      44.276  24.303  29.251  1.00  0.00     0.049 A 
ATOM     53  C   UNL A   1      43.205  27.992  33.335  1.00  0.00     0.074 A 
ATOM     54  C   UNL A   1      45.434  25.059  29.164  1.00  0.00     0.029 A 
ATOM     55  N   UNL A   1      43.960  24.248  30.598  1.00  0.00    -0.354 N 
ATOM     56  N   UNL A   1      43.840  27.127  32.594  1.00  0.00    -0.248 NA
ATOM     57  C   UNL A   1      43.142  27.574  34.737  1.00  0.00     0.031 C 
ATOM     58  C   UNL A   1      45.822  25.435  30.481  1.00  0.00     0.029 A 
ATOM     59  C   UNL A   1      44.902  24.905  31.364  1.00  0.00     0.049 A 
ATOM     60  H   UNL A   1      43.165  23.797  30.963  1.00  0.00     0.167 HD
ATOM     61  C   UNL A   1      44.181  26.038  33.349  1.00  0.00     0.074 A 
ATOM     62  C   UNL A   1      43.745  26.373  34.691  1.00  0.00     0.031 C 
ATOM     63  C   UNL A   1      44.740  24.918  32.807  1.00  0.00     0.031 A 
BRANCH  50  64
ATOM     64  C   UNL A   1      43.665  22.815  27.185  1.00  0.00    -0.014 A 
ATOM     65  C   UNL A   1      42.887  21.655  27.000  1.00  0.00     0.010 A 
ATOM     66  C   UNL A   1      44.763  22.976  26.317  1.00  0.00     0.010 A 
ATOM     67  C   UNL A   1      43.245  20.656  26.085  1.00  0.00     0.020 A 
ATOM     68  C   UNL A   1      45.157  21.967  25.424  1.00  0.00     0.020 A 
ATOM     69  C   UNL A   1      44.400  20.805  25.323  1.00  0.00     0.054 A 
BRANCH  69  70
ATOM     70  S   UNL A   1      44.903  19.457  24.221  1.00  0.00     0.124 S 
ATOM     71  O   UNL A   1      46.348  19.399  24.432  1.00  0.00    -0.237 OA
ATOM     72  O   UNL A   1      44.144  18.326  24.743  1.00  0.00    -0.237 OA
ATOM     73  O   UNL A   1      44.495  19.923  22.896  1.00  0.00    -0.744 OA
ENDBRANCH  69  70
ENDBRANCH  50  64
BRANCH  51  74
ATOM     74  C   UNL A   1      41.264  29.818  33.380  1.00  0.00    -0.014 A 
ATOM     75  C   UNL A   1      41.284  31.197  33.678  1.00  0.00     0.010 A 
ATOM     76  C   UNL A   1      40.028  29.182  33.163  1.00  0.00     0.010 A 
ATOM     77  C   UNL A   1      40.123  31.961  33.551  1.00  0.00     0.020 A 
ATOM     78  C   UNL A   1      38.863  29.950  33.031  1.00  0.00     0.020 A 
ATOM     79  C   UNL A   1      38.943  31.342  33.139  1.00  0.00     0.054 A 
BRANCH  79  80
ATOM     80  S   UNL A   1      37.598  32.395  32.514  1.00  0.00     0.124 S 
ATOM     81  O   UNL A   1      36.512  32.110  33.445  1.00  0.00    -0.237 OA
ATOM     82  O   UNL A   1      38.192  33.728  32.627  1.00  0.00    -0.237 OA
ATOM     83  O   UNL A   1      37.404  31.919  31.148  1.00  0.00    -0.744 OA
ENDBRANCH  79  80
ENDBRANCH  51  74
BRANCH  63  84
ATOM     84  C   UNL A   1      45.138  23.699  33.595  1.00  0.00    -0.014 A 
ATOM     85  C   UNL A   1      44.219  22.714  33.988  1.00  0.00     0.010 A 
ATOM     86  C   UNL A   1      46.462  23.579  34.078  1.00  0.00     0.010 A 
ATOM     87  C   UNL A   1      44.622  21.619  34.764  1.00  0.00     0.020 A 
ATOM     88  C   UNL A   1      46.869  22.503  34.870  1.00  0.00     0.020 A 
ATOM     89  C   UNL A   1      45.948  21.515  35.191  1.00  0.00     0.054 A 
BRANCH  89  90
ATOM     90  S   UNL A   1      46.441  20.105  36.214  1.00  0.00     0.124 S 
ATOM     91  O   UNL A   1      45.785  20.389  37.487  1.00  0.00    -0.237 OA
ATOM     92  O   UNL A   1      45.889  18.982  35.461  1.00  0.00    -0.237 OA
ATOM     93  O   UNL A   1      47.900  20.183  36.239  1.00  0.00    -0.744 OA
ENDBRANCH  89  90
ENDBRANCH  63  84
ENDBRANCH  37  38
ENDBRANCH  29  32
ENDBRANCH  27  28
ENDBRANCH  26  27
ENDBRANCH   1  26
TORSDOF 18
ENDMDL
MODEL 3
REMARK VINA RESULT:     -12.9      0.943      2.304
REMARK SMILES Cc1ccc(S(=O)(=O)N(c2ccccc2)[C@H](C)C(=O)NCCCCNC(=O)c2ccc(-c3c4nc(c(-c5ccc(S(=O)(=O)[O-])cc5)c5ccc([nH]5)c(-c5ccc(S(=O)(=O)[O-])cc5)c5nc(c(-c6ccc(S(=O)(=O)[O-])cc6)c6ccc3[nH]6)C=C5)C=C4)cc2)cc1
REMARK SMILES IDX 22 1 21 2 20 3 18 4 19 5 16 7 17 8 9 9 6 10 7 11 8 12 5 13
REMARK SMILES IDX 1 14 2 15 3 16 89 17 4 18 88 19 10 20 11 21 15 22 12 23
REMARK SMILES IDX 14 24 13 25 23 26 24 27 25 28 26 29 27 31 28 32 29 33 87 34
REMARK SMILES IDX 30 35 86 36 31 37 32 38 33 39 80 40 34 41 85 42 79 43 81 44
REMARK SMILES IDX 35 45 84 46 78 47 77 48 36 50 66 51 47 52 65 53 48 54 51 55
REMARK SMILES IDX 64 56 82 57 49 58 50 59 63 61 83 62 52 63 37 64 38 65 46 66
REMARK SMILES IDX 39 67 45 68 40 69 41 70 42 71 43 72 44 73 67 74 68 75 76 76
REMARK SMILES IDX 69 77 75 78 70 79 71 80 72 81 73 82 74 83 53 84 54 85 62 86
REMARK SMILES IDX 55 87 61 88 56 89 57 90 58 91 59 92 60 93
REMARK H PARENT 20 6 25 30 81 49 51 60
REMARK Flexibility Score: inf
ROOT
ATOM      1  C   UNL A   1      32.129  30.184  25.798  1.00  0.00     0.023 C 
ENDROOT
BRANCH   1   2
ATOM      2  C   UNL A   1      31.821  28.879  25.060  1.00  0.00     0.116 C 
BRANCH   2   3
ATOM      3  N   UNL A   1      31.432  27.756  25.897  1.00  0.00    -0.354 N 
ATOM      4  C   UNL A   1      31.894  26.467  25.942  1.00  0.00     0.243 C 
ATOM      5  O   UNL A   1      31.614  25.841  26.975  1.00  0.00    -0.273 OA
ATOM      6  H   UNL A   1      30.714  27.955  26.541  1.00  0.00     0.163 HD
BRANCH   4   7
ATOM      7  C   UNL A   1      32.638  25.752  24.797  1.00  0.00     0.185 C 
ATOM      8  C   UNL A   1      33.822  26.574  24.283  1.00  0.00     0.043 C 
BRANCH   7   9
ATOM      9  N   UNL A   1      32.910  24.274  24.964  1.00  0.00    -0.254 N 
BRANCH   9  10
ATOM     10  S   UNL A   1      31.646  23.254  24.419  1.00  0.00     0.265 S 
ATOM     11  O   UNL A   1      31.293  23.710  23.084  1.00  0.00    -0.201 OA
ATOM     12  O   UNL A   1      30.627  23.229  25.450  1.00  0.00    -0.201 OA
BRANCH  10  13
ATOM     13  C   UNL A   1      32.202  21.569  24.205  1.00  0.00     0.088 A 
ATOM     14  C   UNL A   1      32.930  17.323  24.089  1.00  0.00     0.044 C 
ATOM     15  C   UNL A   1      32.722  18.808  24.128  1.00  0.00    -0.051 A 
ATOM     16  C   UNL A   1      32.858  19.514  25.325  1.00  0.00     0.005 A 
ATOM     17  C   UNL A   1      32.416  19.513  22.955  1.00  0.00     0.005 A 
ATOM     18  C   UNL A   1      32.582  20.882  25.368  1.00  0.00     0.022 A 
ATOM     19  C   UNL A   1      32.189  20.895  22.987  1.00  0.00     0.022 A 
ENDBRANCH  10  13
ENDBRANCH   9  10
BRANCH   9  20
ATOM     20  C   UNL A   1      34.257  23.832  24.833  1.00  0.00     0.053 A 
ATOM     21  C   UNL A   1      34.685  23.524  23.536  1.00  0.00     0.027 A 
ATOM     22  C   UNL A   1      35.105  23.633  25.922  1.00  0.00     0.027 A 
ATOM     23  C   UNL A   1      35.953  22.999  23.331  1.00  0.00     0.002 A 
ATOM     24  C   UNL A   1      36.378  23.103  25.708  1.00  0.00     0.002 A 
ATOM     25  C   UNL A   1      36.794  22.777  24.416  1.00  0.00     0.000 A 
ENDBRANCH   9  20
ENDBRANCH   7   9
ENDBRANCH   4   7
ENDBRANCH   2   3
ENDBRANCH   1   2
BRANCH   1  26
ATOM     26  C   UNL A   1      32.683  30.058  27.220  1.00  0.00     0.023 C 
BRANCH  26  27
ATOM     27  C   UNL A   1      34.076  29.461  27.353  1.00  0.00     0.116 C 
BRANCH  27  28
ATOM     28  N   UNL A   1      35.191  30.235  26.830  1.00  0.00    -0.352 N 
ATOM     29  C   UNL A   1      36.154  30.686  27.741  1.00  0.00     0.251 C 
ATOM     30  H   UNL A   1      35.266  30.436  25.870  1.00  0.00     0.163 HD
ATOM     31  O   UNL A   1      36.100  31.741  28.347  1.00  0.00    -0.269 OA
BRANCH  29  32
ATOM     32  C   UNL A   1      37.140  29.640  28.110  1.00  0.00     0.039 A 
ATOM     33  C   UNL A   1      37.108  28.955  29.324  1.00  0.00     0.014 A 
ATOM     34  C   UNL A   1      38.201  29.462  27.222  1.00  0.00     0.014 A 
ATOM     35  C   UNL A   1      38.215  28.179  29.698  1.00  0.00     0.010 A 
ATOM     36  C   UNL A   1      39.325  28.786  27.632  1.00  0.00     0.010 A 
ATOM     37  C   UNL A   1      39.346  28.152  28.877  1.00  0.00    -0.014 A 
BRANCH  37  38
ATOM     38  C   UNL A   1      40.638  27.555  29.202  1.00  0.00     0.031 A 
ATOM     39  C   UNL A   1      41.002  26.207  28.706  1.00  0.00     0.074 A 
ATOM     40  C   UNL A   1      41.610  28.345  29.709  1.00  0.00     0.049 A 
ATOM     41  N   UNL A   1      42.006  25.525  29.150  1.00  0.00    -0.248 NA
ATOM     42  C   UNL A   1      40.244  25.507  27.672  1.00  0.00     0.031 C 
ATOM     43  C   UNL A   1      43.052  28.125  29.633  1.00  0.00     0.029 A 
ATOM     44  N   UNL A   1      41.483  29.429  30.571  1.00  0.00    -0.354 N 
ATOM     45  C   UNL A   1      42.210  24.483  28.276  1.00  0.00     0.074 A 
ATOM     46  C   UNL A   1      41.044  24.465  27.423  1.00  0.00     0.031 C 
ATOM     47  C   UNL A   1      43.643  28.827  30.612  1.00  0.00     0.029 A 
ATOM     48  C   UNL A   1      42.585  29.378  31.440  1.00  0.00     0.049 A 
ATOM     49  H   UNL A   1      40.763  30.100  30.573  1.00  0.00     0.167 HD
ATOM     50  C   UNL A   1      43.401  23.821  28.262  1.00  0.00     0.031 A 
ATOM     51  C   UNL A   1      42.471  29.231  32.794  1.00  0.00     0.031 A 
ATOM     52  C   UNL A   1      44.347  24.336  29.250  1.00  0.00     0.049 A 
ATOM     53  C   UNL A   1      43.173  27.998  33.330  1.00  0.00     0.074 A 
ATOM     54  C   UNL A   1      45.497  25.105  29.185  1.00  0.00     0.029 A 
ATOM     55  N   UNL A   1      44.010  24.273  30.592  1.00  0.00    -0.354 N 
ATOM     56  N   UNL A   1      43.827  27.143  32.596  1.00  0.00    -0.248 NA
ATOM     57  C   UNL A   1      43.092  27.574  34.729  1.00  0.00     0.031 C 
ATOM     58  C   UNL A   1      45.861  25.480  30.508  1.00  0.00     0.029 A 
ATOM     59  C   UNL A   1      44.933  24.937  31.375  1.00  0.00     0.049 A 
ATOM     60  H   UNL A   1      43.214  23.812  30.943  1.00  0.00     0.167 HD
ATOM     61  C   UNL A   1      44.169  26.055  33.353  1.00  0.00     0.074 A 
ATOM     62  C   UNL A   1      43.708  26.380  34.689  1.00  0.00     0.031 C 
ATOM     63  C   UNL A   1      44.748  24.943  32.816  1.00  0.00     0.031 A 
BRANCH  50  64
ATOM     64  C   UNL A   1      43.784  22.850  27.169  1.00  0.00    -0.014 A 
ATOM     65  C   UNL A   1      42.913  21.794  26.831  1.00  0.00     0.010 A 
ATOM     66  C   UNL A   1      44.994  22.915  26.453  1.00  0.00     0.010 A 
ATOM     67  C   UNL A   1      43.274  20.797  25.915  1.00  0.00     0.020 A 
ATOM     68  C   UNL A   1      45.387  21.902  25.563  1.00  0.00     0.020 A 
ATOM     69  C   UNL A   1      44.526  20.840  25.310  1.00  0.00     0.054 A 
BRANCH  69  70
ATOM     70  S   UNL A   1      45.015  19.486  24.209  1.00  0.00     0.124 S 
ATOM     71  O   UNL A   1      46.473  19.505  24.313  1.00  0.00    -0.237 OA
ATOM     72  O   UNL A   1      44.355  18.335  24.816  1.00  0.00    -0.237 OA
ATOM     73  O   UNL A   1      44.488  19.891  22.907  1.00  0.00    -0.744 OA
ENDBRANCH  69  70
ENDBRANCH  50  64
BRANCH  51  74
ATOM     74  C   UNL A   1      41.211  29.804  33.351  1.00  0.00    -0.014 A 
ATOM     75  C   UNL A   1      41.220  31.176  33.677  1.00  0.00     0.010 A 
ATOM     76  C   UNL A   1      39.983  29.169  33.092  1.00  0.00     0.010 A 
ATOM     77  C   UNL A   1      40.060  31.940  33.539  1.00  0.00     0.020 A 
ATOM     78  C   UNL A   1      38.819  29.937  32.948  1.00  0.00     0.020 A 
ATOM     79  C   UNL A   1      38.892  31.326  33.086  1.00  0.00     0.054 A 
BRANCH  79  80
ATOM     80  S   UNL A   1      37.558  32.388  32.452  1.00  0.00     0.124 S 
ATOM     81  O   UNL A   1      38.084  33.729  32.680  1.00  0.00    -0.237 OA
ATOM     82  O   UNL A   1      37.489  31.968  31.052  1.00  0.00    -0.237 OA
ATOM     83  O   UNL A   1      36.409  32.009  33.268  1.00  0.00    -0.744 OA
ENDBRANCH  79  80
ENDBRANCH  51  74
BRANCH  63  84
ATOM     84  C   UNL A   1      45.146  23.726  33.606  1.00  0.00    -0.014 A 
ATOM     85  C   UNL A   1      44.244  22.701  33.930  1.00  0.00     0.010 A 
ATOM     86  C   UNL A   1      46.445  23.644  34.160  1.00  0.00     0.010 A 
ATOM     87  C   UNL A   1      44.644  21.607  34.711  1.00  0.00     0.020 A 
ATOM     88  C   UNL A   1      46.847  22.570  34.957  1.00  0.00     0.020 A 
ATOM     89  C   UNL A   1      45.947  21.544  35.210  1.00  0.00     0.054 A 
BRANCH  89  90
ATOM     90  S   UNL A   1      46.434  20.134  36.236  1.00  0.00     0.124 S 
ATOM     91  O   UNL A   1      45.852  20.468  37.534  1.00  0.00    -0.237 OA
ATOM     92  O   UNL A   1      45.804  19.020  35.533  1.00  0.00    -0.237 OA
ATOM     93  O   UNL A   1      47.894  20.156  36.191  1.00  0.00    -0.744 OA
ENDBRANCH  89  90
ENDBRANCH  63  84
ENDBRANCH  37  38
ENDBRANCH  29  32
ENDBRANCH  27  28
ENDBRANCH  26  27
ENDBRANCH   1  26
TORSDOF 18
ENDMDL
