MODEL 1
REMARK VINA RESULT:     -11.5      0.000      0.000
REMARK SMILES CC(C)[C@H](NC(=O)[C@H](C)NC(=O)CNC(=O)OCc1ccccc1)C(=O)NCCCCNC(=O)c1ccc(-c2c3nc(c(-c4ccc(S(=O)(=O)[O-])cc4)c4ccc([nH]4)c(-c4ccc(S(=O)(=O)[O-])cc4)c4nc(c(-c5ccc(S(=O)(=O)[O-])cc5)c5ccc2[nH]5)C=C4)C=C3)cc1
REMARK SMILES IDX 25 1 26 2 27 3 4 5 2 6 1 7 3 8 5 9 6 10 7 12 8 13 9 14 10 15
REMARK SMILES IDX 11 16 12 18 13 19 14 20 15 21 16 23 17 24 18 25 19 26 20 27
REMARK SMILES IDX 24 28 21 29 23 30 22 31 28 32 29 33 30 34 31 35 32 36 33 37
REMARK SMILES IDX 34 39 35 40 36 41 94 42 37 43 93 44 38 45 39 46 40 47 87 48
REMARK SMILES IDX 41 49 92 50 86 51 88 52 42 53 91 54 85 55 84 56 43 58 73 59
REMARK SMILES IDX 54 60 72 61 55 62 58 63 71 64 89 65 56 66 57 67 70 69 90 70
REMARK SMILES IDX 59 71 44 72 45 73 53 74 46 75 52 76 47 77 48 78 49 79 50 80
REMARK SMILES IDX 51 81 74 82 75 83 83 84 76 85 82 86 77 87 78 88 79 89 80 90
REMARK SMILES IDX 81 91 60 92 61 93 69 94 62 95 68 96 63 97 64 98 65 99 66 100
REMARK SMILES IDX 67 101
REMARK H PARENT 27 4 5 11 10 17 14 22 32 38 88 57 58 68
REMARK Flexibility Score: inf
ROOT
ATOM      1  C   UNL A   1      34.300  25.176  24.682  1.00  0.00     0.242 C 
ATOM      2  O   UNL A   1      34.449  24.845  23.498  1.00  0.00    -0.273 OA
ATOM      3  N   UNL A   1      33.944  26.464  24.908  1.00  0.00    -0.354 N 
ATOM      4  H   UNL A   1      33.993  27.026  24.101  1.00  0.00     0.163 HD
ENDROOT
BRANCH   1   5
ATOM      5  C   UNL A   1      34.642  24.132  25.762  1.00  0.00     0.173 C 
BRANCH   5   6
ATOM      6  C   UNL A   1      35.602  23.005  25.274  1.00  0.00     0.015 C 
ATOM      7  C   UNL A   1      37.066  23.468  25.244  1.00  0.00     0.010 C 
ATOM      8  C   UNL A   1      35.516  21.721  26.110  1.00  0.00     0.010 C 
ENDBRANCH   5   6
BRANCH   5   9
ATOM      9  N   UNL A   1      33.487  23.583  26.502  1.00  0.00    -0.342 N 
ATOM     10  C   UNL A   1      32.142  23.597  26.234  1.00  0.00     0.242 C 
ATOM     11  H   UNL A   1      33.725  23.124  27.340  1.00  0.00     0.164 HD
ATOM     12  O   UNL A   1      31.403  23.838  27.197  1.00  0.00    -0.273 OA
BRANCH  10  13
ATOM     13  C   UNL A   1      31.539  22.995  24.935  1.00  0.00     0.168 C 
ATOM     14  C   UNL A   1      32.049  21.564  24.867  1.00  0.00     0.041 C 
BRANCH  13  15
ATOM     15  N   UNL A   1      31.727  23.702  23.678  1.00  0.00    -0.343 N 
ATOM     16  C   UNL A   1      31.125  24.854  23.244  1.00  0.00     0.240 C 
ATOM     17  H   UNL A   1      32.373  23.299  23.054  1.00  0.00     0.164 HD
ATOM     18  O   UNL A   1      31.371  25.252  22.102  1.00  0.00    -0.273 OA
BRANCH  16  19
ATOM     19  C   UNL A   1      30.077  25.573  24.104  1.00  0.00     0.219 C 
BRANCH  19  20
ATOM     20  N   UNL A   1      30.584  26.891  24.456  1.00  0.00    -0.312 N 
ATOM     21  C   UNL A   1      30.345  28.058  23.805  1.00  0.00     0.407 C 
ATOM     22  H   UNL A   1      31.161  26.941  25.250  1.00  0.00     0.167 HD
ATOM     23  O   UNL A   1      31.008  29.067  24.047  1.00  0.00    -0.225 OA
BRANCH  21  24
ATOM     24  O   UNL A   1      29.388  27.957  22.855  1.00  0.00    -0.445 OA
BRANCH  24  25
ATOM     25  C   UNL A   1      28.164  28.671  23.103  1.00  0.00     0.270 C 
BRANCH  25  26
ATOM     26  C   UNL A   1      28.148  30.095  22.614  1.00  0.00    -0.011 A 
ATOM     27  C   UNL A   1      28.202  31.174  23.506  1.00  0.00     0.007 A 
ATOM     28  C   UNL A   1      28.063  30.353  21.237  1.00  0.00     0.007 A 
ATOM     29  C   UNL A   1      28.231  32.483  23.026  1.00  0.00     0.000 A 
ATOM     30  C   UNL A   1      28.083  31.663  20.761  1.00  0.00     0.000 A 
ATOM     31  C   UNL A   1      28.177  32.727  21.655  1.00  0.00     0.000 A 
ENDBRANCH  25  26
ENDBRANCH  24  25
ENDBRANCH  21  24
ENDBRANCH  19  20
ENDBRANCH  16  19
ENDBRANCH  13  15
ENDBRANCH  10  13
ENDBRANCH   5   9
ENDBRANCH   1   5
BRANCH   3  32
ATOM     32  C   UNL A   1      33.505  27.188  26.087  1.00  0.00     0.116 C 
BRANCH  32  33
ATOM     33  C   UNL A   1      34.054  28.603  26.207  1.00  0.00     0.023 C 
BRANCH  33  34
ATOM     34  C   UNL A   1      34.129  29.127  27.632  1.00  0.00     0.023 C 
BRANCH  34  35
ATOM     35  C   UNL A   1      35.495  29.681  27.974  1.00  0.00     0.116 C 
BRANCH  35  36
ATOM     36  N   UNL A   1      35.535  30.071  29.378  1.00  0.00    -0.352 N 
ATOM     37  C   UNL A   1      36.500  29.771  30.304  1.00  0.00     0.251 C 
ATOM     38  H   UNL A   1      34.780  30.616  29.700  1.00  0.00     0.163 HD
ATOM     39  O   UNL A   1      36.222  29.755  31.499  1.00  0.00    -0.269 OA
BRANCH  37  40
ATOM     40  C   UNL A   1      37.874  29.515  29.834  1.00  0.00     0.039 A 
ATOM     41  C   UNL A   1      38.237  29.851  28.530  1.00  0.00     0.014 A 
ATOM     42  C   UNL A   1      38.792  28.900  30.691  1.00  0.00     0.014 A 
ATOM     43  C   UNL A   1      39.528  29.561  28.093  1.00  0.00     0.010 A 
ATOM     44  C   UNL A   1      40.108  28.746  30.302  1.00  0.00     0.010 A 
ATOM     45  C   UNL A   1      40.471  29.014  28.981  1.00  0.00    -0.014 A 
BRANCH  45  46
ATOM     46  C   UNL A   1      41.827  28.636  28.534  1.00  0.00     0.031 A 
ATOM     47  C   UNL A   1      42.914  29.680  28.502  1.00  0.00     0.074 A 
ATOM     48  C   UNL A   1      42.054  27.377  28.116  1.00  0.00     0.049 A 
ATOM     49  N   UNL A   1      44.160  29.562  28.122  1.00  0.00    -0.248 NA
ATOM     50  C   UNL A   1      42.546  31.051  28.906  1.00  0.00     0.031 C 
ATOM     51  C   UNL A   1      41.047  26.314  28.043  1.00  0.00     0.029 A 
ATOM     52  N   UNL A   1      43.205  26.776  27.686  1.00  0.00    -0.354 N 
ATOM     53  C   UNL A   1      44.705  30.839  28.219  1.00  0.00     0.074 A 
ATOM     54  C   UNL A   1      43.643  31.730  28.616  1.00  0.00     0.031 C 
ATOM     55  C   UNL A   1      41.639  25.176  27.650  1.00  0.00     0.029 A 
ATOM     56  C   UNL A   1      43.052  25.440  27.405  1.00  0.00     0.049 A 
ATOM     57  H   UNL A   1      44.059  27.254  27.588  1.00  0.00     0.167 HD
ATOM     58  C   UNL A   1      45.988  31.225  28.031  1.00  0.00     0.031 A 
ATOM     59  C   UNL A   1      43.960  24.530  27.006  1.00  0.00     0.031 A 
ATOM     60  C   UNL A   1      47.038  30.313  27.669  1.00  0.00     0.049 A 
ATOM     61  C   UNL A   1      45.386  24.976  26.840  1.00  0.00     0.074 A 
ATOM     62  C   UNL A   1      48.387  30.568  27.513  1.00  0.00     0.029 A 
ATOM     63  N   UNL A   1      46.850  28.961  27.416  1.00  0.00    -0.354 N 
ATOM     64  N   UNL A   1      45.902  26.172  27.007  1.00  0.00    -0.248 NA
ATOM     65  C   UNL A   1      46.357  23.945  26.454  1.00  0.00     0.031 C 
ATOM     66  C   UNL A   1      49.008  29.380  27.116  1.00  0.00     0.029 A 
ATOM     67  C   UNL A   1      48.056  28.371  27.088  1.00  0.00     0.049 A 
ATOM     68  H   UNL A   1      45.986  28.492  27.464  1.00  0.00     0.167 HD
ATOM     69  C   UNL A   1      47.265  26.032  26.768  1.00  0.00     0.074 A 
ATOM     70  C   UNL A   1      47.491  24.631  26.472  1.00  0.00     0.031 C 
ATOM     71  C   UNL A   1      48.242  26.973  26.789  1.00  0.00     0.031 A 
BRANCH  58  72
ATOM     72  C   UNL A   1      46.315  32.685  28.222  1.00  0.00    -0.014 A 
ATOM     73  C   UNL A   1      46.056  33.629  27.210  1.00  0.00     0.010 A 
ATOM     74  C   UNL A   1      46.871  33.126  29.437  1.00  0.00     0.010 A 
ATOM     75  C   UNL A   1      46.388  34.975  27.391  1.00  0.00     0.020 A 
ATOM     76  C   UNL A   1      47.175  34.477  29.635  1.00  0.00     0.020 A 
ATOM     77  C   UNL A   1      46.946  35.391  28.603  1.00  0.00     0.054 A 
BRANCH  77  78
ATOM     78  S   UNL A   1      47.341  37.148  28.820  1.00  0.00     0.124 S 
ATOM     79  O   UNL A   1      46.196  37.621  29.593  1.00  0.00    -0.237 OA
ATOM     80  O   UNL A   1      48.610  37.104  29.540  1.00  0.00    -0.237 OA
ATOM     81  O   UNL A   1      47.421  37.657  27.452  1.00  0.00    -0.744 OA
ENDBRANCH  77  78
ENDBRANCH  58  72
BRANCH  59  82
ATOM     82  C   UNL A   1      43.549  23.118  26.785  1.00  0.00    -0.014 A 
ATOM     83  C   UNL A   1      43.775  22.493  25.545  1.00  0.00     0.010 A 
ATOM     84  C   UNL A   1      42.960  22.375  27.824  1.00  0.00     0.010 A 
ATOM     85  C   UNL A   1      43.396  21.164  25.341  1.00  0.00     0.020 A 
ATOM     86  C   UNL A   1      42.607  21.036  27.633  1.00  0.00     0.020 A 
ATOM     87  C   UNL A   1      42.816  20.443  26.387  1.00  0.00     0.054 A 
BRANCH  87  88
ATOM     88  S   UNL A   1      42.371  18.705  26.112  1.00  0.00     0.124 S 
ATOM     89  O   UNL A   1      40.963  18.806  25.745  1.00  0.00    -0.237 OA
ATOM     90  O   UNL A   1      43.280  18.314  25.036  1.00  0.00    -0.237 OA
ATOM     91  O   UNL A   1      42.638  18.073  27.403  1.00  0.00    -0.744 OA
ENDBRANCH  87  88
ENDBRANCH  59  82
BRANCH  71  92
ATOM     92  C   UNL A   1      49.644  26.502  26.512  1.00  0.00    -0.014 A 
ATOM     93  C   UNL A   1      50.445  25.961  27.532  1.00  0.00     0.010 A 
ATOM     94  C   UNL A   1      50.150  26.575  25.202  1.00  0.00     0.010 A 
ATOM     95  C   UNL A   1      51.750  25.549  27.255  1.00  0.00     0.020 A 
ATOM     96  C   UNL A   1      51.441  26.131  24.915  1.00  0.00     0.020 A 
ATOM     97  C   UNL A   1      52.241  25.640  25.949  1.00  0.00     0.054 A 
BRANCH  97  98
ATOM     98  S   UNL A   1      53.932  25.085  25.612  1.00  0.00     0.124 S 
ATOM     99  O   UNL A   1      54.275  25.863  24.425  1.00  0.00    -0.237 OA
ATOM    100  O   UNL A   1      54.641  25.456  26.835  1.00  0.00    -0.237 OA
ATOM    101  O   UNL A   1      53.788  23.648  25.395  1.00  0.00    -0.744 OA
ENDBRANCH  97  98
ENDBRANCH  71  92
ENDBRANCH  45  46
ENDBRANCH  37  40
ENDBRANCH  35  36
ENDBRANCH  34  35
ENDBRANCH  33  34
ENDBRANCH  32  33
ENDBRANCH   3  32
TORSDOF 23
ENDMDL
MODEL 2
REMARK VINA RESULT:     -11.1      5.018      6.212
REMARK SMILES CC(C)[C@H](NC(=O)[C@H](C)NC(=O)CNC(=O)OCc1ccccc1)C(=O)NCCCCNC(=O)c1ccc(-c2c3nc(c(-c4ccc(S(=O)(=O)[O-])cc4)c4ccc([nH]4)c(-c4ccc(S(=O)(=O)[O-])cc4)c4nc(c(-c5ccc(S(=O)(=O)[O-])cc5)c5ccc2[nH]5)C=C4)C=C3)cc1
REMARK SMILES IDX 25 1 26 2 27 3 4 5 2 6 1 7 3 8 5 9 6 10 7 12 8 13 9 14 10 15
REMARK SMILES IDX 11 16 12 18 13 19 14 20 15 21 16 23 17 24 18 25 19 26 20 27
REMARK SMILES IDX 24 28 21 29 23 30 22 31 28 32 29 33 30 34 31 35 32 36 33 37
REMARK SMILES IDX 34 39 35 40 36 41 94 42 37 43 93 44 38 45 39 46 40 47 87 48
REMARK SMILES IDX 41 49 92 50 86 51 88 52 42 53 91 54 85 55 84 56 43 58 73 59
REMARK SMILES IDX 54 60 72 61 55 62 58 63 71 64 89 65 56 66 57 67 70 69 90 70
REMARK SMILES IDX 59 71 44 72 45 73 53 74 46 75 52 76 47 77 48 78 49 79 50 80
REMARK SMILES IDX 51 81 74 82 75 83 83 84 76 85 82 86 77 87 78 88 79 89 80 90
REMARK SMILES IDX 81 91 60 92 61 93 69 94 62 95 68 96 63 97 64 98 65 99 66 100
REMARK SMILES IDX 67 101
REMARK H PARENT 27 4 5 11 10 17 14 22 32 38 88 57 58 68
REMARK Flexibility Score: inf
ROOT
ATOM      1  C   UNL A   1      34.683  23.837  24.609  1.00  0.00     0.242 C 
ATOM      2  O   UNL A   1      35.426  23.770  23.620  1.00  0.00    -0.273 OA
ATOM      3  N   UNL A   1      34.491  25.069  25.138  1.00  0.00    -0.354 N 
ATOM      4  H   UNL A   1      35.091  25.752  24.758  1.00  0.00     0.163 HD
ENDROOT
BRANCH   1   5
ATOM      5  C   UNL A   1      34.156  22.512  25.194  1.00  0.00     0.173 C 
BRANCH   5   6
ATOM      6  C   UNL A   1      34.925  21.249  24.698  1.00  0.00     0.015 C 
ATOM      7  C   UNL A   1      36.316  21.133  25.337  1.00  0.00     0.010 C 
ATOM      8  C   UNL A   1      34.168  19.936  24.941  1.00  0.00     0.010 C 
ENDBRANCH   5   6
BRANCH   5   9
ATOM      9  N   UNL A   1      32.692  22.325  25.122  1.00  0.00    -0.342 N 
ATOM     10  C   UNL A   1      31.743  22.870  24.294  1.00  0.00     0.242 C 
ATOM     11  H   UNL A   1      32.333  21.695  25.787  1.00  0.00     0.164 HD
ATOM     12  O   UNL A   1      30.691  23.223  24.842  1.00  0.00    -0.273 OA
BRANCH  10  13
ATOM     13  C   UNL A   1      31.793  22.724  22.749  1.00  0.00     0.168 C 
ATOM     14  C   UNL A   1      31.996  21.240  22.480  1.00  0.00     0.041 C 
BRANCH  13  15
ATOM     15  N   UNL A   1      32.724  23.548  21.994  1.00  0.00    -0.343 N 
ATOM     16  C   UNL A   1      32.634  24.880  21.685  1.00  0.00     0.240 C 
ATOM     17  H   UNL A   1      33.527  23.087  21.659  1.00  0.00     0.164 HD
ATOM     18  O   UNL A   1      33.503  25.377  20.963  1.00  0.00    -0.273 OA
BRANCH  16  19
ATOM     19  C   UNL A   1      31.421  25.713  22.120  1.00  0.00     0.219 C 
BRANCH  19  20
ATOM     20  N   UNL A   1      31.895  26.947  22.729  1.00  0.00    -0.312 N 
ATOM     21  C   UNL A   1      31.242  28.136  22.780  1.00  0.00     0.407 C 
ATOM     22  H   UNL A   1      32.785  26.916  23.148  1.00  0.00     0.167 HD
ATOM     23  O   UNL A   1      31.828  29.168  23.108  1.00  0.00    -0.225 OA
BRANCH  21  24
ATOM     24  O   UNL A   1      29.954  28.059  22.375  1.00  0.00    -0.445 OA
BRANCH  24  25
ATOM     25  C   UNL A   1      28.993  28.783  23.164  1.00  0.00     0.270 C 
BRANCH  25  26
ATOM     26  C   UNL A   1      28.660  30.160  22.654  1.00  0.00    -0.011 A 
ATOM     27  C   UNL A   1      28.616  31.266  23.514  1.00  0.00     0.007 A 
ATOM     28  C   UNL A   1      28.373  30.344  21.293  1.00  0.00     0.007 A 
ATOM     29  C   UNL A   1      28.349  32.538  23.011  1.00  0.00     0.000 A 
ATOM     30  C   UNL A   1      28.098  31.617  20.794  1.00  0.00     0.000 A 
ATOM     31  C   UNL A   1      28.096  32.715  21.652  1.00  0.00     0.000 A 
ENDBRANCH  25  26
ENDBRANCH  24  25
ENDBRANCH  21  24
ENDBRANCH  19  20
ENDBRANCH  16  19
ENDBRANCH  13  15
ENDBRANCH  10  13
ENDBRANCH   5   9
ENDBRANCH   1   5
BRANCH   3  32
ATOM     32  C   UNL A   1      33.589  25.596  26.145  1.00  0.00     0.116 C 
BRANCH  32  33
ATOM     33  C   UNL A   1      32.989  26.957  25.815  1.00  0.00     0.023 C 
BRANCH  33  34
ATOM     34  C   UNL A   1      33.329  28.050  26.815  1.00  0.00     0.023 C 
BRANCH  34  35
ATOM     35  C   UNL A   1      34.435  28.960  26.324  1.00  0.00     0.116 C 
BRANCH  35  36
ATOM     36  N   UNL A   1      34.077  30.352  26.567  1.00  0.00    -0.352 N 
ATOM     37  C   UNL A   1      34.429  31.133  27.637  1.00  0.00     0.251 C 
ATOM     38  H   UNL A   1      33.517  30.783  25.881  1.00  0.00     0.163 HD
ATOM     39  O   UNL A   1      33.730  32.090  27.955  1.00  0.00    -0.269 OA
BRANCH  37  40
ATOM     40  C   UNL A   1      35.677  30.821  28.357  1.00  0.00     0.039 A 
ATOM     41  C   UNL A   1      36.811  31.607  28.156  1.00  0.00     0.014 A 
ATOM     42  C   UNL A   1      35.722  29.713  29.209  1.00  0.00     0.014 A 
ATOM     43  C   UNL A   1      37.992  31.269  28.813  1.00  0.00     0.010 A 
ATOM     44  C   UNL A   1      36.850  29.467  29.967  1.00  0.00     0.010 A 
ATOM     45  C   UNL A   1      38.013  30.201  29.728  1.00  0.00    -0.014 A 
BRANCH  45  46
ATOM     46  C   UNL A   1      39.262  29.777  30.394  1.00  0.00     0.031 A 
ATOM     47  C   UNL A   1      39.676  30.440  31.683  1.00  0.00     0.074 A 
ATOM     48  C   UNL A   1      40.031  28.840  29.810  1.00  0.00     0.049 A 
ATOM     49  N   UNL A   1      40.741  30.231  32.412  1.00  0.00    -0.248 NA
ATOM     50  C   UNL A   1      38.803  31.510  32.203  1.00  0.00     0.031 C 
ATOM     51  C   UNL A   1      39.750  28.192  28.525  1.00  0.00     0.029 A 
ATOM     52  N   UNL A   1      41.200  28.263  30.226  1.00  0.00    -0.354 N 
ATOM     53  C   UNL A   1      40.674  31.156  33.450  1.00  0.00     0.074 A 
ATOM     54  C   UNL A   1      39.511  31.977  33.218  1.00  0.00     0.031 C 
ATOM     55  C   UNL A   1      40.690  27.265  28.288  1.00  0.00     0.029 A 
ATOM     56  C   UNL A   1      41.658  27.283  29.378  1.00  0.00     0.049 A 
ATOM     57  H   UNL A   1      41.667  28.524  31.052  1.00  0.00     0.167 HD
ATOM     58  C   UNL A   1      41.489  31.283  34.522  1.00  0.00     0.031 A 
ATOM     59  C   UNL A   1      42.735  26.483  29.483  1.00  0.00     0.031 A 
ATOM     60  C   UNL A   1      42.624  30.432  34.751  1.00  0.00     0.049 A 
ATOM     61  C   UNL A   1      43.604  26.618  30.701  1.00  0.00     0.074 A 
ATOM     62  C   UNL A   1      43.487  30.416  35.829  1.00  0.00     0.029 A 
ATOM     63  N   UNL A   1      43.043  29.433  33.883  1.00  0.00    -0.354 N 
ATOM     64  N   UNL A   1      43.487  27.448  31.712  1.00  0.00    -0.248 NA
ATOM     65  C   UNL A   1      44.739  25.693  30.805  1.00  0.00     0.031 C 
ATOM     66  C   UNL A   1      44.460  29.441  35.589  1.00  0.00     0.029 A 
ATOM     67  C   UNL A   1      44.164  28.805  34.392  1.00  0.00     0.049 A 
ATOM     68  H   UNL A   1      42.606  29.205  33.030  1.00  0.00     0.167 HD
ATOM     69  C   UNL A   1      44.521  27.129  32.585  1.00  0.00     0.074 A 
ATOM     70  C   UNL A   1      45.234  26.015  31.992  1.00  0.00     0.031 C 
ATOM     71  C   UNL A   1      44.854  27.704  33.768  1.00  0.00     0.031 A 
BRANCH  58  72
ATOM     72  C   UNL A   1      41.173  32.371  35.517  1.00  0.00    -0.014 A 
ATOM     73  C   UNL A   1      40.388  32.111  36.657  1.00  0.00     0.010 A 
ATOM     74  C   UNL A   1      41.685  33.667  35.326  1.00  0.00     0.010 A 
ATOM     75  C   UNL A   1      40.082  33.135  37.559  1.00  0.00     0.020 A 
ATOM     76  C   UNL A   1      41.409  34.687  36.243  1.00  0.00     0.020 A 
ATOM     77  C   UNL A   1      40.595  34.418  37.345  1.00  0.00     0.054 A 
BRANCH  77  78
ATOM     78  S   UNL A   1      40.205  35.719  38.547  1.00  0.00     0.124 S 
ATOM     79  O   UNL A   1      38.799  35.450  38.837  1.00  0.00    -0.237 OA
ATOM     80  O   UNL A   1      41.135  35.437  39.637  1.00  0.00    -0.237 OA
ATOM     81  O   UNL A   1      40.463  36.957  37.815  1.00  0.00    -0.744 OA
ENDBRANCH  77  78
ENDBRANCH  58  72
BRANCH  59  82
ATOM     82  C   UNL A   1      43.011  25.468  28.431  1.00  0.00    -0.014 A 
ATOM     83  C   UNL A   1      43.903  25.752  27.381  1.00  0.00     0.010 A 
ATOM     84  C   UNL A   1      42.410  24.198  28.489  1.00  0.00     0.010 A 
ATOM     85  C   UNL A   1      44.168  24.795  26.397  1.00  0.00     0.020 A 
ATOM     86  C   UNL A   1      42.697  23.228  27.524  1.00  0.00     0.020 A 
ATOM     87  C   UNL A   1      43.564  23.538  26.476  1.00  0.00     0.054 A 
BRANCH  87  88
ATOM     88  S   UNL A   1      43.957  22.297  25.212  1.00  0.00     0.124 S 
ATOM     89  O   UNL A   1      45.411  22.389  25.137  1.00  0.00    -0.237 OA
ATOM     90  O   UNL A   1      43.430  21.068  25.802  1.00  0.00    -0.237 OA
ATOM     91  O   UNL A   1      43.238  22.769  24.031  1.00  0.00    -0.744 OA
ENDBRANCH  87  88
ENDBRANCH  59  82
BRANCH  71  92
ATOM     92  C   UNL A   1      46.024  27.111  34.505  1.00  0.00    -0.014 A 
ATOM     93  C   UNL A   1      47.329  27.597  34.312  1.00  0.00     0.010 A 
ATOM     94  C   UNL A   1      45.804  26.072  35.427  1.00  0.00     0.010 A 
ATOM     95  C   UNL A   1      48.402  27.017  34.991  1.00  0.00     0.020 A 
ATOM     96  C   UNL A   1      46.869  25.514  36.135  1.00  0.00     0.020 A 
ATOM     97  C   UNL A   1      48.165  25.977  35.895  1.00  0.00     0.054 A 
BRANCH  97  98
ATOM     98  S   UNL A   1      49.572  25.251  36.776  1.00  0.00     0.124 S 
ATOM     99  O   UNL A   1      50.705  25.750  36.001  1.00  0.00    -0.237 OA
ATOM    100  O   UNL A   1      49.434  25.810  38.119  1.00  0.00    -0.237 OA
ATOM    101  O   UNL A   1      49.337  23.812  36.681  1.00  0.00    -0.744 OA
ENDBRANCH  97  98
ENDBRANCH  71  92
ENDBRANCH  45  46
ENDBRANCH  37  40
ENDBRANCH  35  36
ENDBRANCH  34  35
ENDBRANCH  33  34
ENDBRANCH  32  33
ENDBRANCH   3  32
TORSDOF 23
ENDMDL
MODEL 3
REMARK VINA RESULT:     -11.0      6.293     11.569
REMARK SMILES CC(C)[C@H](NC(=O)[C@H](C)NC(=O)CNC(=O)OCc1ccccc1)C(=O)NCCCCNC(=O)c1ccc(-c2c3nc(c(-c4ccc(S(=O)(=O)[O-])cc4)c4ccc([nH]4)c(-c4ccc(S(=O)(=O)[O-])cc4)c4nc(c(-c5ccc(S(=O)(=O)[O-])cc5)c5ccc2[nH]5)C=C4)C=C3)cc1
REMARK SMILES IDX 25 1 26 2 27 3 4 5 2 6 1 7 3 8 5 9 6 10 7 12 8 13 9 14 10 15
REMARK SMILES IDX 11 16 12 18 13 19 14 20 15 21 16 23 17 24 18 25 19 26 20 27
REMARK SMILES IDX 24 28 21 29 23 30 22 31 28 32 29 33 30 34 31 35 32 36 33 37
REMARK SMILES IDX 34 39 35 40 36 41 94 42 37 43 93 44 38 45 39 46 40 47 87 48
REMARK SMILES IDX 41 49 92 50 86 51 88 52 42 53 91 54 85 55 84 56 43 58 73 59
REMARK SMILES IDX 54 60 72 61 55 62 58 63 71 64 89 65 56 66 57 67 70 69 90 70
REMARK SMILES IDX 59 71 44 72 45 73 53 74 46 75 52 76 47 77 48 78 49 79 50 80
REMARK SMILES IDX 51 81 74 82 75 83 83 84 76 85 82 86 77 87 78 88 79 89 80 90
REMARK SMILES IDX 81 91 60 92 61 93 69 94 62 95 68 96 63 97 64 98 65 99 66 100
REMARK SMILES IDX 67 101
REMARK H PARENT 27 4 5 11 10 17 14 22 32 38 88 57 58 68
REMARK Flexibility Score: inf
ROOT
ATOM      1  C   UNL A   1      33.627  21.740  25.894  1.00  0.00     0.242 C 
ATOM      2  O   UNL A   1      32.611  21.083  26.158  1.00  0.00    -0.273 OA
ATOM      3  N   UNL A   1      34.797  21.057  25.862  1.00  0.00    -0.354 N 
ATOM      4  H   UNL A   1      34.717  20.137  26.204  1.00  0.00     0.163 HD
ENDROOT
BRANCH   1   5
ATOM      5  C   UNL A   1      33.469  23.266  25.745  1.00  0.00     0.173 C 
BRANCH   5   6
ATOM      6  C   UNL A   1      31.996  23.765  25.853  1.00  0.00     0.015 C 
ATOM      7  C   UNL A   1      31.389  23.473  27.232  1.00  0.00     0.010 C 
ATOM      8  C   UNL A   1      31.833  25.262  25.557  1.00  0.00     0.010 C 
ENDBRANCH   5   6
BRANCH   5   9
ATOM      9  N   UNL A   1      34.166  23.865  24.587  1.00  0.00    -0.342 N 
ATOM     10  C   UNL A   1      34.198  23.515  23.261  1.00  0.00     0.242 C 
ATOM     11  H   UNL A   1      34.705  24.659  24.808  1.00  0.00     0.164 HD
ATOM     12  O   UNL A   1      35.308  23.568  22.717  1.00  0.00    -0.273 OA
BRANCH  10  13
ATOM     13  C   UNL A   1      32.919  23.424  22.386  1.00  0.00     0.168 C 
ATOM     14  C   UNL A   1      32.532  21.952  22.370  1.00  0.00     0.041 C 
BRANCH  13  15
ATOM     15  N   UNL A   1      32.938  23.997  21.049  1.00  0.00    -0.343 N 
ATOM     16  C   UNL A   1      32.896  25.317  20.682  1.00  0.00     0.240 C 
ATOM     17  H   UNL A   1      32.987  23.351  20.308  1.00  0.00     0.164 HD
ATOM     18  O   UNL A   1      32.846  25.592  19.480  1.00  0.00    -0.273 OA
BRANCH  16  19
ATOM     19  C   UNL A   1      32.790  26.429  21.734  1.00  0.00     0.219 C 
BRANCH  19  20
ATOM     20  N   UNL A   1      31.484  27.060  21.617  1.00  0.00    -0.312 N 
ATOM     21  C   UNL A   1      30.976  28.037  22.411  1.00  0.00     0.407 C 
ATOM     22  H   UNL A   1      30.908  26.745  20.885  1.00  0.00     0.167 HD
ATOM     23  O   UNL A   1      29.781  28.332  22.369  1.00  0.00    -0.225 OA
BRANCH  21  24
ATOM     24  O   UNL A   1      31.885  28.567  23.260  1.00  0.00    -0.445 OA
BRANCH  24  25
ATOM     25  C   UNL A   1      31.377  29.066  24.509  1.00  0.00     0.270 C 
BRANCH  25  26
ATOM     26  C   UNL A   1      32.428  29.414  25.531  1.00  0.00    -0.011 A 
ATOM     27  C   UNL A   1      32.290  30.528  26.370  1.00  0.00     0.007 A 
ATOM     28  C   UNL A   1      33.577  28.617  25.640  1.00  0.00     0.007 A 
ATOM     29  C   UNL A   1      33.254  30.804  27.338  1.00  0.00     0.000 A 
ATOM     30  C   UNL A   1      34.545  28.900  26.604  1.00  0.00     0.000 A 
ATOM     31  C   UNL A   1      34.378  29.987  27.459  1.00  0.00     0.000 A 
ENDBRANCH  25  26
ENDBRANCH  24  25
ENDBRANCH  21  24
ENDBRANCH  19  20
ENDBRANCH  16  19
ENDBRANCH  13  15
ENDBRANCH  10  13
ENDBRANCH   5   9
ENDBRANCH   1   5
BRANCH   3  32
ATOM     32  C   UNL A   1      36.141  21.394  25.431  1.00  0.00     0.116 C 
BRANCH  32  33
ATOM     33  C   UNL A   1      36.873  22.379  26.333  1.00  0.00     0.023 C 
BRANCH  33  34
ATOM     34  C   UNL A   1      37.790  23.341  25.595  1.00  0.00     0.023 C 
BRANCH  34  35
ATOM     35  C   UNL A   1      38.614  24.192  26.537  1.00  0.00     0.116 C 
BRANCH  35  36
ATOM     36  N   UNL A   1      39.985  24.285  26.051  1.00  0.00    -0.352 N 
ATOM     37  C   UNL A   1      40.832  25.360  26.133  1.00  0.00     0.251 C 
ATOM     38  H   UNL A   1      40.346  23.481  25.613  1.00  0.00     0.163 HD
ATOM     39  O   UNL A   1      41.748  25.483  25.327  1.00  0.00    -0.269 OA
BRANCH  37  40
ATOM     40  C   UNL A   1      40.641  26.326  27.229  1.00  0.00     0.039 A 
ATOM     41  C   UNL A   1      41.274  27.568  27.181  1.00  0.00     0.014 A 
ATOM     42  C   UNL A   1      39.856  25.972  28.331  1.00  0.00     0.014 A 
ATOM     43  C   UNL A   1      41.115  28.449  28.248  1.00  0.00     0.010 A 
ATOM     44  C   UNL A   1      39.585  26.900  29.317  1.00  0.00     0.010 A 
ATOM     45  C   UNL A   1      40.263  28.121  29.317  1.00  0.00    -0.014 A 
BRANCH  45  46
ATOM     46  C   UNL A   1      40.121  29.004  30.494  1.00  0.00     0.031 A 
ATOM     47  C   UNL A   1      41.020  28.797  31.686  1.00  0.00     0.074 A 
ATOM     48  C   UNL A   1      39.159  29.944  30.497  1.00  0.00     0.049 A 
ATOM     49  N   UNL A   1      41.044  29.444  32.822  1.00  0.00    -0.248 NA
ATOM     50  C   UNL A   1      41.993  27.690  31.616  1.00  0.00     0.031 C 
ATOM     51  C   UNL A   1      38.193  30.173  29.418  1.00  0.00     0.029 A 
ATOM     52  N   UNL A   1      38.842  30.889  31.434  1.00  0.00    -0.354 N 
ATOM     53  C   UNL A   1      42.007  28.807  33.598  1.00  0.00     0.074 A 
ATOM     54  C   UNL A   1      42.490  27.678  32.841  1.00  0.00     0.031 C 
ATOM     55  C   UNL A   1      37.430  31.231  29.731  1.00  0.00     0.029 A 
ATOM     56  C   UNL A   1      37.824  31.726  31.044  1.00  0.00     0.049 A 
ATOM     57  H   UNL A   1      39.299  30.963  32.302  1.00  0.00     0.167 HD
ATOM     58  C   UNL A   1      42.475  29.155  34.819  1.00  0.00     0.031 A 
ATOM     59  C   UNL A   1      37.282  32.782  31.678  1.00  0.00     0.031 A 
ATOM     60  C   UNL A   1      42.003  30.305  35.542  1.00  0.00     0.049 A 
ATOM     61  C   UNL A   1      37.843  33.173  33.016  1.00  0.00     0.074 A 
ATOM     62  C   UNL A   1      42.441  30.801  36.754  1.00  0.00     0.029 A 
ATOM     63  N   UNL A   1      40.987  31.144  35.104  1.00  0.00    -0.354 N 
ATOM     64  N   UNL A   1      38.805  32.604  33.706  1.00  0.00    -0.248 NA
ATOM     65  C   UNL A   1      37.261  34.360  33.652  1.00  0.00     0.031 C 
ATOM     66  C   UNL A   1      41.655  31.912  37.075  1.00  0.00     0.029 A 
ATOM     67  C   UNL A   1      40.771  32.146  36.031  1.00  0.00     0.049 A 
ATOM     68  H   UNL A   1      40.494  31.041  34.258  1.00  0.00     0.167 HD
ATOM     69  C   UNL A   1      38.961  33.380  34.849  1.00  0.00     0.074 A 
ATOM     70  C   UNL A   1      38.010  34.470  34.741  1.00  0.00     0.031 C 
ATOM     71  C   UNL A   1      39.809  33.210  35.894  1.00  0.00     0.031 A 
BRANCH  58  72
ATOM     72  C   UNL A   1      43.547  28.291  35.432  1.00  0.00    -0.014 A 
ATOM     73  C   UNL A   1      44.912  28.539  35.191  1.00  0.00     0.010 A 
ATOM     74  C   UNL A   1      43.190  27.226  36.280  1.00  0.00     0.010 A 
ATOM     75  C   UNL A   1      45.894  27.713  35.746  1.00  0.00     0.020 A 
ATOM     76  C   UNL A   1      44.171  26.418  36.864  1.00  0.00     0.020 A 
ATOM     77  C   UNL A   1      45.517  26.657  36.579  1.00  0.00     0.054 A 
BRANCH  77  78
ATOM     78  S   UNL A   1      46.815  25.621  37.308  1.00  0.00     0.124 S 
ATOM     79  O   UNL A   1      47.957  25.918  36.448  1.00  0.00    -0.237 OA
ATOM     80  O   UNL A   1      46.906  26.134  38.672  1.00  0.00    -0.237 OA
ATOM     81  O   UNL A   1      46.284  24.264  37.190  1.00  0.00    -0.744 OA
ENDBRANCH  77  78
ENDBRANCH  58  72
BRANCH  59  82
ATOM     82  C   UNL A   1      36.188  33.555  31.031  1.00  0.00    -0.014 A 
ATOM     83  C   UNL A   1      35.080  33.991  31.780  1.00  0.00     0.010 A 
ATOM     84  C   UNL A   1      36.261  33.891  29.667  1.00  0.00     0.010 A 
ATOM     85  C   UNL A   1      34.057  34.723  31.173  1.00  0.00     0.020 A 
ATOM     86  C   UNL A   1      35.255  34.650  29.063  1.00  0.00     0.020 A 
ATOM     87  C   UNL A   1      34.152  35.050  29.818  1.00  0.00     0.054 A 
BRANCH  87  88
ATOM     88  S   UNL A   1      32.832  36.039  29.062  1.00  0.00     0.124 S 
ATOM     89  O   UNL A   1      32.026  36.408  30.221  1.00  0.00    -0.237 OA
ATOM     90  O   UNL A   1      33.576  37.131  28.436  1.00  0.00    -0.237 OA
ATOM     91  O   UNL A   1      32.198  35.112  28.128  1.00  0.00    -0.744 OA
ENDBRANCH  87  88
ENDBRANCH  59  82
BRANCH  71  92
ATOM     92  C   UNL A   1      39.759  34.246  36.984  1.00  0.00    -0.014 A 
ATOM     93  C   UNL A   1      39.172  33.967  38.229  1.00  0.00     0.010 A 
ATOM     94  C   UNL A   1      40.341  35.508  36.762  1.00  0.00     0.010 A 
ATOM     95  C   UNL A   1      39.119  34.951  39.218  1.00  0.00     0.020 A 
ATOM     96  C   UNL A   1      40.322  36.482  37.761  1.00  0.00     0.020 A 
ATOM     97  C   UNL A   1      39.692  36.204  38.975  1.00  0.00     0.054 A 
BRANCH  97  98
ATOM     98  S   UNL A   1      39.624  37.460  40.280  1.00  0.00     0.124 S 
ATOM     99  O   UNL A   1      38.885  36.766  41.330  1.00  0.00    -0.237 OA
ATOM    100  O   UNL A   1      41.037  37.706  40.561  1.00  0.00    -0.237 OA
ATOM    101  O   UNL A   1      38.918  38.574  39.653  1.00  0.00    -0.744 OA
ENDBRANCH  97  98
ENDBRANCH  71  92
ENDBRANCH  45  46
ENDBRANCH  37  40
ENDBRANCH  35  36
ENDBRANCH  34  35
ENDBRANCH  33  34
ENDBRANCH  32  33
ENDBRANCH   3  32
TORSDOF 23
ENDMDL
