MODEL 1
REMARK VINA RESULT:     -12.0      0.000      0.000
REMARK SMILES COc1ccc(-c2nc3cc(N4C[C@@H](C(=O)NCCCCNC(=O)c5ccc(-c6c7nc(c(-c8ccc(S(=O)(=O)[O-])cc8)c8ccc([nH]8)c(-c8ccc(S(=O)(=O)[O-])cc8)c8nc(c(-c9ccc(S(=O)(=O)[O-])cc9)c9ccc6[nH]9)C=C8)C=C7)cc5)CC4=O)ccc3o2)cc1
REMARK SMILES IDX 19 1 18 2 17 3 15 4 16 5 14 7 12 8 13 9 86 10 85 11 87 12
REMARK SMILES IDX 11 13 7 14 8 15 91 16 9 17 90 18 10 19 89 20 88 21 6 22 3 23
REMARK SMILES IDX 4 24 93 25 5 26 92 27 2 28 1 29 20 30 21 31 22 32 23 33
REMARK SMILES IDX 24 35 25 36 26 37 84 38 27 39 83 40 28 41 29 42 30 43 77 44
REMARK SMILES IDX 31 45 82 46 76 47 78 48 32 49 81 50 75 51 74 52 33 54 63 55
REMARK SMILES IDX 44 56 62 57 45 58 48 59 61 60 79 61 46 62 47 63 60 65 80 66
REMARK SMILES IDX 49 67 34 68 35 69 43 70 36 71 42 72 37 73 38 74 39 75 40 76
REMARK SMILES IDX 41 77 64 78 65 79 73 80 66 81 72 82 67 83 68 84 69 85 70 86
REMARK SMILES IDX 71 87 50 88 51 89 59 90 52 91 58 92 53 93 54 94 55 95 56 96
REMARK SMILES IDX 57 97
REMARK H PARENT 17 6 22 34 78 53 48 64
REMARK Flexibility Score: inf
ROOT
ATOM      1  C   UNL A   1      34.832  33.772  29.068  1.00  0.00     0.023 C 
ENDROOT
BRANCH   1   2
ATOM      2  C   UNL A   1      34.119  32.663  28.297  1.00  0.00     0.116 C 
BRANCH   2   3
ATOM      3  N   UNL A   1      35.053  31.651  27.840  1.00  0.00    -0.356 N 
ATOM      4  C   UNL A   1      34.862  30.368  27.444  1.00  0.00     0.225 C 
ATOM      5  O   UNL A   1      35.853  29.716  27.109  1.00  0.00    -0.275 OA
ATOM      6  H   UNL A   1      35.992  31.948  27.811  1.00  0.00     0.163 HD
BRANCH   4   7
ATOM      7  C   UNL A   1      33.487  29.751  27.326  1.00  0.00     0.107 C 
ATOM      8  N   UNL A   1      32.533  28.030  26.024  1.00  0.00    -0.312 N 
ATOM      9  C   UNL A   1      33.585  28.282  26.981  1.00  0.00     0.139 C 
ATOM     10  C   UNL A   1      31.973  29.209  25.529  1.00  0.00     0.227 C 
ATOM     11  C   UNL A   1      32.535  30.371  26.317  1.00  0.00     0.116 C 
ATOM     12  O   UNL A   1      31.125  29.338  24.666  1.00  0.00    -0.274 OA
BRANCH   8  13
ATOM     13  C   UNL A   1      32.118  26.719  25.690  1.00  0.00     0.046 A 
ATOM     14  C   UNL A   1      32.750  22.486  24.484  1.00  0.00     0.227 A 
ATOM     15  N   UNL A   1      33.481  23.566  24.306  1.00  0.00    -0.209 NA
ATOM     16  O   UNL A   1      31.493  22.707  24.996  1.00  0.00    -0.436 OA
ATOM     17  C   UNL A   1      32.702  24.559  24.805  1.00  0.00     0.112 A 
ATOM     18  C   UNL A   1      31.488  24.059  25.238  1.00  0.00     0.155 A 
ATOM     19  C   UNL A   1      33.011  25.905  24.980  1.00  0.00     0.058 A 
ATOM     20  C   UNL A   1      30.519  24.839  25.856  1.00  0.00     0.051 A 
ATOM     21  C   UNL A   1      30.884  26.182  26.105  1.00  0.00     0.030 A 
BRANCH  14  22
ATOM     22  C   UNL A   1      33.237  21.123  24.383  1.00  0.00     0.037 A 
ATOM     23  C   UNL A   1      33.930  18.401  24.381  1.00  0.00     0.118 A 
ATOM     24  C   UNL A   1      34.859  19.377  24.766  1.00  0.00     0.047 A 
ATOM     25  C   UNL A   1      32.651  18.789  23.992  1.00  0.00     0.047 A 
ATOM     26  C   UNL A   1      34.524  20.737  24.752  1.00  0.00     0.017 A 
ATOM     27  C   UNL A   1      32.310  20.139  23.998  1.00  0.00     0.017 A 
BRANCH  23  28
ATOM     28  O   UNL A   1      34.361  17.106  24.468  1.00  0.00    -0.497 OA
ATOM     29  C   UNL A   1      33.775  16.330  25.509  1.00  0.00     0.278 C 
ENDBRANCH  23  28
ENDBRANCH  14  22
ENDBRANCH   8  13
ENDBRANCH   4   7
ENDBRANCH   2   3
ENDBRANCH   1   2
BRANCH   1  30
ATOM     30  C   UNL A   1      36.349  33.797  28.883  1.00  0.00     0.023 C 
BRANCH  30  31
ATOM     31  C   UNL A   1      37.160  33.420  30.118  1.00  0.00     0.116 C 
BRANCH  31  32
ATOM     32  N   UNL A   1      36.444  32.524  31.013  1.00  0.00    -0.352 N 
ATOM     33  C   UNL A   1      36.716  31.215  31.328  1.00  0.00     0.251 C 
ATOM     34  H   UNL A   1      35.653  32.910  31.455  1.00  0.00     0.163 HD
ATOM     35  O   UNL A   1      35.923  30.569  32.006  1.00  0.00    -0.269 OA
BRANCH  33  36
ATOM     36  C   UNL A   1      37.950  30.582  30.816  1.00  0.00     0.039 A 
ATOM     37  C   UNL A   1      38.148  30.514  29.437  1.00  0.00     0.014 A 
ATOM     38  C   UNL A   1      38.921  30.093  31.695  1.00  0.00     0.014 A 
ATOM     39  C   UNL A   1      39.358  30.028  28.938  1.00  0.00     0.010 A 
ATOM     40  C   UNL A   1      40.152  29.678  31.198  1.00  0.00     0.010 A 
ATOM     41  C   UNL A   1      40.387  29.649  29.815  1.00  0.00    -0.014 A 
BRANCH  41  42
ATOM     42  C   UNL A   1      41.727  29.261  29.306  1.00  0.00     0.031 A 
ATOM     43  C   UNL A   1      42.826  30.281  29.192  1.00  0.00     0.074 A 
ATOM     44  C   UNL A   1      41.928  28.000  28.872  1.00  0.00     0.049 A 
ATOM     45  N   UNL A   1      44.038  30.135  28.720  1.00  0.00    -0.248 NA
ATOM     46  C   UNL A   1      42.516  31.646  29.643  1.00  0.00     0.031 C 
ATOM     47  C   UNL A   1      40.925  26.931  28.877  1.00  0.00     0.029 A 
ATOM     48  N   UNL A   1      43.041  27.405  28.329  1.00  0.00    -0.354 N 
ATOM     49  C   UNL A   1      44.628  31.390  28.799  1.00  0.00     0.074 A 
ATOM     50  C   UNL A   1      43.627  32.294  29.324  1.00  0.00     0.031 C 
ATOM     51  C   UNL A   1      41.474  25.809  28.385  1.00  0.00     0.029 A 
ATOM     52  C   UNL A   1      42.851  26.087  27.989  1.00  0.00     0.049 A 
ATOM     53  H   UNL A   1      43.893  27.880  28.196  1.00  0.00     0.167 HD
ATOM     54  C   UNL A   1      45.893  31.755  28.480  1.00  0.00     0.031 A 
ATOM     55  C   UNL A   1      43.686  25.199  27.416  1.00  0.00     0.031 A 
ATOM     56  C   UNL A   1      46.888  30.850  27.967  1.00  0.00     0.049 A 
ATOM     57  C   UNL A   1      45.085  25.626  27.070  1.00  0.00     0.074 A 
ATOM     58  C   UNL A   1      48.218  31.107  27.682  1.00  0.00     0.029 A 
ATOM     59  N   UNL A   1      46.662  29.518  27.651  1.00  0.00    -0.354 N 
ATOM     60  N   UNL A   1      45.652  26.798  27.232  1.00  0.00    -0.248 NA
ATOM     61  C   UNL A   1      45.962  24.608  26.472  1.00  0.00     0.031 C 
ATOM     62  C   UNL A   1      48.781  29.947  27.141  1.00  0.00     0.029 A 
ATOM     63  C   UNL A   1      47.818  28.950  27.144  1.00  0.00     0.049 A 
ATOM     64  H   UNL A   1      45.806  29.047  27.771  1.00  0.00     0.167 HD
ATOM     65  C   UNL A   1      46.956  26.654  26.773  1.00  0.00     0.074 A 
ATOM     66  C   UNL A   1      47.099  25.277  26.346  1.00  0.00     0.031 C 
ATOM     67  C   UNL A   1      47.945  27.580  26.710  1.00  0.00     0.031 A 
BRANCH  54  68
ATOM     68  C   UNL A   1      46.269  33.202  28.665  1.00  0.00    -0.014 A 
ATOM     69  C   UNL A   1      46.083  34.141  27.635  1.00  0.00     0.010 A 
ATOM     70  C   UNL A   1      46.781  33.637  29.902  1.00  0.00     0.010 A 
ATOM     71  C   UNL A   1      46.445  35.478  27.820  1.00  0.00     0.020 A 
ATOM     72  C   UNL A   1      47.117  34.978  30.102  1.00  0.00     0.020 A 
ATOM     73  C   UNL A   1      46.964  35.887  29.052  1.00  0.00     0.054 A 
BRANCH  73  74
ATOM     74  S   UNL A   1      47.411  37.631  29.271  1.00  0.00     0.124 S 
ATOM     75  O   UNL A   1      47.044  38.200  27.977  1.00  0.00    -0.237 OA
ATOM     76  O   UNL A   1      46.573  38.038  30.396  1.00  0.00    -0.237 OA
ATOM     77  O   UNL A   1      48.844  37.590  29.548  1.00  0.00    -0.744 OA
ENDBRANCH  73  74
ENDBRANCH  54  68
BRANCH  55  78
ATOM     78  C   UNL A   1      43.215  23.815  27.140  1.00  0.00    -0.014 A 
ATOM     79  C   UNL A   1      42.983  23.387  25.821  1.00  0.00     0.010 A 
ATOM     80  C   UNL A   1      43.026  22.905  28.197  1.00  0.00     0.010 A 
ATOM     81  C   UNL A   1      42.563  22.079  25.565  1.00  0.00     0.020 A 
ATOM     82  C   UNL A   1      42.632  21.589  27.942  1.00  0.00     0.020 A 
ATOM     83  C   UNL A   1      42.394  21.186  26.627  1.00  0.00     0.054 A 
BRANCH  83  84
ATOM     84  S   UNL A   1      41.914  19.474  26.265  1.00  0.00     0.124 S 
ATOM     85  O   UNL A   1      40.465  19.587  26.132  1.00  0.00    -0.237 OA
ATOM     86  O   UNL A   1      42.644  19.197  25.030  1.00  0.00    -0.237 OA
ATOM     87  O   UNL A   1      42.382  18.734  27.435  1.00  0.00    -0.744 OA
ENDBRANCH  83  84
ENDBRANCH  55  78
BRANCH  67  88
ATOM     88  C   UNL A   1      49.277  27.134  26.171  1.00  0.00    -0.014 A 
ATOM     89  C   UNL A   1      50.245  26.557  27.013  1.00  0.00     0.010 A 
ATOM     90  C   UNL A   1      49.545  27.246  24.794  1.00  0.00     0.010 A 
ATOM     91  C   UNL A   1      51.469  26.127  26.491  1.00  0.00     0.020 A 
ATOM     92  C   UNL A   1      50.756  26.792  24.265  1.00  0.00     0.020 A 
ATOM     93  C   UNL A   1      51.715  26.248  25.120  1.00  0.00     0.054 A 
BRANCH  93  94
ATOM     94  S   UNL A   1      53.294  25.642  24.462  1.00  0.00     0.124 S 
ATOM     95  O   UNL A   1      53.305  24.258  24.927  1.00  0.00    -0.237 OA
ATOM     96  O   UNL A   1      53.131  25.821  23.021  1.00  0.00    -0.237 OA
ATOM     97  O   UNL A   1      54.286  26.516  25.084  1.00  0.00    -0.744 OA
ENDBRANCH  93  94
ENDBRANCH  67  88
ENDBRANCH  41  42
ENDBRANCH  33  36
ENDBRANCH  31  32
ENDBRANCH  30  31
ENDBRANCH   1  30
TORSDOF 17
ENDMDL
MODEL 2
REMARK VINA RESULT:     -11.9      4.680      7.947
REMARK SMILES COc1ccc(-c2nc3cc(N4C[C@@H](C(=O)NCCCCNC(=O)c5ccc(-c6c7nc(c(-c8ccc(S(=O)(=O)[O-])cc8)c8ccc([nH]8)c(-c8ccc(S(=O)(=O)[O-])cc8)c8nc(c(-c9ccc(S(=O)(=O)[O-])cc9)c9ccc6[nH]9)C=C8)C=C7)cc5)CC4=O)ccc3o2)cc1
REMARK SMILES IDX 19 1 18 2 17 3 15 4 16 5 14 7 12 8 13 9 86 10 85 11 87 12
REMARK SMILES IDX 11 13 7 14 8 15 91 16 9 17 90 18 10 19 89 20 88 21 6 22 3 23
REMARK SMILES IDX 4 24 93 25 5 26 92 27 2 28 1 29 20 30 21 31 22 32 23 33
REMARK SMILES IDX 24 35 25 36 26 37 84 38 27 39 83 40 28 41 29 42 30 43 77 44
REMARK SMILES IDX 31 45 82 46 76 47 78 48 32 49 81 50 75 51 74 52 33 54 63 55
REMARK SMILES IDX 44 56 62 57 45 58 48 59 61 60 79 61 46 62 47 63 60 65 80 66
REMARK SMILES IDX 49 67 34 68 35 69 43 70 36 71 42 72 37 73 38 74 39 75 40 76
REMARK SMILES IDX 41 77 64 78 65 79 73 80 66 81 72 82 67 83 68 84 69 85 70 86
REMARK SMILES IDX 71 87 50 88 51 89 59 90 52 91 58 92 53 93 54 94 55 95 56 96
REMARK SMILES IDX 57 97
REMARK H PARENT 17 6 22 34 78 53 48 64
REMARK Flexibility Score: inf
ROOT
ATOM      1  C   UNL A   1      34.789  33.820  30.377  1.00  0.00     0.023 C 
ENDROOT
BRANCH   1   2
ATOM      2  C   UNL A   1      34.493  32.826  31.499  1.00  0.00     0.116 C 
BRANCH   2   3
ATOM      3  N   UNL A   1      34.545  33.466  32.801  1.00  0.00    -0.356 N 
ATOM      4  C   UNL A   1      35.583  33.706  33.640  1.00  0.00     0.225 C 
ATOM      5  O   UNL A   1      35.340  34.269  34.709  1.00  0.00    -0.275 OA
ATOM      6  H   UNL A   1      33.674  33.782  33.133  1.00  0.00     0.163 HD
BRANCH   4   7
ATOM      7  C   UNL A   1      37.015  33.384  33.274  1.00  0.00     0.107 C 
ATOM      8  N   UNL A   1      38.898  32.580  34.444  1.00  0.00    -0.312 N 
ATOM      9  C   UNL A   1      37.537  32.236  34.108  1.00  0.00     0.139 C 
ATOM     10  C   UNL A   1      39.196  33.913  34.157  1.00  0.00     0.227 C 
ATOM     11  C   UNL A   1      38.030  34.508  33.399  1.00  0.00     0.116 C 
ATOM     12  O   UNL A   1      40.222  34.525  34.386  1.00  0.00    -0.274 OA
BRANCH   8  13
ATOM     13  C   UNL A   1      39.809  31.629  34.964  1.00  0.00     0.046 A 
ATOM     14  C   UNL A   1      41.986  27.752  35.007  1.00  0.00     0.227 A 
ATOM     15  N   UNL A   1      40.834  28.105  34.475  1.00  0.00    -0.209 NA
ATOM     16  O   UNL A   1      42.562  28.690  35.830  1.00  0.00    -0.436 OA
ATOM     17  C   UNL A   1      40.671  29.383  34.897  1.00  0.00     0.112 A 
ATOM     18  C   UNL A   1      41.715  29.765  35.719  1.00  0.00     0.155 A 
ATOM     19  C   UNL A   1      39.679  30.297  34.551  1.00  0.00     0.058 A 
ATOM     20  C   UNL A   1      41.843  31.045  36.244  1.00  0.00     0.051 A 
ATOM     21  C   UNL A   1      40.877  31.982  35.812  1.00  0.00     0.030 A 
BRANCH  14  22
ATOM     22  C   UNL A   1      42.754  26.581  34.631  1.00  0.00     0.037 A 
ATOM     23  C   UNL A   1      44.254  24.241  34.222  1.00  0.00     0.118 A 
ATOM     24  C   UNL A   1      44.704  25.474  33.734  1.00  0.00     0.047 A 
ATOM     25  C   UNL A   1      43.048  24.177  34.914  1.00  0.00     0.047 A 
ATOM     26  C   UNL A   1      43.951  26.642  33.920  1.00  0.00     0.017 A 
ATOM     27  C   UNL A   1      42.309  25.339  35.118  1.00  0.00     0.017 A 
BRANCH  23  28
ATOM     28  O   UNL A   1      45.090  23.179  34.009  1.00  0.00    -0.497 OA
ATOM     29  C   UNL A   1      45.851  22.759  35.138  1.00  0.00     0.278 C 
ENDBRANCH  23  28
ENDBRANCH  14  22
ENDBRANCH   8  13
ENDBRANCH   4   7
ENDBRANCH   2   3
ENDBRANCH   1   2
BRANCH   1  30
ATOM     30  C   UNL A   1      35.967  33.432  29.484  1.00  0.00     0.023 C 
BRANCH  30  31
ATOM     31  C   UNL A   1      35.616  33.180  28.021  1.00  0.00     0.116 C 
BRANCH  31  32
ATOM     32  N   UNL A   1      34.563  32.190  27.854  1.00  0.00    -0.352 N 
ATOM     33  C   UNL A   1      34.655  30.819  27.862  1.00  0.00     0.251 C 
ATOM     34  H   UNL A   1      33.659  32.553  27.715  1.00  0.00     0.163 HD
ATOM     35  O   UNL A   1      33.678  30.137  27.571  1.00  0.00    -0.269 OA
BRANCH  33  36
ATOM     36  C   UNL A   1      35.946  30.176  28.187  1.00  0.00     0.039 A 
ATOM     37  C   UNL A   1      36.939  30.128  27.208  1.00  0.00     0.014 A 
ATOM     38  C   UNL A   1      36.185  29.656  29.462  1.00  0.00     0.014 A 
ATOM     39  C   UNL A   1      38.203  29.632  27.532  1.00  0.00     0.010 A 
ATOM     40  C   UNL A   1      37.464  29.230  29.803  1.00  0.00     0.010 A 
ATOM     41  C   UNL A   1      38.489  29.221  28.845  1.00  0.00    -0.014 A 
BRANCH  41  42
ATOM     42  C   UNL A   1      39.863  28.821  29.242  1.00  0.00     0.031 A 
ATOM     43  C   UNL A   1      40.770  29.793  29.943  1.00  0.00     0.074 A 
ATOM     44  C   UNL A   1      40.319  27.599  28.898  1.00  0.00     0.049 A 
ATOM     45  N   UNL A   1      42.014  29.636  30.315  1.00  0.00    -0.248 NA
ATOM     46  C   UNL A   1      40.215  31.123  30.243  1.00  0.00     0.031 C 
ATOM     47  C   UNL A   1      39.556  26.583  28.167  1.00  0.00     0.029 A 
ATOM     48  N   UNL A   1      41.541  27.007  29.107  1.00  0.00    -0.354 N 
ATOM     49  C   UNL A   1      42.398  30.849  30.875  1.00  0.00     0.074 A 
ATOM     50  C   UNL A   1      41.268  31.745  30.754  1.00  0.00     0.031 C 
ATOM     51  C   UNL A   1      40.318  25.489  28.010  1.00  0.00     0.029 A 
ATOM     52  C   UNL A   1      41.634  25.737  28.588  1.00  0.00     0.049 A 
ATOM     53  H   UNL A   1      42.280  27.451  29.583  1.00  0.00     0.167 HD
ATOM     54  C   UNL A   1      43.578  31.182  31.451  1.00  0.00     0.031 A 
ATOM     55  C   UNL A   1      42.665  24.870  28.569  1.00  0.00     0.031 A 
ATOM     56  C   UNL A   1      44.696  30.284  31.577  1.00  0.00     0.049 A 
ATOM     57  C   UNL A   1      43.964  25.262  29.215  1.00  0.00     0.074 A 
ATOM     58  C   UNL A   1      45.907  30.504  32.210  1.00  0.00     0.029 A 
ATOM     59  N   UNL A   1      44.746  29.001  31.053  1.00  0.00    -0.354 N 
ATOM     60  N   UNL A   1      44.280  26.384  29.815  1.00  0.00    -0.248 NA
ATOM     61  C   UNL A   1      45.045  24.265  29.190  1.00  0.00     0.031 C 
ATOM     62  C   UNL A   1      46.711  29.376  32.019  1.00  0.00     0.029 A 
ATOM     63  C   UNL A   1      45.979  28.429  31.319  1.00  0.00     0.049 A 
ATOM     64  H   UNL A   1      44.013  28.562  30.564  1.00  0.00     0.167 HD
ATOM     65  C   UNL A   1      45.589  26.223  30.255  1.00  0.00     0.074 A 
ATOM     66  C   UNL A   1      45.998  24.889  29.869  1.00  0.00     0.031 C 
ATOM     67  C   UNL A   1      46.380  27.104  30.918  1.00  0.00     0.031 A 
BRANCH  54  68
ATOM     68  C   UNL A   1      43.723  32.586  31.980  1.00  0.00    -0.014 A 
ATOM     69  C   UNL A   1      44.096  33.647  31.136  1.00  0.00     0.010 A 
ATOM     70  C   UNL A   1      43.446  32.853  33.333  1.00  0.00     0.010 A 
ATOM     71  C   UNL A   1      44.234  34.942  31.644  1.00  0.00     0.020 A 
ATOM     72  C   UNL A   1      43.555  34.151  33.840  1.00  0.00     0.020 A 
ATOM     73  C   UNL A   1      43.967  35.184  32.995  1.00  0.00     0.054 A 
BRANCH  73  74
ATOM     74  S   UNL A   1      44.140  36.876  33.625  1.00  0.00     0.124 S 
ATOM     75  O   UNL A   1      42.753  37.231  33.916  1.00  0.00    -0.237 OA
ATOM     76  O   UNL A   1      44.999  36.697  34.792  1.00  0.00    -0.237 OA
ATOM     77  O   UNL A   1      44.748  37.601  32.512  1.00  0.00    -0.744 OA
ENDBRANCH  73  74
ENDBRANCH  54  68
BRANCH  55  78
ATOM     78  C   UNL A   1      42.500  23.542  27.918  1.00  0.00    -0.014 A 
ATOM     79  C   UNL A   1      42.858  23.356  26.571  1.00  0.00     0.010 A 
ATOM     80  C   UNL A   1      42.012  22.446  28.653  1.00  0.00     0.010 A 
ATOM     81  C   UNL A   1      42.723  22.102  25.970  1.00  0.00     0.020 A 
ATOM     82  C   UNL A   1      41.901  21.185  28.063  1.00  0.00     0.020 A 
ATOM     83  C   UNL A   1      42.249  21.022  26.721  1.00  0.00     0.054 A 
BRANCH  83  84
ATOM     84  S   UNL A   1      42.148  19.388  25.939  1.00  0.00     0.124 S 
ATOM     85  O   UNL A   1      40.718  19.270  25.669  1.00  0.00    -0.237 OA
ATOM     86  O   UNL A   1      43.003  19.547  24.765  1.00  0.00    -0.237 OA
ATOM     87  O   UNL A   1      42.670  18.487  26.963  1.00  0.00    -0.744 OA
ENDBRANCH  83  84
ENDBRANCH  55  78
BRANCH  67  88
ATOM     88  C   UNL A   1      47.767  26.648  31.281  1.00  0.00    -0.014 A 
ATOM     89  C   UNL A   1      48.033  26.053  32.528  1.00  0.00     0.010 A 
ATOM     90  C   UNL A   1      48.809  26.770  30.343  1.00  0.00     0.010 A 
ATOM     91  C   UNL A   1      49.324  25.615  32.840  1.00  0.00     0.020 A 
ATOM     92  C   UNL A   1      50.093  26.308  30.641  1.00  0.00     0.020 A 
ATOM     93  C   UNL A   1      50.345  25.746  31.894  1.00  0.00     0.054 A 
BRANCH  93  94
ATOM     94  S   UNL A   1      52.000  25.130  32.308  1.00  0.00     0.124 S 
ATOM     95  O   UNL A   1      51.793  23.685  32.316  1.00  0.00    -0.237 OA
ATOM     96  O   UNL A   1      52.818  25.642  31.210  1.00  0.00    -0.237 OA
ATOM     97  O   UNL A   1      52.276  25.727  33.613  1.00  0.00    -0.744 OA
ENDBRANCH  93  94
ENDBRANCH  67  88
ENDBRANCH  41  42
ENDBRANCH  33  36
ENDBRANCH  31  32
ENDBRANCH  30  31
ENDBRANCH   1  30
TORSDOF 17
ENDMDL
MODEL 3
REMARK VINA RESULT:     -11.9      5.775      8.041
REMARK SMILES COc1ccc(-c2nc3cc(N4C[C@@H](C(=O)NCCCCNC(=O)c5ccc(-c6c7nc(c(-c8ccc(S(=O)(=O)[O-])cc8)c8ccc([nH]8)c(-c8ccc(S(=O)(=O)[O-])cc8)c8nc(c(-c9ccc(S(=O)(=O)[O-])cc9)c9ccc6[nH]9)C=C8)C=C7)cc5)CC4=O)ccc3o2)cc1
REMARK SMILES IDX 19 1 18 2 17 3 15 4 16 5 14 7 12 8 13 9 86 10 85 11 87 12
REMARK SMILES IDX 11 13 7 14 8 15 91 16 9 17 90 18 10 19 89 20 88 21 6 22 3 23
REMARK SMILES IDX 4 24 93 25 5 26 92 27 2 28 1 29 20 30 21 31 22 32 23 33
REMARK SMILES IDX 24 35 25 36 26 37 84 38 27 39 83 40 28 41 29 42 30 43 77 44
REMARK SMILES IDX 31 45 82 46 76 47 78 48 32 49 81 50 75 51 74 52 33 54 63 55
REMARK SMILES IDX 44 56 62 57 45 58 48 59 61 60 79 61 46 62 47 63 60 65 80 66
REMARK SMILES IDX 49 67 34 68 35 69 43 70 36 71 42 72 37 73 38 74 39 75 40 76
REMARK SMILES IDX 41 77 64 78 65 79 73 80 66 81 72 82 67 83 68 84 69 85 70 86
REMARK SMILES IDX 71 87 50 88 51 89 59 90 52 91 58 92 53 93 54 94 55 95 56 96
REMARK SMILES IDX 57 97
REMARK H PARENT 17 6 22 34 78 53 48 64
REMARK Flexibility Score: inf
ROOT
ATOM      1  C   UNL A   1      34.937  31.282  28.422  1.00  0.00     0.023 C 
ENDROOT
BRANCH   1   2
ATOM      2  C   UNL A   1      35.022  29.966  27.652  1.00  0.00     0.116 C 
BRANCH   2   3
ATOM      3  N   UNL A   1      34.305  30.042  26.392  1.00  0.00    -0.356 N 
ATOM      4  C   UNL A   1      33.652  29.094  25.674  1.00  0.00     0.225 C 
ATOM      5  O   UNL A   1      33.130  29.437  24.611  1.00  0.00    -0.275 OA
ATOM      6  H   UNL A   1      34.290  30.939  25.987  1.00  0.00     0.163 HD
BRANCH   4   7
ATOM      7  C   UNL A   1      33.480  27.676  26.168  1.00  0.00     0.107 C 
ATOM      8  N   UNL A   1      32.516  25.708  25.296  1.00  0.00    -0.312 N 
ATOM      9  C   UNL A   1      33.531  26.696  25.017  1.00  0.00     0.139 C 
ATOM     10  C   UNL A   1      31.662  26.099  26.329  1.00  0.00     0.227 C 
ATOM     11  C   UNL A   1      32.214  27.364  26.948  1.00  0.00     0.116 C 
ATOM     12  O   UNL A   1      30.675  25.528  26.750  1.00  0.00    -0.274 OA
BRANCH   8  13
ATOM     13  C   UNL A   1      32.457  24.473  24.605  1.00  0.00     0.046 A 
ATOM     14  C   UNL A   1      33.173  20.115  24.090  1.00  0.00     0.227 A 
ATOM     15  N   UNL A   1      33.788  21.025  24.817  1.00  0.00    -0.209 NA
ATOM     16  O   UNL A   1      32.238  20.604  23.209  1.00  0.00    -0.436 OA
ATOM     17  C   UNL A   1      33.171  22.180  24.464  1.00  0.00     0.112 A 
ATOM     18  C   UNL A   1      32.217  21.948  23.490  1.00  0.00     0.155 A 
ATOM     19  C   UNL A   1      33.337  23.456  24.996  1.00  0.00     0.058 A 
ATOM     20  C   UNL A   1      31.385  22.940  22.987  1.00  0.00     0.051 A 
ATOM     21  C   UNL A   1      31.505  24.208  23.602  1.00  0.00     0.030 A 
BRANCH  14  22
ATOM     22  C   UNL A   1      33.259  18.683  24.300  1.00  0.00     0.037 A 
ATOM     23  C   UNL A   1      33.527  15.978  25.009  1.00  0.00     0.118 A 
ATOM     24  C   UNL A   1      34.188  16.493  23.886  1.00  0.00     0.047 A 
ATOM     25  C   UNL A   1      32.727  16.818  25.778  1.00  0.00     0.047 A 
ATOM     26  C   UNL A   1      34.044  17.837  23.518  1.00  0.00     0.017 A 
ATOM     27  C   UNL A   1      32.599  18.159  25.425  1.00  0.00     0.017 A 
BRANCH  23  28
ATOM     28  O   UNL A   1      33.772  14.661  25.288  1.00  0.00    -0.497 OA
ATOM     29  C   UNL A   1      32.657  13.916  25.770  1.00  0.00     0.278 C 
ENDBRANCH  23  28
ENDBRANCH  14  22
ENDBRANCH   8  13
ENDBRANCH   4   7
ENDBRANCH   2   3
ENDBRANCH   1   2
BRANCH   1  30
ATOM     30  C   UNL A   1      33.780  32.188  28.000  1.00  0.00     0.023 C 
BRANCH  30  31
ATOM     31  C   UNL A   1      34.114  33.674  27.922  1.00  0.00     0.116 C 
BRANCH  31  32
ATOM     32  N   UNL A   1      33.234  34.495  28.739  1.00  0.00    -0.352 N 
ATOM     33  C   UNL A   1      33.285  34.737  30.091  1.00  0.00     0.251 C 
ATOM     34  H   UNL A   1      32.501  34.940  28.257  1.00  0.00     0.163 HD
ATOM     35  O   UNL A   1      32.376  35.354  30.638  1.00  0.00    -0.269 OA
BRANCH  33  36
ATOM     36  C   UNL A   1      34.419  34.219  30.884  1.00  0.00     0.039 A 
ATOM     37  C   UNL A   1      34.213  33.111  31.707  1.00  0.00     0.014 A 
ATOM     38  C   UNL A   1      35.686  34.801  30.786  1.00  0.00     0.014 A 
ATOM     39  C   UNL A   1      35.298  32.535  32.371  1.00  0.00     0.010 A 
ATOM     40  C   UNL A   1      36.776  34.184  31.390  1.00  0.00     0.010 A 
ATOM     41  C   UNL A   1      36.595  33.039  32.181  1.00  0.00    -0.014 A 
BRANCH  41  42
ATOM     42  C   UNL A   1      37.778  32.358  32.768  1.00  0.00     0.031 A 
ATOM     43  C   UNL A   1      38.333  32.800  34.094  1.00  0.00     0.074 A 
ATOM     44  C   UNL A   1      38.398  31.389  32.065  1.00  0.00     0.049 A 
ATOM     45  N   UNL A   1      39.388  32.359  34.731  1.00  0.00    -0.248 NA
ATOM     46  C   UNL A   1      37.629  33.894  34.780  1.00  0.00     0.031 C 
ATOM     47  C   UNL A   1      37.990  30.908  30.742  1.00  0.00     0.029 A 
ATOM     48  N   UNL A   1      39.513  30.642  32.358  1.00  0.00    -0.354 N 
ATOM     49  C   UNL A   1      39.485  33.133  35.882  1.00  0.00     0.074 A 
ATOM     50  C   UNL A   1      38.408  34.098  35.832  1.00  0.00     0.031 C 
ATOM     51  C   UNL A   1      38.826  29.934  30.350  1.00  0.00     0.029 A 
ATOM     52  C   UNL A   1      39.854  29.749  31.369  1.00  0.00     0.049 A 
ATOM     53  H   UNL A   1      40.019  30.738  33.197  1.00  0.00     0.167 HD
ATOM     54  C   UNL A   1      40.379  33.038  36.895  1.00  0.00     0.031 A 
ATOM     55  C   UNL A   1      40.882  28.884  31.285  1.00  0.00     0.031 A 
ATOM     56  C   UNL A   1      41.443  32.070  36.944  1.00  0.00     0.049 A 
ATOM     57  C   UNL A   1      41.862  28.796  32.421  1.00  0.00     0.074 A 
ATOM     58  C   UNL A   1      42.355  31.846  37.961  1.00  0.00     0.029 A 
ATOM     59  N   UNL A   1      41.746  31.172  35.931  1.00  0.00    -0.354 N 
ATOM     60  N   UNL A   1      41.887  29.479  33.541  1.00  0.00    -0.248 NA
ATOM     61  C   UNL A   1      42.948  27.815  32.288  1.00  0.00     0.031 C 
ATOM     62  C   UNL A   1      43.245  30.853  37.539  1.00  0.00     0.029 A 
ATOM     63  C   UNL A   1      42.851  30.416  36.284  1.00  0.00     0.049 A 
ATOM     64  H   UNL A   1      41.249  31.086  35.086  1.00  0.00     0.167 HD
ATOM     65  C   UNL A   1      42.979  28.997  34.253  1.00  0.00     0.074 A 
ATOM     66  C   UNL A   1      43.577  27.953  33.447  1.00  0.00     0.031 C 
ATOM     67  C   UNL A   1      43.445  29.387  35.466  1.00  0.00     0.031 A 
BRANCH  54  68
ATOM     68  C   UNL A   1      40.250  34.019  38.032  1.00  0.00    -0.014 A 
ATOM     69  C   UNL A   1      40.912  35.259  38.001  1.00  0.00     0.010 A 
ATOM     70  C   UNL A   1      39.426  33.710  39.129  1.00  0.00     0.010 A 
ATOM     71  C   UNL A   1      40.789  36.155  39.067  1.00  0.00     0.020 A 
ATOM     72  C   UNL A   1      39.277  34.615  40.184  1.00  0.00     0.020 A 
ATOM     73  C   UNL A   1      39.975  35.824  40.154  1.00  0.00     0.054 A 
BRANCH  73  74
ATOM     74  S   UNL A   1      39.821  37.010  41.518  1.00  0.00     0.124 S 
ATOM     75  O   UNL A   1      39.043  36.248  42.492  1.00  0.00    -0.237 OA
ATOM     76  O   UNL A   1      41.212  37.261  41.884  1.00  0.00    -0.237 OA
ATOM     77  O   UNL A   1      39.124  38.143  40.915  1.00  0.00    -0.744 OA
ENDBRANCH  73  74
ENDBRANCH  54  68
BRANCH  55  78
ATOM     78  C   UNL A   1      41.029  28.028  30.077  1.00  0.00    -0.014 A 
ATOM     79  C   UNL A   1      42.132  28.184  29.218  1.00  0.00     0.010 A 
ATOM     80  C   UNL A   1      40.079  27.028  29.795  1.00  0.00     0.010 A 
ATOM     81  C   UNL A   1      42.278  27.362  28.097  1.00  0.00     0.020 A 
ATOM     82  C   UNL A   1      40.236  26.188  28.690  1.00  0.00     0.020 A 
ATOM     83  C   UNL A   1      41.331  26.366  27.842  1.00  0.00     0.054 A 
BRANCH  83  84
ATOM     84  S   UNL A   1      41.577  25.267  26.419  1.00  0.00     0.124 S 
ATOM     85  O   UNL A   1      42.999  24.954  26.521  1.00  0.00    -0.237 OA
ATOM     86  O   UNL A   1      40.663  24.165  26.710  1.00  0.00    -0.237 OA
ATOM     87  O   UNL A   1      41.198  26.096  25.278  1.00  0.00    -0.744 OA
ENDBRANCH  83  84
ENDBRANCH  55  78
BRANCH  67  88
ATOM     88  C   UNL A   1      44.654  28.672  36.004  1.00  0.00    -0.014 A 
ATOM     89  C   UNL A   1      45.954  29.144  35.745  1.00  0.00     0.010 A 
ATOM     90  C   UNL A   1      44.488  27.540  36.825  1.00  0.00     0.010 A 
ATOM     91  C   UNL A   1      47.065  28.480  36.272  1.00  0.00     0.020 A 
ATOM     92  C   UNL A   1      45.594  26.891  37.376  1.00  0.00     0.020 A 
ATOM     93  C   UNL A   1      46.877  27.357  37.084  1.00  0.00     0.054 A 
BRANCH  93  94
ATOM     94  S   UNL A   1      48.334  26.539  37.791  1.00  0.00     0.124 S 
ATOM     95  O   UNL A   1      47.900  25.146  37.853  1.00  0.00    -0.237 OA
ATOM     96  O   UNL A   1      49.376  26.831  36.809  1.00  0.00    -0.237 OA
ATOM     97  O   UNL A   1      48.505  27.196  39.086  1.00  0.00    -0.744 OA
ENDBRANCH  93  94
ENDBRANCH  67  88
ENDBRANCH  41  42
ENDBRANCH  33  36
ENDBRANCH  31  32
ENDBRANCH  30  31
ENDBRANCH   1  30
TORSDOF 17
ENDMDL
