MODEL 1
REMARK VINA RESULT:     -10.6      0.000      0.000
REMARK SMILES C/C(=C(\C#N)C(=O)NCCCCNC(=O)c1ccc(-c2c3nc(c(-c4ccc(S(=O)(=O)[O-])cc4)c4ccc([nH]4)c(-c4ccc(S(=O)(=O)[O-])cc4)c4nc(c(-c5ccc(S(=O)(=O)[O-])cc5)c5ccc2[nH]5)C=C4)C=C3)cc1)c1cccc2ccccc12
REMARK SMILES IDX 11 1 10 2 9 3 8 4 6 5 7 6 3 8 1 9 2 10 76 11 77 12 85 13
REMARK SMILES IDX 78 14 80 15 84 16 79 17 81 18 83 19 82 20 4 21 5 22 12 23
REMARK SMILES IDX 13 24 14 25 15 27 16 28 17 29 75 30 18 31 74 32 19 33 20 34
REMARK SMILES IDX 21 35 68 36 22 37 73 38 67 39 69 40 23 41 72 42 66 43 65 44
REMARK SMILES IDX 24 46 54 47 35 48 53 49 36 50 39 51 52 52 70 53 37 54 38 55
REMARK SMILES IDX 51 57 71 58 40 59 25 60 26 61 34 62 27 63 33 64 28 65 29 66
REMARK SMILES IDX 30 67 31 68 32 69 55 70 56 71 64 72 57 73 63 74 58 75 59 76
REMARK SMILES IDX 60 77 61 78 62 79 41 80 42 81 50 82 43 83 49 84 44 85 45 86
REMARK SMILES IDX 46 87 47 88 48 89
REMARK H PARENT 8 7 13 26 69 45 39 56
REMARK Flexibility Score: inf
ROOT
ATOM      1  C   UNL A   1      32.983  27.439  26.076  1.00  0.00     0.023 C 
ENDROOT
BRANCH   1   2
ATOM      2  C   UNL A   1      33.039  27.152  24.572  1.00  0.00     0.023 C 
BRANCH   2   3
ATOM      3  C   UNL A   1      34.056  26.078  24.199  1.00  0.00     0.116 C 
BRANCH   3   4
ATOM      4  N   UNL A   1      33.428  24.907  23.615  1.00  0.00    -0.351 N 
ATOM      5  C   UNL A   1      32.702  23.858  24.091  1.00  0.00     0.262 C 
ATOM      6  O   UNL A   1      32.165  23.195  23.202  1.00  0.00    -0.268 OA
ATOM      7  H   UNL A   1      33.559  24.860  22.639  1.00  0.00     0.163 HD
BRANCH   5   8
ATOM      8  C   UNL A   1      32.522  23.536  25.569  1.00  0.00     0.120 C 
ATOM      9  C   UNL A   1      32.889  22.167  27.648  1.00  0.00     0.046 C 
ATOM     10  C   UNL A   1      33.253  22.589  26.244  1.00  0.00    -0.020 C 
BRANCH  10  11
ATOM     11  C   UNL A   1      34.471  21.903  25.656  1.00  0.00    -0.013 A 
ATOM     12  C   UNL A   1      34.214  20.676  25.010  1.00  0.00     0.009 A 
ATOM     13  C   UNL A   1      35.844  22.340  25.752  1.00  0.00    -0.011 A 
ATOM     14  C   UNL A   1      35.237  19.780  24.720  1.00  0.00     0.001 A 
ATOM     15  C   UNL A   1      36.869  21.380  25.501  1.00  0.00    -0.018 A 
ATOM     16  C   UNL A   1      36.309  23.652  26.048  1.00  0.00     0.009 A 
ATOM     17  C   UNL A   1      36.547  20.104  25.036  1.00  0.00     0.009 A 
ATOM     18  C   UNL A   1      38.228  21.693  25.682  1.00  0.00     0.009 A 
ATOM     19  C   UNL A   1      37.674  23.979  26.104  1.00  0.00     0.001 A 
ATOM     20  C   UNL A   1      38.633  22.991  25.962  1.00  0.00     0.001 A 
ENDBRANCH  10  11
BRANCH   8  21
ATOM     21  C   UNL A   1      31.334  24.215  26.232  1.00  0.00     0.105 C 
ATOM     22  N   UNL A   1      30.350  24.779  26.782  1.00  0.00    -0.192 NA
ENDBRANCH   8  21
ENDBRANCH   5   8
ENDBRANCH   3   4
ENDBRANCH   2   3
ENDBRANCH   1   2
BRANCH   1  23
ATOM     23  C   UNL A   1      34.161  28.245  26.618  1.00  0.00     0.116 C 
BRANCH  23  24
ATOM     24  N   UNL A   1      33.782  29.566  27.095  1.00  0.00    -0.352 N 
ATOM     25  C   UNL A   1      34.517  30.431  27.871  1.00  0.00     0.251 C 
ATOM     26  H   UNL A   1      32.887  29.879  26.830  1.00  0.00     0.163 HD
ATOM     27  O   UNL A   1      34.012  31.453  28.308  1.00  0.00    -0.269 OA
BRANCH  25  28
ATOM     28  C   UNL A   1      35.917  30.084  28.189  1.00  0.00     0.039 A 
ATOM     29  C   UNL A   1      36.208  29.546  29.443  1.00  0.00     0.014 A 
ATOM     30  C   UNL A   1      36.928  30.270  27.243  1.00  0.00     0.014 A 
ATOM     31  C   UNL A   1      37.518  29.168  29.736  1.00  0.00     0.010 A 
ATOM     32  C   UNL A   1      38.211  29.805  27.503  1.00  0.00     0.010 A 
ATOM     33  C   UNL A   1      38.526  29.279  28.763  1.00  0.00    -0.014 A 
BRANCH  33  34
ATOM     34  C   UNL A   1      39.926  28.903  29.076  1.00  0.00     0.031 A 
ATOM     35  C   UNL A   1      40.824  29.885  29.783  1.00  0.00     0.074 A 
ATOM     36  C   UNL A   1      40.393  27.693  28.712  1.00  0.00     0.049 A 
ATOM     37  N   UNL A   1      42.065  29.737  30.169  1.00  0.00    -0.248 NA
ATOM     38  C   UNL A   1      40.265  31.217  30.073  1.00  0.00     0.031 C 
ATOM     39  C   UNL A   1      39.633  26.677  27.978  1.00  0.00     0.029 A 
ATOM     40  N   UNL A   1      41.615  27.108  28.918  1.00  0.00    -0.354 N 
ATOM     41  C   UNL A   1      42.434  30.952  30.732  1.00  0.00     0.074 A 
ATOM     42  C   UNL A   1      41.313  31.850  30.577  1.00  0.00     0.031 C 
ATOM     43  C   UNL A   1      40.391  25.577  27.838  1.00  0.00     0.029 A 
ATOM     44  C   UNL A   1      41.700  25.822  28.437  1.00  0.00     0.049 A 
ATOM     45  H   UNL A   1      42.362  27.564  29.369  1.00  0.00     0.167 HD
ATOM     46  C   UNL A   1      43.591  31.286  31.352  1.00  0.00     0.031 A 
ATOM     47  C   UNL A   1      42.715  24.938  28.481  1.00  0.00     0.031 A 
ATOM     48  C   UNL A   1      44.698  30.383  31.515  1.00  0.00     0.049 A 
ATOM     49  C   UNL A   1      43.990  25.329  29.180  1.00  0.00     0.074 A 
ATOM     50  C   UNL A   1      45.898  30.602  32.168  1.00  0.00     0.029 A 
ATOM     51  N   UNL A   1      44.742  29.088  31.018  1.00  0.00    -0.354 N 
ATOM     52  N   UNL A   1      44.296  26.462  29.766  1.00  0.00    -0.248 NA
ATOM     53  C   UNL A   1      45.046  24.311  29.244  1.00  0.00     0.031 C 
ATOM     54  C   UNL A   1      46.690  29.459  32.017  1.00  0.00     0.029 A 
ATOM     55  C   UNL A   1      45.954  28.501  31.336  1.00  0.00     0.049 A 
ATOM     56  H   UNL A   1      44.017  28.652  30.514  1.00  0.00     0.167 HD
ATOM     57  C   UNL A   1      45.565  26.278  30.306  1.00  0.00     0.074 A 
ATOM     58  C   UNL A   1      45.960  24.921  29.985  1.00  0.00     0.031 C 
ATOM     59  C   UNL A   1      46.331  27.149  31.010  1.00  0.00     0.031 A 
BRANCH  46  60
ATOM     60  C   UNL A   1      43.711  32.686  31.896  1.00  0.00    -0.014 A 
ATOM     61  C   UNL A   1      44.187  33.742  31.096  1.00  0.00     0.010 A 
ATOM     62  C   UNL A   1      43.316  32.959  33.217  1.00  0.00     0.010 A 
ATOM     63  C   UNL A   1      44.307  35.032  31.620  1.00  0.00     0.020 A 
ATOM     64  C   UNL A   1      43.402  34.254  33.736  1.00  0.00     0.020 A 
ATOM     65  C   UNL A   1      43.914  35.279  32.939  1.00  0.00     0.054 A 
BRANCH  65  66
ATOM     66  S   UNL A   1      44.056  36.967  33.584  1.00  0.00     0.124 S 
ATOM     67  O   UNL A   1      45.045  36.802  34.646  1.00  0.00    -0.237 OA
ATOM     68  O   UNL A   1      44.509  37.719  32.417  1.00  0.00    -0.237 OA
ATOM     69  O   UNL A   1      42.704  37.282  34.038  1.00  0.00    -0.744 OA
ENDBRANCH  65  66
ENDBRANCH  46  60
BRANCH  47  70
ATOM     70  C   UNL A   1      42.553  23.586  27.876  1.00  0.00    -0.014 A 
ATOM     71  C   UNL A   1      41.853  22.573  28.556  1.00  0.00     0.010 A 
ATOM     72  C   UNL A   1      43.096  23.306  26.609  1.00  0.00     0.010 A 
ATOM     73  C   UNL A   1      41.723  21.300  27.993  1.00  0.00     0.020 A 
ATOM     74  C   UNL A   1      42.941  22.044  26.028  1.00  0.00     0.020 A 
ATOM     75  C   UNL A   1      42.266  21.044  26.731  1.00  0.00     0.054 A 
BRANCH  75  76
ATOM     76  S   UNL A   1      42.050  19.397  26.002  1.00  0.00     0.124 S 
ATOM     77  O   UNL A   1      42.861  19.491  24.793  1.00  0.00    -0.237 OA
ATOM     78  O   UNL A   1      42.570  18.520  27.048  1.00  0.00    -0.237 OA
ATOM     79  O   UNL A   1      40.608  19.307  25.784  1.00  0.00    -0.744 OA
ENDBRANCH  75  76
ENDBRANCH  47  70
BRANCH  59  80
ATOM     80  C   UNL A   1      47.649  26.642  31.536  1.00  0.00    -0.014 A 
ATOM     81  C   UNL A   1      47.759  26.043  32.803  1.00  0.00     0.010 A 
ATOM     82  C   UNL A   1      48.793  26.743  30.723  1.00  0.00     0.010 A 
ATOM     83  C   UNL A   1      49.002  25.604  33.269  1.00  0.00     0.020 A 
ATOM     84  C   UNL A   1      50.029  26.274  31.171  1.00  0.00     0.020 A 
ATOM     85  C   UNL A   1      50.129  25.727  32.451  1.00  0.00     0.054 A 
BRANCH  85  86
ATOM     86  S   UNL A   1      51.729  25.141  33.074  1.00  0.00     0.124 S 
ATOM     87  O   UNL A   1      51.512  23.699  33.157  1.00  0.00    -0.237 OA
ATOM     88  O   UNL A   1      52.657  25.578  32.034  1.00  0.00    -0.237 OA
ATOM     89  O   UNL A   1      51.874  25.824  34.356  1.00  0.00    -0.744 OA
ENDBRANCH  85  86
ENDBRANCH  59  80
ENDBRANCH  33  34
ENDBRANCH  25  28
ENDBRANCH  23  24
ENDBRANCH   1  23
TORSDOF 16
ENDMDL
MODEL 2
REMARK VINA RESULT:     -10.4      1.266      2.245
REMARK SMILES C/C(=C(\C#N)C(=O)NCCCCNC(=O)c1ccc(-c2c3nc(c(-c4ccc(S(=O)(=O)[O-])cc4)c4ccc([nH]4)c(-c4ccc(S(=O)(=O)[O-])cc4)c4nc(c(-c5ccc(S(=O)(=O)[O-])cc5)c5ccc2[nH]5)C=C4)C=C3)cc1)c1cccc2ccccc12
REMARK SMILES IDX 11 1 10 2 9 3 8 4 6 5 7 6 3 8 1 9 2 10 76 11 77 12 85 13
REMARK SMILES IDX 78 14 80 15 84 16 79 17 81 18 83 19 82 20 4 21 5 22 12 23
REMARK SMILES IDX 13 24 14 25 15 27 16 28 17 29 75 30 18 31 74 32 19 33 20 34
REMARK SMILES IDX 21 35 68 36 22 37 73 38 67 39 69 40 23 41 72 42 66 43 65 44
REMARK SMILES IDX 24 46 54 47 35 48 53 49 36 50 39 51 52 52 70 53 37 54 38 55
REMARK SMILES IDX 51 57 71 58 40 59 25 60 26 61 34 62 27 63 33 64 28 65 29 66
REMARK SMILES IDX 30 67 31 68 32 69 55 70 56 71 64 72 57 73 63 74 58 75 59 76
REMARK SMILES IDX 60 77 61 78 62 79 41 80 42 81 50 82 43 83 49 84 44 85 45 86
REMARK SMILES IDX 46 87 47 88 48 89
REMARK H PARENT 8 7 13 26 69 45 39 56
REMARK Flexibility Score: inf
ROOT
ATOM      1  C   UNL A   1      33.352  27.636  25.582  1.00  0.00     0.023 C 
ENDROOT
BRANCH   1   2
ATOM      2  C   UNL A   1      32.022  26.905  25.792  1.00  0.00     0.023 C 
BRANCH   2   3
ATOM      3  C   UNL A   1      31.055  27.061  24.622  1.00  0.00     0.116 C 
BRANCH   3   4
ATOM      4  N   UNL A   1      30.642  25.780  24.077  1.00  0.00    -0.351 N 
ATOM      5  C   UNL A   1      31.282  24.708  23.533  1.00  0.00     0.262 C 
ATOM      6  O   UNL A   1      30.553  23.723  23.403  1.00  0.00    -0.268 OA
ATOM      7  H   UNL A   1      29.665  25.658  24.107  1.00  0.00     0.163 HD
BRANCH   5   8
ATOM      8  C   UNL A   1      32.757  24.687  23.153  1.00  0.00     0.120 C 
ATOM      9  C   UNL A   1      35.187  24.163  23.543  1.00  0.00     0.046 C 
ATOM     10  C   UNL A   1      33.716  23.980  23.836  1.00  0.00    -0.020 C 
BRANCH  10  11
ATOM     11  C   UNL A   1      33.392  22.966  24.915  1.00  0.00    -0.013 A 
ATOM     12  C   UNL A   1      33.477  23.450  26.237  1.00  0.00     0.009 A 
ATOM     13  C   UNL A   1      33.080  21.569  24.728  1.00  0.00    -0.011 A 
ATOM     14  C   UNL A   1      33.538  22.586  27.325  1.00  0.00     0.001 A 
ATOM     15  C   UNL A   1      33.206  20.700  25.853  1.00  0.00    -0.018 A 
ATOM     16  C   UNL A   1      32.625  20.943  23.535  1.00  0.00     0.009 A 
ATOM     17  C   UNL A   1      33.479  21.216  27.121  1.00  0.00     0.009 A 
ATOM     18  C   UNL A   1      33.029  19.310  25.731  1.00  0.00     0.009 A 
ATOM     19  C   UNL A   1      32.333  19.570  23.459  1.00  0.00     0.001 A 
ATOM     20  C   UNL A   1      32.576  18.748  24.546  1.00  0.00     0.001 A 
ENDBRANCH  10  11
BRANCH   8  21
ATOM     21  C   UNL A   1      33.148  25.660  22.052  1.00  0.00     0.105 C 
ATOM     22  N   UNL A   1      33.473  26.467  21.140  1.00  0.00    -0.192 NA
ENDBRANCH   8  21
ENDBRANCH   5   8
ENDBRANCH   3   4
ENDBRANCH   2   3
ENDBRANCH   1   2
BRANCH   1  23
ATOM     23  C   UNL A   1      34.044  28.085  26.866  1.00  0.00     0.116 C 
BRANCH  23  24
ATOM     24  N   UNL A   1      33.680  29.433  27.273  1.00  0.00    -0.352 N 
ATOM     25  C   UNL A   1      34.445  30.350  27.955  1.00  0.00     0.251 C 
ATOM     26  H   UNL A   1      32.771  29.726  27.031  1.00  0.00     0.163 HD
ATOM     27  O   UNL A   1      33.954  31.397  28.347  1.00  0.00    -0.269 OA
BRANCH  25  28
ATOM     28  C   UNL A   1      35.860  30.030  28.229  1.00  0.00     0.039 A 
ATOM     29  C   UNL A   1      36.208  29.543  29.489  1.00  0.00     0.014 A 
ATOM     30  C   UNL A   1      36.830  30.189  27.236  1.00  0.00     0.014 A 
ATOM     31  C   UNL A   1      37.532  29.189  29.744  1.00  0.00     0.010 A 
ATOM     32  C   UNL A   1      38.127  29.747  27.461  1.00  0.00     0.010 A 
ATOM     33  C   UNL A   1      38.499  29.272  28.727  1.00  0.00    -0.014 A 
BRANCH  33  34
ATOM     34  C   UNL A   1      39.915  28.923  28.996  1.00  0.00     0.031 A 
ATOM     35  C   UNL A   1      40.821  29.929  29.657  1.00  0.00     0.074 A 
ATOM     36  C   UNL A   1      40.387  27.713  28.635  1.00  0.00     0.049 A 
ATOM     37  N   UNL A   1      42.077  29.805  30.001  1.00  0.00    -0.248 NA
ATOM     38  C   UNL A   1      40.252  31.257  29.945  1.00  0.00     0.031 C 
ATOM     39  C   UNL A   1      39.618  26.675  27.944  1.00  0.00     0.029 A 
ATOM     40  N   UNL A   1      41.625  27.150  28.808  1.00  0.00    -0.354 N 
ATOM     41  C   UNL A   1      42.446  31.035  30.533  1.00  0.00     0.074 A 
ATOM     42  C   UNL A   1      41.307  31.914  30.402  1.00  0.00     0.031 C 
ATOM     43  C   UNL A   1      40.388  25.585  27.795  1.00  0.00     0.029 A 
ATOM     44  C   UNL A   1      41.712  25.858  28.344  1.00  0.00     0.049 A 
ATOM     45  H   UNL A   1      42.380  27.624  29.225  1.00  0.00     0.167 HD
ATOM     46  C   UNL A   1      43.618  31.396  31.106  1.00  0.00     0.031 A 
ATOM     47  C   UNL A   1      42.743  24.990  28.366  1.00  0.00     0.031 A 
ATOM     48  C   UNL A   1      44.745  30.513  31.245  1.00  0.00     0.049 A 
ATOM     49  C   UNL A   1      44.034  25.411  29.014  1.00  0.00     0.074 A 
ATOM     50  C   UNL A   1      45.963  30.760  31.853  1.00  0.00     0.029 A 
ATOM     51  N   UNL A   1      44.791  29.211  30.767  1.00  0.00    -0.354 N 
ATOM     52  N   UNL A   1      44.343  26.558  29.572  1.00  0.00    -0.248 NA
ATOM     53  C   UNL A   1      45.108  24.410  29.058  1.00  0.00     0.031 C 
ATOM     54  C   UNL A   1      46.766  29.626  31.692  1.00  0.00     0.029 A 
ATOM     55  C   UNL A   1      46.022  28.647  31.051  1.00  0.00     0.049 A 
ATOM     56  H   UNL A   1      44.056  28.755  30.296  1.00  0.00     0.167 HD
ATOM     57  C   UNL A   1      45.632  26.401  30.071  1.00  0.00     0.074 A 
ATOM     58  C   UNL A   1      46.037  25.046  29.757  1.00  0.00     0.031 C 
ATOM     59  C   UNL A   1      46.408  27.295  30.734  1.00  0.00     0.031 A 
BRANCH  46  60
ATOM     60  C   UNL A   1      43.736  32.806  31.624  1.00  0.00    -0.014 A 
ATOM     61  C   UNL A   1      43.325  33.143  32.927  1.00  0.00     0.010 A 
ATOM     62  C   UNL A   1      44.294  33.806  30.807  1.00  0.00     0.010 A 
ATOM     63  C   UNL A   1      43.427  34.459  33.387  1.00  0.00     0.020 A 
ATOM     64  C   UNL A   1      44.429  35.117  31.273  1.00  0.00     0.020 A 
ATOM     65  C   UNL A   1      43.978  35.438  32.555  1.00  0.00     0.054 A 
BRANCH  65  66
ATOM     66  S   UNL A   1      44.123  37.132  33.187  1.00  0.00     0.124 S 
ATOM     67  O   UNL A   1      45.344  37.053  33.984  1.00  0.00    -0.237 OA
ATOM     68  O   UNL A   1      44.222  37.922  31.963  1.00  0.00    -0.237 OA
ATOM     69  O   UNL A   1      42.892  37.324  33.951  1.00  0.00    -0.744 OA
ENDBRANCH  65  66
ENDBRANCH  46  60
BRANCH  47  70
ATOM     70  C   UNL A   1      42.580  23.627  27.789  1.00  0.00    -0.014 A 
ATOM     71  C   UNL A   1      42.139  22.555  28.586  1.00  0.00     0.010 A 
ATOM     72  C   UNL A   1      42.863  23.393  26.430  1.00  0.00     0.010 A 
ATOM     73  C   UNL A   1      42.010  21.273  28.044  1.00  0.00     0.020 A 
ATOM     74  C   UNL A   1      42.704  22.121  25.876  1.00  0.00     0.020 A 
ATOM     75  C   UNL A   1      42.292  21.064  26.691  1.00  0.00     0.054 A 
BRANCH  75  76
ATOM     76  S   UNL A   1      42.077  19.401  25.999  1.00  0.00     0.124 S 
ATOM     77  O   UNL A   1      42.932  19.451  24.817  1.00  0.00    -0.237 OA
ATOM     78  O   UNL A   1      42.547  18.546  27.085  1.00  0.00    -0.237 OA
ATOM     79  O   UNL A   1      40.643  19.324  25.731  1.00  0.00    -0.744 OA
ENDBRANCH  75  76
ENDBRANCH  47  70
BRANCH  59  80
ATOM     80  C   UNL A   1      47.752  26.817  31.221  1.00  0.00    -0.014 A 
ATOM     81  C   UNL A   1      48.923  27.007  30.468  1.00  0.00     0.010 A 
ATOM     82  C   UNL A   1      47.839  26.191  32.479  1.00  0.00     0.010 A 
ATOM     83  C   UNL A   1      50.150  26.530  30.941  1.00  0.00     0.020 A 
ATOM     84  C   UNL A   1      49.067  25.745  32.970  1.00  0.00     0.020 A 
ATOM     85  C   UNL A   1      50.212  25.898  32.186  1.00  0.00     0.054 A 
BRANCH  85  86
ATOM     86  S   UNL A   1      51.816  25.297  32.782  1.00  0.00     0.124 S 
ATOM     87  O   UNL A   1      51.554  23.873  32.974  1.00  0.00    -0.237 OA
ATOM     88  O   UNL A   1      52.713  25.628  31.677  1.00  0.00    -0.237 OA
ATOM     89  O   UNL A   1      52.039  26.059  34.008  1.00  0.00    -0.744 OA
ENDBRANCH  85  86
ENDBRANCH  59  80
ENDBRANCH  33  34
ENDBRANCH  25  28
ENDBRANCH  23  24
ENDBRANCH   1  23
TORSDOF 16
ENDMDL
MODEL 3
REMARK VINA RESULT:     -10.4      2.338      2.934
REMARK SMILES C/C(=C(\C#N)C(=O)NCCCCNC(=O)c1ccc(-c2c3nc(c(-c4ccc(S(=O)(=O)[O-])cc4)c4ccc([nH]4)c(-c4ccc(S(=O)(=O)[O-])cc4)c4nc(c(-c5ccc(S(=O)(=O)[O-])cc5)c5ccc2[nH]5)C=C4)C=C3)cc1)c1cccc2ccccc12
REMARK SMILES IDX 11 1 10 2 9 3 8 4 6 5 7 6 3 8 1 9 2 10 76 11 77 12 85 13
REMARK SMILES IDX 78 14 80 15 84 16 79 17 81 18 83 19 82 20 4 21 5 22 12 23
REMARK SMILES IDX 13 24 14 25 15 27 16 28 17 29 75 30 18 31 74 32 19 33 20 34
REMARK SMILES IDX 21 35 68 36 22 37 73 38 67 39 69 40 23 41 72 42 66 43 65 44
REMARK SMILES IDX 24 46 54 47 35 48 53 49 36 50 39 51 52 52 70 53 37 54 38 55
REMARK SMILES IDX 51 57 71 58 40 59 25 60 26 61 34 62 27 63 33 64 28 65 29 66
REMARK SMILES IDX 30 67 31 68 32 69 55 70 56 71 64 72 57 73 63 74 58 75 59 76
REMARK SMILES IDX 60 77 61 78 62 79 41 80 42 81 50 82 43 83 49 84 44 85 45 86
REMARK SMILES IDX 46 87 47 88 48 89
REMARK H PARENT 8 7 13 26 69 45 39 56
REMARK Flexibility Score: inf
ROOT
ATOM      1  C   UNL A   1      33.058  27.345  26.063  1.00  0.00     0.023 C 
ENDROOT
BRANCH   1   2
ATOM      2  C   UNL A   1      32.834  26.657  24.712  1.00  0.00     0.023 C 
BRANCH   2   3
ATOM      3  C   UNL A   1      34.054  25.889  24.214  1.00  0.00     0.116 C 
BRANCH   3   4
ATOM      4  N   UNL A   1      33.704  24.581  23.693  1.00  0.00    -0.351 N 
ATOM      5  C   UNL A   1      33.249  23.414  24.228  1.00  0.00     0.262 C 
ATOM      6  O   UNL A   1      32.864  22.608  23.380  1.00  0.00    -0.268 OA
ATOM      7  H   UNL A   1      33.825  24.523  22.717  1.00  0.00     0.163 HD
BRANCH   5   8
ATOM      8  C   UNL A   1      33.174  23.125  25.722  1.00  0.00     0.120 C 
ATOM      9  C   UNL A   1      33.845  21.929  27.832  1.00  0.00     0.046 C 
ATOM     10  C   UNL A   1      34.084  22.354  26.402  1.00  0.00    -0.020 C 
BRANCH  10  11
ATOM     11  C   UNL A   1      35.390  21.878  25.794  1.00  0.00    -0.013 A 
ATOM     12  C   UNL A   1      35.306  20.675  25.063  1.00  0.00     0.009 A 
ATOM     13  C   UNL A   1      36.690  22.486  25.946  1.00  0.00    -0.011 A 
ATOM     14  C   UNL A   1      36.444  19.944  24.735  1.00  0.00     0.001 A 
ATOM     15  C   UNL A   1      37.838  21.690  25.653  1.00  0.00    -0.018 A 
ATOM     16  C   UNL A   1      36.973  23.824  26.337  1.00  0.00     0.009 A 
ATOM     17  C   UNL A   1      37.695  20.417  25.098  1.00  0.00     0.009 A 
ATOM     18  C   UNL A   1      39.140  22.167  25.881  1.00  0.00     0.009 A 
ATOM     19  C   UNL A   1      38.281  24.326  26.442  1.00  0.00     0.001 A 
ATOM     20  C   UNL A   1      39.365  23.485  26.254  1.00  0.00     0.001 A 
ENDBRANCH  10  11
BRANCH   8  21
ATOM     21  C   UNL A   1      31.901  23.603  26.404  1.00  0.00     0.105 C 
ATOM     22  N   UNL A   1      30.846  23.999  26.969  1.00  0.00    -0.192 NA
ENDBRANCH   8  21
ENDBRANCH   5   8
ENDBRANCH   3   4
ENDBRANCH   2   3
ENDBRANCH   1   2
BRANCH   1  23
ATOM     23  C   UNL A   1      34.185  28.374  26.077  1.00  0.00     0.116 C 
BRANCH  23  24
ATOM     24  N   UNL A   1      33.740  29.710  26.440  1.00  0.00    -0.352 N 
ATOM     25  C   UNL A   1      34.286  30.564  27.369  1.00  0.00     0.251 C 
ATOM     26  H   UNL A   1      32.946  30.044  25.962  1.00  0.00     0.163 HD
ATOM     27  O   UNL A   1      33.719  31.605  27.662  1.00  0.00    -0.269 OA
BRANCH  25  28
ATOM     28  C   UNL A   1      35.554  30.184  28.023  1.00  0.00     0.039 A 
ATOM     29  C   UNL A   1      36.752  30.398  27.342  1.00  0.00     0.014 A 
ATOM     30  C   UNL A   1      35.555  29.642  29.311  1.00  0.00     0.014 A 
ATOM     31  C   UNL A   1      37.959  30.091  27.969  1.00  0.00     0.010 A 
ATOM     32  C   UNL A   1      36.760  29.427  29.968  1.00  0.00     0.010 A 
ATOM     33  C   UNL A   1      37.973  29.619  29.293  1.00  0.00    -0.014 A 
BRANCH  33  34
ATOM     34  C   UNL A   1      39.251  29.265  29.958  1.00  0.00     0.031 A 
ATOM     35  C   UNL A   1      39.677  30.003  31.200  1.00  0.00     0.074 A 
ATOM     36  C   UNL A   1      40.031  28.296  29.439  1.00  0.00     0.049 A 
ATOM     37  N   UNL A   1      40.741  29.824  31.941  1.00  0.00    -0.248 NA
ATOM     38  C   UNL A   1      38.811  31.103  31.657  1.00  0.00     0.031 C 
ATOM     39  C   UNL A   1      39.747  27.545  28.213  1.00  0.00     0.029 A 
ATOM     40  N   UNL A   1      41.216  27.770  29.883  1.00  0.00    -0.354 N 
ATOM     41  C   UNL A   1      40.675  30.791  32.937  1.00  0.00     0.074 A 
ATOM     42  C   UNL A   1      39.508  31.599  32.668  1.00  0.00     0.031 C 
ATOM     43  C   UNL A   1      40.707  26.624  28.030  1.00  0.00     0.029 A 
ATOM     44  C   UNL A   1      41.691  26.743  29.101  1.00  0.00     0.049 A 
ATOM     45  H   UNL A   1      41.683  28.095  30.687  1.00  0.00     0.167 HD
ATOM     46  C   UNL A   1      41.494  30.973  33.999  1.00  0.00     0.031 A 
ATOM     47  C   UNL A   1      42.792  25.979  29.238  1.00  0.00     0.031 A 
ATOM     48  C   UNL A   1      42.647  30.157  34.269  1.00  0.00     0.049 A 
ATOM     49  C   UNL A   1      43.685  26.196  30.430  1.00  0.00     0.074 A 
ATOM     50  C   UNL A   1      43.518  30.225  35.342  1.00  0.00     0.029 A 
ATOM     51  N   UNL A   1      43.090  29.124  33.455  1.00  0.00    -0.354 N 
ATOM     52  N   UNL A   1      43.570  27.074  31.399  1.00  0.00    -0.248 NA
ATOM     53  C   UNL A   1      44.843  25.302  30.559  1.00  0.00     0.031 C 
ATOM     54  C   UNL A   1      44.520  29.269  35.148  1.00  0.00     0.029 A 
ATOM     55  C   UNL A   1      44.232  28.557  33.994  1.00  0.00     0.049 A 
ATOM     56  H   UNL A   1      42.657  28.837  32.619  1.00  0.00     0.167 HD
ATOM     57  C   UNL A   1      44.617  26.809  32.275  1.00  0.00     0.074 A 
ATOM     58  C   UNL A   1      45.345  25.683  31.725  1.00  0.00     0.031 C 
ATOM     59  C   UNL A   1      44.943  27.435  33.434  1.00  0.00     0.031 A 
BRANCH  46  60
ATOM     60  C   UNL A   1      41.168  32.101  34.944  1.00  0.00    -0.014 A 
ATOM     61  C   UNL A   1      41.685  33.395  34.744  1.00  0.00     0.010 A 
ATOM     62  C   UNL A   1      40.309  31.873  36.034  1.00  0.00     0.010 A 
ATOM     63  C   UNL A   1      41.385  34.426  35.638  1.00  0.00     0.020 A 
ATOM     64  C   UNL A   1      39.978  32.909  36.913  1.00  0.00     0.020 A 
ATOM     65  C   UNL A   1      40.533  34.176  36.719  1.00  0.00     0.054 A 
BRANCH  65  66
ATOM     66  S   UNL A   1      40.141  35.538  37.848  1.00  0.00     0.124 S 
ATOM     67  O   UNL A   1      39.010  34.995  38.595  1.00  0.00    -0.237 OA
ATOM     68  O   UNL A   1      41.379  35.691  38.607  1.00  0.00    -0.237 OA
ATOM     69  O   UNL A   1      39.820  36.649  36.955  1.00  0.00    -0.744 OA
ENDBRANCH  65  66
ENDBRANCH  46  60
BRANCH  47  70
ATOM     70  C   UNL A   1      43.089  24.914  28.239  1.00  0.00    -0.014 A 
ATOM     71  C   UNL A   1      43.935  25.169  27.145  1.00  0.00     0.010 A 
ATOM     72  C   UNL A   1      42.527  23.631  28.381  1.00  0.00     0.010 A 
ATOM     73  C   UNL A   1      44.191  24.173  26.198  1.00  0.00     0.020 A 
ATOM     74  C   UNL A   1      42.807  22.623  27.456  1.00  0.00     0.020 A 
ATOM     75  C   UNL A   1      43.627  22.905  26.361  1.00  0.00     0.054 A 
BRANCH  75  76
ATOM     76  S   UNL A   1      44.007  21.614  25.143  1.00  0.00     0.124 S 
ATOM     77  O   UNL A   1      43.843  22.329  23.882  1.00  0.00    -0.237 OA
ATOM     78  O   UNL A   1      45.377  21.248  25.491  1.00  0.00    -0.237 OA
ATOM     79  O   UNL A   1      43.007  20.584  25.414  1.00  0.00    -0.744 OA
ENDBRANCH  75  76
ENDBRANCH  47  70
BRANCH  59  80
ATOM     80  C   UNL A   1      46.103  26.878  34.219  1.00  0.00    -0.014 A 
ATOM     81  C   UNL A   1      47.417  27.339  34.026  1.00  0.00     0.010 A 
ATOM     82  C   UNL A   1      45.859  25.892  35.192  1.00  0.00     0.010 A 
ATOM     83  C   UNL A   1      48.473  26.784  34.756  1.00  0.00     0.020 A 
ATOM     84  C   UNL A   1      46.905  25.360  35.948  1.00  0.00     0.020 A 
ATOM     85  C   UNL A   1      48.209  25.795  35.708  1.00  0.00     0.054 A 
BRANCH  85  86
ATOM     86  S   UNL A   1      49.594  25.097  36.649  1.00  0.00     0.124 S 
ATOM     87  O   UNL A   1      50.403  24.492  35.594  1.00  0.00    -0.237 OA
ATOM     88  O   UNL A   1      50.174  26.277  37.287  1.00  0.00    -0.237 OA
ATOM     89  O   UNL A   1      48.954  24.154  37.561  1.00  0.00    -0.744 OA
ENDBRANCH  85  86
ENDBRANCH  59  80
ENDBRANCH  33  34
ENDBRANCH  25  28
ENDBRANCH  23  24
ENDBRANCH   1  23
TORSDOF 16
ENDMDL
