MODEL 1
REMARK VINA RESULT:     -12.0      0.000      0.000
REMARK SMILES C[NH+]1CCC(NC(=O)N[C@H]2C=C[C@H](C(=O)NCCCCNC(=O)c3ccc(-c4c5nc(c(-c6ccc(S(=O)(=O)[O-])cc6)c6ccc([nH]6)c(-c6ccc(S(=O)(=O)[O-])cc6)c6nc(c(-c7ccc(S(=O)(=O)[O-])cc7)c7ccc4[nH]7)C=C6)C=C5)cc3)C2)CC1
REMARK SMILES IDX 19 1 18 2 17 3 16 4 14 5 15 6 13 8 10 9 11 10 84 11 12 12
REMARK SMILES IDX 9 13 6 14 7 15 8 17 5 19 1 20 2 21 3 22 86 23 4 25 85 26
REMARK SMILES IDX 20 27 21 28 22 29 23 31 24 32 25 33 83 34 26 35 82 36 27 37
REMARK SMILES IDX 28 38 29 39 76 40 30 41 81 42 75 43 77 44 31 45 80 46 74 47
REMARK SMILES IDX 73 48 32 50 62 51 43 52 61 53 44 54 47 55 60 56 78 57 45 58
REMARK SMILES IDX 46 59 59 61 79 62 48 63 33 64 34 65 42 66 35 67 41 68 36 69
REMARK SMILES IDX 37 70 38 71 39 72 40 73 63 74 64 75 72 76 65 77 71 78 66 79
REMARK SMILES IDX 67 80 68 81 69 82 70 83 49 84 50 85 58 86 51 87 57 88 52 89
REMARK SMILES IDX 53 90 54 91 55 92 56 93
REMARK H PARENT 16 7 6 16 9 18 2 24 21 30 77 49 47 60
REMARK Flexibility Score: inf
ROOT
ATOM      1  C   UNL A   1      40.098  22.411  27.176  1.00  0.00     0.023 C 
ENDROOT
BRANCH   1   2
ATOM      2  C   UNL A   1      39.017  22.925  26.218  1.00  0.00     0.023 C 
BRANCH   2   3
ATOM      3  C   UNL A   1      38.089  21.837  25.661  1.00  0.00     0.116 C 
BRANCH   3   4
ATOM      4  N   UNL A   1      37.471  22.204  24.395  1.00  0.00    -0.356 N 
ATOM      5  C   UNL A   1      36.227  22.735  24.159  1.00  0.00     0.227 C 
ATOM      6  O   UNL A   1      35.947  23.121  23.024  1.00  0.00    -0.274 OA
ATOM      7  H   UNL A   1      38.023  22.049  23.594  1.00  0.00     0.163 HD
BRANCH   5   8
ATOM      8  C   UNL A   1      35.244  22.836  25.324  1.00  0.00     0.103 C 
ATOM      9  C   UNL A   1      32.885  23.533  25.344  1.00  0.00     0.107 C 
ATOM     10  C   UNL A   1      33.771  24.599  25.878  1.00  0.00    -0.006 C 
ATOM     11  C   UNL A   1      33.813  22.370  24.980  1.00  0.00     0.047 C 
ATOM     12  C   UNL A   1      35.060  24.250  25.806  1.00  0.00    -0.016 C 
BRANCH   9  13
ATOM     13  N   UNL A   1      31.737  23.252  26.193  1.00  0.00    -0.332 N 
ATOM     14  N   UNL A   1      30.029  24.913  26.204  1.00  0.00    -0.335 N 
ATOM     15  C   UNL A   1      30.582  23.770  26.607  1.00  0.00     0.315 C 
ATOM     16  H   UNL A   1      29.219  25.150  26.711  1.00  0.00     0.165 HD
ATOM     17  O   UNL A   1      29.961  23.122  27.458  1.00  0.00    -0.249 OA
ATOM     18  H   UNL A   1      31.856  22.368  26.608  1.00  0.00     0.165 HD
BRANCH  14  19
ATOM     19  C   UNL A   1      30.358  25.882  25.184  1.00  0.00     0.095 C 
ATOM     20  C   UNL A   1      30.762  29.245  22.632  1.00  0.00     0.332 C 
ATOM     21  N   UNL A   1      30.298  28.416  23.750  1.00  0.00    -0.337 N 
ATOM     22  C   UNL A   1      31.414  28.084  24.644  1.00  0.00     0.264 C 
ATOM     23  C   UNL A   1      29.595  27.233  23.235  1.00  0.00     0.264 C 
ATOM     24  H   UNL A   1      29.627  28.938  24.315  1.00  0.00     0.347 HD
ATOM     25  C   UNL A   1      31.015  27.129  25.769  1.00  0.00     0.086 C 
ATOM     26  C   UNL A   1      29.148  26.290  24.352  1.00  0.00     0.086 C 
ENDBRANCH  14  19
ENDBRANCH   9  13
ENDBRANCH   5   8
ENDBRANCH   3   4
ENDBRANCH   2   3
ENDBRANCH   1   2
BRANCH   1  27
ATOM     27  C   UNL A   1      41.397  23.218  27.175  1.00  0.00     0.116 C 
BRANCH  27  28
ATOM     28  N   UNL A   1      41.536  24.129  26.047  1.00  0.00    -0.352 N 
ATOM     29  C   UNL A   1      41.549  25.509  26.069  1.00  0.00     0.251 C 
ATOM     30  H   UNL A   1      41.633  23.709  25.162  1.00  0.00     0.163 HD
ATOM     31  O   UNL A   1      41.596  26.138  25.015  1.00  0.00    -0.269 OA
BRANCH  29  32
ATOM     32  C   UNL A   1      41.450  26.227  27.364  1.00  0.00     0.039 A 
ATOM     33  C   UNL A   1      42.475  27.104  27.731  1.00  0.00     0.014 A 
ATOM     34  C   UNL A   1      40.335  26.076  28.191  1.00  0.00     0.014 A 
ATOM     35  C   UNL A   1      42.336  27.893  28.878  1.00  0.00     0.010 A 
ATOM     36  C   UNL A   1      40.165  26.915  29.291  1.00  0.00     0.010 A 
ATOM     37  C   UNL A   1      41.159  27.841  29.643  1.00  0.00    -0.014 A 
BRANCH  37  38
ATOM     38  C   UNL A   1      40.942  28.767  30.787  1.00  0.00     0.031 A 
ATOM     39  C   UNL A   1      41.752  28.636  32.050  1.00  0.00     0.074 A 
ATOM     40  C   UNL A   1      39.956  29.686  30.721  1.00  0.00     0.049 A 
ATOM     41  N   UNL A   1      41.681  29.341  33.150  1.00  0.00    -0.248 NA
ATOM     42  C   UNL A   1      42.750  27.556  32.093  1.00  0.00     0.031 C 
ATOM     43  C   UNL A   1      39.044  29.871  29.588  1.00  0.00     0.029 A 
ATOM     44  N   UNL A   1      39.550  30.631  31.629  1.00  0.00    -0.354 N 
ATOM     45  C   UNL A   1      42.607  28.780  34.022  1.00  0.00     0.074 A 
ATOM     46  C   UNL A   1      43.192  27.646  33.338  1.00  0.00     0.031 C 
ATOM     47  C   UNL A   1      38.207  30.886  29.859  1.00  0.00     0.029 A 
ATOM     48  C   UNL A   1      38.501  31.406  31.190  1.00  0.00     0.049 A 
ATOM     49  H   UNL A   1      39.970  30.746  32.512  1.00  0.00     0.167 HD
ATOM     50  C   UNL A   1      42.955  29.180  35.269  1.00  0.00     0.031 A 
ATOM     51  C   UNL A   1      37.849  32.424  31.786  1.00  0.00     0.031 A 
ATOM     52  C   UNL A   1      42.389  30.318  35.945  1.00  0.00     0.049 A 
ATOM     53  C   UNL A   1      38.285  32.883  33.149  1.00  0.00     0.074 A 
ATOM     54  C   UNL A   1      42.731  30.844  37.178  1.00  0.00     0.029 A 
ATOM     55  N   UNL A   1      41.363  31.104  35.445  1.00  0.00    -0.354 N 
ATOM     56  N   UNL A   1      39.226  32.391  33.920  1.00  0.00    -0.248 NA
ATOM     57  C   UNL A   1      37.586  34.045  33.713  1.00  0.00     0.031 C 
ATOM     58  C   UNL A   1      41.884  31.926  37.442  1.00  0.00     0.029 A 
ATOM     59  C   UNL A   1      41.046  32.102  36.353  1.00  0.00     0.049 A 
ATOM     60  H   UNL A   1      40.923  30.972  34.575  1.00  0.00     0.167 HD
ATOM     61  C   UNL A   1      39.247  33.201  35.050  1.00  0.00     0.074 A 
ATOM     62  C   UNL A   1      38.238  34.222  34.855  1.00  0.00     0.031 C 
ATOM     63  C   UNL A   1      40.036  33.108  36.150  1.00  0.00     0.031 A 
BRANCH  50  64
ATOM     64  C   UNL A   1      44.006  28.371  35.985  1.00  0.00    -0.014 A 
ATOM     65  C   UNL A   1      45.374  28.661  35.831  1.00  0.00     0.010 A 
ATOM     66  C   UNL A   1      43.621  27.321  36.837  1.00  0.00     0.010 A 
ATOM     67  C   UNL A   1      46.340  27.882  36.473  1.00  0.00     0.020 A 
ATOM     68  C   UNL A   1      44.584  26.557  37.503  1.00  0.00     0.020 A 
ATOM     69  C   UNL A   1      45.938  26.828  37.299  1.00  0.00     0.054 A 
BRANCH  69  70
ATOM     70  S   UNL A   1      47.211  25.832  38.121  1.00  0.00     0.124 S 
ATOM     71  O   UNL A   1      46.403  24.862  38.857  1.00  0.00    -0.237 OA
ATOM     72  O   UNL A   1      47.974  25.291  37.000  1.00  0.00    -0.237 OA
ATOM     73  O   UNL A   1      47.926  26.801  38.949  1.00  0.00    -0.744 OA
ENDBRANCH  69  70
ENDBRANCH  50  64
BRANCH  51  74
ATOM     74  C   UNL A   1      36.735  33.105  31.073  1.00  0.00    -0.014 A 
ATOM     75  C   UNL A   1      36.995  33.910  29.949  1.00  0.00     0.010 A 
ATOM     76  C   UNL A   1      35.406  32.932  31.498  1.00  0.00     0.010 A 
ATOM     77  C   UNL A   1      35.947  34.540  29.273  1.00  0.00     0.020 A 
ATOM     78  C   UNL A   1      34.353  33.540  30.810  1.00  0.00     0.020 A 
ATOM     79  C   UNL A   1      34.632  34.350  29.706  1.00  0.00     0.054 A 
BRANCH  79  80
ATOM     80  S   UNL A   1      33.280  35.121  28.772  1.00  0.00     0.124 S 
ATOM     81  O   UNL A   1      32.713  33.980  28.061  1.00  0.00    -0.237 OA
ATOM     82  O   UNL A   1      32.447  35.686  29.830  1.00  0.00    -0.237 OA
ATOM     83  O   UNL A   1      33.963  36.106  27.936  1.00  0.00    -0.744 OA
ENDBRANCH  79  80
ENDBRANCH  51  74
BRANCH  63  84
ATOM     84  C   UNL A   1      39.856  34.155  37.217  1.00  0.00    -0.014 A 
ATOM     85  C   UNL A   1      39.038  33.921  38.337  1.00  0.00     0.010 A 
ATOM     86  C   UNL A   1      40.540  35.379  37.110  1.00  0.00     0.010 A 
ATOM     87  C   UNL A   1      38.876  34.911  39.311  1.00  0.00     0.020 A 
ATOM     88  C   UNL A   1      40.401  36.361  38.094  1.00  0.00     0.020 A 
ATOM     89  C   UNL A   1      39.555  36.126  39.180  1.00  0.00     0.054 A 
BRANCH  89  90
ATOM     90  S   UNL A   1      39.348  37.389  40.468  1.00  0.00     0.124 S 
ATOM     91  O   UNL A   1      38.956  36.584  41.621  1.00  0.00    -0.237 OA
ATOM     92  O   UNL A   1      40.676  37.992  40.545  1.00  0.00    -0.237 OA
ATOM     93  O   UNL A   1      38.305  38.261  39.930  1.00  0.00    -0.744 OA
ENDBRANCH  89  90
ENDBRANCH  63  84
ENDBRANCH  37  38
ENDBRANCH  29  32
ENDBRANCH  27  28
ENDBRANCH   1  27
TORSDOF 16
ENDMDL
MODEL 2
REMARK VINA RESULT:     -11.9      1.435      2.163
REMARK SMILES C[NH+]1CCC(NC(=O)N[C@H]2C=C[C@H](C(=O)NCCCCNC(=O)c3ccc(-c4c5nc(c(-c6ccc(S(=O)(=O)[O-])cc6)c6ccc([nH]6)c(-c6ccc(S(=O)(=O)[O-])cc6)c6nc(c(-c7ccc(S(=O)(=O)[O-])cc7)c7ccc4[nH]7)C=C6)C=C5)cc3)C2)CC1
REMARK SMILES IDX 19 1 18 2 17 3 16 4 14 5 15 6 13 8 10 9 11 10 84 11 12 12
REMARK SMILES IDX 9 13 6 14 7 15 8 17 5 19 1 20 2 21 3 22 86 23 4 25 85 26
REMARK SMILES IDX 20 27 21 28 22 29 23 31 24 32 25 33 83 34 26 35 82 36 27 37
REMARK SMILES IDX 28 38 29 39 76 40 30 41 81 42 75 43 77 44 31 45 80 46 74 47
REMARK SMILES IDX 73 48 32 50 62 51 43 52 61 53 44 54 47 55 60 56 78 57 45 58
REMARK SMILES IDX 46 59 59 61 79 62 48 63 33 64 34 65 42 66 35 67 41 68 36 69
REMARK SMILES IDX 37 70 38 71 39 72 40 73 63 74 64 75 72 76 65 77 71 78 66 79
REMARK SMILES IDX 67 80 68 81 69 82 70 83 49 84 50 85 58 86 51 87 57 88 52 89
REMARK SMILES IDX 53 90 54 91 55 92 56 93
REMARK H PARENT 16 7 6 16 9 18 2 24 21 30 77 49 47 60
REMARK Flexibility Score: inf
ROOT
ATOM      1  C   UNL A   1      39.749  22.424  26.590  1.00  0.00     0.023 C 
ENDROOT
BRANCH   1   2
ATOM      2  C   UNL A   1      38.516  23.317  26.420  1.00  0.00     0.023 C 
BRANCH   2   3
ATOM      3  C   UNL A   1      37.326  22.637  25.730  1.00  0.00     0.116 C 
BRANCH   3   4
ATOM      4  N   UNL A   1      36.092  22.722  26.499  1.00  0.00    -0.356 N 
ATOM      5  C   UNL A   1      34.792  22.665  26.061  1.00  0.00     0.227 C 
ATOM      6  O   UNL A   1      33.884  22.602  26.890  1.00  0.00    -0.274 OA
ATOM      7  H   UNL A   1      36.207  22.837  27.470  1.00  0.00     0.163 HD
BRANCH   5   8
ATOM      8  C   UNL A   1      34.528  22.671  24.556  1.00  0.00     0.103 C 
ATOM      9  C   UNL A   1      33.124  24.172  23.205  1.00  0.00     0.107 C 
ATOM     10  C   UNL A   1      32.469  22.853  23.408  1.00  0.00    -0.006 C 
ATOM     11  C   UNL A   1      34.467  24.082  23.935  1.00  0.00     0.047 C 
ATOM     12  C   UNL A   1      33.200  22.058  24.199  1.00  0.00    -0.016 C 
BRANCH   9  13
ATOM     13  N   UNL A   1      33.126  24.610  21.818  1.00  0.00    -0.332 N 
ATOM     14  N   UNL A   1      32.477  26.873  21.447  1.00  0.00    -0.335 N 
ATOM     15  C   UNL A   1      32.850  25.659  21.044  1.00  0.00     0.315 C 
ATOM     16  H   UNL A   1      32.232  27.468  20.702  1.00  0.00     0.165 HD
ATOM     17  O   UNL A   1      32.948  25.484  19.823  1.00  0.00    -0.249 OA
ATOM     18  H   UNL A   1      33.443  23.871  21.250  1.00  0.00     0.165 HD
BRANCH  14  19
ATOM     19  C   UNL A   1      32.352  27.506  22.740  1.00  0.00     0.095 C 
ATOM     20  C   UNL A   1      32.194  30.102  26.089  1.00  0.00     0.332 C 
ATOM     21  N   UNL A   1      32.367  29.658  24.701  1.00  0.00    -0.337 N 
ATOM     22  C   UNL A   1      31.104  29.138  24.165  1.00  0.00     0.264 C 
ATOM     23  C   UNL A   1      33.472  28.693  24.622  1.00  0.00     0.264 C 
ATOM     24  H   UNL A   1      32.621  30.451  24.112  1.00  0.00     0.347 HD
ATOM     25  C   UNL A   1      31.246  28.557  22.758  1.00  0.00     0.086 C 
ATOM     26  C   UNL A   1      33.657  28.137  23.209  1.00  0.00     0.086 C 
ENDBRANCH  14  19
ENDBRANCH   9  13
ENDBRANCH   5   8
ENDBRANCH   3   4
ENDBRANCH   2   3
ENDBRANCH   1   2
BRANCH   1  27
ATOM     27  C   UNL A   1      41.046  23.168  26.913  1.00  0.00     0.116 C 
BRANCH  27  28
ATOM     28  N   UNL A   1      41.535  24.015  25.834  1.00  0.00    -0.352 N 
ATOM     29  C   UNL A   1      41.861  25.355  25.890  1.00  0.00     0.251 C 
ATOM     30  H   UNL A   1      41.648  23.579  24.959  1.00  0.00     0.163 HD
ATOM     31  O   UNL A   1      42.188  25.950  24.867  1.00  0.00    -0.269 OA
BRANCH  29  32
ATOM     32  C   UNL A   1      41.762  26.085  27.179  1.00  0.00     0.039 A 
ATOM     33  C   UNL A   1      42.708  27.070  27.473  1.00  0.00     0.014 A 
ATOM     34  C   UNL A   1      40.717  25.836  28.072  1.00  0.00     0.014 A 
ATOM     35  C   UNL A   1      42.554  27.864  28.615  1.00  0.00     0.010 A 
ATOM     36  C   UNL A   1      40.524  26.675  29.169  1.00  0.00     0.010 A 
ATOM     37  C   UNL A   1      41.434  27.705  29.449  1.00  0.00    -0.014 A 
BRANCH  37  38
ATOM     38  C   UNL A   1      41.187  28.627  30.590  1.00  0.00     0.031 A 
ATOM     39  C   UNL A   1      42.005  28.530  31.851  1.00  0.00     0.074 A 
ATOM     40  C   UNL A   1      40.168  29.508  30.525  1.00  0.00     0.049 A 
ATOM     41  N   UNL A   1      41.912  29.236  32.949  1.00  0.00    -0.248 NA
ATOM     42  C   UNL A   1      43.043  27.488  31.893  1.00  0.00     0.031 C 
ATOM     43  C   UNL A   1      39.245  29.656  29.395  1.00  0.00     0.029 A 
ATOM     44  N   UNL A   1      39.729  30.441  31.432  1.00  0.00    -0.354 N 
ATOM     45  C   UNL A   1      42.862  28.711  33.819  1.00  0.00     0.074 A 
ATOM     46  C   UNL A   1      43.486  27.598  33.137  1.00  0.00     0.031 C 
ATOM     47  C   UNL A   1      38.372  30.640  29.665  1.00  0.00     0.029 A 
ATOM     48  C   UNL A   1      38.651  31.174  30.994  1.00  0.00     0.049 A 
ATOM     49  H   UNL A   1      40.149  30.574  32.312  1.00  0.00     0.167 HD
ATOM     50  C   UNL A   1      43.200  29.129  35.064  1.00  0.00     0.031 A 
ATOM     51  C   UNL A   1      37.965  32.170  31.589  1.00  0.00     0.031 A 
ATOM     52  C   UNL A   1      42.594  30.247  35.738  1.00  0.00     0.049 A 
ATOM     53  C   UNL A   1      38.388  32.649  32.949  1.00  0.00     0.074 A 
ATOM     54  C   UNL A   1      42.920  30.790  36.968  1.00  0.00     0.029 A 
ATOM     55  N   UNL A   1      41.537  30.993  35.240  1.00  0.00    -0.354 N 
ATOM     56  N   UNL A   1      39.349  32.195  33.718  1.00  0.00    -0.248 NA
ATOM     57  C   UNL A   1      37.648  33.786  33.512  1.00  0.00     0.031 C 
ATOM     58  C   UNL A   1      42.035  31.841  37.232  1.00  0.00     0.029 A 
ATOM     59  C   UNL A   1      41.188  31.982  36.145  1.00  0.00     0.049 A 
ATOM     60  H   UNL A   1      41.100  30.841  34.371  1.00  0.00     0.167 HD
ATOM     61  C   UNL A   1      39.344  33.009  34.846  1.00  0.00     0.074 A 
ATOM     62  C   UNL A   1      38.297  33.991  34.650  1.00  0.00     0.031 C 
ATOM     63  C   UNL A   1      40.140  32.949  35.943  1.00  0.00     0.031 A 
BRANCH  50  64
ATOM     64  C   UNL A   1      44.282  28.361  35.778  1.00  0.00    -0.014 A 
ATOM     65  C   UNL A   1      45.636  28.719  35.640  1.00  0.00     0.010 A 
ATOM     66  C   UNL A   1      43.941  27.283  36.612  1.00  0.00     0.010 A 
ATOM     67  C   UNL A   1      46.633  27.979  36.281  1.00  0.00     0.020 A 
ATOM     68  C   UNL A   1      44.934  26.556  37.277  1.00  0.00     0.020 A 
ATOM     69  C   UNL A   1      46.275  26.896  37.089  1.00  0.00     0.054 A 
BRANCH  69  70
ATOM     70  S   UNL A   1      47.588  25.951  37.910  1.00  0.00     0.124 S 
ATOM     71  O   UNL A   1      48.608  25.889  36.866  1.00  0.00    -0.237 OA
ATOM     72  O   UNL A   1      47.918  26.788  39.060  1.00  0.00    -0.237 OA
ATOM     73  O   UNL A   1      46.949  24.678  38.232  1.00  0.00    -0.744 OA
ENDBRANCH  69  70
ENDBRANCH  50  64
BRANCH  51  74
ATOM     74  C   UNL A   1      36.823  32.807  30.877  1.00  0.00    -0.014 A 
ATOM     75  C   UNL A   1      35.500  32.472  31.213  1.00  0.00     0.010 A 
ATOM     76  C   UNL A   1      37.055  33.770  29.880  1.00  0.00     0.010 A 
ATOM     77  C   UNL A   1      34.427  33.080  30.553  1.00  0.00     0.020 A 
ATOM     78  C   UNL A   1      35.986  34.397  29.234  1.00  0.00     0.020 A 
ATOM     79  C   UNL A   1      34.677  34.041  29.569  1.00  0.00     0.054 A 
BRANCH  79  80
ATOM     80  S   UNL A   1      33.272  34.867  28.773  1.00  0.00     0.124 S 
ATOM     81  O   UNL A   1      32.739  33.808  27.922  1.00  0.00    -0.237 OA
ATOM     82  O   UNL A   1      32.439  35.245  29.912  1.00  0.00    -0.237 OA
ATOM     83  O   UNL A   1      33.892  35.987  28.067  1.00  0.00    -0.744 OA
ENDBRANCH  79  80
ENDBRANCH  51  74
BRANCH  63  84
ATOM     84  C   UNL A   1      39.925  33.992  37.007  1.00  0.00    -0.014 A 
ATOM     85  C   UNL A   1      40.400  35.306  36.846  1.00  0.00     0.010 A 
ATOM     86  C   UNL A   1      39.211  33.657  38.171  1.00  0.00     0.010 A 
ATOM     87  C   UNL A   1      40.200  36.256  37.851  1.00  0.00     0.020 A 
ATOM     88  C   UNL A   1      38.987  34.612  39.167  1.00  0.00     0.020 A 
ATOM     89  C   UNL A   1      39.499  35.901  39.008  1.00  0.00     0.054 A 
BRANCH  89  90
ATOM     90  S   UNL A   1      39.230  37.156  40.291  1.00  0.00     0.124 S 
ATOM     91  O   UNL A   1      38.306  36.475  41.192  1.00  0.00    -0.237 OA
ATOM     92  O   UNL A   1      40.576  37.373  40.817  1.00  0.00    -0.237 OA
ATOM     93  O   UNL A   1      38.667  38.286  39.555  1.00  0.00    -0.744 OA
ENDBRANCH  89  90
ENDBRANCH  63  84
ENDBRANCH  37  38
ENDBRANCH  29  32
ENDBRANCH  27  28
ENDBRANCH   1  27
TORSDOF 16
ENDMDL
MODEL 3
REMARK VINA RESULT:     -11.7      3.439      4.522
REMARK SMILES C[NH+]1CCC(NC(=O)N[C@H]2C=C[C@H](C(=O)NCCCCNC(=O)c3ccc(-c4c5nc(c(-c6ccc(S(=O)(=O)[O-])cc6)c6ccc([nH]6)c(-c6ccc(S(=O)(=O)[O-])cc6)c6nc(c(-c7ccc(S(=O)(=O)[O-])cc7)c7ccc4[nH]7)C=C6)C=C5)cc3)C2)CC1
REMARK SMILES IDX 19 1 18 2 17 3 16 4 14 5 15 6 13 8 10 9 11 10 84 11 12 12
REMARK SMILES IDX 9 13 6 14 7 15 8 17 5 19 1 20 2 21 3 22 86 23 4 25 85 26
REMARK SMILES IDX 20 27 21 28 22 29 23 31 24 32 25 33 83 34 26 35 82 36 27 37
REMARK SMILES IDX 28 38 29 39 76 40 30 41 81 42 75 43 77 44 31 45 80 46 74 47
REMARK SMILES IDX 73 48 32 50 62 51 43 52 61 53 44 54 47 55 60 56 78 57 45 58
REMARK SMILES IDX 46 59 59 61 79 62 48 63 33 64 34 65 42 66 35 67 41 68 36 69
REMARK SMILES IDX 37 70 38 71 39 72 40 73 63 74 64 75 72 76 65 77 71 78 66 79
REMARK SMILES IDX 67 80 68 81 69 82 70 83 49 84 50 85 58 86 51 87 57 88 52 89
REMARK SMILES IDX 53 90 54 91 55 92 56 93
REMARK H PARENT 16 7 6 16 9 18 2 24 21 30 77 49 47 60
REMARK Flexibility Score: inf
ROOT
ATOM      1  C   UNL A   1      35.515  22.755  25.773  1.00  0.00     0.023 C 
ENDROOT
BRANCH   1   2
ATOM      2  C   UNL A   1      35.033  22.792  27.228  1.00  0.00     0.023 C 
BRANCH   2   3
ATOM      3  C   UNL A   1      33.802  21.923  27.514  1.00  0.00     0.116 C 
BRANCH   3   4
ATOM      4  N   UNL A   1      32.581  22.698  27.691  1.00  0.00    -0.356 N 
ATOM      5  C   UNL A   1      31.726  23.199  26.741  1.00  0.00     0.227 C 
ATOM      6  O   UNL A   1      30.661  23.700  27.100  1.00  0.00    -0.274 OA
ATOM      7  H   UNL A   1      32.335  22.891  28.625  1.00  0.00     0.163 HD
BRANCH   5   8
ATOM      8  C   UNL A   1      32.132  23.101  25.271  1.00  0.00     0.103 C 
ATOM      9  C   UNL A   1      31.525  24.535  23.367  1.00  0.00     0.107 C 
ATOM     10  C   UNL A   1      30.775  23.253  23.341  1.00  0.00    -0.006 C 
ATOM     11  C   UNL A   1      32.421  24.464  24.607  1.00  0.00     0.047 C 
ATOM     12  C   UNL A   1      31.053  22.499  24.412  1.00  0.00    -0.016 C 
BRANCH   9  13
ATOM     13  N   UNL A   1      32.145  24.871  22.094  1.00  0.00    -0.332 N 
ATOM     14  N   UNL A   1      32.653  27.175  21.766  1.00  0.00    -0.335 N 
ATOM     15  C   UNL A   1      32.590  25.902  21.378  1.00  0.00     0.315 C 
ATOM     16  H   UNL A   1      32.926  27.785  21.043  1.00  0.00     0.165 HD
ATOM     17  O   UNL A   1      32.982  25.650  20.233  1.00  0.00    -0.249 OA
ATOM     18  H   UNL A   1      32.284  24.043  21.579  1.00  0.00     0.165 HD
BRANCH  14  19
ATOM     19  C   UNL A   1      32.407  27.856  23.016  1.00  0.00     0.095 C 
ATOM     20  C   UNL A   1      31.798  30.588  26.202  1.00  0.00     0.332 C 
ATOM     21  N   UNL A   1      32.068  30.095  24.847  1.00  0.00    -0.337 N 
ATOM     22  C   UNL A   1      30.905  29.374  24.319  1.00  0.00     0.264 C 
ATOM     23  C   UNL A   1      33.300  29.293  24.844  1.00  0.00     0.264 C 
ATOM     24  H   UNL A   1      32.225  30.882  24.216  1.00  0.00     0.347 HD
ATOM     25  C   UNL A   1      31.164  28.740  22.952  1.00  0.00     0.086 C 
ATOM     26  C   UNL A   1      33.598  28.690  23.471  1.00  0.00     0.086 C 
ENDBRANCH  14  19
ENDBRANCH   9  13
ENDBRANCH   5   8
ENDBRANCH   3   4
ENDBRANCH   2   3
ENDBRANCH   1   2
BRANCH   1  27
ATOM     27  C   UNL A   1      36.842  23.470  25.515  1.00  0.00     0.116 C 
BRANCH  27  28
ATOM     28  N   UNL A   1      38.012  22.606  25.584  1.00  0.00    -0.352 N 
ATOM     29  C   UNL A   1      39.249  22.896  26.124  1.00  0.00     0.251 C 
ATOM     30  H   UNL A   1      37.908  21.706  25.200  1.00  0.00     0.163 HD
ATOM     31  O   UNL A   1      40.163  22.081  26.034  1.00  0.00    -0.269 OA
BRANCH  29  32
ATOM     32  C   UNL A   1      39.484  24.215  26.763  1.00  0.00     0.039 A 
ATOM     33  C   UNL A   1      39.020  24.428  28.064  1.00  0.00     0.014 A 
ATOM     34  C   UNL A   1      40.196  25.221  26.105  1.00  0.00     0.014 A 
ATOM     35  C   UNL A   1      39.350  25.612  28.734  1.00  0.00     0.010 A 
ATOM     36  C   UNL A   1      40.586  26.365  26.799  1.00  0.00     0.010 A 
ATOM     37  C   UNL A   1      40.176  26.571  28.125  1.00  0.00    -0.014 A 
BRANCH  37  38
ATOM     38  C   UNL A   1      40.644  27.770  28.871  1.00  0.00     0.031 A 
ATOM     39  C   UNL A   1      42.001  27.791  29.523  1.00  0.00     0.074 A 
ATOM     40  C   UNL A   1      39.814  28.821  29.029  1.00  0.00     0.049 A 
ATOM     41  N   UNL A   1      42.561  28.741  30.227  1.00  0.00    -0.248 NA
ATOM     42  C   UNL A   1      42.824  26.579  29.389  1.00  0.00     0.031 C 
ATOM     43  C   UNL A   1      38.442  28.904  28.517  1.00  0.00     0.029 A 
ATOM     44  N   UNL A   1      39.997  30.019  29.673  1.00  0.00    -0.354 N 
ATOM     45  C   UNL A   1      43.790  28.235  30.638  1.00  0.00     0.074 A 
ATOM     46  C   UNL A   1      43.871  26.878  30.144  1.00  0.00     0.031 C 
ATOM     47  C   UNL A   1      37.922  30.098  28.842  1.00  0.00     0.029 A 
ATOM     48  C   UNL A   1      38.907  30.856  29.608  1.00  0.00     0.049 A 
ATOM     49  H   UNL A   1      40.831  30.259  30.138  1.00  0.00     0.167 HD
ATOM     50  C   UNL A   1      44.770  28.849  31.346  1.00  0.00     0.031 A 
ATOM     51  C   UNL A   1      38.718  32.096  30.100  1.00  0.00     0.031 A 
ATOM     52  C   UNL A   1      44.700  30.204  31.824  1.00  0.00     0.049 A 
ATOM     53  C   UNL A   1      39.837  32.775  30.839  1.00  0.00     0.074 A 
ATOM     54  C   UNL A   1      45.673  30.935  32.484  1.00  0.00     0.029 A 
ATOM     55  N   UNL A   1      43.597  31.033  31.694  1.00  0.00    -0.354 N 
ATOM     56  N   UNL A   1      41.026  32.309  31.140  1.00  0.00    -0.248 NA
ATOM     57  C   UNL A   1      39.596  34.153  31.287  1.00  0.00     0.031 C 
ATOM     58  C   UNL A   1      45.143  32.194  32.788  1.00  0.00     0.029 A 
ATOM     59  C   UNL A   1      43.858  32.263  32.276  1.00  0.00     0.049 A 
ATOM     60  H   UNL A   1      42.753  30.784  31.254  1.00  0.00     0.167 HD
ATOM     61  C   UNL A   1      41.683  33.347  31.791  1.00  0.00     0.074 A 
ATOM     62  C   UNL A   1      40.766  34.469  31.824  1.00  0.00     0.031 C 
ATOM     63  C   UNL A   1      42.936  33.369  32.310  1.00  0.00     0.031 A 
BRANCH  50  64
ATOM     64  C   UNL A   1      46.010  28.045  31.645  1.00  0.00    -0.014 A 
ATOM     65  C   UNL A   1      47.105  28.045  30.761  1.00  0.00     0.010 A 
ATOM     66  C   UNL A   1      46.090  27.298  32.832  1.00  0.00     0.010 A 
ATOM     67  C   UNL A   1      48.234  27.270  31.033  1.00  0.00     0.020 A 
ATOM     68  C   UNL A   1      47.230  26.542  33.122  1.00  0.00     0.020 A 
ATOM     69  C   UNL A   1      48.286  26.516  32.209  1.00  0.00     0.054 A 
BRANCH  69  70
ATOM     70  S   UNL A   1      49.764  25.518  32.539  1.00  0.00     0.124 S 
ATOM     71  O   UNL A   1      49.283  24.604  33.573  1.00  0.00    -0.237 OA
ATOM     72  O   UNL A   1      50.040  24.908  31.241  1.00  0.00    -0.237 OA
ATOM     73  O   UNL A   1      50.751  26.499  32.985  1.00  0.00    -0.744 OA
ENDBRANCH  69  70
ENDBRANCH  50  64
BRANCH  51  74
ATOM     74  C   UNL A   1      37.421  32.790  29.875  1.00  0.00    -0.014 A 
ATOM     75  C   UNL A   1      37.203  33.524  28.696  1.00  0.00     0.010 A 
ATOM     76  C   UNL A   1      36.390  32.699  30.827  1.00  0.00     0.010 A 
ATOM     77  C   UNL A   1      35.980  34.167  28.480  1.00  0.00     0.020 A 
ATOM     78  C   UNL A   1      35.158  33.320  30.603  1.00  0.00     0.020 A 
ATOM     79  C   UNL A   1      34.964  34.059  29.433  1.00  0.00     0.054 A 
BRANCH  79  80
ATOM     80  S   UNL A   1      33.362  34.843  29.101  1.00  0.00     0.124 S 
ATOM     81  O   UNL A   1      32.765  33.919  28.143  1.00  0.00    -0.237 OA
ATOM     82  O   UNL A   1      32.743  34.872  30.424  1.00  0.00    -0.237 OA
ATOM     83  O   UNL A   1      33.729  36.153  28.566  1.00  0.00    -0.744 OA
ENDBRANCH  79  80
ENDBRANCH  51  74
BRANCH  63  84
ATOM     84  C   UNL A   1      43.399  34.657  32.937  1.00  0.00    -0.014 A 
ATOM     85  C   UNL A   1      44.000  35.668  32.166  1.00  0.00     0.010 A 
ATOM     86  C   UNL A   1      43.202  34.868  34.313  1.00  0.00     0.010 A 
ATOM     87  C   UNL A   1      44.433  36.852  32.770  1.00  0.00     0.020 A 
ATOM     88  C   UNL A   1      43.611  36.060  34.916  1.00  0.00     0.020 A 
ATOM     89  C   UNL A   1      44.240  37.038  34.143  1.00  0.00     0.054 A 
BRANCH  89  90
ATOM     90  S   UNL A   1      44.790  38.592  34.903  1.00  0.00     0.124 S 
ATOM     91  O   UNL A   1      44.900  38.218  36.310  1.00  0.00    -0.237 OA
ATOM     92  O   UNL A   1      46.054  38.855  34.222  1.00  0.00    -0.237 OA
ATOM     93  O   UNL A   1      43.713  39.528  34.588  1.00  0.00    -0.744 OA
ENDBRANCH  89  90
ENDBRANCH  63  84
ENDBRANCH  37  38
ENDBRANCH  29  32
ENDBRANCH  27  28
ENDBRANCH   1  27
TORSDOF 16
ENDMDL
