MODEL 1
REMARK VINA RESULT:     -10.4      0.000      0.000
REMARK SMILES CC(C)C[N@@H+](C1CC1)[C@@H](C)c1ccc(C(=O)NCCCCNC(=O)c2ccc(-c3c4nc(c(-c5ccc(S(=O)(=O)[O-])cc5)c5ccc([nH]5)c(-c5ccc(S(=O)(=O)[O-])cc5)c5nc(c(-c6ccc(S(=O)(=O)[O-])cc6)c6ccc3[nH]6)C=C5)C=C4)cc2)o1
REMARK SMILES IDX 19 1 18 2 17 3 15 4 16 5 14 7 11 8 12 9 85 10 13 11 9 12
REMARK SMILES IDX 10 13 5 14 4 16 2 17 1 18 3 19 6 20 7 21 8 22 20 23 21 24
REMARK SMILES IDX 22 25 23 26 24 28 25 29 26 30 84 31 27 32 83 33 28 34 29 35
REMARK SMILES IDX 30 36 77 37 31 38 82 39 76 40 78 41 32 42 81 43 75 44 74 45
REMARK SMILES IDX 33 47 63 48 44 49 62 50 45 51 48 52 61 53 79 54 46 55 47 56
REMARK SMILES IDX 60 58 80 59 49 60 34 61 35 62 43 63 36 64 42 65 37 66 38 67
REMARK SMILES IDX 39 68 40 69 41 70 64 71 65 72 73 73 66 74 72 75 67 76 68 77
REMARK SMILES IDX 69 78 70 79 71 80 50 81 51 82 59 83 52 84 58 85 53 86 54 87
REMARK SMILES IDX 55 88 56 89 57 90
REMARK H PARENT 17 6 5 15 22 27 78 46 48 57
REMARK Flexibility Score: inf
ROOT
ATOM      1  C   UNL A   1      33.589  29.345  25.903  1.00  0.00     0.023 C 
ENDROOT
BRANCH   1   2
ATOM      2  C   UNL A   1      32.102  29.423  25.562  1.00  0.00     0.116 C 
BRANCH   2   3
ATOM      3  N   UNL A   1      31.828  29.149  24.164  1.00  0.00    -0.349 N 
ATOM      4  C   UNL A   1      31.243  28.034  23.601  1.00  0.00     0.287 C 
ATOM      5  O   UNL A   1      30.853  28.128  22.439  1.00  0.00    -0.266 OA
ATOM      6  H   UNL A   1      32.096  29.854  23.532  1.00  0.00     0.163 HD
BRANCH   4   7
ATOM      7  C   UNL A   1      31.099  26.831  24.393  1.00  0.00     0.191 A 
ATOM      8  C   UNL A   1      31.846  24.979  25.344  1.00  0.00     0.162 A 
ATOM      9  C   UNL A   1      30.501  25.065  25.647  1.00  0.00     0.053 A 
ATOM     10  O   UNL A   1      32.223  26.085  24.636  1.00  0.00    -0.450 OA
ATOM     11  C   UNL A   1      30.019  26.236  25.017  1.00  0.00     0.057 A 
BRANCH   8  12
ATOM     12  C   UNL A   1      32.898  23.948  25.656  1.00  0.00     0.248 C 
ATOM     13  C   UNL A   1      34.332  24.491  25.627  1.00  0.00     0.084 C 
BRANCH  12  14
ATOM     14  N   UNL A   1      32.711  22.729  24.849  1.00  0.00    -0.324 N 
ATOM     15  H   UNL A   1      33.709  22.527  24.782  1.00  0.00     0.348 HD
BRANCH  14  16
ATOM     16  C   UNL A   1      32.253  21.474  25.466  1.00  0.00     0.265 C 
BRANCH  16  17
ATOM     17  C   UNL A   1      33.273  20.344  25.773  1.00  0.00     0.038 C 
ATOM     18  C   UNL A   1      32.801  18.952  25.345  1.00  0.00     0.013 C 
ATOM     19  C   UNL A   1      34.596  20.623  25.043  1.00  0.00     0.013 C 
ENDBRANCH  16  17
ENDBRANCH  14  16
BRANCH  14  20
ATOM     20  C   UNL A   1      32.217  22.923  23.466  1.00  0.00     0.185 C 
ATOM     21  C   UNL A   1      33.180  22.912  22.302  1.00  0.00     0.071 C 
ATOM     22  C   UNL A   1      32.139  21.845  22.416  1.00  0.00     0.071 C 
ENDBRANCH  14  20
ENDBRANCH  12  14
ENDBRANCH   8  12
ENDBRANCH   4   7
ENDBRANCH   2   3
ENDBRANCH   1   2
BRANCH   1  23
ATOM     23  C   UNL A   1      34.052  30.272  27.028  1.00  0.00     0.023 C 
BRANCH  23  24
ATOM     24  C   UNL A   1      35.242  29.784  27.847  1.00  0.00     0.116 C 
BRANCH  24  25
ATOM     25  N   UNL A   1      35.284  30.338  29.192  1.00  0.00    -0.352 N 
ATOM     26  C   UNL A   1      36.317  30.334  30.101  1.00  0.00     0.251 C 
ATOM     27  H   UNL A   1      34.458  30.778  29.493  1.00  0.00     0.163 HD
ATOM     28  O   UNL A   1      36.130  30.763  31.237  1.00  0.00    -0.269 OA
BRANCH  26  29
ATOM     29  C   UNL A   1      37.637  29.779  29.723  1.00  0.00     0.039 A 
ATOM     30  C   UNL A   1      38.074  29.922  28.404  1.00  0.00     0.014 A 
ATOM     31  C   UNL A   1      38.446  29.135  30.663  1.00  0.00     0.014 A 
ATOM     32  C   UNL A   1      39.356  29.491  28.046  1.00  0.00     0.010 A 
ATOM     33  C   UNL A   1      39.747  28.767  30.321  1.00  0.00     0.010 A 
ATOM     34  C   UNL A   1      40.218  28.947  29.012  1.00  0.00    -0.014 A 
BRANCH  34  35
ATOM     35  C   UNL A   1      41.620  28.579  28.679  1.00  0.00     0.031 A 
ATOM     36  C   UNL A   1      42.696  29.630  28.658  1.00  0.00     0.074 A 
ATOM     37  C   UNL A   1      41.910  27.311  28.322  1.00  0.00     0.049 A 
ATOM     38  N   UNL A   1      43.954  29.515  28.317  1.00  0.00    -0.248 NA
ATOM     39  C   UNL A   1      42.304  30.995  29.047  1.00  0.00     0.031 C 
ATOM     40  C   UNL A   1      40.950  26.205  28.259  1.00  0.00     0.029 A 
ATOM     41  N   UNL A   1      43.096  26.739  27.932  1.00  0.00    -0.354 N 
ATOM     42  C   UNL A   1      44.497  30.789  28.430  1.00  0.00     0.074 A 
ATOM     43  C   UNL A   1      43.422  31.671  28.832  1.00  0.00     0.031 C 
ATOM     44  C   UNL A   1      41.589  25.087  27.877  1.00  0.00     0.029 A 
ATOM     45  C   UNL A   1      42.992  25.400  27.629  1.00  0.00     0.049 A 
ATOM     46  H   UNL A   1      43.941  27.240  27.875  1.00  0.00     0.167 HD
ATOM     47  C   UNL A   1      45.777  31.187  28.235  1.00  0.00     0.031 A 
ATOM     48  C   UNL A   1      43.918  24.526  27.191  1.00  0.00     0.031 A 
ATOM     49  C   UNL A   1      46.850  30.306  27.855  1.00  0.00     0.049 A 
ATOM     50  C   UNL A   1      45.333  24.993  26.984  1.00  0.00     0.074 A 
ATOM     51  C   UNL A   1      48.191  30.607  27.694  1.00  0.00     0.029 A 
ATOM     52  N   UNL A   1      46.706  28.955  27.580  1.00  0.00    -0.354 N 
ATOM     53  N   UNL A   1      45.839  26.191  27.161  1.00  0.00    -0.248 NA
ATOM     54  C   UNL A   1      46.305  23.989  26.530  1.00  0.00     0.031 C 
ATOM     55  C   UNL A   1      48.852  29.446  27.277  1.00  0.00     0.029 A 
ATOM     56  C   UNL A   1      47.931  28.412  27.231  1.00  0.00     0.049 A 
ATOM     57  H   UNL A   1      45.859  28.456  27.627  1.00  0.00     0.167 HD
ATOM     58  C   UNL A   1      47.193  26.075  26.868  1.00  0.00     0.074 A 
ATOM     59  C   UNL A   1      47.430  24.691  26.515  1.00  0.00     0.031 C 
ATOM     60  C   UNL A   1      48.154  27.031  26.890  1.00  0.00     0.031 A 
BRANCH  47  61
ATOM     61  C   UNL A   1      46.093  32.647  28.430  1.00  0.00    -0.014 A 
ATOM     62  C   UNL A   1      46.547  33.129  29.671  1.00  0.00     0.010 A 
ATOM     63  C   UNL A   1      45.991  33.536  27.346  1.00  0.00     0.010 A 
ATOM     64  C   UNL A   1      46.861  34.481  29.832  1.00  0.00     0.020 A 
ATOM     65  C   UNL A   1      46.330  34.884  27.495  1.00  0.00     0.020 A 
ATOM     66  C   UNL A   1      46.749  35.350  28.744  1.00  0.00     0.054 A 
BRANCH  66  67
ATOM     67  S   UNL A   1      47.198  37.093  28.973  1.00  0.00     0.124 S 
ATOM     68  O   UNL A   1      48.344  36.992  29.872  1.00  0.00    -0.237 OA
ATOM     69  O   UNL A   1      47.504  37.527  27.612  1.00  0.00    -0.237 OA
ATOM     70  O   UNL A   1      45.997  37.687  29.557  1.00  0.00    -0.744 OA
ENDBRANCH  66  67
ENDBRANCH  47  61
BRANCH  48  71
ATOM     71  C   UNL A   1      43.542  23.109  26.929  1.00  0.00    -0.014 A 
ATOM     72  C   UNL A   1      43.715  22.550  25.650  1.00  0.00     0.010 A 
ATOM     73  C   UNL A   1      43.001  22.313  27.955  1.00  0.00     0.010 A 
ATOM     74  C   UNL A   1      43.330  21.231  25.395  1.00  0.00     0.020 A 
ATOM     75  C   UNL A   1      42.640  20.985  27.711  1.00  0.00     0.020 A 
ATOM     76  C   UNL A   1      42.793  20.456  26.427  1.00  0.00     0.054 A 
BRANCH  76  77
ATOM     77  S   UNL A   1      42.334  18.735  26.084  1.00  0.00     0.124 S 
ATOM     78  O   UNL A   1      43.249  18.388  25.002  1.00  0.00    -0.237 OA
ATOM     79  O   UNL A   1      42.587  18.078  27.364  1.00  0.00    -0.237 OA
ATOM     80  O   UNL A   1      40.924  18.827  25.709  1.00  0.00    -0.744 OA
ENDBRANCH  76  77
ENDBRANCH  48  71
BRANCH  60  81
ATOM     81  C   UNL A   1      49.561  26.608  26.564  1.00  0.00    -0.014 A 
ATOM     82  C   UNL A   1      50.423  26.112  27.558  1.00  0.00     0.010 A 
ATOM     83  C   UNL A   1      50.007  26.656  25.230  1.00  0.00     0.010 A 
ATOM     84  C   UNL A   1      51.717  25.699  27.227  1.00  0.00     0.020 A 
ATOM     85  C   UNL A   1      51.290  26.220  24.892  1.00  0.00     0.020 A 
ATOM     86  C   UNL A   1      52.142  25.756  25.897  1.00  0.00     0.054 A 
BRANCH  86  87
ATOM     87  S   UNL A   1      53.809  25.170  25.485  1.00  0.00     0.124 S 
ATOM     88  O   UNL A   1      54.417  25.031  26.805  1.00  0.00    -0.237 OA
ATOM     89  O   UNL A   1      53.545  23.918  24.780  1.00  0.00    -0.237 OA
ATOM     90  O   UNL A   1      54.358  26.241  24.655  1.00  0.00    -0.744 OA
ENDBRANCH  86  87
ENDBRANCH  60  81
ENDBRANCH  34  35
ENDBRANCH  26  29
ENDBRANCH  24  25
ENDBRANCH  23  24
ENDBRANCH   1  23
TORSDOF 19
ENDMDL
MODEL 2
REMARK VINA RESULT:     -10.0      1.222      2.035
REMARK SMILES CC(C)C[N@@H+](C1CC1)[C@@H](C)c1ccc(C(=O)NCCCCNC(=O)c2ccc(-c3c4nc(c(-c5ccc(S(=O)(=O)[O-])cc5)c5ccc([nH]5)c(-c5ccc(S(=O)(=O)[O-])cc5)c5nc(c(-c6ccc(S(=O)(=O)[O-])cc6)c6ccc3[nH]6)C=C5)C=C4)cc2)o1
REMARK SMILES IDX 19 1 18 2 17 3 15 4 16 5 14 7 11 8 12 9 85 10 13 11 9 12
REMARK SMILES IDX 10 13 5 14 4 16 2 17 1 18 3 19 6 20 7 21 8 22 20 23 21 24
REMARK SMILES IDX 22 25 23 26 24 28 25 29 26 30 84 31 27 32 83 33 28 34 29 35
REMARK SMILES IDX 30 36 77 37 31 38 82 39 76 40 78 41 32 42 81 43 75 44 74 45
REMARK SMILES IDX 33 47 63 48 44 49 62 50 45 51 48 52 61 53 79 54 46 55 47 56
REMARK SMILES IDX 60 58 80 59 49 60 34 61 35 62 43 63 36 64 42 65 37 66 38 67
REMARK SMILES IDX 39 68 40 69 41 70 64 71 65 72 73 73 66 74 72 75 67 76 68 77
REMARK SMILES IDX 69 78 70 79 71 80 50 81 51 82 59 83 52 84 58 85 53 86 54 87
REMARK SMILES IDX 55 88 56 89 57 90
REMARK H PARENT 17 6 5 15 22 27 78 46 48 57
REMARK Flexibility Score: inf
ROOT
ATOM      1  C   UNL A   1      34.310  29.185  27.329  1.00  0.00     0.023 C 
ENDROOT
BRANCH   1   2
ATOM      2  C   UNL A   1      33.195  28.459  26.577  1.00  0.00     0.116 C 
BRANCH   2   3
ATOM      3  N   UNL A   1      32.287  29.365  25.901  1.00  0.00    -0.349 N 
ATOM      4  C   UNL A   1      31.695  29.231  24.662  1.00  0.00     0.287 C 
ATOM      5  O   UNL A   1      30.748  29.973  24.407  1.00  0.00    -0.266 OA
ATOM      6  H   UNL A   1      32.060  30.186  26.395  1.00  0.00     0.163 HD
BRANCH   4   7
ATOM      7  C   UNL A   1      32.192  28.230  23.743  1.00  0.00     0.191 A 
ATOM      8  C   UNL A   1      32.354  26.175  22.943  1.00  0.00     0.162 A 
ATOM      9  C   UNL A   1      33.169  26.969  22.161  1.00  0.00     0.053 A 
ATOM     10  O   UNL A   1      31.711  26.953  23.863  1.00  0.00    -0.450 OA
ATOM     11  C   UNL A   1      33.085  28.278  22.689  1.00  0.00     0.057 A 
BRANCH   8  12
ATOM     12  C   UNL A   1      32.062  24.697  22.940  1.00  0.00     0.248 C 
ATOM     13  C   UNL A   1      30.627  24.344  23.350  1.00  0.00     0.084 C 
BRANCH  12  14
ATOM     14  N   UNL A   1      33.091  23.946  23.681  1.00  0.00    -0.324 N 
ATOM     15  H   UNL A   1      32.498  23.788  24.496  1.00  0.00     0.348 HD
BRANCH  14  16
ATOM     16  C   UNL A   1      33.403  22.549  23.337  1.00  0.00     0.265 C 
BRANCH  16  17
ATOM     17  C   UNL A   1      33.119  21.416  24.361  1.00  0.00     0.038 C 
ATOM     18  C   UNL A   1      32.212  21.842  25.518  1.00  0.00     0.013 C 
ATOM     19  C   UNL A   1      32.434  20.236  23.654  1.00  0.00     0.013 C 
ENDBRANCH  16  17
ENDBRANCH  14  16
BRANCH  14  20
ATOM     20  C   UNL A   1      34.266  24.718  24.145  1.00  0.00     0.185 C 
ATOM     21  C   UNL A   1      34.441  25.034  25.612  1.00  0.00     0.071 C 
ATOM     22  C   UNL A   1      35.425  24.147  24.921  1.00  0.00     0.071 C 
ENDBRANCH  14  20
ENDBRANCH  12  14
ENDBRANCH   8  12
ENDBRANCH   4   7
ENDBRANCH   2   3
ENDBRANCH   1   2
BRANCH   1  23
ATOM     23  C   UNL A   1      33.984  30.616  27.759  1.00  0.00     0.023 C 
BRANCH  23  24
ATOM     24  C   UNL A   1      35.150  31.424  28.318  1.00  0.00     0.116 C 
BRANCH  24  25
ATOM     25  N   UNL A   1      35.086  31.608  29.761  1.00  0.00    -0.352 N 
ATOM     26  C   UNL A   1      36.007  31.261  30.722  1.00  0.00     0.251 C 
ATOM     27  H   UNL A   1      34.269  32.042  30.095  1.00  0.00     0.163 HD
ATOM     28  O   UNL A   1      35.729  31.402  31.910  1.00  0.00    -0.269 OA
BRANCH  26  29
ATOM     29  C   UNL A   1      37.312  30.683  30.327  1.00  0.00     0.039 A 
ATOM     30  C   UNL A   1      37.680  30.712  28.979  1.00  0.00     0.014 A 
ATOM     31  C   UNL A   1      38.175  30.130  31.276  1.00  0.00     0.014 A 
ATOM     32  C   UNL A   1      38.946  30.260  28.595  1.00  0.00     0.010 A 
ATOM     33  C   UNL A   1      39.460  29.742  30.901  1.00  0.00     0.010 A 
ATOM     34  C   UNL A   1      39.862  29.808  29.559  1.00  0.00    -0.014 A 
BRANCH  34  35
ATOM     35  C   UNL A   1      41.249  29.422  29.187  1.00  0.00     0.031 A 
ATOM     36  C   UNL A   1      42.347  30.450  29.177  1.00  0.00     0.074 A 
ATOM     37  C   UNL A   1      41.505  28.159  28.785  1.00  0.00     0.049 A 
ATOM     38  N   UNL A   1      43.596  30.319  28.808  1.00  0.00    -0.248 NA
ATOM     39  C   UNL A   1      41.992  31.810  29.616  1.00  0.00     0.031 C 
ATOM     40  C   UNL A   1      40.520  27.077  28.707  1.00  0.00     0.029 A 
ATOM     41  N   UNL A   1      42.670  27.575  28.355  1.00  0.00    -0.354 N 
ATOM     42  C   UNL A   1      44.169  31.577  28.950  1.00  0.00     0.074 A 
ATOM     43  C   UNL A   1      43.121  32.469  29.399  1.00  0.00     0.031 C 
ATOM     44  C   UNL A   1      41.127  25.958  28.279  1.00  0.00     0.029 A 
ATOM     45  C   UNL A   1      42.532  26.249  28.013  1.00  0.00     0.049 A 
ATOM     46  H   UNL A   1      43.525  28.059  28.298  1.00  0.00     0.167 HD
ATOM     47  C   UNL A   1      45.453  31.954  28.742  1.00  0.00     0.031 A 
ATOM     48  C   UNL A   1      43.431  25.369  27.531  1.00  0.00     0.031 A 
ATOM     49  C   UNL A   1      46.499  31.063  28.315  1.00  0.00     0.049 A 
ATOM     50  C   UNL A   1      44.851  25.813  27.311  1.00  0.00     0.074 A 
ATOM     51  C   UNL A   1      47.843  31.340  28.136  1.00  0.00     0.029 A 
ATOM     52  N   UNL A   1      46.321  29.725  28.001  1.00  0.00    -0.354 N 
ATOM     53  N   UNL A   1      45.386  26.993  27.515  1.00  0.00    -0.248 NA
ATOM     54  C   UNL A   1      45.792  24.803  26.806  1.00  0.00     0.031 C 
ATOM     55  C   UNL A   1      48.471  30.180  27.671  1.00  0.00     0.029 A 
ATOM     56  C   UNL A   1      47.527  29.167  27.611  1.00  0.00     0.049 A 
ATOM     57  H   UNL A   1      45.464  29.243  28.049  1.00  0.00     0.167 HD
ATOM     58  C   UNL A   1      46.731  26.859  27.191  1.00  0.00     0.074 A 
ATOM     59  C   UNL A   1      46.932  25.481  26.792  1.00  0.00     0.031 C 
ATOM     60  C   UNL A   1      47.713  27.792  27.224  1.00  0.00     0.031 A 
BRANCH  47  61
ATOM     61  C   UNL A   1      45.804  33.400  28.976  1.00  0.00    -0.014 A 
ATOM     62  C   UNL A   1      45.684  34.350  27.946  1.00  0.00     0.010 A 
ATOM     63  C   UNL A   1      46.204  33.825  30.256  1.00  0.00     0.010 A 
ATOM     64  C   UNL A   1      45.989  35.692  28.183  1.00  0.00     0.020 A 
ATOM     65  C   UNL A   1      46.484  35.171  30.504  1.00  0.00     0.020 A 
ATOM     66  C   UNL A   1      46.388  36.094  29.460  1.00  0.00     0.054 A 
BRANCH  66  67
ATOM     67  S   UNL A   1      46.743  37.851  29.748  1.00  0.00     0.124 S 
ATOM     68  O   UNL A   1      45.849  38.498  28.791  1.00  0.00    -0.237 OA
ATOM     69  O   UNL A   1      46.387  38.023  31.154  1.00  0.00    -0.237 OA
ATOM     70  O   UNL A   1      48.168  37.971  29.450  1.00  0.00    -0.744 OA
ENDBRANCH  66  67
ENDBRANCH  47  61
BRANCH  48  71
ATOM     71  C   UNL A   1      43.019  23.970  27.232  1.00  0.00    -0.014 A 
ATOM     72  C   UNL A   1      42.998  22.999  28.250  1.00  0.00     0.010 A 
ATOM     73  C   UNL A   1      42.653  23.597  25.925  1.00  0.00     0.010 A 
ATOM     74  C   UNL A   1      42.645  21.678  27.963  1.00  0.00     0.020 A 
ATOM     75  C   UNL A   1      42.273  22.283  25.640  1.00  0.00     0.020 A 
ATOM     76  C   UNL A   1      42.286  21.327  26.659  1.00  0.00     0.054 A 
BRANCH  76  77
ATOM     77  S   UNL A   1      41.797  19.614  26.315  1.00  0.00     0.124 S 
ATOM     78  O   UNL A   1      42.550  19.323  25.100  1.00  0.00    -0.237 OA
ATOM     79  O   UNL A   1      42.237  18.911  27.517  1.00  0.00    -0.237 OA
ATOM     80  O   UNL A   1      40.347  19.701  26.149  1.00  0.00    -0.744 OA
ENDBRANCH  76  77
ENDBRANCH  48  71
BRANCH  60  81
ATOM     81  C   UNL A   1      49.104  27.351  26.857  1.00  0.00    -0.014 A 
ATOM     82  C   UNL A   1      49.585  27.469  25.541  1.00  0.00     0.010 A 
ATOM     83  C   UNL A   1      49.962  26.862  27.860  1.00  0.00     0.010 A 
ATOM     84  C   UNL A   1      50.890  27.078  25.229  1.00  0.00     0.020 A 
ATOM     85  C   UNL A   1      51.275  26.496  27.557  1.00  0.00     0.020 A 
ATOM     86  C   UNL A   1      51.727  26.593  26.239  1.00  0.00     0.054 A 
BRANCH  86  87
ATOM     87  S   UNL A   1      53.431  26.137  25.819  1.00  0.00     0.124 S 
ATOM     88  O   UNL A   1      53.499  24.754  26.282  1.00  0.00    -0.237 OA
ATOM     89  O   UNL A   1      53.465  26.316  24.369  1.00  0.00    -0.237 OA
ATOM     90  O   UNL A   1      54.242  27.088  26.577  1.00  0.00    -0.744 OA
ENDBRANCH  86  87
ENDBRANCH  60  81
ENDBRANCH  34  35
ENDBRANCH  26  29
ENDBRANCH  24  25
ENDBRANCH  23  24
ENDBRANCH   1  23
TORSDOF 19
ENDMDL
MODEL 3
REMARK VINA RESULT:     -10.0      6.070     10.489
REMARK SMILES CC(C)C[N@@H+](C1CC1)[C@@H](C)c1ccc(C(=O)NCCCCNC(=O)c2ccc(-c3c4nc(c(-c5ccc(S(=O)(=O)[O-])cc5)c5ccc([nH]5)c(-c5ccc(S(=O)(=O)[O-])cc5)c5nc(c(-c6ccc(S(=O)(=O)[O-])cc6)c6ccc3[nH]6)C=C5)C=C4)cc2)o1
REMARK SMILES IDX 19 1 18 2 17 3 15 4 16 5 14 7 11 8 12 9 85 10 13 11 9 12
REMARK SMILES IDX 10 13 5 14 4 16 2 17 1 18 3 19 6 20 7 21 8 22 20 23 21 24
REMARK SMILES IDX 22 25 23 26 24 28 25 29 26 30 84 31 27 32 83 33 28 34 29 35
REMARK SMILES IDX 30 36 77 37 31 38 82 39 76 40 78 41 32 42 81 43 75 44 74 45
REMARK SMILES IDX 33 47 63 48 44 49 62 50 45 51 48 52 61 53 79 54 46 55 47 56
REMARK SMILES IDX 60 58 80 59 49 60 34 61 35 62 43 63 36 64 42 65 37 66 38 67
REMARK SMILES IDX 39 68 40 69 41 70 64 71 65 72 73 73 66 74 72 75 67 76 68 77
REMARK SMILES IDX 69 78 70 79 71 80 50 81 51 82 59 83 52 84 58 85 53 86 54 87
REMARK SMILES IDX 55 88 56 89 57 90
REMARK H PARENT 17 6 5 15 22 27 78 46 48 57
REMARK Flexibility Score: inf
ROOT
ATOM      1  C   UNL A   1      33.288  29.092  27.159  1.00  0.00     0.023 C 
ENDROOT
BRANCH   1   2
ATOM      2  C   UNL A   1      32.560  28.134  26.217  1.00  0.00     0.116 C 
BRANCH   2   3
ATOM      3  N   UNL A   1      31.772  28.821  25.211  1.00  0.00    -0.349 N 
ATOM      4  C   UNL A   1      31.453  28.410  23.933  1.00  0.00     0.287 C 
ATOM      5  O   UNL A   1      30.548  29.011  23.357  1.00  0.00    -0.266 OA
ATOM      6  H   UNL A   1      31.415  29.699  25.477  1.00  0.00     0.163 HD
BRANCH   4   7
ATOM      7  C   UNL A   1      32.170  27.298  23.346  1.00  0.00     0.191 A 
ATOM      8  C   UNL A   1      32.579  25.149  23.021  1.00  0.00     0.162 A 
ATOM      9  C   UNL A   1      33.501  25.847  22.266  1.00  0.00     0.053 A 
ATOM     10  O   UNL A   1      31.729  26.032  23.626  1.00  0.00    -0.450 OA
ATOM     11  C   UNL A   1      33.255  27.220  22.494  1.00  0.00     0.057 A 
BRANCH   8  12
ATOM     12  C   UNL A   1      32.358  23.679  23.259  1.00  0.00     0.248 C 
ATOM     13  C   UNL A   1      30.907  23.313  23.600  1.00  0.00     0.084 C 
BRANCH  12  14
ATOM     14  N   UNL A   1      33.344  23.135  24.210  1.00  0.00    -0.324 N 
ATOM     15  H   UNL A   1      34.016  22.880  23.486  1.00  0.00     0.348 HD
BRANCH  14  16
ATOM     16  C   UNL A   1      34.189  24.028  25.019  1.00  0.00     0.265 C 
BRANCH  16  17
ATOM     17  C   UNL A   1      35.728  24.035  24.813  1.00  0.00     0.038 C 
ATOM     18  C   UNL A   1      36.510  23.414  25.973  1.00  0.00     0.013 C 
ATOM     19  C   UNL A   1      36.087  23.245  23.545  1.00  0.00     0.013 C 
ENDBRANCH  16  17
ENDBRANCH  14  16
BRANCH  14  20
ATOM     20  C   UNL A   1      32.966  21.885  24.909  1.00  0.00     0.185 C 
ATOM     21  C   UNL A   1      32.984  20.564  24.175  1.00  0.00     0.071 C 
ATOM     22  C   UNL A   1      33.927  20.795  25.312  1.00  0.00     0.071 C 
ENDBRANCH  14  20
ENDBRANCH  12  14
ENDBRANCH   8  12
ENDBRANCH   4   7
ENDBRANCH   2   3
ENDBRANCH   1   2
BRANCH   1  23
ATOM     23  C   UNL A   1      32.696  30.500  27.245  1.00  0.00     0.023 C 
BRANCH  23  24
ATOM     24  C   UNL A   1      33.705  31.641  27.322  1.00  0.00     0.116 C 
BRANCH  24  25
ATOM     25  N   UNL A   1      33.101  32.923  27.656  1.00  0.00    -0.352 N 
ATOM     26  C   UNL A   1      33.472  33.833  28.619  1.00  0.00     0.251 C 
ATOM     27  H   UNL A   1      32.317  33.174  27.117  1.00  0.00     0.163 HD
ATOM     28  O   UNL A   1      32.772  34.820  28.826  1.00  0.00    -0.269 OA
BRANCH  26  29
ATOM     29  C   UNL A   1      34.690  33.602  29.430  1.00  0.00     0.039 A 
ATOM     30  C   UNL A   1      34.615  32.740  30.527  1.00  0.00     0.014 A 
ATOM     31  C   UNL A   1      35.902  34.218  29.105  1.00  0.00     0.014 A 
ATOM     32  C   UNL A   1      35.772  32.432  31.249  1.00  0.00     0.010 A 
ATOM     33  C   UNL A   1      37.065  33.858  29.784  1.00  0.00     0.010 A 
ATOM     34  C   UNL A   1      37.014  32.957  30.858  1.00  0.00    -0.014 A 
BRANCH  34  35
ATOM     35  C   UNL A   1      38.272  32.562  31.545  1.00  0.00     0.031 A 
ATOM     36  C   UNL A   1      39.172  31.518  30.942  1.00  0.00     0.074 A 
ATOM     37  C   UNL A   1      38.568  33.089  32.752  1.00  0.00     0.049 A 
ATOM     38  N   UNL A   1      40.266  30.990  31.430  1.00  0.00    -0.248 NA
ATOM     39  C   UNL A   1      38.780  30.978  29.629  1.00  0.00     0.031 C 
ATOM     40  C   UNL A   1      37.757  34.078  33.468  1.00  0.00     0.029 A 
ATOM     41  N   UNL A   1      39.626  32.857  33.596  1.00  0.00    -0.354 N 
ATOM     42  C   UNL A   1      40.680  30.046  30.498  1.00  0.00     0.074 A 
ATOM     43  C   UNL A   1      39.698  30.043  29.435  1.00  0.00     0.031 C 
ATOM     44  C   UNL A   1      38.358  34.383  34.630  1.00  0.00     0.029 A 
ATOM     45  C   UNL A   1      39.573  33.586  34.762  1.00  0.00     0.049 A 
ATOM     46  H   UNL A   1      40.354  32.230  33.386  1.00  0.00     0.167 HD
ATOM     47  C   UNL A   1      41.786  29.264  30.516  1.00  0.00     0.031 A 
ATOM     48  C   UNL A   1      40.403  33.604  35.824  1.00  0.00     0.031 A 
ATOM     49  C   UNL A   1      42.773  29.281  31.563  1.00  0.00     0.049 A 
ATOM     50  C   UNL A   1      41.625  32.726  35.818  1.00  0.00     0.074 A 
ATOM     51  C   UNL A   1      43.957  28.569  31.639  1.00  0.00     0.029 A 
ATOM     52  N   UNL A   1      42.693  30.049  32.715  1.00  0.00    -0.354 N 
ATOM     53  N   UNL A   1      42.032  31.888  34.895  1.00  0.00    -0.248 NA
ATOM     54  C   UNL A   1      42.506  32.807  36.992  1.00  0.00     0.031 C 
ATOM     55  C   UNL A   1      44.573  28.872  32.859  1.00  0.00     0.029 A 
ATOM     56  C   UNL A   1      43.797  29.813  33.517  1.00  0.00     0.049 A 
ATOM     57  H   UNL A   1      41.960  30.669  32.930  1.00  0.00     0.167 HD
ATOM     58  C   UNL A   1      43.231  31.364  35.365  1.00  0.00     0.074 A 
ATOM     59  C   UNL A   1      43.491  31.988  36.645  1.00  0.00     0.031 C 
ATOM     60  C   UNL A   1      44.046  30.448  34.786  1.00  0.00     0.031 A 
BRANCH  47  61
ATOM     61  C   UNL A   1      41.993  28.317  29.363  1.00  0.00    -0.014 A 
ATOM     62  C   UNL A   1      42.716  28.712  28.223  1.00  0.00     0.010 A 
ATOM     63  C   UNL A   1      41.508  27.000  29.443  1.00  0.00     0.010 A 
ATOM     64  C   UNL A   1      42.922  27.817  27.171  1.00  0.00     0.020 A 
ATOM     65  C   UNL A   1      41.734  26.092  28.404  1.00  0.00     0.020 A 
ATOM     66  C   UNL A   1      42.429  26.513  27.268  1.00  0.00     0.054 A 
BRANCH  66  67
ATOM     67  S   UNL A   1      42.743  25.361  25.901  1.00  0.00     0.124 S 
ATOM     68  O   UNL A   1      41.758  24.314  26.160  1.00  0.00    -0.237 OA
ATOM     69  O   UNL A   1      42.488  26.185  24.722  1.00  0.00    -0.237 OA
ATOM     70  O   UNL A   1      44.137  24.967  26.092  1.00  0.00    -0.744 OA
ENDBRANCH  66  67
ENDBRANCH  47  61
BRANCH  48  71
ATOM     71  C   UNL A   1      40.114  34.493  36.982  1.00  0.00    -0.014 A 
ATOM     72  C   UNL A   1      39.372  34.020  38.079  1.00  0.00     0.010 A 
ATOM     73  C   UNL A   1      40.573  35.824  36.991  1.00  0.00     0.010 A 
ATOM     74  C   UNL A   1      39.072  34.865  39.150  1.00  0.00     0.020 A 
ATOM     75  C   UNL A   1      40.299  36.664  38.074  1.00  0.00     0.020 A 
ATOM     76  C   UNL A   1      39.536  36.183  39.141  1.00  0.00     0.054 A 
BRANCH  76  77
ATOM     77  S   UNL A   1      39.166  37.254  40.558  1.00  0.00     0.124 S 
ATOM     78  O   UNL A   1      40.488  37.764  40.905  1.00  0.00    -0.237 OA
ATOM     79  O   UNL A   1      38.241  38.229  39.986  1.00  0.00    -0.237 OA
ATOM     80  O   UNL A   1      38.571  36.339  41.530  1.00  0.00    -0.744 OA
ENDBRANCH  76  77
ENDBRANCH  48  71
BRANCH  60  81
ATOM     81  C   UNL A   1      45.317  30.093  35.509  1.00  0.00    -0.014 A 
ATOM     82  C   UNL A   1      45.367  29.013  36.408  1.00  0.00     0.010 A 
ATOM     83  C   UNL A   1      46.492  30.818  35.240  1.00  0.00     0.010 A 
ATOM     84  C   UNL A   1      46.566  28.684  37.047  1.00  0.00     0.020 A 
ATOM     85  C   UNL A   1      47.697  30.475  35.857  1.00  0.00     0.020 A 
ATOM     86  C   UNL A   1      47.723  29.417  36.769  1.00  0.00     0.054 A 
BRANCH  86  87
ATOM     87  S   UNL A   1      49.276  28.942  37.575  1.00  0.00     0.124 S 
ATOM     88  O   UNL A   1      50.253  29.176  36.515  1.00  0.00    -0.237 OA
ATOM     89  O   UNL A   1      49.346  29.861  38.708  1.00  0.00    -0.237 OA
ATOM     90  O   UNL A   1      49.067  27.539  37.930  1.00  0.00    -0.744 OA
ENDBRANCH  86  87
ENDBRANCH  60  81
ENDBRANCH  34  35
ENDBRANCH  26  29
ENDBRANCH  24  25
ENDBRANCH  23  24
ENDBRANCH   1  23
TORSDOF 19
ENDMDL
