MODEL 1
REMARK VINA RESULT:     -11.1      0.000      0.000
REMARK SMILES C[C@H](Nc1cccc(F)c1C(=O)NCCCCNC(=O)c1ccc(-c2c3nc(c(-c4ccc(S(=O)(=O)[O-])cc4)c4ccc([nH]4)c(-c4ccc(S(=O)(=O)[O-])cc4)c4nc(c(-c5ccc(S(=O)(=O)[O-])cc5)c5ccc2[nH]5)C=C4)C=C3)cc1)c1cccc(Cl)c1
REMARK SMILES IDX 15 1 14 2 13 3 11 4 12 5 10 7 4 8 5 9 6 10 8 11 7 12 9 13
REMARK SMILES IDX 3 14 2 16 1 17 81 18 82 19 87 20 83 21 85 22 84 23 86 24
REMARK SMILES IDX 16 25 17 26 18 27 19 28 20 30 21 31 22 32 80 33 23 34 79 35
REMARK SMILES IDX 24 36 25 37 26 38 73 39 27 40 78 41 72 42 74 43 28 44 77 45
REMARK SMILES IDX 71 46 70 47 29 49 59 50 40 51 58 52 41 53 44 54 57 55 75 56
REMARK SMILES IDX 42 57 43 58 56 60 76 61 45 62 30 63 31 64 39 65 32 66 38 67
REMARK SMILES IDX 33 68 34 69 35 70 36 71 37 72 60 73 61 74 69 75 62 76 68 77
REMARK SMILES IDX 63 78 64 79 65 80 66 81 67 82 46 83 47 84 55 85 48 86 54 87
REMARK SMILES IDX 49 88 50 89 51 90 52 91 53 92
REMARK H PARENT 13 6 3 15 18 29 74 48 44 59
REMARK Flexibility Score: inf
ROOT
ATOM      1  C   UNL A   1      35.140  22.166  26.083  1.00  0.00     0.023 C 
ENDROOT
BRANCH   1   2
ATOM      2  C   UNL A   1      34.385  21.814  27.360  1.00  0.00     0.116 C 
BRANCH   2   3
ATOM      3  N   UNL A   1      33.142  22.542  27.545  1.00  0.00    -0.352 N 
ATOM      4  C   UNL A   1      32.081  22.770  26.698  1.00  0.00     0.256 C 
ATOM      5  O   UNL A   1      31.124  23.396  27.163  1.00  0.00    -0.269 OA
ATOM      6  H   UNL A   1      33.041  22.946  28.438  1.00  0.00     0.163 HD
BRANCH   4   7
ATOM      7  C   UNL A   1      32.080  22.396  25.252  1.00  0.00     0.098 A 
ATOM      8  C   UNL A   1      31.979  23.412  24.263  1.00  0.00     0.050 A 
ATOM      9  C   UNL A   1      32.178  23.066  22.914  1.00  0.00     0.027 A 
ATOM     10  C   UNL A   1      32.337  21.736  22.527  1.00  0.00     0.005 A 
ATOM     11  C   UNL A   1      32.111  21.067  24.830  1.00  0.00     0.138 A 
ATOM     12  C   UNL A   1      32.255  20.732  23.484  1.00  0.00     0.040 A 
ATOM     13  F   UNL A   1      31.940  20.057  25.695  1.00  0.00    -0.206 F 
BRANCH   8  14
ATOM     14  N   UNL A   1      31.547  24.705  24.593  1.00  0.00    -0.378 N 
ATOM     15  H   UNL A   1      30.702  24.817  25.087  1.00  0.00     0.161 HD
BRANCH  14  16
ATOM     16  C   UNL A   1      32.323  25.905  24.219  1.00  0.00     0.106 C 
ATOM     17  C   UNL A   1      31.671  26.609  23.010  1.00  0.00     0.036 C 
BRANCH  16  18
ATOM     18  C   UNL A   1      32.452  26.834  25.439  1.00  0.00    -0.025 A 
ATOM     19  C   UNL A   1      31.408  26.932  26.378  1.00  0.00     0.006 A 
ATOM     20  C   UNL A   1      33.609  27.600  25.684  1.00  0.00     0.026 A 
ATOM     21  C   UNL A   1      31.482  27.811  27.465  1.00  0.00     0.002 A 
ATOM     22  C   UNL A   1      33.685  28.468  26.777  1.00  0.00     0.041 A 
ATOM     23  C   UNL A   1      32.621  28.587  27.661  1.00  0.00     0.020 A 
ATOM     24  Cl  UNL A   1      35.114  29.398  27.025  1.00  0.00    -0.084 Cl
ENDBRANCH  16  18
ENDBRANCH  14  16
ENDBRANCH   8  14
ENDBRANCH   4   7
ENDBRANCH   2   3
ENDBRANCH   1   2
BRANCH   1  25
ATOM     25  C   UNL A   1      35.874  23.504  26.056  1.00  0.00     0.023 C 
BRANCH  25  26
ATOM     26  C   UNL A   1      37.097  23.593  25.150  1.00  0.00     0.116 C 
BRANCH  26  27
ATOM     27  N   UNL A   1      38.170  22.682  25.515  1.00  0.00    -0.352 N 
ATOM     28  C   UNL A   1      39.310  22.902  26.257  1.00  0.00     0.251 C 
ATOM     29  H   UNL A   1      38.067  21.763  25.177  1.00  0.00     0.163 HD
ATOM     30  O   UNL A   1      40.132  22.002  26.384  1.00  0.00    -0.269 OA
BRANCH  28  31
ATOM     31  C   UNL A   1      39.565  24.229  26.864  1.00  0.00     0.039 A 
ATOM     32  C   UNL A   1      39.107  24.473  28.163  1.00  0.00     0.014 A 
ATOM     33  C   UNL A   1      40.260  25.224  26.172  1.00  0.00     0.014 A 
ATOM     34  C   UNL A   1      39.427  25.676  28.798  1.00  0.00     0.010 A 
ATOM     35  C   UNL A   1      40.646  26.388  26.835  1.00  0.00     0.010 A 
ATOM     36  C   UNL A   1      40.241  26.624  28.158  1.00  0.00    -0.014 A 
BRANCH  36  37
ATOM     37  C   UNL A   1      40.690  27.859  28.854  1.00  0.00     0.031 A 
ATOM     38  C   UNL A   1      42.080  27.946  29.423  1.00  0.00     0.074 A 
ATOM     39  C   UNL A   1      39.826  28.876  29.036  1.00  0.00     0.049 A 
ATOM     40  N   UNL A   1      42.629  28.911  30.116  1.00  0.00    -0.248 NA
ATOM     41  C   UNL A   1      42.958  26.786  29.209  1.00  0.00     0.031 C 
ATOM     42  C   UNL A   1      38.438  28.906  28.568  1.00  0.00     0.029 A 
ATOM     43  N   UNL A   1      39.986  30.085  29.668  1.00  0.00    -0.354 N 
ATOM     44  C   UNL A   1      43.907  28.467  30.436  1.00  0.00     0.074 A 
ATOM     45  C   UNL A   1      44.032  27.126  29.907  1.00  0.00     0.031 C 
ATOM     46  C   UNL A   1      37.887  30.086  28.895  1.00  0.00     0.029 A 
ATOM     47  C   UNL A   1      38.865  30.881  29.631  1.00  0.00     0.049 A 
ATOM     48  H   UNL A   1      40.824  30.356  30.108  1.00  0.00     0.167 HD
ATOM     49  C   UNL A   1      44.898  29.121  31.091  1.00  0.00     0.031 A 
ATOM     50  C   UNL A   1      38.647  32.113  30.131  1.00  0.00     0.031 A 
ATOM     51  C   UNL A   1      44.778  30.456  31.612  1.00  0.00     0.049 A 
ATOM     52  C   UNL A   1      39.754  32.816  30.864  1.00  0.00     0.074 A 
ATOM     53  C   UNL A   1      45.738  31.222  32.251  1.00  0.00     0.029 A 
ATOM     54  N   UNL A   1      43.626  31.227  31.552  1.00  0.00    -0.354 N 
ATOM     55  N   UNL A   1      40.973  32.398  31.113  1.00  0.00    -0.248 NA
ATOM     56  C   UNL A   1      39.459  34.162  31.376  1.00  0.00     0.031 C 
ATOM     57  C   UNL A   1      45.152  32.441  32.614  1.00  0.00     0.029 A 
ATOM     58  C   UNL A   1      43.845  32.453  32.157  1.00  0.00     0.049 A 
ATOM     59  H   UNL A   1      42.778  30.944  31.140  1.00  0.00     0.167 HD
ATOM     60  C   UNL A   1      41.600  33.442  31.786  1.00  0.00     0.074 A 
ATOM     61  C   UNL A   1      40.629  34.512  31.897  1.00  0.00     0.031 C 
ATOM     62  C   UNL A   1      42.867  33.508  32.263  1.00  0.00     0.031 A 
BRANCH  49  63
ATOM     63  C   UNL A   1      46.196  28.380  31.282  1.00  0.00    -0.014 A 
ATOM     64  C   UNL A   1      47.199  28.411  30.295  1.00  0.00     0.010 A 
ATOM     65  C   UNL A   1      46.414  27.636  32.454  1.00  0.00     0.010 A 
ATOM     66  C   UNL A   1      48.366  27.658  30.446  1.00  0.00     0.020 A 
ATOM     67  C   UNL A   1      47.594  26.905  32.624  1.00  0.00     0.020 A 
ATOM     68  C   UNL A   1      48.550  26.900  31.606  1.00  0.00     0.054 A 
BRANCH  68  69
ATOM     69  S   UNL A   1      50.063  25.913  31.769  1.00  0.00     0.124 S 
ATOM     70  O   UNL A   1      49.554  24.679  32.364  1.00  0.00    -0.237 OA
ATOM     71  O   UNL A   1      50.527  25.799  30.388  1.00  0.00    -0.237 OA
ATOM     72  O   UNL A   1      50.911  26.721  32.642  1.00  0.00    -0.744 OA
ENDBRANCH  68  69
ENDBRANCH  49  63
BRANCH  50  73
ATOM     73  C   UNL A   1      37.333  32.777  29.912  1.00  0.00    -0.014 A 
ATOM     74  C   UNL A   1      36.339  32.714  30.903  1.00  0.00     0.010 A 
ATOM     75  C   UNL A   1      37.079  33.500  28.732  1.00  0.00     0.010 A 
ATOM     76  C   UNL A   1      35.111  33.355  30.719  1.00  0.00     0.020 A 
ATOM     77  C   UNL A   1      35.860  34.162  28.554  1.00  0.00     0.020 A 
ATOM     78  C   UNL A   1      34.881  34.080  29.546  1.00  0.00     0.054 A 
BRANCH  78  79
ATOM     79  S   UNL A   1      33.308  34.964  29.360  1.00  0.00     0.124 S 
ATOM     80  O   UNL A   1      33.748  36.271  28.886  1.00  0.00    -0.237 OA
ATOM     81  O   UNL A   1      32.597  34.143  28.384  1.00  0.00    -0.237 OA
ATOM     82  O   UNL A   1      32.743  34.942  30.709  1.00  0.00    -0.744 OA
ENDBRANCH  78  79
ENDBRANCH  50  73
BRANCH  62  83
ATOM     83  C   UNL A   1      43.291  34.794  32.921  1.00  0.00    -0.014 A 
ATOM     84  C   UNL A   1      43.766  35.879  32.164  1.00  0.00     0.010 A 
ATOM     85  C   UNL A   1      43.165  34.931  34.316  1.00  0.00     0.010 A 
ATOM     86  C   UNL A   1      44.137  37.070  32.795  1.00  0.00     0.020 A 
ATOM     87  C   UNL A   1      43.511  36.129  34.947  1.00  0.00     0.020 A 
ATOM     88  C   UNL A   1      44.008  37.187  34.183  1.00  0.00     0.054 A 
BRANCH  88  89
ATOM     89  S   UNL A   1      44.453  38.757  34.974  1.00  0.00     0.124 S 
ATOM     90  O   UNL A   1      43.563  39.698  34.302  1.00  0.00    -0.237 OA
ATOM     91  O   UNL A   1      44.156  38.505  36.382  1.00  0.00    -0.237 OA
ATOM     92  O   UNL A   1      45.873  38.911  34.662  1.00  0.00    -0.744 OA
ENDBRANCH  88  89
ENDBRANCH  62  83
ENDBRANCH  36  37
ENDBRANCH  28  31
ENDBRANCH  26  27
ENDBRANCH  25  26
ENDBRANCH   1  25
TORSDOF 17
ENDMDL
MODEL 2
REMARK VINA RESULT:     -11.1      4.482     10.318
REMARK SMILES C[C@H](Nc1cccc(F)c1C(=O)NCCCCNC(=O)c1ccc(-c2c3nc(c(-c4ccc(S(=O)(=O)[O-])cc4)c4ccc([nH]4)c(-c4ccc(S(=O)(=O)[O-])cc4)c4nc(c(-c5ccc(S(=O)(=O)[O-])cc5)c5ccc2[nH]5)C=C4)C=C3)cc1)c1cccc(Cl)c1
REMARK SMILES IDX 15 1 14 2 13 3 11 4 12 5 10 7 4 8 5 9 6 10 8 11 7 12 9 13
REMARK SMILES IDX 3 14 2 16 1 17 81 18 82 19 87 20 83 21 85 22 84 23 86 24
REMARK SMILES IDX 16 25 17 26 18 27 19 28 20 30 21 31 22 32 80 33 23 34 79 35
REMARK SMILES IDX 24 36 25 37 26 38 73 39 27 40 78 41 72 42 74 43 28 44 77 45
REMARK SMILES IDX 71 46 70 47 29 49 59 50 40 51 58 52 41 53 44 54 57 55 75 56
REMARK SMILES IDX 42 57 43 58 56 60 76 61 45 62 30 63 31 64 39 65 32 66 38 67
REMARK SMILES IDX 33 68 34 69 35 70 36 71 37 72 60 73 61 74 69 75 62 76 68 77
REMARK SMILES IDX 63 78 64 79 65 80 66 81 67 82 46 83 47 84 55 85 48 86 54 87
REMARK SMILES IDX 49 88 50 89 51 90 52 91 53 92
REMARK H PARENT 13 6 3 15 18 29 74 48 44 59
REMARK Flexibility Score: inf
ROOT
ATOM      1  C   UNL A   1      33.646  28.847  27.231  1.00  0.00     0.023 C 
ENDROOT
BRANCH   1   2
ATOM      2  C   UNL A   1      32.817  27.657  26.762  1.00  0.00     0.116 C 
BRANCH   2   3
ATOM      3  N   UNL A   1      33.168  27.159  25.444  1.00  0.00    -0.352 N 
ATOM      4  C   UNL A   1      33.276  25.879  24.949  1.00  0.00     0.256 C 
ATOM      5  O   UNL A   1      33.552  25.767  23.751  1.00  0.00    -0.269 OA
ATOM      6  H   UNL A   1      33.367  27.864  24.786  1.00  0.00     0.163 HD
BRANCH   4   7
ATOM      7  C   UNL A   1      33.181  24.652  25.797  1.00  0.00     0.098 A 
ATOM      8  C   UNL A   1      34.350  23.890  26.065  1.00  0.00     0.050 A 
ATOM      9  C   UNL A   1      34.282  22.859  27.020  1.00  0.00     0.027 A 
ATOM     10  C   UNL A   1      33.068  22.491  27.598  1.00  0.00     0.005 A 
ATOM     11  C   UNL A   1      31.963  24.184  26.289  1.00  0.00     0.138 A 
ATOM     12  C   UNL A   1      31.900  23.125  27.194  1.00  0.00     0.040 A 
ATOM     13  F   UNL A   1      30.797  24.691  25.862  1.00  0.00    -0.206 F 
BRANCH   8  14
ATOM     14  N   UNL A   1      35.515  24.054  25.299  1.00  0.00    -0.378 N 
ATOM     15  H   UNL A   1      35.810  24.963  25.066  1.00  0.00     0.161 HD
BRANCH  14  16
ATOM     16  C   UNL A   1      36.309  22.899  24.833  1.00  0.00     0.106 C 
ATOM     17  C   UNL A   1      36.535  22.985  23.308  1.00  0.00     0.036 C 
BRANCH  16  18
ATOM     18  C   UNL A   1      37.630  22.833  25.619  1.00  0.00    -0.025 A 
ATOM     19  C   UNL A   1      38.069  23.937  26.377  1.00  0.00     0.006 A 
ATOM     20  C   UNL A   1      38.440  21.681  25.638  1.00  0.00     0.026 A 
ATOM     21  C   UNL A   1      39.293  23.918  27.055  1.00  0.00     0.002 A 
ATOM     22  C   UNL A   1      39.657  21.661  26.326  1.00  0.00     0.041 A 
ATOM     23  C   UNL A   1      40.093  22.781  27.023  1.00  0.00     0.020 A 
ATOM     24  Cl  UNL A   1      40.621  20.234  26.305  1.00  0.00    -0.084 Cl
ENDBRANCH  16  18
ENDBRANCH  14  16
ENDBRANCH   8  14
ENDBRANCH   4   7
ENDBRANCH   2   3
ENDBRANCH   1   2
BRANCH   1  25
ATOM     25  C   UNL A   1      35.129  28.845  26.872  1.00  0.00     0.023 C 
BRANCH  25  26
ATOM     26  C   UNL A   1      36.019  29.814  27.642  1.00  0.00     0.116 C 
BRANCH  26  27
ATOM     27  N   UNL A   1      35.962  29.649  29.086  1.00  0.00    -0.352 N 
ATOM     28  C   UNL A   1      36.931  29.232  29.972  1.00  0.00     0.251 C 
ATOM     29  H   UNL A   1      35.094  29.869  29.494  1.00  0.00     0.163 HD
ATOM     30  O   UNL A   1      36.647  29.090  31.156  1.00  0.00    -0.269 OA
BRANCH  28  31
ATOM     31  C   UNL A   1      38.297  28.915  29.495  1.00  0.00     0.039 A 
ATOM     32  C   UNL A   1      38.682  29.349  28.222  1.00  0.00     0.014 A 
ATOM     33  C   UNL A   1      39.200  28.208  30.292  1.00  0.00     0.014 A 
ATOM     34  C   UNL A   1      39.998  29.157  27.790  1.00  0.00     0.010 A 
ATOM     35  C   UNL A   1      40.531  28.089  29.893  1.00  0.00     0.010 A 
ATOM     36  C   UNL A   1      40.947  28.569  28.642  1.00  0.00    -0.014 A 
BRANCH  36  37
ATOM     37  C   UNL A   1      42.376  28.457  28.251  1.00  0.00     0.031 A 
ATOM     38  C   UNL A   1      43.311  29.620  28.451  1.00  0.00     0.074 A 
ATOM     39  C   UNL A   1      42.821  27.335  27.652  1.00  0.00     0.049 A 
ATOM     40  N   UNL A   1      44.571  29.734  28.116  1.00  0.00    -0.248 NA
ATOM     41  C   UNL A   1      42.748  30.821  29.087  1.00  0.00     0.031 C 
ATOM     42  C   UNL A   1      42.012  26.149  27.364  1.00  0.00     0.029 A 
ATOM     43  N   UNL A   1      44.066  27.009  27.172  1.00  0.00    -0.354 N 
ATOM     44  C   UNL A   1      44.945  31.022  28.481  1.00  0.00     0.074 A 
ATOM     45  C   UNL A   1      43.765  31.667  29.014  1.00  0.00     0.031 C 
ATOM     46  C   UNL A   1      42.789  25.213  26.794  1.00  0.00     0.029 A 
ATOM     47  C   UNL A   1      44.139  25.744  26.637  1.00  0.00     0.049 A 
ATOM     48  H   UNL A   1      44.835  27.623  27.208  1.00  0.00     0.167 HD
ATOM     49  C   UNL A   1      46.164  31.611  28.402  1.00  0.00     0.031 A 
ATOM     50  C   UNL A   1      45.174  25.084  26.084  1.00  0.00     0.031 A 
ATOM     51  C   UNL A   1      47.338  30.968  27.878  1.00  0.00     0.049 A 
ATOM     52  C   UNL A   1      46.514  25.759  25.995  1.00  0.00     0.074 A 
ATOM     53  C   UNL A   1      48.629  31.464  27.796  1.00  0.00     0.029 A 
ATOM     54  N   UNL A   1      47.368  29.687  27.348  1.00  0.00    -0.354 N 
ATOM     55  N   UNL A   1      46.859  26.961  26.391  1.00  0.00    -0.248 NA
ATOM     56  C   UNL A   1      47.607  24.983  25.391  1.00  0.00     0.031 C 
ATOM     57  C   UNL A   1      49.429  30.496  27.178  1.00  0.00     0.029 A 
ATOM     58  C   UNL A   1      48.650  29.381  26.921  1.00  0.00     0.049 A 
ATOM     59  H   UNL A   1      46.593  29.084  27.284  1.00  0.00     0.167 HD
ATOM     60  C   UNL A   1      48.217  27.076  26.112  1.00  0.00     0.074 A 
ATOM     61  C   UNL A   1      48.630  25.819  25.520  1.00  0.00     0.031 C 
ATOM     62  C   UNL A   1      49.046  28.126  26.330  1.00  0.00     0.031 A 
BRANCH  49  63
ATOM     63  C   UNL A   1      46.269  33.031  28.893  1.00  0.00    -0.014 A 
ATOM     64  C   UNL A   1      46.060  34.116  28.020  1.00  0.00     0.010 A 
ATOM     65  C   UNL A   1      46.590  33.288  30.237  1.00  0.00     0.010 A 
ATOM     66  C   UNL A   1      46.236  35.428  28.466  1.00  0.00     0.020 A 
ATOM     67  C   UNL A   1      46.736  34.601  30.696  1.00  0.00     0.020 A 
ATOM     68  C   UNL A   1      46.586  35.661  29.799  1.00  0.00     0.054 A 
BRANCH  68  69
ATOM     69  S   UNL A   1      46.830  37.372  30.349  1.00  0.00     0.124 S 
ATOM     70  O   UNL A   1      47.122  38.053  29.089  1.00  0.00    -0.237 OA
ATOM     71  O   UNL A   1      45.544  37.704  30.958  1.00  0.00    -0.237 OA
ATOM     72  O   UNL A   1      47.952  37.280  31.281  1.00  0.00    -0.744 OA
ENDBRANCH  68  69
ENDBRANCH  49  63
BRANCH  50  73
ATOM     73  C   UNL A   1      44.990  23.685  25.611  1.00  0.00    -0.014 A 
ATOM     74  C   UNL A   1      44.838  23.421  24.239  1.00  0.00     0.010 A 
ATOM     75  C   UNL A   1      44.998  22.611  26.518  1.00  0.00     0.010 A 
ATOM     76  C   UNL A   1      44.689  22.108  23.781  1.00  0.00     0.020 A 
ATOM     77  C   UNL A   1      44.874  21.294  26.062  1.00  0.00     0.020 A 
ATOM     78  C   UNL A   1      44.713  21.052  24.697  1.00  0.00     0.054 A 
BRANCH  78  79
ATOM     79  S   UNL A   1      44.592  19.353  24.073  1.00  0.00     0.124 S 
ATOM     80  O   UNL A   1      45.866  18.782  24.496  1.00  0.00    -0.237 OA
ATOM     81  O   UNL A   1      43.410  18.845  24.764  1.00  0.00    -0.237 OA
ATOM     82  O   UNL A   1      44.431  19.530  22.631  1.00  0.00    -0.744 OA
ENDBRANCH  78  79
ENDBRANCH  50  73
BRANCH  62  83
ATOM     83  C   UNL A   1      50.494  27.951  25.959  1.00  0.00    -0.014 A 
ATOM     84  C   UNL A   1      51.393  27.293  26.817  1.00  0.00     0.010 A 
ATOM     85  C   UNL A   1      50.949  28.413  24.710  1.00  0.00     0.010 A 
ATOM     86  C   UNL A   1      52.730  27.126  26.444  1.00  0.00     0.020 A 
ATOM     87  C   UNL A   1      52.278  28.225  24.323  1.00  0.00     0.020 A 
ATOM     88  C   UNL A   1      53.164  27.595  25.200  1.00  0.00     0.054 A 
BRANCH  88  89
ATOM     89  S   UNL A   1      54.892  27.328  24.719  1.00  0.00     0.124 S 
ATOM     90  O   UNL A   1      55.109  28.403  23.756  1.00  0.00    -0.237 OA
ATOM     91  O   UNL A   1      55.605  27.466  25.987  1.00  0.00    -0.237 OA
ATOM     92  O   UNL A   1      54.891  25.979  24.157  1.00  0.00    -0.744 OA
ENDBRANCH  88  89
ENDBRANCH  62  83
ENDBRANCH  36  37
ENDBRANCH  28  31
ENDBRANCH  26  27
ENDBRANCH  25  26
ENDBRANCH   1  25
TORSDOF 17
ENDMDL
MODEL 3
REMARK VINA RESULT:     -10.8      3.026      9.341
REMARK SMILES C[C@H](Nc1cccc(F)c1C(=O)NCCCCNC(=O)c1ccc(-c2c3nc(c(-c4ccc(S(=O)(=O)[O-])cc4)c4ccc([nH]4)c(-c4ccc(S(=O)(=O)[O-])cc4)c4nc(c(-c5ccc(S(=O)(=O)[O-])cc5)c5ccc2[nH]5)C=C4)C=C3)cc1)c1cccc(Cl)c1
REMARK SMILES IDX 15 1 14 2 13 3 11 4 12 5 10 7 4 8 5 9 6 10 8 11 7 12 9 13
REMARK SMILES IDX 3 14 2 16 1 17 81 18 82 19 87 20 83 21 85 22 84 23 86 24
REMARK SMILES IDX 16 25 17 26 18 27 19 28 20 30 21 31 22 32 80 33 23 34 79 35
REMARK SMILES IDX 24 36 25 37 26 38 73 39 27 40 78 41 72 42 74 43 28 44 77 45
REMARK SMILES IDX 71 46 70 47 29 49 59 50 40 51 58 52 41 53 44 54 57 55 75 56
REMARK SMILES IDX 42 57 43 58 56 60 76 61 45 62 30 63 31 64 39 65 32 66 38 67
REMARK SMILES IDX 33 68 34 69 35 70 36 71 37 72 60 73 61 74 69 75 62 76 68 77
REMARK SMILES IDX 63 78 64 79 65 80 66 81 67 82 46 83 47 84 55 85 48 86 54 87
REMARK SMILES IDX 49 88 50 89 51 90 52 91 53 92
REMARK H PARENT 13 6 3 15 18 29 74 48 44 59
REMARK Flexibility Score: inf
ROOT
ATOM      1  C   UNL A   1      31.926  27.138  25.924  1.00  0.00     0.023 C 
ENDROOT
BRANCH   1   2
ATOM      2  C   UNL A   1      32.023  25.647  26.225  1.00  0.00     0.116 C 
BRANCH   2   3
ATOM      3  N   UNL A   1      33.378  25.130  26.285  1.00  0.00    -0.352 N 
ATOM      4  C   UNL A   1      34.231  24.684  25.300  1.00  0.00     0.256 C 
ATOM      5  O   UNL A   1      35.362  24.342  25.657  1.00  0.00    -0.269 OA
ATOM      6  H   UNL A   1      33.755  25.090  27.194  1.00  0.00     0.163 HD
BRANCH   4   7
ATOM      7  C   UNL A   1      33.825  24.500  23.874  1.00  0.00     0.098 A 
ATOM      8  C   UNL A   1      33.681  23.188  23.347  1.00  0.00     0.050 A 
ATOM      9  C   UNL A   1      33.110  23.029  22.071  1.00  0.00     0.027 A 
ATOM     10  C   UNL A   1      32.813  24.132  21.272  1.00  0.00     0.005 A 
ATOM     11  C   UNL A   1      33.641  25.579  23.010  1.00  0.00     0.138 A 
ATOM     12  C   UNL A   1      33.125  25.407  21.726  1.00  0.00     0.040 A 
ATOM     13  F   UNL A   1      34.014  26.820  23.356  1.00  0.00    -0.206 F 
BRANCH   8  14
ATOM     14  N   UNL A   1      34.223  22.076  24.010  1.00  0.00    -0.378 N 
ATOM     15  H   UNL A   1      35.180  21.871  23.896  1.00  0.00     0.161 HD
BRANCH  14  16
ATOM     16  C   UNL A   1      33.400  21.206  24.874  1.00  0.00     0.106 C 
ATOM     17  C   UNL A   1      31.996  21.818  25.067  1.00  0.00     0.036 C 
BRANCH  16  18
ATOM     18  C   UNL A   1      33.344  19.790  24.273  1.00  0.00    -0.025 A 
ATOM     19  C   UNL A   1      32.481  19.501  23.198  1.00  0.00     0.006 A 
ATOM     20  C   UNL A   1      34.156  18.739  24.743  1.00  0.00     0.026 A 
ATOM     21  C   UNL A   1      32.375  18.208  22.672  1.00  0.00     0.002 A 
ATOM     22  C   UNL A   1      34.057  17.452  24.208  1.00  0.00     0.041 A 
ATOM     23  C   UNL A   1      33.160  17.179  23.183  1.00  0.00     0.020 A 
ATOM     24  Cl  UNL A   1      35.058  16.194  24.828  1.00  0.00    -0.084 Cl
ENDBRANCH  16  18
ENDBRANCH  14  16
ENDBRANCH   8  14
ENDBRANCH   4   7
ENDBRANCH   2   3
ENDBRANCH   1   2
BRANCH   1  25
ATOM     25  C   UNL A   1      32.040  28.094  27.108  1.00  0.00     0.023 C 
BRANCH  25  26
ATOM     26  C   UNL A   1      33.428  28.648  27.407  1.00  0.00     0.116 C 
BRANCH  26  27
ATOM     27  N   UNL A   1      33.442  30.068  27.726  1.00  0.00    -0.352 N 
ATOM     28  C   UNL A   1      34.456  30.857  28.221  1.00  0.00     0.251 C 
ATOM     29  H   UNL A   1      32.593  30.538  27.562  1.00  0.00     0.163 HD
ATOM     30  O   UNL A   1      34.231  32.031  28.492  1.00  0.00    -0.269 OA
BRANCH  28  31
ATOM     31  C   UNL A   1      35.800  30.286  28.468  1.00  0.00     0.039 A 
ATOM     32  C   UNL A   1      36.747  30.326  27.439  1.00  0.00     0.014 A 
ATOM     33  C   UNL A   1      36.138  29.725  29.702  1.00  0.00     0.014 A 
ATOM     34  C   UNL A   1      38.053  29.891  27.678  1.00  0.00     0.010 A 
ATOM     35  C   UNL A   1      37.460  29.369  29.963  1.00  0.00     0.010 A 
ATOM     36  C   UNL A   1      38.434  29.454  28.957  1.00  0.00    -0.014 A 
BRANCH  36  37
ATOM     37  C   UNL A   1      39.844  29.097  29.267  1.00  0.00     0.031 A 
ATOM     38  C   UNL A   1      40.753  30.096  29.930  1.00  0.00     0.074 A 
ATOM     39  C   UNL A   1      40.328  27.897  28.891  1.00  0.00     0.049 A 
ATOM     40  N   UNL A   1      42.024  29.990  30.221  1.00  0.00    -0.248 NA
ATOM     41  C   UNL A   1      40.161  31.395  30.287  1.00  0.00     0.031 C 
ATOM     42  C   UNL A   1      39.565  26.850  28.207  1.00  0.00     0.029 A 
ATOM     43  N   UNL A   1      41.582  27.355  29.027  1.00  0.00    -0.354 N 
ATOM     44  C   UNL A   1      42.388  31.212  30.776  1.00  0.00     0.074 A 
ATOM     45  C   UNL A   1      41.217  32.060  30.733  1.00  0.00     0.031 C 
ATOM     46  C   UNL A   1      40.355  25.780  28.019  1.00  0.00     0.029 A 
ATOM     47  C   UNL A   1      41.689  26.077  28.529  1.00  0.00     0.049 A 
ATOM     48  H   UNL A   1      42.334  27.835  29.442  1.00  0.00     0.167 HD
ATOM     49  C   UNL A   1      43.582  31.590  31.297  1.00  0.00     0.031 A 
ATOM     50  C   UNL A   1      42.742  25.237  28.487  1.00  0.00     0.031 A 
ATOM     51  C   UNL A   1      44.745  30.745  31.347  1.00  0.00     0.049 A 
ATOM     52  C   UNL A   1      44.059  25.680  29.059  1.00  0.00     0.074 A 
ATOM     53  C   UNL A   1      45.987  31.020  31.894  1.00  0.00     0.029 A 
ATOM     54  N   UNL A   1      44.810  29.459  30.832  1.00  0.00    -0.354 N 
ATOM     55  N   UNL A   1      44.370  26.822  29.625  1.00  0.00    -0.248 NA
ATOM     56  C   UNL A   1      45.167  24.715  28.994  1.00  0.00     0.031 C 
ATOM     57  C   UNL A   1      46.815  29.913  31.672  1.00  0.00     0.029 A 
ATOM     58  C   UNL A   1      46.075  28.932  31.033  1.00  0.00     0.049 A 
ATOM     59  H   UNL A   1      44.067  28.989  30.389  1.00  0.00     0.167 HD
ATOM     60  C   UNL A   1      45.701  26.703  30.010  1.00  0.00     0.074 A 
ATOM     61  C   UNL A   1      46.133  25.376  29.620  1.00  0.00     0.031 C 
ATOM     62  C   UNL A   1      46.491  27.610  30.636  1.00  0.00     0.031 A 
BRANCH  49  63
ATOM     63  C   UNL A   1      43.675  32.990  31.845  1.00  0.00    -0.014 A 
ATOM     64  C   UNL A   1      43.654  33.227  33.232  1.00  0.00     0.010 A 
ATOM     65  C   UNL A   1      43.774  34.083  30.966  1.00  0.00     0.010 A 
ATOM     66  C   UNL A   1      43.663  34.533  33.728  1.00  0.00     0.020 A 
ATOM     67  C   UNL A   1      43.815  35.391  31.459  1.00  0.00     0.020 A 
ATOM     68  C   UNL A   1      43.731  35.607  32.836  1.00  0.00     0.054 A 
BRANCH  68  69
ATOM     69  S   UNL A   1      43.718  37.295  33.503  1.00  0.00     0.124 S 
ATOM     70  O   UNL A   1      42.387  37.371  34.102  1.00  0.00    -0.237 OA
ATOM     71  O   UNL A   1      44.832  37.277  34.449  1.00  0.00    -0.237 OA
ATOM     72  O   UNL A   1      43.920  38.134  32.324  1.00  0.00    -0.744 OA
ENDBRANCH  68  69
ENDBRANCH  49  63
BRANCH  50  73
ATOM     73  C   UNL A   1      42.575  23.872  27.919  1.00  0.00    -0.014 A 
ATOM     74  C   UNL A   1      42.272  22.791  28.764  1.00  0.00     0.010 A 
ATOM     75  C   UNL A   1      42.685  23.650  26.535  1.00  0.00     0.010 A 
ATOM     76  C   UNL A   1      42.088  21.508  28.237  1.00  0.00     0.020 A 
ATOM     77  C   UNL A   1      42.479  22.373  26.002  1.00  0.00     0.020 A 
ATOM     78  C   UNL A   1      42.188  21.309  26.858  1.00  0.00     0.054 A 
BRANCH  78  79
ATOM     79  S   UNL A   1      41.874  19.652  26.190  1.00  0.00     0.124 S 
ATOM     80  O   UNL A   1      40.430  19.678  25.980  1.00  0.00    -0.237 OA
ATOM     81  O   UNL A   1      42.690  19.638  24.979  1.00  0.00    -0.237 OA
ATOM     82  O   UNL A   1      42.337  18.762  27.254  1.00  0.00    -0.744 OA
ENDBRANCH  78  79
ENDBRANCH  50  73
BRANCH  62  83
ATOM     83  C   UNL A   1      47.897  27.187  30.969  1.00  0.00    -0.014 A 
ATOM     84  C   UNL A   1      49.008  27.864  30.435  1.00  0.00     0.010 A 
ATOM     85  C   UNL A   1      48.106  26.126  31.869  1.00  0.00     0.010 A 
ATOM     86  C   UNL A   1      50.305  27.466  30.772  1.00  0.00     0.020 A 
ATOM     87  C   UNL A   1      49.400  25.742  32.228  1.00  0.00     0.020 A 
ATOM     88  C   UNL A   1      50.493  26.406  31.666  1.00  0.00     0.054 A 
BRANCH  88  89
ATOM     89  S   UNL A   1      52.183  25.936  32.123  1.00  0.00     0.124 S 
ATOM     90  O   UNL A   1      52.814  25.762  30.818  1.00  0.00    -0.237 OA
ATOM     91  O   UNL A   1      52.642  27.090  32.894  1.00  0.00    -0.237 OA
ATOM     92  O   UNL A   1      52.005  24.710  32.898  1.00  0.00    -0.744 OA
ENDBRANCH  88  89
ENDBRANCH  62  83
ENDBRANCH  36  37
ENDBRANCH  28  31
ENDBRANCH  26  27
ENDBRANCH  25  26
ENDBRANCH   1  25
TORSDOF 17
ENDMDL
