MODEL 1
REMARK VINA RESULT:     -10.9      0.000      0.000
REMARK SMILES O=C(NCCCCNC(=O)[C@@H]1C[C@@H](O)CN1C(=O)CSc1ccc(F)cc1F)c1ccc(-c2c3nc(c(-c4ccc(S(=O)(=O)[O-])cc4)c4ccc([nH]4)c(-c4ccc(S(=O)(=O)[O-])cc4)c4nc(c(-c5ccc(S(=O)(=O)[O-])cc5)c5ccc2[nH]5)C=C4)C=C3)cc1
REMARK SMILES IDX 6 1 5 2 4 3 3 4 1 5 2 6 29 8 30 9 88 10 31 11 87 12 32 13
REMARK SMILES IDX 33 14 34 15 81 16 35 17 86 18 80 19 82 20 36 21 85 22 79 23
REMARK SMILES IDX 78 24 37 26 67 27 48 28 66 29 49 30 52 31 65 32 83 33 50 34
REMARK SMILES IDX 51 35 64 37 84 38 53 39 38 40 39 41 47 42 40 43 46 44 41 45
REMARK SMILES IDX 42 46 43 47 44 48 45 49 68 50 69 51 77 52 70 53 76 54 71 55
REMARK SMILES IDX 72 56 73 57 74 58 75 59 54 60 55 61 63 62 56 63 62 64 57 65
REMARK SMILES IDX 58 66 59 67 60 68 61 69 7 70 8 71 9 72 10 74 11 75 12 76
REMARK SMILES IDX 16 77 13 78 15 79 17 80 18 81 19 82 20 83 21 84 22 85 27 86
REMARK SMILES IDX 23 87 26 88 28 89 24 90 25 91 14 92
REMARK H PARENT 3 7 82 25 52 36 8 73 14 93
REMARK Flexibility Score: inf
ROOT
ATOM      1  C   UNL A   1      38.172  23.504  26.117  1.00  0.00     0.023 C 
ENDROOT
BRANCH   1   2
ATOM      2  C   UNL A   1      39.295  22.547  26.509  1.00  0.00     0.023 C 
BRANCH   2   3
ATOM      3  C   UNL A   1      40.544  23.210  27.074  1.00  0.00     0.116 C 
BRANCH   3   4
ATOM      4  N   UNL A   1      41.349  23.857  26.048  1.00  0.00    -0.352 N 
ATOM      5  O   UNL A   1      42.297  25.560  24.920  1.00  0.00    -0.269 OA
ATOM      6  C   UNL A   1      41.763  25.164  25.953  1.00  0.00     0.251 C 
ATOM      7  H   UNL A   1      41.639  23.272  25.312  1.00  0.00     0.163 HD
BRANCH   6   8
ATOM      8  C   UNL A   1      41.545  26.097  27.082  1.00  0.00     0.039 A 
ATOM      9  C   UNL A   1      42.370  27.209  27.259  1.00  0.00     0.014 A 
ATOM     10  C   UNL A   1      40.490  25.859  27.969  1.00  0.00     0.014 A 
ATOM     11  C   UNL A   1      42.240  27.994  28.399  1.00  0.00     0.010 A 
ATOM     12  C   UNL A   1      40.307  26.702  29.070  1.00  0.00     0.010 A 
ATOM     13  C   UNL A   1      41.200  27.757  29.312  1.00  0.00    -0.014 A 
BRANCH  13  14
ATOM     14  C   UNL A   1      41.028  28.665  30.474  1.00  0.00     0.031 A 
ATOM     15  C   UNL A   1      41.930  28.581  31.674  1.00  0.00     0.074 A 
ATOM     16  C   UNL A   1      40.043  29.586  30.433  1.00  0.00     0.049 A 
ATOM     17  N   UNL A   1      41.916  29.307  32.764  1.00  0.00    -0.248 NA
ATOM     18  C   UNL A   1      42.975  27.547  31.656  1.00  0.00     0.031 C 
ATOM     19  C   UNL A   1      39.093  29.752  29.329  1.00  0.00     0.029 A 
ATOM     20  N   UNL A   1      39.682  30.556  31.331  1.00  0.00    -0.354 N 
ATOM     21  C   UNL A   1      42.931  28.805  33.570  1.00  0.00     0.074 A 
ATOM     22  C   UNL A   1      43.528  27.699  32.852  1.00  0.00     0.031 C 
ATOM     23  C   UNL A   1      38.280  30.783  29.602  1.00  0.00     0.029 A 
ATOM     24  C   UNL A   1      38.610  31.311  30.920  1.00  0.00     0.049 A 
ATOM     25  H   UNL A   1      40.146  30.698  32.188  1.00  0.00     0.167 HD
ATOM     26  C   UNL A   1      43.329  29.229  34.795  1.00  0.00     0.031 A 
ATOM     27  C   UNL A   1      37.944  32.303  31.539  1.00  0.00     0.031 A 
ATOM     28  C   UNL A   1      42.728  30.330  35.505  1.00  0.00     0.049 A 
ATOM     29  C   UNL A   1      38.392  32.745  32.900  1.00  0.00     0.074 A 
ATOM     30  C   UNL A   1      43.089  30.862  36.731  1.00  0.00     0.029 A 
ATOM     31  N   UNL A   1      41.635  31.060  35.059  1.00  0.00    -0.354 N 
ATOM     32  N   UNL A   1      39.387  32.290  33.624  1.00  0.00    -0.248 NA
ATOM     33  C   UNL A   1      37.635  33.836  33.526  1.00  0.00     0.031 C 
ATOM     34  C   UNL A   1      42.181  31.878  37.052  1.00  0.00     0.029 A 
ATOM     35  C   UNL A   1      41.289  32.017  36.000  1.00  0.00     0.049 A 
ATOM     36  H   UNL A   1      41.173  30.917  34.202  1.00  0.00     0.167 HD
ATOM     37  C   UNL A   1      39.381  33.044  34.791  1.00  0.00     0.074 A 
ATOM     38  C   UNL A   1      38.298  33.999  34.665  1.00  0.00     0.031 C 
ATOM     39  C   UNL A   1      40.199  32.951  35.867  1.00  0.00     0.031 A 
BRANCH  26  40
ATOM     40  C   UNL A   1      44.448  28.472  35.464  1.00  0.00    -0.014 A 
ATOM     41  C   UNL A   1      44.202  27.300  36.201  1.00  0.00     0.010 A 
ATOM     42  C   UNL A   1      45.773  28.927  35.327  1.00  0.00     0.010 A 
ATOM     43  C   UNL A   1      45.254  26.626  36.831  1.00  0.00     0.020 A 
ATOM     44  C   UNL A   1      46.829  28.243  35.934  1.00  0.00     0.020 A 
ATOM     45  C   UNL A   1      46.560  27.108  36.702  1.00  0.00     0.054 A 
BRANCH  45  46
ATOM     46  S   UNL A   1      47.905  26.220  37.534  1.00  0.00     0.124 S 
ATOM     47  O   UNL A   1      48.991  27.197  37.473  1.00  0.00    -0.237 OA
ATOM     48  O   UNL A   1      47.356  25.975  38.865  1.00  0.00    -0.237 OA
ATOM     49  O   UNL A   1      48.095  25.027  36.712  1.00  0.00    -0.744 OA
ENDBRANCH  45  46
ENDBRANCH  26  40
BRANCH  27  50
ATOM     50  C   UNL A   1      36.768  32.916  30.867  1.00  0.00    -0.014 A 
ATOM     51  C   UNL A   1      35.464  32.651  31.315  1.00  0.00     0.010 A 
ATOM     52  C   UNL A   1      36.961  33.830  29.814  1.00  0.00     0.010 A 
ATOM     53  C   UNL A   1      34.371  33.291  30.721  1.00  0.00     0.020 A 
ATOM     54  C   UNL A   1      35.874  34.491  29.238  1.00  0.00     0.020 A 
ATOM     55  C   UNL A   1      34.585  34.212  29.691  1.00  0.00     0.054 A 
BRANCH  55  56
ATOM     56  S   UNL A   1      33.162  35.097  28.995  1.00  0.00     0.124 S 
ATOM     57  O   UNL A   1      32.353  35.352  30.183  1.00  0.00    -0.237 OA
ATOM     58  O   UNL A   1      33.785  36.271  28.390  1.00  0.00    -0.237 OA
ATOM     59  O   UNL A   1      32.598  34.142  28.045  1.00  0.00    -0.744 OA
ENDBRANCH  55  56
ENDBRANCH  27  50
BRANCH  39  60
ATOM     60  C   UNL A   1      39.961  33.919  36.995  1.00  0.00    -0.014 A 
ATOM     61  C   UNL A   1      40.521  35.208  36.975  1.00  0.00     0.010 A 
ATOM     62  C   UNL A   1      39.125  33.549  38.064  1.00  0.00     0.010 A 
ATOM     63  C   UNL A   1      40.270  36.102  38.018  1.00  0.00     0.020 A 
ATOM     64  C   UNL A   1      38.851  34.449  39.096  1.00  0.00     0.020 A 
ATOM     65  C   UNL A   1      39.436  35.716  39.074  1.00  0.00     0.054 A 
BRANCH  65  66
ATOM     66  S   UNL A   1      39.086  36.911  40.393  1.00  0.00     0.124 S 
ATOM     67  O   UNL A   1      40.420  37.182  40.919  1.00  0.00    -0.237 OA
ATOM     68  O   UNL A   1      38.459  38.015  39.669  1.00  0.00    -0.237 OA
ATOM     69  O   UNL A   1      38.197  36.180  41.293  1.00  0.00    -0.744 OA
ENDBRANCH  65  66
ENDBRANCH  39  60
ENDBRANCH  13  14
ENDBRANCH   6   8
ENDBRANCH   3   4
ENDBRANCH   2   3
ENDBRANCH   1   2
BRANCH   1  70
ATOM     70  C   UNL A   1      36.831  22.857  25.785  1.00  0.00     0.116 C 
BRANCH  70  71
ATOM     71  N   UNL A   1      36.431  22.991  24.400  1.00  0.00    -0.354 N 
ATOM     72  C   UNL A   1      35.179  23.065  23.858  1.00  0.00     0.242 C 
ATOM     73  H   UNL A   1      37.171  23.036  23.753  1.00  0.00     0.163 HD
ATOM     74  O   UNL A   1      35.092  23.582  22.740  1.00  0.00    -0.273 OA
BRANCH  72  75
ATOM     75  C   UNL A   1      33.902  22.664  24.632  1.00  0.00     0.177 C 
ATOM     76  C   UNL A   1      33.295  21.341  24.159  1.00  0.00     0.069 C 
ATOM     77  N   UNL A   1      32.810  23.642  24.553  1.00  0.00    -0.327 N 
ATOM     78  C   UNL A   1      31.797  21.524  24.386  1.00  0.00     0.136 C 
ATOM     79  C   UNL A   1      31.554  23.016  24.153  1.00  0.00     0.152 C 
BRANCH  77  80
ATOM     80  C   UNL A   1      32.941  24.855  25.197  1.00  0.00     0.233 C 
ATOM     81  O   UNL A   1      32.773  24.929  26.419  1.00  0.00    -0.274 OA
BRANCH  80  82
ATOM     82  C   UNL A   1      33.193  26.128  24.404  1.00  0.00     0.175 C 
BRANCH  82  83
ATOM     83  S   UNL A   1      32.002  27.480  24.680  1.00  0.00    -0.113 SA
BRANCH  83  84
ATOM     84  C   UNL A   1      32.835  28.672  25.722  1.00  0.00     0.044 A 
ATOM     85  C   UNL A   1      34.043  28.228  26.291  1.00  0.00     0.021 A 
ATOM     86  C   UNL A   1      32.380  29.945  26.083  1.00  0.00     0.139 A 
ATOM     87  C   UNL A   1      34.749  29.026  27.197  1.00  0.00     0.040 A 
ATOM     88  C   UNL A   1      33.071  30.743  26.993  1.00  0.00     0.079 A 
ATOM     89  F   UNL A   1      31.243  30.442  25.590  1.00  0.00    -0.206 F 
ATOM     90  C   UNL A   1      34.250  30.273  27.546  1.00  0.00     0.126 A 
ATOM     91  F   UNL A   1      34.911  31.024  28.434  1.00  0.00    -0.207 F 
ENDBRANCH  83  84
ENDBRANCH  82  83
ENDBRANCH  80  82
ENDBRANCH  77  80
BRANCH  78  92
ATOM     92  O   UNL A   1      31.459  21.169  25.726  1.00  0.00    -0.391 OA
ATOM     93  H   UNL A   1      30.838  21.822  26.087  1.00  0.00     0.211 HD
ENDBRANCH  78  92
ENDBRANCH  72  75
ENDBRANCH  70  71
ENDBRANCH   1  70
TORSDOF 19
ENDMDL
MODEL 2
REMARK VINA RESULT:     -10.8      1.272      2.035
REMARK SMILES O=C(NCCCCNC(=O)[C@@H]1C[C@@H](O)CN1C(=O)CSc1ccc(F)cc1F)c1ccc(-c2c3nc(c(-c4ccc(S(=O)(=O)[O-])cc4)c4ccc([nH]4)c(-c4ccc(S(=O)(=O)[O-])cc4)c4nc(c(-c5ccc(S(=O)(=O)[O-])cc5)c5ccc2[nH]5)C=C4)C=C3)cc1
REMARK SMILES IDX 6 1 5 2 4 3 3 4 1 5 2 6 29 8 30 9 88 10 31 11 87 12 32 13
REMARK SMILES IDX 33 14 34 15 81 16 35 17 86 18 80 19 82 20 36 21 85 22 79 23
REMARK SMILES IDX 78 24 37 26 67 27 48 28 66 29 49 30 52 31 65 32 83 33 50 34
REMARK SMILES IDX 51 35 64 37 84 38 53 39 38 40 39 41 47 42 40 43 46 44 41 45
REMARK SMILES IDX 42 46 43 47 44 48 45 49 68 50 69 51 77 52 70 53 76 54 71 55
REMARK SMILES IDX 72 56 73 57 74 58 75 59 54 60 55 61 63 62 56 63 62 64 57 65
REMARK SMILES IDX 58 66 59 67 60 68 61 69 7 70 8 71 9 72 10 74 11 75 12 76
REMARK SMILES IDX 16 77 13 78 15 79 17 80 18 81 19 82 20 83 21 84 22 85 27 86
REMARK SMILES IDX 23 87 26 88 28 89 24 90 25 91 14 92
REMARK H PARENT 3 7 82 25 52 36 8 73 14 93
REMARK Flexibility Score: inf
ROOT
ATOM      1  C   UNL A   1      39.126  22.929  26.252  1.00  0.00     0.023 C 
ENDROOT
BRANCH   1   2
ATOM      2  C   UNL A   1      40.309  22.208  26.892  1.00  0.00     0.023 C 
BRANCH   2   3
ATOM      3  C   UNL A   1      41.527  23.079  27.171  1.00  0.00     0.116 C 
BRANCH   3   4
ATOM      4  N   UNL A   1      41.883  23.925  26.040  1.00  0.00    -0.352 N 
ATOM      5  O   UNL A   1      42.080  25.828  24.853  1.00  0.00    -0.269 OA
ATOM      6  C   UNL A   1      41.917  25.296  25.948  1.00  0.00     0.251 C 
ATOM      7  H   UNL A   1      42.134  23.444  25.219  1.00  0.00     0.163 HD
BRANCH   6   8
ATOM      8  C   UNL A   1      41.735  26.128  27.159  1.00  0.00     0.039 A 
ATOM      9  C   UNL A   1      40.689  25.874  28.048  1.00  0.00     0.014 A 
ATOM     10  C   UNL A   1      42.632  27.170  27.412  1.00  0.00     0.014 A 
ATOM     11  C   UNL A   1      40.449  26.749  29.103  1.00  0.00     0.010 A 
ATOM     12  C   UNL A   1      42.438  27.998  28.523  1.00  0.00     0.010 A 
ATOM     13  C   UNL A   1      41.327  27.813  29.359  1.00  0.00    -0.014 A 
BRANCH  13  14
ATOM     14  C   UNL A   1      41.098  28.678  30.545  1.00  0.00     0.031 A 
ATOM     15  C   UNL A   1      41.956  28.564  31.775  1.00  0.00     0.074 A 
ATOM     16  C   UNL A   1      40.103  29.587  30.498  1.00  0.00     0.049 A 
ATOM     17  N   UNL A   1      41.890  29.251  32.887  1.00  0.00    -0.248 NA
ATOM     18  C   UNL A   1      43.015  27.544  31.760  1.00  0.00     0.031 C 
ATOM     19  C   UNL A   1      39.194  29.780  29.365  1.00  0.00     0.029 A 
ATOM     20  N   UNL A   1      39.694  30.521  31.414  1.00  0.00    -0.354 N 
ATOM     21  C   UNL A   1      42.882  28.734  33.714  1.00  0.00     0.074 A 
ATOM     22  C   UNL A   1      43.520  27.661  32.982  1.00  0.00     0.031 C 
ATOM     23  C   UNL A   1      38.357  30.790  29.641  1.00  0.00     0.029 A 
ATOM     24  C   UNL A   1      38.629  31.275  30.989  1.00  0.00     0.049 A 
ATOM     25  H   UNL A   1      40.124  30.638  32.293  1.00  0.00     0.167 HD
ATOM     26  C   UNL A   1      43.227  29.120  34.967  1.00  0.00     0.031 A 
ATOM     27  C   UNL A   1      37.926  32.237  31.616  1.00  0.00     0.031 A 
ATOM     28  C   UNL A   1      42.584  30.188  35.691  1.00  0.00     0.049 A 
ATOM     29  C   UNL A   1      38.317  32.637  33.007  1.00  0.00     0.074 A 
ATOM     30  C   UNL A   1      42.891  30.682  36.947  1.00  0.00     0.029 A 
ATOM     31  N   UNL A   1      41.499  30.919  35.229  1.00  0.00    -0.354 N 
ATOM     32  N   UNL A   1      39.289  32.170  33.752  1.00  0.00    -0.248 NA
ATOM     33  C   UNL A   1      37.520  33.696  33.641  1.00  0.00     0.031 C 
ATOM     34  C   UNL A   1      41.957  31.675  37.268  1.00  0.00     0.029 A 
ATOM     35  C   UNL A   1      41.104  31.839  36.188  1.00  0.00     0.049 A 
ATOM     36  H   UNL A   1      41.071  30.800  34.351  1.00  0.00     0.167 HD
ATOM     37  C   UNL A   1      39.229  32.882  34.943  1.00  0.00     0.074 A 
ATOM     38  C   UNL A   1      38.137  33.827  34.809  1.00  0.00     0.031 C 
ATOM     39  C   UNL A   1      40.007  32.763  36.046  1.00  0.00     0.031 A 
BRANCH  26  40
ATOM     40  C   UNL A   1      44.330  28.355  35.652  1.00  0.00    -0.014 A 
ATOM     41  C   UNL A   1      44.055  27.241  36.465  1.00  0.00     0.010 A 
ATOM     42  C   UNL A   1      45.669  28.741  35.453  1.00  0.00     0.010 A 
ATOM     43  C   UNL A   1      45.093  26.559  37.108  1.00  0.00     0.020 A 
ATOM     44  C   UNL A   1      46.711  28.046  36.074  1.00  0.00     0.020 A 
ATOM     45  C   UNL A   1      46.415  26.973  36.916  1.00  0.00     0.054 A 
BRANCH  45  46
ATOM     46  S   UNL A   1      47.744  26.076  37.766  1.00  0.00     0.124 S 
ATOM     47  O   UNL A   1      46.990  25.112  38.565  1.00  0.00    -0.237 OA
ATOM     48  O   UNL A   1      48.511  25.510  36.659  1.00  0.00    -0.237 OA
ATOM     49  O   UNL A   1      48.431  27.115  38.529  1.00  0.00    -0.744 OA
ENDBRANCH  45  46
ENDBRANCH  26  40
BRANCH  27  50
ATOM     50  C   UNL A   1      36.768  32.859  30.921  1.00  0.00    -0.014 A 
ATOM     51  C   UNL A   1      35.452  32.574  31.319  1.00  0.00     0.010 A 
ATOM     52  C   UNL A   1      36.988  33.799  29.896  1.00  0.00     0.010 A 
ATOM     53  C   UNL A   1      34.374  33.220  30.706  1.00  0.00     0.020 A 
ATOM     54  C   UNL A   1      35.915  34.466  29.301  1.00  0.00     0.020 A 
ATOM     55  C   UNL A   1      34.614  34.168  29.705  1.00  0.00     0.054 A 
BRANCH  55  56
ATOM     56  S   UNL A   1      33.207  35.059  28.985  1.00  0.00     0.124 S 
ATOM     57  O   UNL A   1      33.858  36.225  28.396  1.00  0.00    -0.237 OA
ATOM     58  O   UNL A   1      32.669  34.088  28.036  1.00  0.00    -0.237 OA
ATOM     59  O   UNL A   1      32.351  35.333  30.136  1.00  0.00    -0.744 OA
ENDBRANCH  55  56
ENDBRANCH  27  50
BRANCH  39  60
ATOM     60  C   UNL A   1      39.713  33.687  37.197  1.00  0.00    -0.014 A 
ATOM     61  C   UNL A   1      38.885  33.283  38.258  1.00  0.00     0.010 A 
ATOM     62  C   UNL A   1      40.315  34.958  37.238  1.00  0.00     0.010 A 
ATOM     63  C   UNL A   1      38.642  34.145  39.331  1.00  0.00     0.020 A 
ATOM     64  C   UNL A   1      40.094  35.813  38.321  1.00  0.00     0.020 A 
ATOM     65  C   UNL A   1      39.249  35.406  39.355  1.00  0.00     0.054 A 
BRANCH  65  66
ATOM     66  S   UNL A   1      38.958  36.489  40.781  1.00  0.00     0.124 S 
ATOM     67  O   UNL A   1      37.906  35.772  41.497  1.00  0.00    -0.237 OA
ATOM     68  O   UNL A   1      40.262  36.512  41.439  1.00  0.00    -0.237 OA
ATOM     69  O   UNL A   1      38.549  37.754  40.176  1.00  0.00    -0.744 OA
ENDBRANCH  65  66
ENDBRANCH  39  60
ENDBRANCH  13  14
ENDBRANCH   6   8
ENDBRANCH   3   4
ENDBRANCH   2   3
ENDBRANCH   1   2
BRANCH   1  70
ATOM     70  C   UNL A   1      37.969  22.044  25.803  1.00  0.00     0.116 C 
BRANCH  70  71
ATOM     71  N   UNL A   1      37.483  22.329  24.469  1.00  0.00    -0.354 N 
ATOM     72  C   UNL A   1      36.200  22.378  24.000  1.00  0.00     0.242 C 
ATOM     73  H   UNL A   1      38.181  22.517  23.801  1.00  0.00     0.163 HD
ATOM     74  O   UNL A   1      36.015  23.031  22.968  1.00  0.00    -0.273 OA
BRANCH  72  75
ATOM     75  C   UNL A   1      35.001  21.780  24.771  1.00  0.00     0.177 C 
ATOM     76  C   UNL A   1      35.053  20.255  24.889  1.00  0.00     0.069 C 
ATOM     77  N   UNL A   1      33.689  22.078  24.182  1.00  0.00    -0.327 N 
ATOM     78  C   UNL A   1      33.585  19.838  24.894  1.00  0.00     0.136 C 
ATOM     79  C   UNL A   1      32.891  20.870  24.005  1.00  0.00     0.152 C 
BRANCH  77  80
ATOM     80  C   UNL A   1      33.205  23.369  24.229  1.00  0.00     0.233 C 
ATOM     81  O   UNL A   1      33.277  24.020  25.276  1.00  0.00    -0.274 OA
BRANCH  80  82
ATOM     82  C   UNL A   1      32.490  23.971  23.028  1.00  0.00     0.175 C 
BRANCH  82  83
ATOM     83  S   UNL A   1      33.218  25.503  22.362  1.00  0.00    -0.113 SA
BRANCH  83  84
ATOM     84  C   UNL A   1      32.238  26.847  23.022  1.00  0.00     0.044 A 
ATOM     85  C   UNL A   1      31.060  27.135  22.308  1.00  0.00     0.021 A 
ATOM     86  C   UNL A   1      32.556  27.673  24.106  1.00  0.00     0.139 A 
ATOM     87  C   UNL A   1      30.249  28.218  22.662  1.00  0.00     0.040 A 
ATOM     88  C   UNL A   1      31.760  28.761  24.460  1.00  0.00     0.079 A 
ATOM     89  F   UNL A   1      33.655  27.470  24.834  1.00  0.00    -0.206 F 
ATOM     90  C   UNL A   1      30.614  29.027  23.730  1.00  0.00     0.126 A 
ATOM     91  F   UNL A   1      29.853  30.079  24.052  1.00  0.00    -0.207 F 
ENDBRANCH  83  84
ENDBRANCH  82  83
ENDBRANCH  80  82
ENDBRANCH  77  80
BRANCH  78  92
ATOM     92  O   UNL A   1      33.067  19.896  26.222  1.00  0.00    -0.391 OA
ATOM     93  H   UNL A   1      32.109  19.737  26.203  1.00  0.00     0.211 HD
ENDBRANCH  78  92
ENDBRANCH  72  75
ENDBRANCH  70  71
ENDBRANCH   1  70
TORSDOF 19
ENDMDL
MODEL 3
REMARK VINA RESULT:     -10.7      4.403     10.017
REMARK SMILES O=C(NCCCCNC(=O)[C@@H]1C[C@@H](O)CN1C(=O)CSc1ccc(F)cc1F)c1ccc(-c2c3nc(c(-c4ccc(S(=O)(=O)[O-])cc4)c4ccc([nH]4)c(-c4ccc(S(=O)(=O)[O-])cc4)c4nc(c(-c5ccc(S(=O)(=O)[O-])cc5)c5ccc2[nH]5)C=C4)C=C3)cc1
REMARK SMILES IDX 6 1 5 2 4 3 3 4 1 5 2 6 29 8 30 9 88 10 31 11 87 12 32 13
REMARK SMILES IDX 33 14 34 15 81 16 35 17 86 18 80 19 82 20 36 21 85 22 79 23
REMARK SMILES IDX 78 24 37 26 67 27 48 28 66 29 49 30 52 31 65 32 83 33 50 34
REMARK SMILES IDX 51 35 64 37 84 38 53 39 38 40 39 41 47 42 40 43 46 44 41 45
REMARK SMILES IDX 42 46 43 47 44 48 45 49 68 50 69 51 77 52 70 53 76 54 71 55
REMARK SMILES IDX 72 56 73 57 74 58 75 59 54 60 55 61 63 62 56 63 62 64 57 65
REMARK SMILES IDX 58 66 59 67 60 68 61 69 7 70 8 71 9 72 10 74 11 75 12 76
REMARK SMILES IDX 16 77 13 78 15 79 17 80 18 81 19 82 20 83 21 84 22 85 27 86
REMARK SMILES IDX 23 87 26 88 28 89 24 90 25 91 14 92
REMARK H PARENT 3 7 82 25 52 36 8 73 14 93
REMARK Flexibility Score: inf
ROOT
ATOM      1  C   UNL A   1      33.539  28.941  24.248  1.00  0.00     0.023 C 
ENDROOT
BRANCH   1   2
ATOM      2  C   UNL A   1      33.586  27.733  25.180  1.00  0.00     0.023 C 
BRANCH   2   3
ATOM      3  C   UNL A   1      34.047  28.028  26.601  1.00  0.00     0.116 C 
BRANCH   3   4
ATOM      4  N   UNL A   1      33.747  29.391  27.017  1.00  0.00    -0.352 N 
ATOM      5  O   UNL A   1      34.001  31.318  28.155  1.00  0.00    -0.269 OA
ATOM      6  C   UNL A   1      34.500  30.265  27.763  1.00  0.00     0.251 C 
ATOM      7  H   UNL A   1      32.874  29.736  26.722  1.00  0.00     0.163 HD
BRANCH   6   8
ATOM      8  C   UNL A   1      35.899  29.930  28.114  1.00  0.00     0.039 A 
ATOM      9  C   UNL A   1      36.226  29.480  29.394  1.00  0.00     0.014 A 
ATOM     10  C   UNL A   1      36.896  30.060  27.142  1.00  0.00     0.014 A 
ATOM     11  C   UNL A   1      37.559  29.305  29.747  1.00  0.00     0.010 A 
ATOM     12  C   UNL A   1      38.229  29.800  27.475  1.00  0.00     0.010 A 
ATOM     13  C   UNL A   1      38.575  29.451  28.790  1.00  0.00    -0.014 A 
BRANCH  13  14
ATOM     14  C   UNL A   1      39.983  29.170  29.170  1.00  0.00     0.031 A 
ATOM     15  C   UNL A   1      40.832  30.208  29.851  1.00  0.00     0.074 A 
ATOM     16  C   UNL A   1      40.493  27.951  28.902  1.00  0.00     0.049 A 
ATOM     17  N   UNL A   1      42.074  30.116  30.254  1.00  0.00    -0.248 NA
ATOM     18  C   UNL A   1      40.215  31.519  30.102  1.00  0.00     0.031 C 
ATOM     19  C   UNL A   1      39.770  26.867  28.231  1.00  0.00     0.029 A 
ATOM     20  N   UNL A   1      41.726  27.415  29.166  1.00  0.00    -0.354 N 
ATOM     21  C   UNL A   1      42.397  31.360  30.787  1.00  0.00     0.074 A 
ATOM     22  C   UNL A   1      41.224  32.196  30.635  1.00  0.00     0.031 C 
ATOM     23  C   UNL A   1      40.562  25.787  28.165  1.00  0.00     0.029 A 
ATOM     24  C   UNL A   1      41.863  26.119  28.732  1.00  0.00     0.049 A 
ATOM     25  H   UNL A   1      42.444  27.911  29.622  1.00  0.00     0.167 HD
ATOM     26  C   UNL A   1      43.561  31.765  31.350  1.00  0.00     0.031 A 
ATOM     27  C   UNL A   1      42.923  25.288  28.762  1.00  0.00     0.031 A 
ATOM     28  C   UNL A   1      44.724  30.927  31.495  1.00  0.00     0.049 A 
ATOM     29  C   UNL A   1      44.205  25.764  29.377  1.00  0.00     0.074 A 
ATOM     30  C   UNL A   1      45.936  31.233  32.091  1.00  0.00     0.029 A 
ATOM     31  N   UNL A   1      44.827  29.624  31.030  1.00  0.00    -0.354 N 
ATOM     32  N   UNL A   1      44.472  26.927  29.919  1.00  0.00    -0.248 NA
ATOM     33  C   UNL A   1      45.326  24.816  29.388  1.00  0.00     0.031 C 
ATOM     34  C   UNL A   1      46.789  30.133  31.939  1.00  0.00     0.029 A 
ATOM     35  C   UNL A   1      46.091  29.122  31.298  1.00  0.00     0.049 A 
ATOM     36  H   UNL A   1      44.108  29.129  30.575  1.00  0.00     0.167 HD
ATOM     37  C   UNL A   1      45.793  26.851  30.346  1.00  0.00     0.074 A 
ATOM     38  C   UNL A   1      46.261  25.519  30.017  1.00  0.00     0.031 C 
ATOM     39  C   UNL A   1      46.547  27.799  30.953  1.00  0.00     0.031 A 
BRANCH  26  40
ATOM     40  C   UNL A   1      43.646  33.195  31.819  1.00  0.00    -0.014 A 
ATOM     41  C   UNL A   1      44.149  34.211  30.987  1.00  0.00     0.010 A 
ATOM     42  C   UNL A   1      43.188  33.531  33.106  1.00  0.00     0.010 A 
ATOM     43  C   UNL A   1      44.239  35.527  31.452  1.00  0.00     0.020 A 
ATOM     44  C   UNL A   1      43.252  34.850  33.565  1.00  0.00     0.020 A 
ATOM     45  C   UNL A   1      43.799  35.836  32.742  1.00  0.00     0.054 A 
BRANCH  45  46
ATOM     46  S   UNL A   1      43.932  37.550  33.324  1.00  0.00     0.124 S 
ATOM     47  O   UNL A   1      43.772  38.301  32.080  1.00  0.00    -0.237 OA
ATOM     48  O   UNL A   1      42.823  37.657  34.269  1.00  0.00    -0.237 OA
ATOM     49  O   UNL A   1      45.264  37.611  33.921  1.00  0.00    -0.744 OA
ENDBRANCH  45  46
ENDBRANCH  26  40
BRANCH  27  50
ATOM     50  C   UNL A   1      42.799  23.934  28.163  1.00  0.00    -0.014 A 
ATOM     51  C   UNL A   1      42.388  22.838  28.940  1.00  0.00     0.010 A 
ATOM     52  C   UNL A   1      43.027  23.753  26.786  1.00  0.00     0.010 A 
ATOM     53  C   UNL A   1      42.206  21.584  28.349  1.00  0.00     0.020 A 
ATOM     54  C   UNL A   1      42.818  22.508  26.188  1.00  0.00     0.020 A 
ATOM     55  C   UNL A   1      42.414  21.429  26.975  1.00  0.00     0.054 A 
BRANCH  55  56
ATOM     56  S   UNL A   1      42.086  19.816  26.212  1.00  0.00     0.124 S 
ATOM     57  O   UNL A   1      42.482  18.894  27.272  1.00  0.00    -0.237 OA
ATOM     58  O   UNL A   1      40.654  19.883  25.935  1.00  0.00    -0.237 OA
ATOM     59  O   UNL A   1      42.942  19.818  25.029  1.00  0.00    -0.744 OA
ENDBRANCH  55  56
ENDBRANCH  27  50
BRANCH  39  60
ATOM     60  C   UNL A   1      47.959  27.425  31.314  1.00  0.00    -0.014 A 
ATOM     61  C   UNL A   1      48.243  26.722  32.498  1.00  0.00     0.010 A 
ATOM     62  C   UNL A   1      49.008  27.738  30.432  1.00  0.00     0.010 A 
ATOM     63  C   UNL A   1      49.557  26.362  32.806  1.00  0.00     0.020 A 
ATOM     64  C   UNL A   1      50.320  27.358  30.724  1.00  0.00     0.020 A 
ATOM     65  C   UNL A   1      50.588  26.682  31.917  1.00  0.00     0.054 A 
BRANCH  65  66
ATOM     66  S   UNL A   1      52.279  26.161  32.315  1.00  0.00     0.124 S 
ATOM     67  O   UNL A   1      52.701  27.193  33.258  1.00  0.00    -0.237 OA
ATOM     68  O   UNL A   1      52.081  24.832  32.885  1.00  0.00    -0.237 OA
ATOM     69  O   UNL A   1      52.960  26.182  31.022  1.00  0.00    -0.744 OA
ENDBRANCH  65  66
ENDBRANCH  39  60
ENDBRANCH  13  14
ENDBRANCH   6   8
ENDBRANCH   3   4
ENDBRANCH   2   3
ENDBRANCH   1   2
BRANCH   1  70
ATOM     70  C   UNL A   1      32.883  28.710  22.891  1.00  0.00     0.116 C 
BRANCH  70  71
ATOM     71  N   UNL A   1      33.343  27.523  22.200  1.00  0.00    -0.354 N 
ATOM     72  C   UNL A   1      32.654  26.397  21.849  1.00  0.00     0.242 C 
ATOM     73  H   UNL A   1      34.294  27.529  21.946  1.00  0.00     0.163 HD
ATOM     74  O   UNL A   1      33.131  25.723  20.929  1.00  0.00    -0.273 OA
BRANCH  72  75
ATOM     75  C   UNL A   1      31.277  26.032  22.450  1.00  0.00     0.177 C 
ATOM     76  C   UNL A   1      30.394  27.251  22.729  1.00  0.00     0.069 C 
ATOM     77  N   UNL A   1      31.342  25.301  23.721  1.00  0.00    -0.327 N 
ATOM     78  C   UNL A   1      29.572  26.835  23.946  1.00  0.00     0.136 C 
ATOM     79  C   UNL A   1      30.503  25.919  24.742  1.00  0.00     0.152 C 
BRANCH  77  80
ATOM     80  C   UNL A   1      31.803  24.000  23.730  1.00  0.00     0.233 C 
ATOM     81  O   UNL A   1      31.137  23.104  23.202  1.00  0.00    -0.274 OA
BRANCH  80  82
ATOM     82  C   UNL A   1      33.080  23.637  24.472  1.00  0.00     0.175 C 
BRANCH  82  83
ATOM     83  S   UNL A   1      34.386  22.862  23.466  1.00  0.00    -0.113 SA
BRANCH  83  84
ATOM     84  C   UNL A   1      35.880  22.937  24.447  1.00  0.00     0.044 A 
ATOM     85  C   UNL A   1      36.751  21.842  24.297  1.00  0.00     0.021 A 
ATOM     86  C   UNL A   1      36.227  23.914  25.387  1.00  0.00     0.139 A 
ATOM     87  C   UNL A   1      37.909  21.730  25.072  1.00  0.00     0.040 A 
ATOM     88  C   UNL A   1      37.374  23.806  26.172  1.00  0.00     0.079 A 
ATOM     89  F   UNL A   1      35.456  24.984  25.593  1.00  0.00    -0.206 F 
ATOM     90  C   UNL A   1      38.204  22.710  26.010  1.00  0.00     0.126 A 
ATOM     91  F   UNL A   1      39.298  22.589  26.771  1.00  0.00    -0.207 F 
ENDBRANCH  83  84
ENDBRANCH  82  83
ENDBRANCH  80  82
ENDBRANCH  77  80
BRANCH  78  92
ATOM     92  O   UNL A   1      28.409  26.122  23.529  1.00  0.00    -0.391 OA
ATOM     93  H   UNL A   1      28.675  25.325  23.043  1.00  0.00     0.211 HD
ENDBRANCH  78  92
ENDBRANCH  72  75
ENDBRANCH  70  71
ENDBRANCH   1  70
TORSDOF 19
ENDMDL
