MODEL 1
REMARK VINA RESULT:     -12.7      0.000      0.000
REMARK SMILES Cc1cc(C)c2c(CCCC(=O)NCCCCNC(=O)c3ccc(-c4c5nc(c(-c6ccc(S(=O)(=O)[O-])cc6)c6ccc([nH]6)c(-c6ccc(S(=O)(=O)[O-])cc6)c6nc(c(-c7ccc(S(=O)(=O)[O-])cc7)c7ccc4[nH]7)C=C6)C=C5)cc3)c(-c3ccccn3)[nH]c2c1
REMARK SMILES IDX 15 1 14 2 13 3 11 4 12 5 10 7 9 8 8 9 7 10 1 11 2 12 3 13
REMARK SMILES IDX 90 14 4 15 89 16 5 17 6 18 88 19 81 20 82 22 83 23 87 24
REMARK SMILES IDX 84 25 86 26 85 27 16 28 17 29 18 30 19 31 20 33 21 34 22 35
REMARK SMILES IDX 80 36 23 37 79 38 24 39 25 40 26 41 73 42 27 43 78 44 72 45
REMARK SMILES IDX 74 46 28 47 77 48 71 49 70 50 29 52 59 53 40 54 58 55 41 56
REMARK SMILES IDX 44 57 57 58 75 59 42 60 43 61 56 63 76 64 45 65 30 66 31 67
REMARK SMILES IDX 39 68 32 69 38 70 33 71 34 72 35 73 36 74 37 75 60 76 61 77
REMARK SMILES IDX 69 78 62 79 68 80 63 81 64 82 65 83 66 84 67 85 46 86 47 87
REMARK SMILES IDX 55 88 48 89 54 90 49 91 50 92 51 93 52 94 53 95
REMARK H PARENT 13 6 88 21 18 32 74 51 44 62
REMARK Flexibility Score: inf
ROOT
ATOM      1  C   UNL A   1      37.073  22.550  24.499  1.00  0.00     0.023 C 
ENDROOT
BRANCH   1   2
ATOM      2  C   UNL A   1      36.656  23.595  25.538  1.00  0.00     0.116 C 
BRANCH   2   3
ATOM      3  N   UNL A   1      35.790  23.033  26.550  1.00  0.00    -0.356 N 
ATOM      4  C   UNL A   1      34.477  23.235  26.830  1.00  0.00     0.220 C 
ATOM      5  O   UNL A   1      34.020  22.615  27.798  1.00  0.00    -0.275 OA
ATOM      6  H   UNL A   1      36.233  22.386  27.143  1.00  0.00     0.163 HD
BRANCH   4   7
ATOM      7  C   UNL A   1      33.545  24.058  25.960  1.00  0.00     0.100 C 
BRANCH   7   8
ATOM      8  C   UNL A   1      33.640  25.565  25.824  1.00  0.00     0.015 C 
BRANCH   8   9
ATOM      9  C   UNL A   1      32.495  26.489  26.201  1.00  0.00     0.039 C 
BRANCH   9  10
ATOM     10  C   UNL A   1      32.201  27.852  25.601  1.00  0.00    -0.013 A 
ATOM     11  C   UNL A   1      28.022  29.571  22.011  1.00  0.00     0.044 C 
ATOM     12  C   UNL A   1      29.065  29.061  22.961  1.00  0.00    -0.049 A 
ATOM     13  C   UNL A   1      29.038  27.724  23.359  1.00  0.00     0.007 A 
ATOM     14  C   UNL A   1      30.063  29.904  23.451  1.00  0.00     0.030 A 
ATOM     15  C   UNL A   1      29.993  27.178  24.248  1.00  0.00    -0.041 A 
ATOM     16  C   UNL A   1      31.022  29.361  24.314  1.00  0.00     0.047 A 
ATOM     17  C   UNL A   1      29.800  25.740  24.658  1.00  0.00     0.045 C 
ATOM     18  C   UNL A   1      31.044  28.027  24.712  1.00  0.00     0.006 A 
ATOM     19  N   UNL A   1      32.065  29.984  24.941  1.00  0.00    -0.353 N 
ATOM     20  C   UNL A   1      32.711  29.141  25.816  1.00  0.00     0.068 A 
ATOM     21  H   UNL A   1      32.323  30.921  24.784  1.00  0.00     0.167 HD
BRANCH  20  22
ATOM     22  C   UNL A   1      33.613  29.763  26.784  1.00  0.00     0.087 A 
ATOM     23  C   UNL A   1      34.775  29.100  27.187  1.00  0.00     0.030 A 
ATOM     24  N   UNL A   1      33.255  30.974  27.256  1.00  0.00    -0.255 NA
ATOM     25  C   UNL A   1      35.674  29.760  28.020  1.00  0.00     0.004 A 
ATOM     26  C   UNL A   1      34.156  31.594  28.063  1.00  0.00     0.112 A 
ATOM     27  C   UNL A   1      35.372  31.046  28.445  1.00  0.00     0.020 A 
ENDBRANCH  20  22
ENDBRANCH   9  10
ENDBRANCH   8   9
ENDBRANCH   7   8
ENDBRANCH   4   7
ENDBRANCH   2   3
ENDBRANCH   1   2
BRANCH   1  28
ATOM     28  C   UNL A   1      37.971  21.434  25.038  1.00  0.00     0.023 C 
BRANCH  28  29
ATOM     29  C   UNL A   1      38.912  21.881  26.151  1.00  0.00     0.116 C 
BRANCH  29  30
ATOM     30  N   UNL A   1      40.320  21.628  25.849  1.00  0.00    -0.352 N 
ATOM     31  C   UNL A   1      41.367  22.533  25.921  1.00  0.00     0.251 C 
ATOM     32  H   UNL A   1      40.549  20.715  25.563  1.00  0.00     0.163 HD
ATOM     33  O   UNL A   1      42.395  22.365  25.298  1.00  0.00    -0.269 OA
BRANCH  31  34
ATOM     34  C   UNL A   1      41.182  23.717  26.783  1.00  0.00     0.039 A 
ATOM     35  C   UNL A   1      41.859  23.833  27.997  1.00  0.00     0.014 A 
ATOM     36  C   UNL A   1      40.389  24.755  26.296  1.00  0.00     0.014 A 
ATOM     37  C   UNL A   1      41.820  25.054  28.671  1.00  0.00     0.010 A 
ATOM     38  C   UNL A   1      40.443  25.989  26.906  1.00  0.00     0.010 A 
ATOM     39  C   UNL A   1      41.140  26.146  28.104  1.00  0.00    -0.014 A 
BRANCH  39  40
ATOM     40  C   UNL A   1      41.255  27.474  28.709  1.00  0.00     0.031 A 
ATOM     41  C   UNL A   1      42.356  28.339  28.193  1.00  0.00     0.074 A 
ATOM     42  C   UNL A   1      40.346  28.008  29.552  1.00  0.00     0.049 A 
ATOM     43  N   UNL A   1      43.455  28.657  28.793  1.00  0.00    -0.248 NA
ATOM     44  C   UNL A   1      42.271  28.831  26.809  1.00  0.00     0.031 C 
ATOM     45  C   UNL A   1      39.050  27.461  29.969  1.00  0.00     0.029 A 
ATOM     46  N   UNL A   1      40.359  29.234  30.145  1.00  0.00    -0.354 N 
ATOM     47  C   UNL A   1      44.108  29.564  27.961  1.00  0.00     0.074 A 
ATOM     48  C   UNL A   1      43.420  29.503  26.694  1.00  0.00     0.031 C 
ATOM     49  C   UNL A   1      38.310  28.435  30.543  1.00  0.00     0.029 A 
ATOM     50  C   UNL A   1      39.150  29.605  30.713  1.00  0.00     0.049 A 
ATOM     51  H   UNL A   1      41.160  29.807  30.169  1.00  0.00     0.167 HD
ATOM     52  C   UNL A   1      45.013  30.462  28.448  1.00  0.00     0.031 A 
ATOM     53  C   UNL A   1      38.853  30.791  31.295  1.00  0.00     0.031 A 
ATOM     54  C   UNL A   1      45.390  30.157  29.805  1.00  0.00     0.049 A 
ATOM     55  C   UNL A   1      40.134  31.388  31.734  1.00  0.00     0.074 A 
ATOM     56  C   UNL A   1      45.979  29.089  30.451  1.00  0.00     0.029 A 
ATOM     57  N   UNL A   1      44.805  30.920  30.790  1.00  0.00    -0.354 N 
ATOM     58  N   UNL A   1      40.887  30.860  32.659  1.00  0.00    -0.248 NA
ATOM     59  C   UNL A   1      40.790  32.361  30.878  1.00  0.00     0.031 C 
ATOM     60  C   UNL A   1      45.322  29.017  31.716  1.00  0.00     0.029 A 
ATOM     61  C   UNL A   1      44.411  30.073  31.791  1.00  0.00     0.049 A 
ATOM     62  H   UNL A   1      44.691  31.898  30.777  1.00  0.00     0.167 HD
ATOM     63  C   UNL A   1      42.187  31.101  32.240  1.00  0.00     0.074 A 
ATOM     64  C   UNL A   1      42.062  32.132  31.214  1.00  0.00     0.031 C 
ATOM     65  C   UNL A   1      43.204  30.252  32.573  1.00  0.00     0.031 A 
BRANCH  52  66
ATOM     66  C   UNL A   1      45.242  31.846  27.875  1.00  0.00    -0.014 A 
ATOM     67  C   UNL A   1      46.568  32.250  27.599  1.00  0.00     0.010 A 
ATOM     68  C   UNL A   1      44.261  32.856  27.893  1.00  0.00     0.010 A 
ATOM     69  C   UNL A   1      46.908  33.603  27.469  1.00  0.00     0.020 A 
ATOM     70  C   UNL A   1      44.582  34.205  27.717  1.00  0.00     0.020 A 
ATOM     71  C   UNL A   1      45.912  34.574  27.557  1.00  0.00     0.054 A 
BRANCH  71  72
ATOM     72  S   UNL A   1      46.377  36.323  27.557  1.00  0.00     0.124 S 
ATOM     73  O   UNL A   1      46.138  36.693  28.948  1.00  0.00    -0.237 OA
ATOM     74  O   UNL A   1      47.776  36.271  27.144  1.00  0.00    -0.237 OA
ATOM     75  O   UNL A   1      45.466  36.917  26.582  1.00  0.00    -0.744 OA
ENDBRANCH  71  72
ENDBRANCH  52  66
BRANCH  53  76
ATOM     76  C   UNL A   1      37.578  31.541  31.241  1.00  0.00    -0.014 A 
ATOM     77  C   UNL A   1      36.460  31.113  31.980  1.00  0.00     0.010 A 
ATOM     78  C   UNL A   1      37.549  32.841  30.695  1.00  0.00     0.010 A 
ATOM     79  C   UNL A   1      35.389  31.984  32.237  1.00  0.00     0.020 A 
ATOM     80  C   UNL A   1      36.480  33.711  30.939  1.00  0.00     0.020 A 
ATOM     81  C   UNL A   1      35.420  33.288  31.736  1.00  0.00     0.054 A 
BRANCH  81  82
ATOM     82  S   UNL A   1      34.131  34.466  32.241  1.00  0.00     0.124 S 
ATOM     83  O   UNL A   1      33.425  34.710  30.987  1.00  0.00    -0.237 OA
ATOM     84  O   UNL A   1      33.391  33.711  33.248  1.00  0.00    -0.237 OA
ATOM     85  O   UNL A   1      34.890  35.603  32.758  1.00  0.00    -0.744 OA
ENDBRANCH  81  82
ENDBRANCH  53  76
BRANCH  65  86
ATOM     86  C   UNL A   1      42.971  29.242  33.673  1.00  0.00    -0.014 A 
ATOM     87  C   UNL A   1      43.289  29.476  35.026  1.00  0.00     0.010 A 
ATOM     88  C   UNL A   1      42.252  28.080  33.344  1.00  0.00     0.010 A 
ATOM     89  C   UNL A   1      42.905  28.562  36.019  1.00  0.00     0.020 A 
ATOM     90  C   UNL A   1      41.853  27.174  34.330  1.00  0.00     0.020 A 
ATOM     91  C   UNL A   1      42.183  27.417  35.664  1.00  0.00     0.054 A 
BRANCH  91  92
ATOM     92  S   UNL A   1      41.628  26.275  36.960  1.00  0.00     0.124 S 
ATOM     93  O   UNL A   1      41.400  25.039  36.220  1.00  0.00    -0.237 OA
ATOM     94  O   UNL A   1      42.762  26.256  37.882  1.00  0.00    -0.237 OA
ATOM     95  O   UNL A   1      40.422  26.910  37.492  1.00  0.00    -0.744 OA
ENDBRANCH  91  92
ENDBRANCH  65  86
ENDBRANCH  39  40
ENDBRANCH  31  34
ENDBRANCH  29  30
ENDBRANCH  28  29
ENDBRANCH   1  28
TORSDOF 18
ENDMDL
MODEL 2
REMARK VINA RESULT:     -12.6      2.745      9.636
REMARK SMILES Cc1cc(C)c2c(CCCC(=O)NCCCCNC(=O)c3ccc(-c4c5nc(c(-c6ccc(S(=O)(=O)[O-])cc6)c6ccc([nH]6)c(-c6ccc(S(=O)(=O)[O-])cc6)c6nc(c(-c7ccc(S(=O)(=O)[O-])cc7)c7ccc4[nH]7)C=C6)C=C5)cc3)c(-c3ccccn3)[nH]c2c1
REMARK SMILES IDX 15 1 14 2 13 3 11 4 12 5 10 7 9 8 8 9 7 10 1 11 2 12 3 13
REMARK SMILES IDX 90 14 4 15 89 16 5 17 6 18 88 19 81 20 82 22 83 23 87 24
REMARK SMILES IDX 84 25 86 26 85 27 16 28 17 29 18 30 19 31 20 33 21 34 22 35
REMARK SMILES IDX 80 36 23 37 79 38 24 39 25 40 26 41 73 42 27 43 78 44 72 45
REMARK SMILES IDX 74 46 28 47 77 48 71 49 70 50 29 52 59 53 40 54 58 55 41 56
REMARK SMILES IDX 44 57 57 58 75 59 42 60 43 61 56 63 76 64 45 65 30 66 31 67
REMARK SMILES IDX 39 68 32 69 38 70 33 71 34 72 35 73 36 74 37 75 60 76 61 77
REMARK SMILES IDX 69 78 62 79 68 80 63 81 64 82 65 83 66 84 67 85 46 86 47 87
REMARK SMILES IDX 55 88 48 89 54 90 49 91 50 92 51 93 52 94 53 95
REMARK H PARENT 13 6 88 21 18 32 74 51 44 62
REMARK Flexibility Score: inf
ROOT
ATOM      1  C   UNL A   1      32.344  28.978  26.404  1.00  0.00     0.023 C 
ENDROOT
BRANCH   1   2
ATOM      2  C   UNL A   1      31.911  27.873  27.372  1.00  0.00     0.116 C 
BRANCH   2   3
ATOM      3  N   UNL A   1      31.062  26.895  26.728  1.00  0.00    -0.356 N 
ATOM      4  C   UNL A   1      31.338  25.697  26.154  1.00  0.00     0.220 C 
ATOM      5  O   UNL A   1      30.382  25.095  25.650  1.00  0.00    -0.275 OA
ATOM      6  H   UNL A   1      30.111  27.145  26.701  1.00  0.00     0.163 HD
BRANCH   4   7
ATOM      7  C   UNL A   1      32.697  25.024  26.215  1.00  0.00     0.100 C 
BRANCH   7   8
ATOM      8  C   UNL A   1      33.880  25.450  25.367  1.00  0.00     0.015 C 
BRANCH   8   9
ATOM      9  C   UNL A   1      34.698  24.459  24.555  1.00  0.00     0.039 C 
BRANCH   9  10
ATOM     10  C   UNL A   1      35.010  23.023  24.936  1.00  0.00    -0.013 A 
ATOM     11  C   UNL A   1      32.240  18.109  23.715  1.00  0.00     0.044 C 
ATOM     12  C   UNL A   1      32.921  19.421  23.973  1.00  0.00    -0.049 A 
ATOM     13  C   UNL A   1      32.384  20.592  23.438  1.00  0.00     0.007 A 
ATOM     14  C   UNL A   1      34.084  19.486  24.743  1.00  0.00     0.030 A 
ATOM     15  C   UNL A   1      32.974  21.860  23.646  1.00  0.00    -0.041 A 
ATOM     16  C   UNL A   1      34.657  20.743  24.969  1.00  0.00     0.047 A 
ATOM     17  C   UNL A   1      32.337  23.032  22.943  1.00  0.00     0.045 C 
ATOM     18  C   UNL A   1      34.135  21.936  24.474  1.00  0.00     0.006 A 
ATOM     19  N   UNL A   1      35.797  21.058  25.654  1.00  0.00    -0.353 N 
ATOM     20  C   UNL A   1      36.106  22.394  25.545  1.00  0.00     0.068 A 
ATOM     21  H   UNL A   1      36.331  20.407  26.165  1.00  0.00     0.167 HD
BRANCH  20  22
ATOM     22  C   UNL A   1      37.456  22.792  25.940  1.00  0.00     0.087 A 
ATOM     23  C   UNL A   1      37.713  24.106  26.337  1.00  0.00     0.030 A 
ATOM     24  N   UNL A   1      38.410  21.840  25.884  1.00  0.00    -0.255 NA
ATOM     25  C   UNL A   1      38.979  24.431  26.816  1.00  0.00     0.004 A 
ATOM     26  C   UNL A   1      39.633  22.187  26.363  1.00  0.00     0.112 A 
ATOM     27  C   UNL A   1      39.953  23.444  26.857  1.00  0.00     0.020 A 
ENDBRANCH  20  22
ENDBRANCH   9  10
ENDBRANCH   8   9
ENDBRANCH   7   8
ENDBRANCH   4   7
ENDBRANCH   2   3
ENDBRANCH   1   2
BRANCH   1  28
ATOM     28  C   UNL A   1      32.308  30.392  26.988  1.00  0.00     0.023 C 
BRANCH  28  29
ATOM     29  C   UNL A   1      33.687  31.013  27.189  1.00  0.00     0.116 C 
BRANCH  29  30
ATOM     30  N   UNL A   1      33.721  31.998  28.269  1.00  0.00    -0.352 N 
ATOM     31  C   UNL A   1      34.618  32.053  29.323  1.00  0.00     0.251 C 
ATOM     32  H   UNL A   1      33.031  32.699  28.243  1.00  0.00     0.163 HD
ATOM     33  O   UNL A   1      34.350  32.637  30.354  1.00  0.00    -0.269 OA
BRANCH  31  34
ATOM     34  C   UNL A   1      35.913  31.366  29.150  1.00  0.00     0.039 A 
ATOM     35  C   UNL A   1      37.095  32.091  29.000  1.00  0.00     0.014 A 
ATOM     36  C   UNL A   1      35.925  29.975  29.242  1.00  0.00     0.014 A 
ATOM     37  C   UNL A   1      38.309  31.408  29.053  1.00  0.00     0.010 A 
ATOM     38  C   UNL A   1      37.126  29.320  29.404  1.00  0.00     0.010 A 
ATOM     39  C   UNL A   1      38.326  30.024  29.293  1.00  0.00    -0.014 A 
BRANCH  39  40
ATOM     40  C   UNL A   1      39.596  29.338  29.539  1.00  0.00     0.031 A 
ATOM     41  C   UNL A   1      39.937  29.079  30.968  1.00  0.00     0.074 A 
ATOM     42  C   UNL A   1      40.363  28.788  28.574  1.00  0.00     0.049 A 
ATOM     43  N   UNL A   1      40.838  29.671  31.682  1.00  0.00    -0.248 NA
ATOM     44  C   UNL A   1      39.119  28.117  31.723  1.00  0.00     0.031 C 
ATOM     45  C   UNL A   1      40.083  28.666  27.139  1.00  0.00     0.029 A 
ATOM     46  N   UNL A   1      41.541  28.119  28.709  1.00  0.00    -0.354 N 
ATOM     47  C   UNL A   1      40.857  29.016  32.911  1.00  0.00     0.074 A 
ATOM     48  C   UNL A   1      39.675  28.188  32.935  1.00  0.00     0.031 C 
ATOM     49  C   UNL A   1      40.934  27.772  26.586  1.00  0.00     0.029 A 
ATOM     50  C   UNL A   1      41.932  27.419  27.577  1.00  0.00     0.049 A 
ATOM     51  H   UNL A   1      42.071  28.132  29.539  1.00  0.00     0.167 HD
ATOM     52  C   UNL A   1      41.960  29.027  33.713  1.00  0.00     0.031 A 
ATOM     53  C   UNL A   1      43.009  26.609  27.451  1.00  0.00     0.031 A 
ATOM     54  C   UNL A   1      42.931  29.996  33.272  1.00  0.00     0.049 A 
ATOM     55  C   UNL A   1      43.985  27.028  28.482  1.00  0.00     0.074 A 
ATOM     56  C   UNL A   1      42.950  31.364  33.089  1.00  0.00     0.029 A 
ATOM     57  N   UNL A   1      44.016  29.506  32.579  1.00  0.00    -0.354 N 
ATOM     58  N   UNL A   1      44.572  28.192  28.479  1.00  0.00    -0.248 NA
ATOM     59  C   UNL A   1      44.025  26.315  29.748  1.00  0.00     0.031 C 
ATOM     60  C   UNL A   1      43.753  31.568  31.926  1.00  0.00     0.029 A 
ATOM     61  C   UNL A   1      44.221  30.323  31.500  1.00  0.00     0.049 A 
ATOM     62  H   UNL A   1      44.547  28.712  32.817  1.00  0.00     0.167 HD
ATOM     63  C   UNL A   1      44.673  28.544  29.817  1.00  0.00     0.074 A 
ATOM     64  C   UNL A   1      44.439  27.301  30.547  1.00  0.00     0.031 C 
ATOM     65  C   UNL A   1      44.668  29.854  30.203  1.00  0.00     0.031 A 
BRANCH  52  66
ATOM     66  C   UNL A   1      42.365  27.892  34.633  1.00  0.00    -0.014 A 
ATOM     67  C   UNL A   1      42.485  28.155  36.016  1.00  0.00     0.010 A 
ATOM     68  C   UNL A   1      42.926  26.688  34.164  1.00  0.00     0.010 A 
ATOM     69  C   UNL A   1      43.228  27.317  36.857  1.00  0.00     0.020 A 
ATOM     70  C   UNL A   1      43.629  25.821  35.005  1.00  0.00     0.020 A 
ATOM     71  C   UNL A   1      43.819  26.167  36.337  1.00  0.00     0.054 A 
BRANCH  71  72
ATOM     72  S   UNL A   1      44.915  25.182  37.386  1.00  0.00     0.124 S 
ATOM     73  O   UNL A   1      44.315  25.373  38.703  1.00  0.00    -0.237 OA
ATOM     74  O   UNL A   1      44.775  23.847  36.812  1.00  0.00    -0.237 OA
ATOM     75  O   UNL A   1      46.222  25.805  37.193  1.00  0.00    -0.744 OA
ENDBRANCH  71  72
ENDBRANCH  52  66
BRANCH  53  76
ATOM     76  C   UNL A   1      43.118  25.346  26.688  1.00  0.00    -0.014 A 
ATOM     77  C   UNL A   1      43.454  25.358  25.322  1.00  0.00     0.010 A 
ATOM     78  C   UNL A   1      43.180  24.114  27.372  1.00  0.00     0.010 A 
ATOM     79  C   UNL A   1      43.918  24.196  24.684  1.00  0.00     0.020 A 
ATOM     80  C   UNL A   1      43.633  22.950  26.740  1.00  0.00     0.020 A 
ATOM     81  C   UNL A   1      44.030  23.005  25.406  1.00  0.00     0.054 A 
BRANCH  81  82
ATOM     82  S   UNL A   1      44.820  21.564  24.629  1.00  0.00     0.124 S 
ATOM     83  O   UNL A   1      43.957  20.468  25.060  1.00  0.00    -0.237 OA
ATOM     84  O   UNL A   1      44.759  21.898  23.209  1.00  0.00    -0.237 OA
ATOM     85  O   UNL A   1      46.164  21.558  25.204  1.00  0.00    -0.744 OA
ENDBRANCH  81  82
ENDBRANCH  53  76
BRANCH  65  86
ATOM     86  C   UNL A   1      44.893  30.918  29.154  1.00  0.00    -0.014 A 
ATOM     87  C   UNL A   1      46.130  31.133  28.515  1.00  0.00     0.010 A 
ATOM     88  C   UNL A   1      43.766  31.613  28.684  1.00  0.00     0.010 A 
ATOM     89  C   UNL A   1      46.234  32.030  27.440  1.00  0.00     0.020 A 
ATOM     90  C   UNL A   1      43.859  32.495  27.605  1.00  0.00     0.020 A 
ATOM     91  C   UNL A   1      45.093  32.702  26.989  1.00  0.00     0.054 A 
BRANCH  91  92
ATOM     92  S   UNL A   1      45.219  33.807  25.554  1.00  0.00     0.124 S 
ATOM     93  O   UNL A   1      46.651  34.079  25.485  1.00  0.00    -0.237 OA
ATOM     94  O   UNL A   1      44.681  32.989  24.468  1.00  0.00    -0.237 OA
ATOM     95  O   UNL A   1      44.388  34.953  25.921  1.00  0.00    -0.744 OA
ENDBRANCH  91  92
ENDBRANCH  65  86
ENDBRANCH  39  40
ENDBRANCH  31  34
ENDBRANCH  29  30
ENDBRANCH  28  29
ENDBRANCH   1  28
TORSDOF 18
ENDMDL
MODEL 3
REMARK VINA RESULT:     -12.5      2.963      9.989
REMARK SMILES Cc1cc(C)c2c(CCCC(=O)NCCCCNC(=O)c3ccc(-c4c5nc(c(-c6ccc(S(=O)(=O)[O-])cc6)c6ccc([nH]6)c(-c6ccc(S(=O)(=O)[O-])cc6)c6nc(c(-c7ccc(S(=O)(=O)[O-])cc7)c7ccc4[nH]7)C=C6)C=C5)cc3)c(-c3ccccn3)[nH]c2c1
REMARK SMILES IDX 15 1 14 2 13 3 11 4 12 5 10 7 9 8 8 9 7 10 1 11 2 12 3 13
REMARK SMILES IDX 90 14 4 15 89 16 5 17 6 18 88 19 81 20 82 22 83 23 87 24
REMARK SMILES IDX 84 25 86 26 85 27 16 28 17 29 18 30 19 31 20 33 21 34 22 35
REMARK SMILES IDX 80 36 23 37 79 38 24 39 25 40 26 41 73 42 27 43 78 44 72 45
REMARK SMILES IDX 74 46 28 47 77 48 71 49 70 50 29 52 59 53 40 54 58 55 41 56
REMARK SMILES IDX 44 57 57 58 75 59 42 60 43 61 56 63 76 64 45 65 30 66 31 67
REMARK SMILES IDX 39 68 32 69 38 70 33 71 34 72 35 73 36 74 37 75 60 76 61 77
REMARK SMILES IDX 69 78 62 79 68 80 63 81 64 82 65 83 66 84 67 85 46 86 47 87
REMARK SMILES IDX 55 88 48 89 54 90 49 91 50 92 51 93 52 94 53 95
REMARK H PARENT 13 6 88 21 18 32 74 51 44 62
REMARK Flexibility Score: inf
ROOT
ATOM      1  C   UNL A   1      31.792  28.147  26.360  1.00  0.00     0.023 C 
ENDROOT
BRANCH   1   2
ATOM      2  C   UNL A   1      31.764  26.778  25.673  1.00  0.00     0.116 C 
BRANCH   2   3
ATOM      3  N   UNL A   1      31.144  25.771  26.504  1.00  0.00    -0.356 N 
ATOM      4  C   UNL A   1      30.816  24.476  26.263  1.00  0.00     0.220 C 
ATOM      5  O   UNL A   1      30.257  23.870  27.185  1.00  0.00    -0.275 OA
ATOM      6  H   UNL A   1      30.920  26.081  27.410  1.00  0.00     0.163 HD
BRANCH   4   7
ATOM      7  C   UNL A   1      31.207  23.726  25.003  1.00  0.00     0.100 C 
BRANCH   7   8
ATOM      8  C   UNL A   1      31.913  22.384  25.014  1.00  0.00     0.015 C 
BRANCH   8   9
ATOM      9  C   UNL A   1      33.097  22.081  24.112  1.00  0.00     0.039 C 
BRANCH   9  10
ATOM     10  C   UNL A   1      34.393  21.405  24.522  1.00  0.00    -0.013 A 
ATOM     11  C   UNL A   1      39.342  23.618  26.503  1.00  0.00     0.044 C 
ATOM     12  C   UNL A   1      38.020  23.110  26.007  1.00  0.00    -0.049 A 
ATOM     13  C   UNL A   1      36.989  24.014  25.748  1.00  0.00     0.007 A 
ATOM     14  C   UNL A   1      37.807  21.747  25.799  1.00  0.00     0.030 A 
ATOM     15  C   UNL A   1      35.721  23.603  25.276  1.00  0.00    -0.041 A 
ATOM     16  C   UNL A   1      36.560  21.339  25.310  1.00  0.00     0.047 A 
ATOM     17  C   UNL A   1      34.672  24.674  25.115  1.00  0.00     0.045 C 
ATOM     18  C   UNL A   1      35.517  22.213  25.015  1.00  0.00     0.006 A 
ATOM     19  N   UNL A   1      36.107  20.074  25.059  1.00  0.00    -0.353 N 
ATOM     20  C   UNL A   1      34.776  20.068  24.710  1.00  0.00     0.068 A 
ATOM     21  H   UNL A   1      36.666  19.266  25.120  1.00  0.00     0.167 HD
BRANCH  20  22
ATOM     22  C   UNL A   1      34.092  18.777  24.744  1.00  0.00     0.087 A 
ATOM     23  C   UNL A   1      34.580  17.704  23.994  1.00  0.00     0.030 A 
ATOM     24  N   UNL A   1      32.988  18.696  25.514  1.00  0.00    -0.255 NA
ATOM     25  C   UNL A   1      33.979  16.456  24.132  1.00  0.00     0.004 A 
ATOM     26  C   UNL A   1      32.428  17.463  25.632  1.00  0.00     0.112 A 
ATOM     27  C   UNL A   1      32.897  16.325  24.991  1.00  0.00     0.020 A 
ENDBRANCH  20  22
ENDBRANCH   9  10
ENDBRANCH   8   9
ENDBRANCH   7   8
ENDBRANCH   4   7
ENDBRANCH   2   3
ENDBRANCH   1   2
BRANCH   1  28
ATOM     28  C   UNL A   1      32.976  28.364  27.305  1.00  0.00     0.023 C 
BRANCH  28  29
ATOM     29  C   UNL A   1      34.146  29.108  26.669  1.00  0.00     0.116 C 
BRANCH  29  30
ATOM     30  N   UNL A   1      34.051  30.560  26.816  1.00  0.00    -0.352 N 
ATOM     31  C   UNL A   1      34.695  31.350  27.754  1.00  0.00     0.251 C 
ATOM     32  H   UNL A   1      33.466  31.027  26.177  1.00  0.00     0.163 HD
ATOM     33  O   UNL A   1      34.275  32.449  28.054  1.00  0.00    -0.269 OA
BRANCH  31  34
ATOM     34  C   UNL A   1      35.912  30.801  28.383  1.00  0.00     0.039 A 
ATOM     35  C   UNL A   1      35.927  29.510  28.911  1.00  0.00     0.014 A 
ATOM     36  C   UNL A   1      37.069  31.577  28.340  1.00  0.00     0.014 A 
ATOM     37  C   UNL A   1      37.148  28.960  29.300  1.00  0.00     0.010 A 
ATOM     38  C   UNL A   1      38.285  30.993  28.621  1.00  0.00     0.010 A 
ATOM     39  C   UNL A   1      38.335  29.690  29.119  1.00  0.00    -0.014 A 
BRANCH  39  40
ATOM     40  C   UNL A   1      39.631  29.049  29.347  1.00  0.00     0.031 A 
ATOM     41  C   UNL A   1      40.048  28.896  30.771  1.00  0.00     0.074 A 
ATOM     42  C   UNL A   1      40.363  28.450  28.384  1.00  0.00     0.049 A 
ATOM     43  N   UNL A   1      40.968  29.553  31.397  1.00  0.00    -0.248 NA
ATOM     44  C   UNL A   1      39.291  27.971  31.629  1.00  0.00     0.031 C 
ATOM     45  C   UNL A   1      40.017  28.223  26.976  1.00  0.00     0.029 A 
ATOM     46  N   UNL A   1      41.562  27.815  28.504  1.00  0.00    -0.354 N 
ATOM     47  C   UNL A   1      41.063  28.984  32.665  1.00  0.00     0.074 A 
ATOM     48  C   UNL A   1      39.903  28.137  32.805  1.00  0.00     0.031 C 
ATOM     49  C   UNL A   1      40.860  27.311  26.443  1.00  0.00     0.029 A 
ATOM     50  C   UNL A   1      41.913  27.047  27.404  1.00  0.00     0.049 A 
ATOM     51  H   UNL A   1      42.131  27.895  29.304  1.00  0.00     0.167 HD
ATOM     52  C   UNL A   1      42.203  29.073  33.408  1.00  0.00     0.031 A 
ATOM     53  C   UNL A   1      43.002  26.252  27.280  1.00  0.00     0.031 A 
ATOM     54  C   UNL A   1      43.129  30.028  32.854  1.00  0.00     0.049 A 
ATOM     55  C   UNL A   1      44.017  26.760  28.230  1.00  0.00     0.074 A 
ATOM     56  C   UNL A   1      43.106  31.380  32.578  1.00  0.00     0.029 A 
ATOM     57  N   UNL A   1      44.189  29.514  32.143  1.00  0.00    -0.354 N 
ATOM     58  N   UNL A   1      44.576  27.933  28.118  1.00  0.00    -0.248 NA
ATOM     59  C   UNL A   1      44.135  26.136  29.537  1.00  0.00     0.031 C 
ATOM     60  C   UNL A   1      43.847  31.521  31.366  1.00  0.00     0.029 A 
ATOM     61  C   UNL A   1      44.322  30.259  31.002  1.00  0.00     0.049 A 
ATOM     62  H   UNL A   1      44.750  28.749  32.407  1.00  0.00     0.167 HD
ATOM     63  C   UNL A   1      44.734  28.377  29.422  1.00  0.00     0.074 A 
ATOM     64  C   UNL A   1      44.565  27.184  30.245  1.00  0.00     0.031 C 
ATOM     65  C   UNL A   1      44.717  29.711  29.719  1.00  0.00     0.031 A 
BRANCH  52  66
ATOM     66  C   UNL A   1      42.679  28.012  34.381  1.00  0.00    -0.014 A 
ATOM     67  C   UNL A   1      43.048  28.410  35.685  1.00  0.00     0.010 A 
ATOM     68  C   UNL A   1      43.069  26.720  33.977  1.00  0.00     0.010 A 
ATOM     69  C   UNL A   1      43.864  27.606  36.492  1.00  0.00     0.020 A 
ATOM     70  C   UNL A   1      43.843  25.891  34.793  1.00  0.00     0.020 A 
ATOM     71  C   UNL A   1      44.278  26.360  36.026  1.00  0.00     0.054 A 
BRANCH  71  72
ATOM     72  S   UNL A   1      45.466  25.401  36.998  1.00  0.00     0.124 S 
ATOM     73  O   UNL A   1      44.610  24.835  38.036  1.00  0.00    -0.237 OA
ATOM     74  O   UNL A   1      45.980  24.455  36.012  1.00  0.00    -0.237 OA
ATOM     75  O   UNL A   1      46.425  26.406  37.450  1.00  0.00    -0.744 OA
ENDBRANCH  71  72
ENDBRANCH  52  66
BRANCH  53  76
ATOM     76  C   UNL A   1      43.103  24.941  26.599  1.00  0.00    -0.014 A 
ATOM     77  C   UNL A   1      43.631  24.846  25.298  1.00  0.00     0.010 A 
ATOM     78  C   UNL A   1      42.954  23.750  27.340  1.00  0.00     0.010 A 
ATOM     79  C   UNL A   1      44.073  23.614  24.789  1.00  0.00     0.020 A 
ATOM     80  C   UNL A   1      43.384  22.519  26.835  1.00  0.00     0.020 A 
ATOM     81  C   UNL A   1      43.971  22.462  25.573  1.00  0.00     0.054 A 
BRANCH  81  82
ATOM     82  S   UNL A   1      44.729  20.917  24.988  1.00  0.00     0.124 S 
ATOM     83  O   UNL A   1      44.589  21.032  23.539  1.00  0.00    -0.237 OA
ATOM     84  O   UNL A   1      46.091  21.019  25.502  1.00  0.00    -0.237 OA
ATOM     85  O   UNL A   1      43.911  19.877  25.610  1.00  0.00    -0.744 OA
ENDBRANCH  81  82
ENDBRANCH  53  76
BRANCH  65  86
ATOM     86  C   UNL A   1      44.865  30.705  28.590  1.00  0.00    -0.014 A 
ATOM     87  C   UNL A   1      43.898  30.890  27.582  1.00  0.00     0.010 A 
ATOM     88  C   UNL A   1      45.950  31.596  28.651  1.00  0.00     0.010 A 
ATOM     89  C   UNL A   1      44.024  31.935  26.654  1.00  0.00     0.020 A 
ATOM     90  C   UNL A   1      46.072  32.648  27.740  1.00  0.00     0.020 A 
ATOM     91  C   UNL A   1      45.110  32.812  26.743  1.00  0.00     0.054 A 
BRANCH  91  92
ATOM     92  S   UNL A   1      45.229  34.204  25.585  1.00  0.00     0.124 S 
ATOM     93  O   UNL A   1      44.439  33.741  24.448  1.00  0.00    -0.237 OA
ATOM     94  O   UNL A   1      44.649  35.308  26.346  1.00  0.00    -0.237 OA
ATOM     95  O   UNL A   1      46.664  34.326  25.331  1.00  0.00    -0.744 OA
ENDBRANCH  91  92
ENDBRANCH  65  86
ENDBRANCH  39  40
ENDBRANCH  31  34
ENDBRANCH  29  30
ENDBRANCH  28  29
ENDBRANCH   1  28
TORSDOF 18
ENDMDL
