MODEL 1
REMARK VINA RESULT:     -10.9      0.000      0.000
REMARK SMILES O=C(NCCCCNC(=O)[C@@H]1CCCN(C(=O)[C@H]2CC=CCC2)C1)c1ccc(-c2c3nc(c(-c4ccc(S(=O)(=O)[O-])cc4)c4ccc([nH]4)c(-c4ccc(S(=O)(=O)[O-])cc4)c4nc(c(-c5ccc(S(=O)(=O)[O-])cc5)c5ccc2[nH]5)C=C4)C=C3)cc1
REMARK SMILES IDX 5 1 4 2 3 3 1 4 2 5 25 7 26 8 84 9 27 10 83 11 28 12 29 13
REMARK SMILES IDX 30 14 77 15 31 16 82 17 76 18 78 19 32 20 81 21 75 22 74 23
REMARK SMILES IDX 33 25 63 26 44 27 62 28 45 29 48 30 61 31 79 32 46 33 47 34
REMARK SMILES IDX 60 36 80 37 49 38 34 39 35 40 43 41 36 42 42 43 37 44 38 45
REMARK SMILES IDX 39 46 40 47 41 48 64 49 65 50 73 51 66 52 72 53 67 54 68 55
REMARK SMILES IDX 69 56 70 57 71 58 50 59 51 60 59 61 52 62 58 63 53 64 54 65
REMARK SMILES IDX 55 66 56 67 57 68 6 69 7 70 8 71 9 72 10 74 11 75 12 76
REMARK SMILES IDX 24 77 13 78 15 79 14 80 16 81 17 82 18 83 19 84 23 85 20 86
REMARK SMILES IDX 22 87 21 88
REMARK H PARENT 3 6 78 24 48 35 8 73
REMARK Flexibility Score: inf
ROOT
ATOM      1  C   UNL A   1      32.491  28.226  26.447  1.00  0.00     0.023 C 
ENDROOT
BRANCH   1   2
ATOM      2  C   UNL A   1      33.721  28.655  27.228  1.00  0.00     0.116 C 
BRANCH   2   3
ATOM      3  N   UNL A   1      33.652  30.028  27.713  1.00  0.00    -0.352 N 
ATOM      4  O   UNL A   1      34.406  31.879  28.768  1.00  0.00    -0.269 OA
ATOM      5  C   UNL A   1      34.639  30.762  28.333  1.00  0.00     0.251 C 
ATOM      6  H   UNL A   1      32.792  30.488  27.582  1.00  0.00     0.163 HD
BRANCH   5   7
ATOM      7  C   UNL A   1      35.969  30.143  28.499  1.00  0.00     0.039 A 
ATOM      8  C   UNL A   1      36.329  29.585  29.726  1.00  0.00     0.014 A 
ATOM      9  C   UNL A   1      36.890  30.214  27.452  1.00  0.00     0.014 A 
ATOM     10  C   UNL A   1      37.657  29.265  29.966  1.00  0.00     0.010 A 
ATOM     11  C   UNL A   1      38.206  29.797  27.666  1.00  0.00     0.010 A 
ATOM     12  C   UNL A   1      38.611  29.368  28.939  1.00  0.00    -0.014 A 
BRANCH  12  13
ATOM     13  C   UNL A   1      40.018  28.998  29.229  1.00  0.00     0.031 A 
ATOM     14  C   UNL A   1      40.917  29.910  30.021  1.00  0.00     0.074 A 
ATOM     15  C   UNL A   1      40.463  27.793  28.818  1.00  0.00     0.049 A 
ATOM     16  N   UNL A   1      42.155  29.714  30.400  1.00  0.00    -0.248 NA
ATOM     17  C   UNL A   1      40.365  31.210  30.434  1.00  0.00     0.031 C 
ATOM     18  C   UNL A   1      39.678  26.825  28.047  1.00  0.00     0.029 A 
ATOM     19  N   UNL A   1      41.661  27.163  29.022  1.00  0.00    -0.354 N 
ATOM     20  C   UNL A   1      42.541  30.875  31.060  1.00  0.00     0.074 A 
ATOM     21  C   UNL A   1      41.410  31.777  31.021  1.00  0.00     0.031 C 
ATOM     22  C   UNL A   1      40.388  25.697  27.907  1.00  0.00     0.029 A 
ATOM     23  C   UNL A   1      41.699  25.886  28.514  1.00  0.00     0.049 A 
ATOM     24  H   UNL A   1      42.422  27.582  29.486  1.00  0.00     0.167 HD
ATOM     25  C   UNL A   1      43.732  31.164  31.641  1.00  0.00     0.031 A 
ATOM     26  C   UNL A   1      42.682  24.967  28.529  1.00  0.00     0.031 A 
ATOM     27  C   UNL A   1      44.846  30.253  31.693  1.00  0.00     0.049 A 
ATOM     28  C   UNL A   1      43.984  25.307  29.189  1.00  0.00     0.074 A 
ATOM     29  C   UNL A   1      46.086  30.440  32.281  1.00  0.00     0.029 A 
ATOM     30  N   UNL A   1      44.856  28.981  31.138  1.00  0.00    -0.354 N 
ATOM     31  N   UNL A   1      44.326  26.409  29.811  1.00  0.00    -0.248 NA
ATOM     32  C   UNL A   1      45.032  24.281  29.147  1.00  0.00     0.031 C 
ATOM     33  C   UNL A   1      46.858  29.295  32.051  1.00  0.00     0.029 A 
ATOM     34  C   UNL A   1      46.083  28.377  31.359  1.00  0.00     0.049 A 
ATOM     35  H   UNL A   1      44.102  28.568  30.659  1.00  0.00     0.167 HD
ATOM     36  C   UNL A   1      45.627  26.203  30.252  1.00  0.00     0.074 A 
ATOM     37  C   UNL A   1      46.001  24.864  29.840  1.00  0.00     0.031 C 
ATOM     38  C   UNL A   1      46.438  27.047  30.936  1.00  0.00     0.031 A 
BRANCH  25  39
ATOM     39  C   UNL A   1      43.905  32.537  32.233  1.00  0.00    -0.014 A 
ATOM     40  C   UNL A   1      44.363  33.620  31.461  1.00  0.00     0.010 A 
ATOM     41  C   UNL A   1      43.569  32.756  33.582  1.00  0.00     0.010 A 
ATOM     42  C   UNL A   1      44.521  34.884  32.037  1.00  0.00     0.020 A 
ATOM     43  C   UNL A   1      43.704  34.023  34.157  1.00  0.00     0.020 A 
ATOM     44  C   UNL A   1      44.199  35.076  33.385  1.00  0.00     0.054 A 
BRANCH  44  45
ATOM     45  S   UNL A   1      44.406  36.726  34.109  1.00  0.00     0.124 S 
ATOM     46  O   UNL A   1      45.719  37.113  33.600  1.00  0.00    -0.237 OA
ATOM     47  O   UNL A   1      43.275  37.467  33.556  1.00  0.00    -0.237 OA
ATOM     48  O   UNL A   1      44.342  36.484  35.549  1.00  0.00    -0.744 OA
ENDBRANCH  44  45
ENDBRANCH  25  39
BRANCH  26  49
ATOM     49  C   UNL A   1      42.454  23.640  27.898  1.00  0.00    -0.014 A 
ATOM     50  C   UNL A   1      42.955  23.367  26.614  1.00  0.00     0.010 A 
ATOM     51  C   UNL A   1      41.776  22.628  28.601  1.00  0.00     0.010 A 
ATOM     52  C   UNL A   1      42.775  22.104  26.040  1.00  0.00     0.020 A 
ATOM     53  C   UNL A   1      41.619  21.358  28.043  1.00  0.00     0.020 A 
ATOM     54  C   UNL A   1      42.110  21.108  26.761  1.00  0.00     0.054 A 
BRANCH  54  55
ATOM     55  S   UNL A   1      41.948  19.455  26.030  1.00  0.00     0.124 S 
ATOM     56  O   UNL A   1      40.510  19.365  25.803  1.00  0.00    -0.237 OA
ATOM     57  O   UNL A   1      42.775  19.555  24.829  1.00  0.00    -0.237 OA
ATOM     58  O   UNL A   1      42.477  18.572  27.067  1.00  0.00    -0.744 OA
ENDBRANCH  54  55
ENDBRANCH  26  49
BRANCH  38  59
ATOM     59  C   UNL A   1      47.798  26.526  31.307  1.00  0.00    -0.014 A 
ATOM     60  C   UNL A   1      48.025  25.899  32.545  1.00  0.00     0.010 A 
ATOM     61  C   UNL A   1      48.860  26.650  30.394  1.00  0.00     0.010 A 
ATOM     62  C   UNL A   1      49.302  25.442  32.881  1.00  0.00     0.020 A 
ATOM     63  C   UNL A   1      50.132  26.174  30.715  1.00  0.00     0.020 A 
ATOM     64  C   UNL A   1      50.350  25.590  31.965  1.00  0.00     0.054 A 
BRANCH  64  65
ATOM     65  S   UNL A   1      51.997  24.974  32.411  1.00  0.00     0.124 S 
ATOM     66  O   UNL A   1      51.825  23.530  32.279  1.00  0.00    -0.237 OA
ATOM     67  O   UNL A   1      52.857  25.599  31.410  1.00  0.00    -0.237 OA
ATOM     68  O   UNL A   1      52.187  25.457  33.776  1.00  0.00    -0.744 OA
ENDBRANCH  64  65
ENDBRANCH  38  59
ENDBRANCH  12  13
ENDBRANCH   5   7
ENDBRANCH   2   3
ENDBRANCH   1   2
BRANCH   1  69
ATOM     69  C   UNL A   1      31.463  29.335  26.218  1.00  0.00     0.023 C 
BRANCH  69  70
ATOM     70  C   UNL A   1      31.268  29.734  24.754  1.00  0.00     0.116 C 
BRANCH  70  71
ATOM     71  N   UNL A   1      32.293  29.168  23.905  1.00  0.00    -0.356 N 
ATOM     72  C   UNL A   1      32.312  28.200  22.957  1.00  0.00     0.224 C 
ATOM     73  H   UNL A   1      33.176  29.580  24.046  1.00  0.00     0.163 HD
ATOM     74  O   UNL A   1      33.420  28.026  22.433  1.00  0.00    -0.275 OA
BRANCH  72  75
ATOM     75  C   UNL A   1      31.075  27.453  22.427  1.00  0.00     0.098 C 
ATOM     76  C   UNL A   1      29.962  27.034  23.392  1.00  0.00     0.017 C 
ATOM     77  C   UNL A   1      31.549  26.176  21.675  1.00  0.00     0.133 C 
ATOM     78  C   UNL A   1      30.424  25.946  24.346  1.00  0.00     0.022 C 
ATOM     79  N   UNL A   1      31.927  25.100  22.607  1.00  0.00    -0.342 N 
ATOM     80  C   UNL A   1      30.917  24.738  23.581  1.00  0.00     0.119 C 
BRANCH  79  81
ATOM     81  C   UNL A   1      33.077  24.369  22.359  1.00  0.00     0.226 C 
ATOM     82  O   UNL A   1      33.361  24.016  21.208  1.00  0.00    -0.275 OA
BRANCH  81  83
ATOM     83  C   UNL A   1      34.060  24.021  23.496  1.00  0.00     0.083 C 
ATOM     84  C   UNL A   1      34.305  25.198  24.451  1.00  0.00     0.040 C 
ATOM     85  C   UNL A   1      33.900  22.630  24.129  1.00  0.00     0.018 C 
ATOM     86  C   UNL A   1      33.944  24.974  25.885  1.00  0.00    -0.030 C 
ATOM     87  C   UNL A   1      33.404  22.550  25.579  1.00  0.00     0.028 C 
ATOM     88  C   UNL A   1      33.546  23.800  26.386  1.00  0.00    -0.031 C 
ENDBRANCH  81  83
ENDBRANCH  79  81
ENDBRANCH  72  75
ENDBRANCH  70  71
ENDBRANCH  69  70
ENDBRANCH   1  69
TORSDOF 16
ENDMDL
MODEL 2
REMARK VINA RESULT:     -10.6      1.798      2.607
REMARK SMILES O=C(NCCCCNC(=O)[C@@H]1CCCN(C(=O)[C@H]2CC=CCC2)C1)c1ccc(-c2c3nc(c(-c4ccc(S(=O)(=O)[O-])cc4)c4ccc([nH]4)c(-c4ccc(S(=O)(=O)[O-])cc4)c4nc(c(-c5ccc(S(=O)(=O)[O-])cc5)c5ccc2[nH]5)C=C4)C=C3)cc1
REMARK SMILES IDX 5 1 4 2 3 3 1 4 2 5 25 7 26 8 84 9 27 10 83 11 28 12 29 13
REMARK SMILES IDX 30 14 77 15 31 16 82 17 76 18 78 19 32 20 81 21 75 22 74 23
REMARK SMILES IDX 33 25 63 26 44 27 62 28 45 29 48 30 61 31 79 32 46 33 47 34
REMARK SMILES IDX 60 36 80 37 49 38 34 39 35 40 43 41 36 42 42 43 37 44 38 45
REMARK SMILES IDX 39 46 40 47 41 48 64 49 65 50 73 51 66 52 72 53 67 54 68 55
REMARK SMILES IDX 69 56 70 57 71 58 50 59 51 60 59 61 52 62 58 63 53 64 54 65
REMARK SMILES IDX 55 66 56 67 57 68 6 69 7 70 8 71 9 72 10 74 11 75 12 76
REMARK SMILES IDX 24 77 13 78 15 79 14 80 16 81 17 82 18 83 19 84 23 85 20 86
REMARK SMILES IDX 22 87 21 88
REMARK H PARENT 3 6 78 24 48 35 8 73
REMARK Flexibility Score: inf
ROOT
ATOM      1  C   UNL A   1      33.299  28.121  25.784  1.00  0.00     0.023 C 
ENDROOT
BRANCH   1   2
ATOM      2  C   UNL A   1      33.479  28.421  27.262  1.00  0.00     0.116 C 
BRANCH   2   3
ATOM      3  N   UNL A   1      33.380  29.840  27.583  1.00  0.00    -0.352 N 
ATOM      4  O   UNL A   1      34.101  31.822  28.395  1.00  0.00    -0.269 OA
ATOM      5  C   UNL A   1      34.358  30.667  28.090  1.00  0.00     0.251 C 
ATOM      6  H   UNL A   1      32.505  30.259  27.418  1.00  0.00     0.163 HD
BRANCH   5   7
ATOM      7  C   UNL A   1      35.707  30.106  28.300  1.00  0.00     0.039 A 
ATOM      8  C   UNL A   1      36.076  29.631  29.559  1.00  0.00     0.014 A 
ATOM      9  C   UNL A   1      36.634  30.150  27.256  1.00  0.00     0.014 A 
ATOM     10  C   UNL A   1      37.413  29.374  29.824  1.00  0.00     0.010 A 
ATOM     11  C   UNL A   1      37.961  29.794  27.502  1.00  0.00     0.010 A 
ATOM     12  C   UNL A   1      38.371  29.452  28.800  1.00  0.00    -0.014 A 
BRANCH  12  13
ATOM     13  C   UNL A   1      39.788  29.149  29.119  1.00  0.00     0.031 A 
ATOM     14  C   UNL A   1      40.630  30.109  29.916  1.00  0.00     0.074 A 
ATOM     15  C   UNL A   1      40.294  27.962  28.729  1.00  0.00     0.049 A 
ATOM     16  N   UNL A   1      41.868  29.973  30.320  1.00  0.00    -0.248 NA
ATOM     17  C   UNL A   1      40.012  31.388  30.304  1.00  0.00     0.031 C 
ATOM     18  C   UNL A   1      39.568  26.950  27.956  1.00  0.00     0.029 A 
ATOM     19  N   UNL A   1      41.516  27.388  28.962  1.00  0.00    -0.354 N 
ATOM     20  C   UNL A   1      42.190  31.158  30.973  1.00  0.00     0.074 A 
ATOM     21  C   UNL A   1      41.020  32.007  30.904  1.00  0.00     0.031 C 
ATOM     22  C   UNL A   1      40.330  25.855  27.841  1.00  0.00     0.029 A 
ATOM     23  C   UNL A   1      41.621  26.109  28.470  1.00  0.00     0.049 A 
ATOM     24  H   UNL A   1      42.248  27.847  29.434  1.00  0.00     0.167 HD
ATOM     25  C   UNL A   1      43.356  31.507  31.571  1.00  0.00     0.031 A 
ATOM     26  C   UNL A   1      42.643  25.236  28.512  1.00  0.00     0.031 A 
ATOM     27  C   UNL A   1      44.508  30.648  31.653  1.00  0.00     0.049 A 
ATOM     28  C   UNL A   1      43.917  25.642  29.192  1.00  0.00     0.074 A 
ATOM     29  C   UNL A   1      45.727  30.897  32.262  1.00  0.00     0.029 A 
ATOM     30  N   UNL A   1      44.586  29.372  31.114  1.00  0.00    -0.354 N 
ATOM     31  N   UNL A   1      44.197  26.765  29.807  1.00  0.00    -0.248 NA
ATOM     32  C   UNL A   1      45.010  24.664  29.180  1.00  0.00     0.031 C 
ATOM     33  C   UNL A   1      46.554  29.786  32.058  1.00  0.00     0.029 A 
ATOM     34  C   UNL A   1      45.835  28.826  31.363  1.00  0.00     0.049 A 
ATOM     35  H   UNL A   1      43.860  28.920  30.626  1.00  0.00     0.167 HD
ATOM     36  C   UNL A   1      45.497  26.622  30.273  1.00  0.00     0.074 A 
ATOM     37  C   UNL A   1      45.939  25.298  29.883  1.00  0.00     0.031 C 
ATOM     38  C   UNL A   1      46.257  27.510  30.962  1.00  0.00     0.031 A 
BRANCH  25  39
ATOM     39  C   UNL A   1      43.456  32.893  32.151  1.00  0.00    -0.014 A 
ATOM     40  C   UNL A   1      43.174  33.146  33.505  1.00  0.00     0.010 A 
ATOM     41  C   UNL A   1      43.875  33.956  31.331  1.00  0.00     0.010 A 
ATOM     42  C   UNL A   1      43.268  34.444  34.017  1.00  0.00     0.020 A 
ATOM     43  C   UNL A   1      43.993  35.252  31.843  1.00  0.00     0.020 A 
ATOM     44  C   UNL A   1      43.669  35.491  33.180  1.00  0.00     0.054 A 
BRANCH  44  45
ATOM     45  S   UNL A   1      43.791  37.166  33.868  1.00  0.00     0.124 S 
ATOM     46  O   UNL A   1      44.329  37.915  32.735  1.00  0.00    -0.237 OA
ATOM     47  O   UNL A   1      42.408  37.472  34.222  1.00  0.00    -0.237 OA
ATOM     48  O   UNL A   1      44.701  37.010  35.000  1.00  0.00    -0.744 OA
ENDBRANCH  44  45
ENDBRANCH  25  39
BRANCH  26  49
ATOM     49  C   UNL A   1      42.487  23.894  27.892  1.00  0.00    -0.014 A 
ATOM     50  C   UNL A   1      42.630  23.729  26.504  1.00  0.00     0.010 A 
ATOM     51  C   UNL A   1      42.243  22.766  28.696  1.00  0.00     0.010 A 
ATOM     52  C   UNL A   1      42.523  22.458  25.930  1.00  0.00     0.020 A 
ATOM     53  C   UNL A   1      42.164  21.492  28.130  1.00  0.00     0.020 A 
ATOM     54  C   UNL A   1      42.294  21.349  26.748  1.00  0.00     0.054 A 
BRANCH  54  55
ATOM     55  S   UNL A   1      42.231  19.699  25.993  1.00  0.00     0.124 S 
ATOM     56  O   UNL A   1      43.307  19.775  25.011  1.00  0.00    -0.237 OA
ATOM     57  O   UNL A   1      42.473  18.819  27.133  1.00  0.00    -0.237 OA
ATOM     58  O   UNL A   1      40.880  19.630  25.442  1.00  0.00    -0.744 OA
ENDBRANCH  54  55
ENDBRANCH  26  49
BRANCH  38  59
ATOM     59  C   UNL A   1      47.632  27.055  31.363  1.00  0.00    -0.014 A 
ATOM     60  C   UNL A   1      47.853  26.392  32.584  1.00  0.00     0.010 A 
ATOM     61  C   UNL A   1      48.716  27.279  30.496  1.00  0.00     0.010 A 
ATOM     62  C   UNL A   1      49.142  25.997  32.949  1.00  0.00     0.020 A 
ATOM     63  C   UNL A   1      50.002  26.865  30.846  1.00  0.00     0.020 A 
ATOM     64  C   UNL A   1      50.211  26.244  32.079  1.00  0.00     0.054 A 
BRANCH  64  65
ATOM     65  S   UNL A   1      51.875  25.709  32.562  1.00  0.00     0.124 S 
ATOM     66  O   UNL A   1      51.883  24.316  32.123  1.00  0.00    -0.237 OA
ATOM     67  O   UNL A   1      52.738  26.611  31.805  1.00  0.00    -0.237 OA
ATOM     68  O   UNL A   1      51.894  25.907  34.010  1.00  0.00    -0.744 OA
ENDBRANCH  64  65
ENDBRANCH  38  59
ENDBRANCH  12  13
ENDBRANCH   5   7
ENDBRANCH   2   3
ENDBRANCH   1   2
BRANCH   1  69
ATOM     69  C   UNL A   1      33.643  26.688  25.378  1.00  0.00     0.023 C 
BRANCH  69  70
ATOM     70  C   UNL A   1      33.517  26.399  23.882  1.00  0.00     0.116 C 
BRANCH  70  71
ATOM     71  N   UNL A   1      34.177  25.163  23.519  1.00  0.00    -0.356 N 
ATOM     72  C   UNL A   1      33.748  23.918  23.200  1.00  0.00     0.224 C 
ATOM     73  H   UNL A   1      35.157  25.245  23.500  1.00  0.00     0.163 HD
ATOM     74  O   UNL A   1      34.657  23.125  22.924  1.00  0.00    -0.275 OA
BRANCH  72  75
ATOM     75  C   UNL A   1      32.276  23.502  23.030  1.00  0.00     0.098 C 
ATOM     76  C   UNL A   1      31.216  24.022  24.006  1.00  0.00     0.017 C 
ATOM     77  C   UNL A   1      32.193  21.949  23.032  1.00  0.00     0.133 C 
ATOM     78  C   UNL A   1      31.399  23.441  25.398  1.00  0.00     0.022 C 
ATOM     79  N   UNL A   1      32.300  21.396  24.394  1.00  0.00    -0.342 N 
ATOM     80  C   UNL A   1      31.356  21.930  25.356  1.00  0.00     0.119 C 
BRANCH  79  81
ATOM     81  C   UNL A   1      33.095  20.283  24.607  1.00  0.00     0.226 C 
ATOM     82  O   UNL A   1      34.256  20.408  25.014  1.00  0.00    -0.275 OA
BRANCH  81  83
ATOM     83  C   UNL A   1      32.542  18.858  24.397  1.00  0.00     0.083 C 
ATOM     84  C   UNL A   1      32.878  18.287  23.012  1.00  0.00     0.040 C 
ATOM     85  C   UNL A   1      32.660  17.901  25.593  1.00  0.00     0.018 C 
ATOM     86  C   UNL A   1      33.683  17.027  22.992  1.00  0.00    -0.030 C 
ATOM     87  C   UNL A   1      33.622  16.710  25.473  1.00  0.00     0.028 C 
ATOM     88  C   UNL A   1      34.013  16.327  24.083  1.00  0.00    -0.031 C 
ENDBRANCH  81  83
ENDBRANCH  79  81
ENDBRANCH  72  75
ENDBRANCH  70  71
ENDBRANCH  69  70
ENDBRANCH   1  69
TORSDOF 16
ENDMDL
MODEL 3
REMARK VINA RESULT:     -10.6      2.793      9.318
REMARK SMILES O=C(NCCCCNC(=O)[C@@H]1CCCN(C(=O)[C@H]2CC=CCC2)C1)c1ccc(-c2c3nc(c(-c4ccc(S(=O)(=O)[O-])cc4)c4ccc([nH]4)c(-c4ccc(S(=O)(=O)[O-])cc4)c4nc(c(-c5ccc(S(=O)(=O)[O-])cc5)c5ccc2[nH]5)C=C4)C=C3)cc1
REMARK SMILES IDX 5 1 4 2 3 3 1 4 2 5 25 7 26 8 84 9 27 10 83 11 28 12 29 13
REMARK SMILES IDX 30 14 77 15 31 16 82 17 76 18 78 19 32 20 81 21 75 22 74 23
REMARK SMILES IDX 33 25 63 26 44 27 62 28 45 29 48 30 61 31 79 32 46 33 47 34
REMARK SMILES IDX 60 36 80 37 49 38 34 39 35 40 43 41 36 42 42 43 37 44 38 45
REMARK SMILES IDX 39 46 40 47 41 48 64 49 65 50 73 51 66 52 72 53 67 54 68 55
REMARK SMILES IDX 69 56 70 57 71 58 50 59 51 60 59 61 52 62 58 63 53 64 54 65
REMARK SMILES IDX 55 66 56 67 57 68 6 69 7 70 8 71 9 72 10 74 11 75 12 76
REMARK SMILES IDX 24 77 13 78 15 79 14 80 16 81 17 82 18 83 19 84 23 85 20 86
REMARK SMILES IDX 22 87 21 88
REMARK H PARENT 3 6 78 24 48 35 8 73
REMARK Flexibility Score: inf
ROOT
ATOM      1  C   UNL A   1      35.452  23.003  25.994  1.00  0.00     0.023 C 
ENDROOT
BRANCH   1   2
ATOM      2  C   UNL A   1      36.753  23.520  25.405  1.00  0.00     0.116 C 
BRANCH   2   3
ATOM      3  N   UNL A   1      37.874  22.605  25.579  1.00  0.00    -0.352 N 
ATOM      4  O   UNL A   1      39.969  22.007  26.181  1.00  0.00    -0.269 OA
ATOM      5  C   UNL A   1      39.085  22.851  26.188  1.00  0.00     0.251 C 
ATOM      6  H   UNL A   1      37.751  21.699  25.216  1.00  0.00     0.163 HD
BRANCH   5   7
ATOM      7  C   UNL A   1      39.301  24.174  26.805  1.00  0.00     0.039 A 
ATOM      8  C   UNL A   1      39.999  25.162  26.109  1.00  0.00     0.014 A 
ATOM      9  C   UNL A   1      38.889  24.388  28.123  1.00  0.00     0.014 A 
ATOM     10  C   UNL A   1      40.444  26.287  26.787  1.00  0.00     0.010 A 
ATOM     11  C   UNL A   1      39.254  25.569  28.772  1.00  0.00     0.010 A 
ATOM     12  C   UNL A   1      40.076  26.504  28.126  1.00  0.00    -0.014 A 
BRANCH  12  13
ATOM     13  C   UNL A   1      40.555  27.730  28.811  1.00  0.00     0.031 A 
ATOM     14  C   UNL A   1      41.988  27.868  29.253  1.00  0.00     0.074 A 
ATOM     15  C   UNL A   1      39.691  28.751  28.978  1.00  0.00     0.049 A 
ATOM     16  N   UNL A   1      42.576  28.890  29.820  1.00  0.00    -0.248 NA
ATOM     17  C   UNL A   1      42.874  26.711  29.041  1.00  0.00     0.031 C 
ATOM     18  C   UNL A   1      38.279  28.732  28.584  1.00  0.00     0.029 A 
ATOM     19  N   UNL A   1      39.878  30.011  29.482  1.00  0.00    -0.354 N 
ATOM     20  C   UNL A   1      43.885  28.490  30.068  1.00  0.00     0.074 A 
ATOM     21  C   UNL A   1      44.003  27.127  29.598  1.00  0.00     0.031 C 
ATOM     22  C   UNL A   1      37.748  29.943  28.794  1.00  0.00     0.029 A 
ATOM     23  C   UNL A   1      38.758  30.803  29.399  1.00  0.00     0.049 A 
ATOM     24  H   UNL A   1      40.730  30.318  29.867  1.00  0.00     0.167 HD
ATOM     25  C   UNL A   1      44.893  29.195  30.639  1.00  0.00     0.031 A 
ATOM     26  C   UNL A   1      38.559  32.080  29.774  1.00  0.00     0.031 A 
ATOM     27  C   UNL A   1      44.772  30.558  31.085  1.00  0.00     0.049 A 
ATOM     28  C   UNL A   1      39.695  32.840  30.391  1.00  0.00     0.074 A 
ATOM     29  C   UNL A   1      45.742  31.369  31.651  1.00  0.00     0.029 A 
ATOM     30  N   UNL A   1      43.612  31.316  31.013  1.00  0.00    -0.354 N 
ATOM     31  N   UNL A   1      40.925  32.444  30.611  1.00  0.00    -0.248 NA
ATOM     32  C   UNL A   1      39.414  34.218  30.811  1.00  0.00     0.031 C 
ATOM     33  C   UNL A   1      45.158  32.604  31.955  1.00  0.00     0.029 A 
ATOM     34  C   UNL A   1      43.837  32.579  31.536  1.00  0.00     0.049 A 
ATOM     35  H   UNL A   1      42.755  31.002  30.645  1.00  0.00     0.167 HD
ATOM     36  C   UNL A   1      41.573  33.532  31.180  1.00  0.00     0.074 A 
ATOM     37  C   UNL A   1      40.602  34.606  31.254  1.00  0.00     0.031 C 
ATOM     38  C   UNL A   1      42.857  33.631  31.606  1.00  0.00     0.031 A 
BRANCH  25  39
ATOM     39  C   UNL A   1      46.206  28.488  30.849  1.00  0.00    -0.014 A 
ATOM     40  C   UNL A   1      46.470  27.759  32.022  1.00  0.00     0.010 A 
ATOM     41  C   UNL A   1      47.182  28.527  29.836  1.00  0.00     0.010 A 
ATOM     42  C   UNL A   1      47.700  27.117  32.196  1.00  0.00     0.020 A 
ATOM     43  C   UNL A   1      48.406  27.868  29.995  1.00  0.00     0.020 A 
ATOM     44  C   UNL A   1      48.664  27.183  31.184  1.00  0.00     0.054 A 
BRANCH  44  45
ATOM     45  S   UNL A   1      50.251  26.338  31.429  1.00  0.00     0.124 S 
ATOM     46  O   UNL A   1      50.324  26.256  32.885  1.00  0.00    -0.237 OA
ATOM     47  O   UNL A   1      50.050  25.067  30.738  1.00  0.00    -0.237 OA
ATOM     48  O   UNL A   1      51.221  27.235  30.805  1.00  0.00    -0.744 OA
ENDBRANCH  44  45
ENDBRANCH  25  39
BRANCH  26  49
ATOM     49  C   UNL A   1      37.228  32.707  29.565  1.00  0.00    -0.014 A 
ATOM     50  C   UNL A   1      36.536  33.286  30.642  1.00  0.00     0.010 A 
ATOM     51  C   UNL A   1      36.669  32.770  28.276  1.00  0.00     0.010 A 
ATOM     52  C   UNL A   1      35.302  33.911  30.434  1.00  0.00     0.020 A 
ATOM     53  C   UNL A   1      35.451  33.417  28.060  1.00  0.00     0.020 A 
ATOM     54  C   UNL A   1      34.770  33.975  29.144  1.00  0.00     0.054 A 
BRANCH  54  55
ATOM     55  S   UNL A   1      33.204  34.852  28.881  1.00  0.00     0.124 S 
ATOM     56  O   UNL A   1      33.663  36.157  28.417  1.00  0.00    -0.237 OA
ATOM     57  O   UNL A   1      32.537  34.022  27.881  1.00  0.00    -0.237 OA
ATOM     58  O   UNL A   1      32.582  34.839  30.203  1.00  0.00    -0.744 OA
ENDBRANCH  54  55
ENDBRANCH  26  49
BRANCH  38  59
ATOM     59  C   UNL A   1      43.287  34.963  32.155  1.00  0.00    -0.014 A 
ATOM     60  C   UNL A   1      43.843  35.949  31.323  1.00  0.00     0.010 A 
ATOM     61  C   UNL A   1      43.113  35.235  33.524  1.00  0.00     0.010 A 
ATOM     62  C   UNL A   1      44.257  37.172  31.857  1.00  0.00     0.020 A 
ATOM     63  C   UNL A   1      43.503  36.464  34.058  1.00  0.00     0.020 A 
ATOM     64  C   UNL A   1      44.091  37.418  33.225  1.00  0.00     0.054 A 
BRANCH  64  65
ATOM     65  S   UNL A   1      44.618  39.018  33.898  1.00  0.00     0.124 S 
ATOM     66  O   UNL A   1      46.070  38.931  33.780  1.00  0.00    -0.237 OA
ATOM     67  O   UNL A   1      43.970  39.974  33.003  1.00  0.00    -0.237 OA
ATOM     68  O   UNL A   1      44.101  39.003  35.264  1.00  0.00    -0.744 OA
ENDBRANCH  64  65
ENDBRANCH  38  59
ENDBRANCH  12  13
ENDBRANCH   5   7
ENDBRANCH   2   3
ENDBRANCH   1   2
BRANCH   1  69
ATOM     69  C   UNL A   1      35.121  21.554  25.634  1.00  0.00     0.023 C 
BRANCH  69  70
ATOM     70  C   UNL A   1      33.640  21.191  25.738  1.00  0.00     0.116 C 
BRANCH  70  71
ATOM     71  N   UNL A   1      32.947  22.039  26.684  1.00  0.00    -0.356 N 
ATOM     72  C   UNL A   1      31.965  22.967  26.584  1.00  0.00     0.224 C 
ATOM     73  H   UNL A   1      33.258  21.912  27.609  1.00  0.00     0.163 HD
ATOM     74  O   UNL A   1      31.628  23.466  27.665  1.00  0.00    -0.275 OA
BRANCH  72  75
ATOM     75  C   UNL A   1      31.193  23.307  25.296  1.00  0.00     0.098 C 
ATOM     76  C   UNL A   1      31.892  23.211  23.937  1.00  0.00     0.017 C 
ATOM     77  C   UNL A   1      30.617  24.746  25.426  1.00  0.00     0.133 C 
ATOM     78  C   UNL A   1      32.966  24.274  23.779  1.00  0.00     0.022 C 
ATOM     79  N   UNL A   1      31.650  25.773  25.201  1.00  0.00    -0.342 N 
ATOM     80  C   UNL A   1      32.379  25.657  23.954  1.00  0.00     0.119 C 
BRANCH  79  81
ATOM     81  C   UNL A   1      31.699  26.873  26.041  1.00  0.00     0.226 C 
ATOM     82  O   UNL A   1      31.121  26.855  27.134  1.00  0.00    -0.275 OA
BRANCH  81  83
ATOM     83  C   UNL A   1      32.514  28.126  25.663  1.00  0.00     0.083 C 
ATOM     84  C   UNL A   1      31.672  29.410  25.671  1.00  0.00     0.040 C 
ATOM     85  C   UNL A   1      33.930  28.218  26.254  1.00  0.00     0.018 C 
ATOM     86  C   UNL A   1      32.112  30.486  26.612  1.00  0.00    -0.030 C 
ATOM     87  C   UNL A   1      34.206  29.304  27.303  1.00  0.00     0.028 C 
ATOM     88  C   UNL A   1      33.236  30.440  27.335  1.00  0.00    -0.031 C 
ENDBRANCH  81  83
ENDBRANCH  79  81
ENDBRANCH  72  75
ENDBRANCH  70  71
ENDBRANCH  69  70
ENDBRANCH   1  69
TORSDOF 16
ENDMDL
