MODEL 1
REMARK VINA RESULT:     -13.1      0.000      0.000
REMARK SMILES O=C(NCCCCNC(=O)[C@H]1Cc2[nH]cnc2CN1C(=O)c1ccncc1Cl)c1ccc(-c2c3nc(c(-c4ccc(S(=O)(=O)[O-])cc4)c4ccc([nH]4)c(-c4ccc(S(=O)(=O)[O-])cc4)c4nc(c(-c5ccc(S(=O)(=O)[O-])cc5)c5ccc2[nH]5)C=C4)C=C3)cc1
REMARK SMILES IDX 5 1 4 2 3 3 1 4 2 5 29 7 30 8 88 9 31 10 87 11 32 12 33 13
REMARK SMILES IDX 34 14 81 15 35 16 86 17 80 18 82 19 36 20 85 21 79 22 78 23
REMARK SMILES IDX 37 25 67 26 48 27 66 28 49 29 52 30 65 31 83 32 50 33 51 34
REMARK SMILES IDX 64 36 84 37 53 38 38 39 39 40 47 41 40 42 46 43 41 44 42 45
REMARK SMILES IDX 43 46 44 47 45 48 68 49 69 50 77 51 70 52 76 53 71 54 72 55
REMARK SMILES IDX 73 56 74 57 75 58 54 59 55 60 63 61 56 62 62 63 57 64 58 65
REMARK SMILES IDX 59 66 60 67 61 68 6 69 7 70 8 71 9 72 10 74 11 75 12 76
REMARK SMILES IDX 19 77 13 78 18 79 14 80 17 81 15 82 16 84 20 85 21 86 22 87
REMARK SMILES IDX 23 88 27 89 24 90 26 91 28 92 25 93
REMARK H PARENT 3 6 82 24 52 35 8 73 14 83
REMARK Flexibility Score: inf
ROOT
ATOM      1  C   UNL A   1      31.869  28.635  26.039  1.00  0.00     0.023 C 
ENDROOT
BRANCH   1   2
ATOM      2  C   UNL A   1      33.201  29.363  26.230  1.00  0.00     0.116 C 
BRANCH   2   3
ATOM      3  N   UNL A   1      33.149  30.572  27.022  1.00  0.00    -0.352 N 
ATOM      4  O   UNL A   1      33.715  32.407  28.115  1.00  0.00    -0.269 OA
ATOM      5  C   UNL A   1      34.084  31.307  27.699  1.00  0.00     0.251 C 
ATOM      6  H   UNL A   1      32.243  30.950  27.087  1.00  0.00     0.163 HD
BRANCH   5   7
ATOM      7  C   UNL A   1      35.461  30.840  28.014  1.00  0.00     0.039 A 
ATOM      8  C   UNL A   1      35.903  29.519  27.941  1.00  0.00     0.014 A 
ATOM      9  C   UNL A   1      36.370  31.833  28.424  1.00  0.00     0.014 A 
ATOM     10  C   UNL A   1      37.187  29.178  28.356  1.00  0.00     0.010 A 
ATOM     11  C   UNL A   1      37.665  31.504  28.809  1.00  0.00     0.010 A 
ATOM     12  C   UNL A   1      38.063  30.169  28.801  1.00  0.00    -0.014 A 
BRANCH  12  13
ATOM     13  C   UNL A   1      39.450  29.786  29.058  1.00  0.00     0.031 A 
ATOM     14  C   UNL A   1      39.828  29.759  30.499  1.00  0.00     0.074 A 
ATOM     15  C   UNL A   1      40.289  29.309  28.120  1.00  0.00     0.049 A 
ATOM     16  N   UNL A   1      40.731  30.456  31.109  1.00  0.00    -0.248 NA
ATOM     17  C   UNL A   1      39.013  28.917  31.392  1.00  0.00     0.031 C 
ATOM     18  C   UNL A   1      39.961  28.983  26.730  1.00  0.00     0.029 A 
ATOM     19  N   UNL A   1      41.581  28.885  28.247  1.00  0.00    -0.354 N 
ATOM     20  C   UNL A   1      40.753  29.976  32.418  1.00  0.00     0.074 A 
ATOM     21  C   UNL A   1      39.569  29.171  32.576  1.00  0.00     0.031 C 
ATOM     22  C   UNL A   1      40.938  28.203  26.220  1.00  0.00     0.029 A 
ATOM     23  C   UNL A   1      42.004  28.071  27.202  1.00  0.00     0.049 A 
ATOM     24  H   UNL A   1      42.157  29.131  29.006  1.00  0.00     0.167 HD
ATOM     25  C   UNL A   1      41.873  30.042  33.193  1.00  0.00     0.031 A 
ATOM     26  C   UNL A   1      43.103  27.277  27.174  1.00  0.00     0.031 A 
ATOM     27  C   UNL A   1      42.832  30.990  32.688  1.00  0.00     0.049 A 
ATOM     28  C   UNL A   1      44.040  27.752  28.218  1.00  0.00     0.074 A 
ATOM     29  C   UNL A   1      42.822  32.337  32.385  1.00  0.00     0.029 A 
ATOM     30  N   UNL A   1      43.966  30.479  32.106  1.00  0.00    -0.354 N 
ATOM     31  N   UNL A   1      44.678  28.886  28.158  1.00  0.00    -0.248 NA
ATOM     32  C   UNL A   1      44.007  27.126  29.530  1.00  0.00     0.031 C 
ATOM     33  C   UNL A   1      43.702  32.476  31.271  1.00  0.00     0.029 A 
ATOM     34  C   UNL A   1      44.226  31.215  30.983  1.00  0.00     0.049 A 
ATOM     35  H   UNL A   1      44.497  29.719  32.437  1.00  0.00     0.167 HD
ATOM     36  C   UNL A   1      44.753  29.320  29.473  1.00  0.00     0.074 A 
ATOM     37  C   UNL A   1      44.444  28.143  30.276  1.00  0.00     0.031 C 
ATOM     38  C   UNL A   1      44.780  30.654  29.769  1.00  0.00     0.031 A 
BRANCH  25  39
ATOM     39  C   UNL A   1      42.287  28.919  34.127  1.00  0.00    -0.014 A 
ATOM     40  C   UNL A   1      42.889  27.767  33.576  1.00  0.00     0.010 A 
ATOM     41  C   UNL A   1      41.807  28.812  35.450  1.00  0.00     0.010 A 
ATOM     42  C   UNL A   1      42.884  26.546  34.262  1.00  0.00     0.020 A 
ATOM     43  C   UNL A   1      41.848  27.614  36.163  1.00  0.00     0.020 A 
ATOM     44  C   UNL A   1      42.336  26.475  35.542  1.00  0.00     0.054 A 
BRANCH  44  45
ATOM     45  S   UNL A   1      42.174  24.868  36.355  1.00  0.00     0.124 S 
ATOM     46  O   UNL A   1      41.104  25.131  37.312  1.00  0.00    -0.237 OA
ATOM     47  O   UNL A   1      41.831  23.989  35.241  1.00  0.00    -0.237 OA
ATOM     48  O   UNL A   1      43.498  24.647  36.934  1.00  0.00    -0.744 OA
ENDBRANCH  44  45
ENDBRANCH  25  39
BRANCH  26  49
ATOM     49  C   UNL A   1      43.273  25.973  26.483  1.00  0.00    -0.014 A 
ATOM     50  C   UNL A   1      44.366  25.741  25.626  1.00  0.00     0.010 A 
ATOM     51  C   UNL A   1      42.500  24.859  26.869  1.00  0.00     0.010 A 
ATOM     52  C   UNL A   1      44.707  24.438  25.225  1.00  0.00     0.020 A 
ATOM     53  C   UNL A   1      42.824  23.561  26.461  1.00  0.00     0.020 A 
ATOM     54  C   UNL A   1      43.943  23.352  25.662  1.00  0.00     0.054 A 
BRANCH  54  55
ATOM     55  S   UNL A   1      44.488  21.660  25.293  1.00  0.00     0.124 S 
ATOM     56  O   UNL A   1      44.327  21.591  23.843  1.00  0.00    -0.237 OA
ATOM     57  O   UNL A   1      45.864  21.653  25.778  1.00  0.00    -0.237 OA
ATOM     58  O   UNL A   1      43.562  20.826  26.058  1.00  0.00    -0.744 OA
ENDBRANCH  54  55
ENDBRANCH  26  49
BRANCH  38  59
ATOM     59  C   UNL A   1      45.157  31.630  28.682  1.00  0.00    -0.014 A 
ATOM     60  C   UNL A   1      44.241  32.176  27.765  1.00  0.00     0.010 A 
ATOM     61  C   UNL A   1      46.484  32.096  28.666  1.00  0.00     0.010 A 
ATOM     62  C   UNL A   1      44.653  33.133  26.828  1.00  0.00     0.020 A 
ATOM     63  C   UNL A   1      46.896  33.066  27.749  1.00  0.00     0.020 A 
ATOM     64  C   UNL A   1      45.980  33.569  26.825  1.00  0.00     0.054 A 
BRANCH  64  65
ATOM     65  S   UNL A   1      46.502  34.834  25.633  1.00  0.00     0.124 S 
ATOM     66  O   UNL A   1      47.899  34.475  25.383  1.00  0.00    -0.237 OA
ATOM     67  O   UNL A   1      45.589  34.611  24.509  1.00  0.00    -0.237 OA
ATOM     68  O   UNL A   1      46.303  36.089  26.343  1.00  0.00    -0.744 OA
ENDBRANCH  64  65
ENDBRANCH  38  59
ENDBRANCH  12  13
ENDBRANCH   5   7
ENDBRANCH   2   3
ENDBRANCH   1   2
BRANCH   1  69
ATOM     69  C   UNL A   1      31.665  27.360  26.861  1.00  0.00     0.023 C 
BRANCH  69  70
ATOM     70  C   UNL A   1      32.211  26.072  26.258  1.00  0.00     0.116 C 
BRANCH  70  71
ATOM     71  N   UNL A   1      31.610  24.860  26.793  1.00  0.00    -0.354 N 
ATOM     72  C   UNL A   1      32.200  23.634  26.935  1.00  0.00     0.243 C 
ATOM     73  H   UNL A   1      30.673  24.931  27.086  1.00  0.00     0.163 HD
ATOM     74  O   UNL A   1      31.859  22.953  27.903  1.00  0.00    -0.273 OA
BRANCH  72  75
ATOM     75  C   UNL A   1      33.314  23.212  25.962  1.00  0.00     0.181 C 
ATOM     76  C   UNL A   1      34.593  23.270  26.861  1.00  0.00     0.091 C 
ATOM     77  N   UNL A   1      33.286  21.922  25.167  1.00  0.00    -0.320 N 
ATOM     78  C   UNL A   1      35.763  22.856  26.066  1.00  0.00     0.042 A 
ATOM     79  C   UNL A   1      34.433  21.725  24.236  1.00  0.00     0.178 C 
ATOM     80  N   UNL A   1      37.084  23.039  26.334  1.00  0.00    -0.348 N 
ATOM     81  C   UNL A   1      35.702  22.153  24.890  1.00  0.00     0.081 A 
ATOM     82  C   UNL A   1      37.773  22.461  25.301  1.00  0.00     0.197 A 
ATOM     83  H   UNL A   1      37.470  23.497  27.117  1.00  0.00     0.167 HD
ATOM     84  N   UNL A   1      36.965  21.922  24.411  1.00  0.00    -0.240 NA
BRANCH  77  85
ATOM     85  C   UNL A   1      32.242  21.017  24.981  1.00  0.00     0.256 C 
ATOM     86  O   UNL A   1      31.059  21.303  25.167  1.00  0.00    -0.269 OA
BRANCH  85  87
ATOM     87  C   UNL A   1      32.467  19.661  24.483  1.00  0.00     0.061 A 
ATOM     88  C   UNL A   1      32.894  18.701  25.406  1.00  0.00     0.035 A 
ATOM     89  C   UNL A   1      32.361  19.345  23.132  1.00  0.00     0.072 A 
ATOM     90  C   UNL A   1      33.135  17.423  24.941  1.00  0.00     0.112 A 
ATOM     91  C   UNL A   1      32.638  18.035  22.771  1.00  0.00     0.132 A 
ATOM     92  Cl  UNL A   1      31.889  20.483  21.934  1.00  0.00    -0.082 Cl
ATOM     93  N   UNL A   1      33.020  17.065  23.642  1.00  0.00    -0.263 NA
ENDBRANCH  85  87
ENDBRANCH  77  85
ENDBRANCH  72  75
ENDBRANCH  70  71
ENDBRANCH  69  70
ENDBRANCH   1  69
TORSDOF 16
ENDMDL
MODEL 2
REMARK VINA RESULT:     -13.0      1.692      2.634
REMARK SMILES O=C(NCCCCNC(=O)[C@H]1Cc2[nH]cnc2CN1C(=O)c1ccncc1Cl)c1ccc(-c2c3nc(c(-c4ccc(S(=O)(=O)[O-])cc4)c4ccc([nH]4)c(-c4ccc(S(=O)(=O)[O-])cc4)c4nc(c(-c5ccc(S(=O)(=O)[O-])cc5)c5ccc2[nH]5)C=C4)C=C3)cc1
REMARK SMILES IDX 5 1 4 2 3 3 1 4 2 5 29 7 30 8 88 9 31 10 87 11 32 12 33 13
REMARK SMILES IDX 34 14 81 15 35 16 86 17 80 18 82 19 36 20 85 21 79 22 78 23
REMARK SMILES IDX 37 25 67 26 48 27 66 28 49 29 52 30 65 31 83 32 50 33 51 34
REMARK SMILES IDX 64 36 84 37 53 38 38 39 39 40 47 41 40 42 46 43 41 44 42 45
REMARK SMILES IDX 43 46 44 47 45 48 68 49 69 50 77 51 70 52 76 53 71 54 72 55
REMARK SMILES IDX 73 56 74 57 75 58 54 59 55 60 63 61 56 62 62 63 57 64 58 65
REMARK SMILES IDX 59 66 60 67 61 68 6 69 7 70 8 71 9 72 10 74 11 75 12 76
REMARK SMILES IDX 19 77 13 78 18 79 14 80 17 81 15 82 16 84 20 85 21 86 22 87
REMARK SMILES IDX 23 88 27 89 24 90 26 91 28 92 25 93
REMARK H PARENT 3 6 82 24 52 35 8 73 14 83
REMARK Flexibility Score: inf
ROOT
ATOM      1  C   UNL A   1      31.822  29.282  25.826  1.00  0.00     0.023 C 
ENDROOT
BRANCH   1   2
ATOM      2  C   UNL A   1      33.172  29.853  26.263  1.00  0.00     0.116 C 
BRANCH   2   3
ATOM      3  N   UNL A   1      33.114  31.016  27.122  1.00  0.00    -0.352 N 
ATOM      4  O   UNL A   1      33.674  32.781  28.328  1.00  0.00    -0.269 OA
ATOM      5  C   UNL A   1      34.043  31.703  27.857  1.00  0.00     0.251 C 
ATOM      6  H   UNL A   1      32.210  31.398  27.191  1.00  0.00     0.163 HD
BRANCH   5   7
ATOM      7  C   UNL A   1      35.409  31.206  28.170  1.00  0.00     0.039 A 
ATOM      8  C   UNL A   1      35.798  29.866  28.189  1.00  0.00     0.014 A 
ATOM      9  C   UNL A   1      36.368  32.190  28.475  1.00  0.00     0.014 A 
ATOM     10  C   UNL A   1      37.080  29.507  28.595  1.00  0.00     0.010 A 
ATOM     11  C   UNL A   1      37.660  31.840  28.851  1.00  0.00     0.010 A 
ATOM     12  C   UNL A   1      38.007  30.493  28.936  1.00  0.00    -0.014 A 
BRANCH  12  13
ATOM     13  C   UNL A   1      39.384  30.076  29.185  1.00  0.00     0.031 A 
ATOM     14  C   UNL A   1      39.785  30.086  30.621  1.00  0.00     0.074 A 
ATOM     15  C   UNL A   1      40.192  29.541  28.251  1.00  0.00     0.049 A 
ATOM     16  N   UNL A   1      40.719  30.774  31.192  1.00  0.00    -0.248 NA
ATOM     17  C   UNL A   1      38.960  29.301  31.554  1.00  0.00     0.031 C 
ATOM     18  C   UNL A   1      39.832  29.178  26.879  1.00  0.00     0.029 A 
ATOM     19  N   UNL A   1      41.473  29.081  28.373  1.00  0.00    -0.354 N 
ATOM     20  C   UNL A   1      40.748  30.339  32.516  1.00  0.00     0.074 A 
ATOM     21  C   UNL A   1      39.543  29.578  32.720  1.00  0.00     0.031 C 
ATOM     22  C   UNL A   1      40.776  28.351  26.381  1.00  0.00     0.029 A 
ATOM     23  C   UNL A   1      41.853  28.219  27.350  1.00  0.00     0.049 A 
ATOM     24  H   UNL A   1      42.069  29.334  29.115  1.00  0.00     0.167 HD
ATOM     25  C   UNL A   1      41.882  30.396  33.271  1.00  0.00     0.031 A 
ATOM     26  C   UNL A   1      42.927  27.390  27.333  1.00  0.00     0.031 A 
ATOM     27  C   UNL A   1      42.862  31.296  32.720  1.00  0.00     0.049 A 
ATOM     28  C   UNL A   1      43.895  27.870  28.346  1.00  0.00     0.074 A 
ATOM     29  C   UNL A   1      42.889  32.630  32.370  1.00  0.00     0.029 A 
ATOM     30  N   UNL A   1      43.970  30.729  32.138  1.00  0.00    -0.354 N 
ATOM     31  N   UNL A   1      44.567  28.981  28.237  1.00  0.00    -0.248 NA
ATOM     32  C   UNL A   1      43.864  27.291  29.679  1.00  0.00     0.031 C 
ATOM     33  C   UNL A   1      43.754  32.703  31.238  1.00  0.00     0.029 A 
ATOM     34  C   UNL A   1      44.234  31.418  30.986  1.00  0.00     0.049 A 
ATOM     35  H   UNL A   1      44.482  29.965  32.487  1.00  0.00     0.167 HD
ATOM     36  C   UNL A   1      44.677  29.457  29.534  1.00  0.00     0.074 A 
ATOM     37  C   UNL A   1      44.344  28.318  30.382  1.00  0.00     0.031 C 
ATOM     38  C   UNL A   1      44.751  30.799  29.784  1.00  0.00     0.031 A 
BRANCH  25  39
ATOM     39  C   UNL A   1      42.276  29.292  34.237  1.00  0.00    -0.014 A 
ATOM     40  C   UNL A   1      42.209  27.953  33.798  1.00  0.00     0.010 A 
ATOM     41  C   UNL A   1      42.378  29.499  35.629  1.00  0.00     0.010 A 
ATOM     42  C   UNL A   1      42.112  26.893  34.709  1.00  0.00     0.020 A 
ATOM     43  C   UNL A   1      42.338  28.446  36.544  1.00  0.00     0.020 A 
ATOM     44  C   UNL A   1      42.149  27.154  36.079  1.00  0.00     0.054 A 
BRANCH  44  45
ATOM     45  S   UNL A   1      41.851  25.811  37.251  1.00  0.00     0.124 S 
ATOM     46  O   UNL A   1      42.142  24.638  36.432  1.00  0.00    -0.237 OA
ATOM     47  O   UNL A   1      42.812  26.103  38.309  1.00  0.00    -0.237 OA
ATOM     48  O   UNL A   1      40.448  25.989  37.621  1.00  0.00    -0.744 OA
ENDBRANCH  44  45
ENDBRANCH  25  39
BRANCH  26  49
ATOM     49  C   UNL A   1      43.044  26.058  26.685  1.00  0.00    -0.014 A 
ATOM     50  C   UNL A   1      43.774  25.893  25.492  1.00  0.00     0.010 A 
ATOM     51  C   UNL A   1      42.657  24.894  27.380  1.00  0.00     0.010 A 
ATOM     52  C   UNL A   1      44.154  24.614  25.048  1.00  0.00     0.020 A 
ATOM     53  C   UNL A   1      43.017  23.618  26.935  1.00  0.00     0.020 A 
ATOM     54  C   UNL A   1      43.788  23.484  25.786  1.00  0.00     0.054 A 
BRANCH  54  55
ATOM     55  S   UNL A   1      44.430  21.853  25.311  1.00  0.00     0.124 S 
ATOM     56  O   UNL A   1      45.793  21.891  25.834  1.00  0.00    -0.237 OA
ATOM     57  O   UNL A   1      43.517  20.939  25.992  1.00  0.00    -0.237 OA
ATOM     58  O   UNL A   1      44.327  21.853  23.853  1.00  0.00    -0.744 OA
ENDBRANCH  54  55
ENDBRANCH  26  49
BRANCH  38  59
ATOM     59  C   UNL A   1      45.139  31.724  28.659  1.00  0.00    -0.014 A 
ATOM     60  C   UNL A   1      44.225  32.269  27.738  1.00  0.00     0.010 A 
ATOM     61  C   UNL A   1      46.480  32.147  28.605  1.00  0.00     0.010 A 
ATOM     62  C   UNL A   1      44.652  33.180  26.762  1.00  0.00     0.020 A 
ATOM     63  C   UNL A   1      46.907  33.072  27.649  1.00  0.00     0.020 A 
ATOM     64  C   UNL A   1      45.992  33.573  26.723  1.00  0.00     0.054 A 
BRANCH  64  65
ATOM     65  S   UNL A   1      46.533  34.778  25.480  1.00  0.00     0.124 S 
ATOM     66  O   UNL A   1      45.683  34.452  24.333  1.00  0.00    -0.237 OA
ATOM     67  O   UNL A   1      46.242  36.060  26.128  1.00  0.00    -0.237 OA
ATOM     68  O   UNL A   1      47.948  34.490  25.303  1.00  0.00    -0.744 OA
ENDBRANCH  64  65
ENDBRANCH  38  59
ENDBRANCH  12  13
ENDBRANCH   5   7
ENDBRANCH   2   3
ENDBRANCH   1   2
BRANCH   1  69
ATOM     69  C   UNL A   1      31.272  28.120  26.656  1.00  0.00     0.023 C 
BRANCH  69  70
ATOM     70  C   UNL A   1      32.166  26.893  26.778  1.00  0.00     0.116 C 
BRANCH  70  71
ATOM     71  N   UNL A   1      31.444  25.634  26.877  1.00  0.00    -0.354 N 
ATOM     72  C   UNL A   1      31.957  24.371  26.772  1.00  0.00     0.243 C 
ATOM     73  H   UNL A   1      30.475  25.700  27.037  1.00  0.00     0.163 HD
ATOM     74  O   UNL A   1      31.440  23.492  27.463  1.00  0.00    -0.273 OA
BRANCH  72  75
ATOM     75  C   UNL A   1      33.198  24.129  25.896  1.00  0.00     0.181 C 
ATOM     76  C   UNL A   1      33.882  22.911  26.601  1.00  0.00     0.091 C 
ATOM     77  N   UNL A   1      33.134  23.903  24.398  1.00  0.00    -0.320 N 
ATOM     78  C   UNL A   1      35.092  22.533  25.849  1.00  0.00     0.042 A 
ATOM     79  C   UNL A   1      34.452  23.745  23.723  1.00  0.00     0.178 C 
ATOM     80  N   UNL A   1      36.135  21.754  26.246  1.00  0.00    -0.348 N 
ATOM     81  C   UNL A   1      35.353  22.894  24.551  1.00  0.00     0.081 A 
ATOM     82  C   UNL A   1      36.998  21.692  25.184  1.00  0.00     0.197 A 
ATOM     83  H   UNL A   1      36.247  21.321  27.123  1.00  0.00     0.167 HD
ATOM     84  N   UNL A   1      36.555  22.375  24.148  1.00  0.00    -0.240 NA
BRANCH  77  85
ATOM     85  C   UNL A   1      32.063  24.070  23.521  1.00  0.00     0.256 C 
ATOM     86  O   UNL A   1      31.599  23.154  22.840  1.00  0.00    -0.269 OA
BRANCH  85  87
ATOM     87  C   UNL A   1      31.356  25.342  23.389  1.00  0.00     0.061 A 
ATOM     88  C   UNL A   1      30.059  25.411  23.909  1.00  0.00     0.035 A 
ATOM     89  C   UNL A   1      31.895  26.417  22.690  1.00  0.00     0.072 A 
ATOM     90  C   UNL A   1      29.371  26.601  23.766  1.00  0.00     0.112 A 
ATOM     91  C   UNL A   1      31.114  27.559  22.595  1.00  0.00     0.132 A 
ATOM     92  Cl  UNL A   1      33.461  26.388  21.982  1.00  0.00    -0.082 Cl
ATOM     93  N   UNL A   1      29.866  27.678  23.118  1.00  0.00    -0.263 NA
ENDBRANCH  85  87
ENDBRANCH  77  85
ENDBRANCH  72  75
ENDBRANCH  70  71
ENDBRANCH  69  70
ENDBRANCH   1  69
TORSDOF 16
ENDMDL
MODEL 3
REMARK VINA RESULT:     -12.8      3.141      9.542
REMARK SMILES O=C(NCCCCNC(=O)[C@H]1Cc2[nH]cnc2CN1C(=O)c1ccncc1Cl)c1ccc(-c2c3nc(c(-c4ccc(S(=O)(=O)[O-])cc4)c4ccc([nH]4)c(-c4ccc(S(=O)(=O)[O-])cc4)c4nc(c(-c5ccc(S(=O)(=O)[O-])cc5)c5ccc2[nH]5)C=C4)C=C3)cc1
REMARK SMILES IDX 5 1 4 2 3 3 1 4 2 5 29 7 30 8 88 9 31 10 87 11 32 12 33 13
REMARK SMILES IDX 34 14 81 15 35 16 86 17 80 18 82 19 36 20 85 21 79 22 78 23
REMARK SMILES IDX 37 25 67 26 48 27 66 28 49 29 52 30 65 31 83 32 50 33 51 34
REMARK SMILES IDX 64 36 84 37 53 38 38 39 39 40 47 41 40 42 46 43 41 44 42 45
REMARK SMILES IDX 43 46 44 47 45 48 68 49 69 50 77 51 70 52 76 53 71 54 72 55
REMARK SMILES IDX 73 56 74 57 75 58 54 59 55 60 63 61 56 62 62 63 57 64 58 65
REMARK SMILES IDX 59 66 60 67 61 68 6 69 7 70 8 71 9 72 10 74 11 75 12 76
REMARK SMILES IDX 19 77 13 78 18 79 14 80 17 81 15 82 16 84 20 85 21 86 22 87
REMARK SMILES IDX 23 88 27 89 24 90 26 91 28 92 25 93
REMARK H PARENT 3 6 82 24 52 35 8 73 14 83
REMARK Flexibility Score: inf
ROOT
ATOM      1  C   UNL A   1      36.519  23.079  23.806  1.00  0.00     0.023 C 
ENDROOT
BRANCH   1   2
ATOM      2  C   UNL A   1      36.689  22.397  25.165  1.00  0.00     0.116 C 
BRANCH   2   3
ATOM      3  N   UNL A   1      37.899  21.621  25.332  1.00  0.00    -0.352 N 
ATOM      4  O   UNL A   1      39.808  20.825  26.110  1.00  0.00    -0.269 OA
ATOM      5  C   UNL A   1      39.051  21.797  26.049  1.00  0.00     0.251 C 
ATOM      6  H   UNL A   1      37.890  20.781  24.819  1.00  0.00     0.163 HD
BRANCH   5   7
ATOM      7  C   UNL A   1      39.466  23.078  26.681  1.00  0.00     0.039 A 
ATOM      8  C   UNL A   1      38.778  24.288  26.585  1.00  0.00     0.014 A 
ATOM      9  C   UNL A   1      40.658  23.038  27.428  1.00  0.00     0.014 A 
ATOM     10  C   UNL A   1      39.310  25.450  27.135  1.00  0.00     0.010 A 
ATOM     11  C   UNL A   1      41.180  24.190  28.008  1.00  0.00     0.010 A 
ATOM     12  C   UNL A   1      40.516  25.403  27.836  1.00  0.00    -0.014 A 
BRANCH  12  13
ATOM     13  C   UNL A   1      40.941  26.610  28.540  1.00  0.00     0.031 A 
ATOM     14  C   UNL A   1      42.105  27.309  27.925  1.00  0.00     0.074 A 
ATOM     15  C   UNL A   1      40.254  27.180  29.547  1.00  0.00     0.049 A 
ATOM     16  N   UNL A   1      43.268  27.544  28.439  1.00  0.00    -0.248 NA
ATOM     17  C   UNL A   1      41.984  27.699  26.510  1.00  0.00     0.031 C 
ATOM     18  C   UNL A   1      38.935  26.785  30.046  1.00  0.00     0.029 A 
ATOM     19  N   UNL A   1      40.528  28.319  30.249  1.00  0.00    -0.354 N 
ATOM     20  C   UNL A   1      43.946  28.313  27.495  1.00  0.00     0.074 A 
ATOM     21  C   UNL A   1      43.186  28.222  26.275  1.00  0.00     0.031 C 
ATOM     22  C   UNL A   1      38.426  27.792  30.788  1.00  0.00     0.029 A 
ATOM     23  C   UNL A   1      39.423  28.845  30.908  1.00  0.00     0.049 A 
ATOM     24  H   UNL A   1      41.423  28.729  30.285  1.00  0.00     0.167 HD
ATOM     25  C   UNL A   1      44.928  29.192  27.847  1.00  0.00     0.031 A 
ATOM     26  C   UNL A   1      39.299  30.087  31.439  1.00  0.00     0.031 A 
ATOM     27  C   UNL A   1      45.445  28.933  29.166  1.00  0.00     0.049 A 
ATOM     28  C   UNL A   1      40.658  30.640  31.638  1.00  0.00     0.074 A 
ATOM     29  C   UNL A   1      46.021  27.854  29.806  1.00  0.00     0.029 A 
ATOM     30  N   UNL A   1      45.096  29.819  30.156  1.00  0.00    -0.354 N 
ATOM     31  N   UNL A   1      41.503  30.188  32.520  1.00  0.00    -0.248 NA
ATOM     32  C   UNL A   1      41.234  31.482  30.601  1.00  0.00     0.031 C 
ATOM     33  C   UNL A   1      45.584  27.946  31.161  1.00  0.00     0.029 A 
ATOM     34  C   UNL A   1      44.800  29.095  31.279  1.00  0.00     0.049 A 
ATOM     35  H   UNL A   1      45.064  30.799  30.075  1.00  0.00     0.167 HD
ATOM     36  C   UNL A   1      42.747  30.326  31.924  1.00  0.00     0.074 A 
ATOM     37  C   UNL A   1      42.530  31.242  30.809  1.00  0.00     0.031 C 
ATOM     38  C   UNL A   1      43.767  29.465  32.221  1.00  0.00     0.031 A 
BRANCH  25  39
ATOM     39  C   UNL A   1      45.081  30.552  27.189  1.00  0.00    -0.014 A 
ATOM     40  C   UNL A   1      46.363  30.952  26.754  1.00  0.00     0.010 A 
ATOM     41  C   UNL A   1      44.102  31.562  27.291  1.00  0.00     0.010 A 
ATOM     42  C   UNL A   1      46.677  32.304  26.566  1.00  0.00     0.020 A 
ATOM     43  C   UNL A   1      44.390  32.906  27.052  1.00  0.00     0.020 A 
ATOM     44  C   UNL A   1      45.691  33.274  26.746  1.00  0.00     0.054 A 
BRANCH  44  45
ATOM     45  S   UNL A   1      46.137  35.024  26.672  1.00  0.00     0.124 S 
ATOM     46  O   UNL A   1      46.509  35.290  28.059  1.00  0.00    -0.237 OA
ATOM     47  O   UNL A   1      47.232  35.026  25.707  1.00  0.00    -0.237 OA
ATOM     48  O   UNL A   1      44.907  35.668  26.216  1.00  0.00    -0.744 OA
ENDBRANCH  44  45
ENDBRANCH  25  39
BRANCH  26  49
ATOM     49  C   UNL A   1      38.076  30.925  31.533  1.00  0.00    -0.014 A 
ATOM     50  C   UNL A   1      37.124  30.709  32.548  1.00  0.00     0.010 A 
ATOM     51  C   UNL A   1      37.968  32.112  30.780  1.00  0.00     0.010 A 
ATOM     52  C   UNL A   1      36.143  31.674  32.837  1.00  0.00     0.020 A 
ATOM     53  C   UNL A   1      36.985  33.069  31.051  1.00  0.00     0.020 A 
ATOM     54  C   UNL A   1      36.093  32.859  32.097  1.00  0.00     0.054 A 
BRANCH  54  55
ATOM     55  S   UNL A   1      34.946  34.179  32.586  1.00  0.00     0.124 S 
ATOM     56  O   UNL A   1      34.278  33.597  33.746  1.00  0.00    -0.237 OA
ATOM     57  O   UNL A   1      35.843  35.296  32.866  1.00  0.00    -0.237 OA
ATOM     58  O   UNL A   1      34.098  34.352  31.407  1.00  0.00    -0.744 OA
ENDBRANCH  54  55
ENDBRANCH  26  49
BRANCH  38  59
ATOM     59  C   UNL A   1      43.679  28.649  33.486  1.00  0.00    -0.014 A 
ATOM     60  C   UNL A   1      44.223  29.050  34.719  1.00  0.00     0.010 A 
ATOM     61  C   UNL A   1      42.910  27.472  33.442  1.00  0.00     0.010 A 
ATOM     62  C   UNL A   1      44.038  28.271  35.869  1.00  0.00     0.020 A 
ATOM     63  C   UNL A   1      42.703  26.702  34.589  1.00  0.00     0.020 A 
ATOM     64  C   UNL A   1      43.281  27.100  35.794  1.00  0.00     0.054 A 
BRANCH  64  65
ATOM     65  S   UNL A   1      43.015  26.111  37.293  1.00  0.00     0.124 S 
ATOM     66  O   UNL A   1      43.654  26.927  38.327  1.00  0.00    -0.237 OA
ATOM     67  O   UNL A   1      41.554  26.035  37.372  1.00  0.00    -0.237 OA
ATOM     68  O   UNL A   1      43.678  24.849  37.004  1.00  0.00    -0.744 OA
ENDBRANCH  64  65
ENDBRANCH  38  59
ENDBRANCH  12  13
ENDBRANCH   5   7
ENDBRANCH   2   3
ENDBRANCH   1   2
BRANCH   1  69
ATOM     69  C   UNL A   1      35.119  23.035  23.191  1.00  0.00     0.023 C 
BRANCH  69  70
ATOM     70  C   UNL A   1      34.152  24.126  23.632  1.00  0.00     0.116 C 
BRANCH  70  71
ATOM     71  N   UNL A   1      33.761  25.041  22.571  1.00  0.00    -0.354 N 
ATOM     72  C   UNL A   1      33.536  26.387  22.676  1.00  0.00     0.243 C 
ATOM     73  H   UNL A   1      33.647  24.648  21.676  1.00  0.00     0.163 HD
ATOM     74  O   UNL A   1      33.839  27.087  21.710  1.00  0.00    -0.273 OA
BRANCH  72  75
ATOM     75  C   UNL A   1      33.023  26.966  24.005  1.00  0.00     0.181 C 
ATOM     76  C   UNL A   1      33.919  28.235  24.193  1.00  0.00     0.091 C 
ATOM     77  N   UNL A   1      31.568  27.305  24.265  1.00  0.00    -0.320 N 
ATOM     78  C   UNL A   1      33.522  28.929  25.431  1.00  0.00     0.042 A 
ATOM     79  C   UNL A   1      31.267  27.802  25.636  1.00  0.00     0.178 C 
ATOM     80  N   UNL A   1      34.201  29.875  26.134  1.00  0.00    -0.348 N 
ATOM     81  C   UNL A   1      32.327  28.749  26.083  1.00  0.00     0.081 A 
ATOM     82  C   UNL A   1      33.405  30.216  27.196  1.00  0.00     0.197 A 
ATOM     83  H   UNL A   1      35.090  30.243  25.922  1.00  0.00     0.167 HD
ATOM     84  N   UNL A   1      32.269  29.548  27.194  1.00  0.00    -0.240 NA
BRANCH  77  85
ATOM     85  C   UNL A   1      30.437  26.990  23.513  1.00  0.00     0.256 C 
ATOM     86  O   UNL A   1      30.108  25.835  23.239  1.00  0.00    -0.269 OA
BRANCH  85  87
ATOM     87  C   UNL A   1      29.505  28.014  23.044  1.00  0.00     0.061 A 
ATOM     88  C   UNL A   1      30.047  29.114  22.371  1.00  0.00     0.035 A 
ATOM     89  C   UNL A   1      28.145  27.962  23.332  1.00  0.00     0.072 A 
ATOM     90  C   UNL A   1      29.178  30.101  21.946  1.00  0.00     0.112 A 
ATOM     91  C   UNL A   1      27.365  29.010  22.870  1.00  0.00     0.132 A 
ATOM     92  Cl  UNL A   1      27.416  26.666  24.196  1.00  0.00    -0.082 Cl
ATOM     93  N   UNL A   1      27.847  30.078  22.182  1.00  0.00    -0.263 NA
ENDBRANCH  85  87
ENDBRANCH  77  85
ENDBRANCH  72  75
ENDBRANCH  70  71
ENDBRANCH  69  70
ENDBRANCH   1  69
TORSDOF 16
ENDMDL
