MODEL 1
REMARK VINA RESULT:     -11.3      0.000      0.000
REMARK SMILES Cc1cccc(Cl)c1Nc1ccccc1CC(=O)NCCCCNC(=O)c1ccc(-c2c3nc(c(-c4ccc(S(=O)(=O)[O-])cc4)c4ccc([nH]4)c(-c4ccc(S(=O)(=O)[O-])cc4)c4nc(c(-c5ccc(S(=O)(=O)[O-])cc5)c5ccc2[nH]5)C=C4)C=C3)cc1
REMARK SMILES IDX 21 1 20 2 19 3 17 4 18 5 16 7 15 8 10 9 11 10 12 11 14 12
REMARK SMILES IDX 13 13 9 14 8 16 1 17 2 18 3 19 4 20 6 21 5 22 7 23 22 24
REMARK SMILES IDX 23 25 24 26 25 27 26 29 27 30 28 31 86 32 29 33 85 34 30 35
REMARK SMILES IDX 31 36 32 37 79 38 33 39 84 40 78 41 80 42 34 43 83 44 77 45
REMARK SMILES IDX 76 46 35 48 65 49 46 50 64 51 47 52 50 53 63 54 81 55 48 56
REMARK SMILES IDX 49 57 62 59 82 60 51 61 36 62 37 63 45 64 38 65 44 66 39 67
REMARK SMILES IDX 40 68 41 69 42 70 43 71 66 72 67 73 75 74 68 75 74 76 69 77
REMARK SMILES IDX 70 78 71 79 72 80 73 81 52 82 53 83 61 84 54 85 60 86 55 87
REMARK SMILES IDX 56 88 57 89 58 90 59 91
REMARK H PARENT 19 6 9 15 24 28 80 47 50 58
REMARK Flexibility Score: inf
ROOT
ATOM      1  C   UNL A   1      31.791  27.510  25.579  1.00  0.00     0.023 C 
ENDROOT
BRANCH   1   2
ATOM      2  C   UNL A   1      30.557  26.630  25.377  1.00  0.00     0.116 C 
BRANCH   2   3
ATOM      3  N   UNL A   1      30.434  25.624  26.413  1.00  0.00    -0.356 N 
ATOM      4  C   UNL A   1      30.777  24.301  26.351  1.00  0.00     0.224 C 
ATOM      5  O   UNL A   1      30.525  23.580  27.319  1.00  0.00    -0.275 OA
ATOM      6  H   UNL A   1      30.056  25.931  27.269  1.00  0.00     0.163 HD
BRANCH   4   7
ATOM      7  C   UNL A   1      31.495  23.759  25.123  1.00  0.00     0.137 C 
BRANCH   7   8
ATOM      8  C   UNL A   1      32.919  23.311  25.387  1.00  0.00    -0.015 A 
ATOM      9  C   UNL A   1      33.298  21.955  25.483  1.00  0.00     0.042 A 
ATOM     10  C   UNL A   1      34.623  21.652  25.853  1.00  0.00     0.026 A 
ATOM     11  C   UNL A   1      35.561  22.655  26.096  1.00  0.00     0.002 A 
ATOM     12  C   UNL A   1      33.891  24.312  25.599  1.00  0.00     0.006 A 
ATOM     13  C   UNL A   1      35.198  23.987  25.956  1.00  0.00     0.000 A 
BRANCH   9  14
ATOM     14  N   UNL A   1      32.455  20.864  25.190  1.00  0.00    -0.354 N 
ATOM     15  H   UNL A   1      31.704  20.763  25.820  1.00  0.00     0.167 HD
BRANCH  14  16
ATOM     16  C   UNL A   1      32.477  19.885  24.168  1.00  0.00     0.060 A 
ATOM     17  C   UNL A   1      32.862  18.120  25.983  1.00  0.00     0.046 C 
ATOM     18  C   UNL A   1      32.649  18.526  24.545  1.00  0.00    -0.026 A 
ATOM     19  C   UNL A   1      32.582  17.510  23.575  1.00  0.00     0.005 A 
ATOM     20  C   UNL A   1      32.358  17.814  22.236  1.00  0.00     0.002 A 
ATOM     21  C   UNL A   1      32.278  20.169  22.797  1.00  0.00     0.064 A 
ATOM     22  C   UNL A   1      32.215  19.141  21.848  1.00  0.00     0.023 A 
ATOM     23  Cl  UNL A   1      32.213  21.781  22.164  1.00  0.00    -0.082 Cl
ENDBRANCH  14  16
ENDBRANCH   9  14
ENDBRANCH   7   8
ENDBRANCH   4   7
ENDBRANCH   2   3
ENDBRANCH   1   2
BRANCH   1  24
ATOM     24  C   UNL A   1      32.144  27.789  27.041  1.00  0.00     0.023 C 
BRANCH  24  25
ATOM     25  C   UNL A   1      33.505  28.438  27.265  1.00  0.00     0.116 C 
BRANCH  25  26
ATOM     26  N   UNL A   1      33.417  29.845  27.629  1.00  0.00    -0.352 N 
ATOM     27  C   UNL A   1      34.392  30.640  28.184  1.00  0.00     0.251 C 
ATOM     28  H   UNL A   1      32.552  30.282  27.457  1.00  0.00     0.163 HD
ATOM     29  O   UNL A   1      34.132  31.787  28.534  1.00  0.00    -0.269 OA
BRANCH  27  30
ATOM     30  C   UNL A   1      35.743  30.079  28.393  1.00  0.00     0.039 A 
ATOM     31  C   UNL A   1      36.646  30.074  27.327  1.00  0.00     0.014 A 
ATOM     32  C   UNL A   1      36.128  29.607  29.651  1.00  0.00     0.014 A 
ATOM     33  C   UNL A   1      37.963  29.663  27.542  1.00  0.00     0.010 A 
ATOM     34  C   UNL A   1      37.456  29.255  29.877  1.00  0.00     0.010 A 
ATOM     35  C   UNL A   1      38.387  29.287  28.828  1.00  0.00    -0.014 A 
BRANCH  35  36
ATOM     36  C   UNL A   1      39.801  28.933  29.106  1.00  0.00     0.031 A 
ATOM     37  C   UNL A   1      40.740  29.970  29.658  1.00  0.00     0.074 A 
ATOM     38  C   UNL A   1      40.262  27.710  28.777  1.00  0.00     0.049 A 
ATOM     39  N   UNL A   1      42.030  29.891  29.859  1.00  0.00    -0.248 NA
ATOM     40  C   UNL A   1      40.156  31.277  30.004  1.00  0.00     0.031 C 
ATOM     41  C   UNL A   1      39.461  26.628  28.199  1.00  0.00     0.029 A 
ATOM     42  N   UNL A   1      41.523  27.176  28.867  1.00  0.00    -0.354 N 
ATOM     43  C   UNL A   1      42.416  31.140  30.329  1.00  0.00     0.074 A 
ATOM     44  C   UNL A   1      41.231  31.970  30.349  1.00  0.00     0.031 C 
ATOM     45  C   UNL A   1      40.247  25.558  27.999  1.00  0.00     0.029 A 
ATOM     46  C   UNL A   1      41.611  25.886  28.397  1.00  0.00     0.049 A 
ATOM     47  H   UNL A   1      42.292  27.670  29.233  1.00  0.00     0.167 HD
ATOM     48  C   UNL A   1      43.644  31.556  30.722  1.00  0.00     0.031 A 
ATOM     49  C   UNL A   1      42.673  25.065  28.288  1.00  0.00     0.031 A 
ATOM     50  C   UNL A   1      44.816  30.723  30.720  1.00  0.00     0.049 A 
ATOM     51  C   UNL A   1      44.025  25.545  28.737  1.00  0.00     0.074 A 
ATOM     52  C   UNL A   1      46.094  31.037  31.151  1.00  0.00     0.029 A 
ATOM     53  N   UNL A   1      44.855  29.413  30.268  1.00  0.00    -0.354 N 
ATOM     54  N   UNL A   1      44.360  26.714  29.230  1.00  0.00    -0.248 NA
ATOM     55  C   UNL A   1      45.140  24.594  28.627  1.00  0.00     0.031 C 
ATOM     56  C   UNL A   1      46.914  29.926  30.926  1.00  0.00     0.029 A 
ATOM     57  C   UNL A   1      46.137  28.907  30.397  1.00  0.00     0.049 A 
ATOM     58  H   UNL A   1      44.086  28.917  29.909  1.00  0.00     0.167 HD
ATOM     59  C   UNL A   1      45.718  26.629  29.513  1.00  0.00     0.074 A 
ATOM     60  C   UNL A   1      46.142  25.294  29.144  1.00  0.00     0.031 C 
ATOM     61  C   UNL A   1      46.540  27.573  30.035  1.00  0.00     0.031 A 
BRANCH  48  62
ATOM     62  C   UNL A   1      43.777  32.982  31.182  1.00  0.00    -0.014 A 
ATOM     63  C   UNL A   1      43.584  33.329  32.531  1.00  0.00     0.010 A 
ATOM     64  C   UNL A   1      44.129  33.984  30.260  1.00  0.00     0.010 A 
ATOM     65  C   UNL A   1      43.696  34.660  32.942  1.00  0.00     0.020 A 
ATOM     66  C   UNL A   1      44.267  35.313  30.672  1.00  0.00     0.020 A 
ATOM     67  C   UNL A   1      44.030  35.645  32.008  1.00  0.00     0.054 A 
BRANCH  67  68
ATOM     68  S   UNL A   1      44.180  37.362  32.569  1.00  0.00     0.124 S 
ATOM     69  O   UNL A   1      45.585  37.428  32.963  1.00  0.00    -0.237 OA
ATOM     70  O   UNL A   1      43.828  38.124  31.373  1.00  0.00    -0.237 OA
ATOM     71  O   UNL A   1      43.220  37.453  33.666  1.00  0.00    -0.744 OA
ENDBRANCH  67  68
ENDBRANCH  48  62
BRANCH  49  72
ATOM     72  C   UNL A   1      42.495  23.693  27.741  1.00  0.00    -0.014 A 
ATOM     73  C   UNL A   1      42.655  23.451  26.365  1.00  0.00     0.010 A 
ATOM     74  C   UNL A   1      42.182  22.619  28.593  1.00  0.00     0.010 A 
ATOM     75  C   UNL A   1      42.492  22.163  25.849  1.00  0.00     0.020 A 
ATOM     76  C   UNL A   1      42.042  21.325  28.084  1.00  0.00     0.020 A 
ATOM     77  C   UNL A   1      42.187  21.107  26.712  1.00  0.00     0.054 A 
BRANCH  77  78
ATOM     78  S   UNL A   1      42.037  19.431  26.031  1.00  0.00     0.124 S 
ATOM     79  O   UNL A   1      40.604  19.336  25.774  1.00  0.00    -0.237 OA
ATOM     80  O   UNL A   1      42.889  19.494  24.845  1.00  0.00    -0.237 OA
ATOM     81  O   UNL A   1      42.541  18.581  27.105  1.00  0.00    -0.744 OA
ENDBRANCH  77  78
ENDBRANCH  49  72
BRANCH  61  82
ATOM     82  C   UNL A   1      47.972  27.189  30.280  1.00  0.00    -0.014 A 
ATOM     83  C   UNL A   1      48.980  27.501  29.351  1.00  0.00     0.010 A 
ATOM     84  C   UNL A   1      48.324  26.574  31.496  1.00  0.00     0.010 A 
ATOM     85  C   UNL A   1      50.313  27.190  29.626  1.00  0.00     0.020 A 
ATOM     86  C   UNL A   1      49.659  26.280  31.783  1.00  0.00     0.020 A 
ATOM     87  C   UNL A   1      50.646  26.582  30.841  1.00  0.00     0.054 A 
BRANCH  87  88
ATOM     88  S   UNL A   1      52.390  26.246  31.205  1.00  0.00     0.124 S 
ATOM     89  O   UNL A   1      52.316  24.960  31.893  1.00  0.00    -0.237 OA
ATOM     90  O   UNL A   1      52.996  26.213  29.875  1.00  0.00    -0.237 OA
ATOM     91  O   UNL A   1      52.795  27.377  32.037  1.00  0.00    -0.744 OA
ENDBRANCH  87  88
ENDBRANCH  61  82
ENDBRANCH  35  36
ENDBRANCH  27  30
ENDBRANCH  25  26
ENDBRANCH  24  25
ENDBRANCH   1  24
TORSDOF 17
ENDMDL
MODEL 2
REMARK VINA RESULT:     -11.1      1.234      2.221
REMARK SMILES Cc1cccc(Cl)c1Nc1ccccc1CC(=O)NCCCCNC(=O)c1ccc(-c2c3nc(c(-c4ccc(S(=O)(=O)[O-])cc4)c4ccc([nH]4)c(-c4ccc(S(=O)(=O)[O-])cc4)c4nc(c(-c5ccc(S(=O)(=O)[O-])cc5)c5ccc2[nH]5)C=C4)C=C3)cc1
REMARK SMILES IDX 21 1 20 2 19 3 17 4 18 5 16 7 15 8 10 9 11 10 12 11 14 12
REMARK SMILES IDX 13 13 9 14 8 16 1 17 2 18 3 19 4 20 6 21 5 22 7 23 22 24
REMARK SMILES IDX 23 25 24 26 25 27 26 29 27 30 28 31 86 32 29 33 85 34 30 35
REMARK SMILES IDX 31 36 32 37 79 38 33 39 84 40 78 41 80 42 34 43 83 44 77 45
REMARK SMILES IDX 76 46 35 48 65 49 46 50 64 51 47 52 50 53 63 54 81 55 48 56
REMARK SMILES IDX 49 57 62 59 82 60 51 61 36 62 37 63 45 64 38 65 44 66 39 67
REMARK SMILES IDX 40 68 41 69 42 70 43 71 66 72 67 73 75 74 68 75 74 76 69 77
REMARK SMILES IDX 70 78 71 79 72 80 73 81 52 82 53 83 61 84 54 85 60 86 55 87
REMARK SMILES IDX 56 88 57 89 58 90 59 91
REMARK H PARENT 19 6 9 15 24 28 80 47 50 58
REMARK Flexibility Score: inf
ROOT
ATOM      1  C   UNL A   1      31.523  27.511  25.876  1.00  0.00     0.023 C 
ENDROOT
BRANCH   1   2
ATOM      2  C   UNL A   1      30.526  26.362  26.035  1.00  0.00     0.116 C 
BRANCH   2   3
ATOM      3  N   UNL A   1      31.053  25.300  26.868  1.00  0.00    -0.356 N 
ATOM      4  C   UNL A   1      31.215  23.979  26.552  1.00  0.00     0.224 C 
ATOM      5  O   UNL A   1      31.612  23.207  27.426  1.00  0.00    -0.275 OA
ATOM      6  H   UNL A   1      31.330  25.562  27.776  1.00  0.00     0.163 HD
BRANCH   4   7
ATOM      7  C   UNL A   1      30.948  23.500  25.132  1.00  0.00     0.137 C 
BRANCH   7   8
ATOM      8  C   UNL A   1      31.855  24.121  24.089  1.00  0.00    -0.015 A 
ATOM      9  C   UNL A   1      33.265  24.094  24.174  1.00  0.00     0.042 A 
ATOM     10  C   UNL A   1      34.009  24.808  23.215  1.00  0.00     0.026 A 
ATOM     11  C   UNL A   1      33.389  25.509  22.182  1.00  0.00     0.002 A 
ATOM     12  C   UNL A   1      31.246  24.804  23.015  1.00  0.00     0.006 A 
ATOM     13  C   UNL A   1      32.005  25.496  22.073  1.00  0.00     0.000 A 
BRANCH   9  14
ATOM     14  N   UNL A   1      33.996  23.361  25.130  1.00  0.00    -0.354 N 
ATOM     15  H   UNL A   1      33.865  23.675  26.054  1.00  0.00     0.167 HD
BRANCH  14  16
ATOM     16  C   UNL A   1      34.882  22.263  25.021  1.00  0.00     0.060 A 
ATOM     17  C   UNL A   1      36.816  23.890  25.430  1.00  0.00     0.046 C 
ATOM     18  C   UNL A   1      36.272  22.503  25.193  1.00  0.00    -0.026 A 
ATOM     19  C   UNL A   1      37.180  21.429  25.189  1.00  0.00     0.005 A 
ATOM     20  C   UNL A   1      36.740  20.122  25.007  1.00  0.00     0.002 A 
ATOM     21  C   UNL A   1      34.464  20.928  24.810  1.00  0.00     0.064 A 
ATOM     22  C   UNL A   1      35.386  19.874  24.809  1.00  0.00     0.023 A 
ATOM     23  Cl  UNL A   1      32.830  20.497  24.425  1.00  0.00    -0.082 Cl
ENDBRANCH  14  16
ENDBRANCH   9  14
ENDBRANCH   7   8
ENDBRANCH   4   7
ENDBRANCH   2   3
ENDBRANCH   1   2
BRANCH   1  24
ATOM     24  C   UNL A   1      32.385  27.784  27.110  1.00  0.00     0.023 C 
BRANCH  24  25
ATOM     25  C   UNL A   1      33.611  28.654  26.862  1.00  0.00     0.116 C 
BRANCH  25  26
ATOM     26  N   UNL A   1      33.465  30.011  27.368  1.00  0.00    -0.352 N 
ATOM     27  C   UNL A   1      34.374  30.750  28.088  1.00  0.00     0.251 C 
ATOM     28  H   UNL A   1      32.608  30.454  27.172  1.00  0.00     0.163 HD
ATOM     29  O   UNL A   1      34.062  31.849  28.537  1.00  0.00    -0.269 OA
BRANCH  27  30
ATOM     30  C   UNL A   1      35.714  30.186  28.349  1.00  0.00     0.039 A 
ATOM     31  C   UNL A   1      36.682  30.248  27.344  1.00  0.00     0.014 A 
ATOM     32  C   UNL A   1      36.023  29.642  29.599  1.00  0.00     0.014 A 
ATOM     33  C   UNL A   1      37.986  29.831  27.617  1.00  0.00     0.010 A 
ATOM     34  C   UNL A   1      37.337  29.285  29.888  1.00  0.00     0.010 A 
ATOM     35  C   UNL A   1      38.332  29.383  28.903  1.00  0.00    -0.014 A 
BRANCH  35  36
ATOM     36  C   UNL A   1      39.729  29.021  29.249  1.00  0.00     0.031 A 
ATOM     37  C   UNL A   1      40.636  30.043  29.876  1.00  0.00     0.074 A 
ATOM     38  C   UNL A   1      40.207  27.806  28.915  1.00  0.00     0.049 A 
ATOM     39  N   UNL A   1      41.914  29.957  30.145  1.00  0.00    -0.248 NA
ATOM     40  C   UNL A   1      40.034  31.341  30.221  1.00  0.00     0.031 C 
ATOM     41  C   UNL A   1      39.439  26.739  28.268  1.00  0.00     0.029 A 
ATOM     42  N   UNL A   1      41.461  27.268  29.061  1.00  0.00    -0.354 N 
ATOM     43  C   UNL A   1      42.273  31.194  30.666  1.00  0.00     0.074 A 
ATOM     44  C   UNL A   1      41.089  32.025  30.641  1.00  0.00     0.031 C 
ATOM     45  C   UNL A   1      40.234  25.673  28.086  1.00  0.00     0.029 A 
ATOM     46  C   UNL A   1      41.575  25.990  28.565  1.00  0.00     0.049 A 
ATOM     47  H   UNL A   1      42.210  27.752  29.480  1.00  0.00     0.167 HD
ATOM     48  C   UNL A   1      43.478  31.599  31.134  1.00  0.00     0.031 A 
ATOM     49  C   UNL A   1      42.642  25.170  28.494  1.00  0.00     0.031 A 
ATOM     50  C   UNL A   1      44.649  30.765  31.175  1.00  0.00     0.049 A 
ATOM     51  C   UNL A   1      43.968  25.638  29.028  1.00  0.00     0.074 A 
ATOM     52  C   UNL A   1      45.901  31.067  31.683  1.00  0.00     0.029 A 
ATOM     53  N   UNL A   1      44.713  29.466  30.695  1.00  0.00    -0.354 N 
ATOM     54  N   UNL A   1      44.275  26.794  29.566  1.00  0.00    -0.248 NA
ATOM     55  C   UNL A   1      45.087  24.689  28.955  1.00  0.00     0.031 C 
ATOM     56  C   UNL A   1      46.733  29.961  31.476  1.00  0.00     0.029 A 
ATOM     57  C   UNL A   1      45.985  28.956  30.881  1.00  0.00     0.049 A 
ATOM     58  H   UNL A   1      43.964  28.980  30.282  1.00  0.00     0.167 HD
ATOM     59  C   UNL A   1      45.616  26.701  29.920  1.00  0.00     0.074 A 
ATOM     60  C   UNL A   1      46.059  25.374  29.542  1.00  0.00     0.031 C 
ATOM     61  C   UNL A   1      46.407  27.631  30.509  1.00  0.00     0.031 A 
BRANCH  48  62
ATOM     62  C   UNL A   1      43.586  33.014  31.636  1.00  0.00    -0.014 A 
ATOM     63  C   UNL A   1      43.930  34.065  30.769  1.00  0.00     0.010 A 
ATOM     64  C   UNL A   1      43.309  33.299  32.985  1.00  0.00     0.010 A 
ATOM     65  C   UNL A   1      44.041  35.372  31.252  1.00  0.00     0.020 A 
ATOM     66  C   UNL A   1      43.393  34.609  33.466  1.00  0.00     0.020 A 
ATOM     67  C   UNL A   1      43.778  35.634  32.599  1.00  0.00     0.054 A 
BRANCH  67  68
ATOM     68  S   UNL A   1      43.918  37.340  33.198  1.00  0.00     0.124 S 
ATOM     69  O   UNL A   1      42.779  37.432  34.109  1.00  0.00    -0.237 OA
ATOM     70  O   UNL A   1      45.232  37.352  33.835  1.00  0.00    -0.237 OA
ATOM     71  O   UNL A   1      43.810  38.144  31.983  1.00  0.00    -0.744 OA
ENDBRANCH  67  68
ENDBRANCH  48  62
BRANCH  49  72
ATOM     72  C   UNL A   1      42.493  23.812  27.905  1.00  0.00    -0.014 A 
ATOM     73  C   UNL A   1      42.597  23.627  26.515  1.00  0.00     0.010 A 
ATOM     74  C   UNL A   1      42.267  22.696  28.730  1.00  0.00     0.010 A 
ATOM     75  C   UNL A   1      42.463  22.352  25.959  1.00  0.00     0.020 A 
ATOM     76  C   UNL A   1      42.155  21.416  28.180  1.00  0.00     0.020 A 
ATOM     77  C   UNL A   1      42.243  21.253  26.795  1.00  0.00     0.054 A 
BRANCH  77  78
ATOM     78  S   UNL A   1      42.128  19.599  26.059  1.00  0.00     0.124 S 
ATOM     79  O   UNL A   1      43.058  19.700  24.939  1.00  0.00    -0.237 OA
ATOM     80  O   UNL A   1      42.553  18.733  27.158  1.00  0.00    -0.237 OA
ATOM     81  O   UNL A   1      40.718  19.484  25.698  1.00  0.00    -0.744 OA
ENDBRANCH  77  78
ENDBRANCH  49  72
BRANCH  61  82
ATOM     82  C   UNL A   1      47.825  27.239  30.822  1.00  0.00    -0.014 A 
ATOM     83  C   UNL A   1      48.144  26.545  32.003  1.00  0.00     0.010 A 
ATOM     84  C   UNL A   1      48.838  27.503  29.883  1.00  0.00     0.010 A 
ATOM     85  C   UNL A   1      49.457  26.137  32.246  1.00  0.00     0.020 A 
ATOM     86  C   UNL A   1      50.149  27.077  30.114  1.00  0.00     0.020 A 
ATOM     87  C   UNL A   1      50.452  26.403  31.300  1.00  0.00     0.054 A 
BRANCH  87  88
ATOM     88  S   UNL A   1      52.137  25.807  31.607  1.00  0.00     0.124 S 
ATOM     89  O   UNL A   1      52.766  25.985  30.301  1.00  0.00    -0.237 OA
ATOM     90  O   UNL A   1      52.610  26.704  32.660  1.00  0.00    -0.237 OA
ATOM     91  O   UNL A   1      51.943  24.419  32.022  1.00  0.00    -0.744 OA
ENDBRANCH  87  88
ENDBRANCH  61  82
ENDBRANCH  35  36
ENDBRANCH  27  30
ENDBRANCH  25  26
ENDBRANCH  24  25
ENDBRANCH   1  24
TORSDOF 17
ENDMDL
MODEL 3
REMARK VINA RESULT:     -10.4      4.784     10.436
REMARK SMILES Cc1cccc(Cl)c1Nc1ccccc1CC(=O)NCCCCNC(=O)c1ccc(-c2c3nc(c(-c4ccc(S(=O)(=O)[O-])cc4)c4ccc([nH]4)c(-c4ccc(S(=O)(=O)[O-])cc4)c4nc(c(-c5ccc(S(=O)(=O)[O-])cc5)c5ccc2[nH]5)C=C4)C=C3)cc1
REMARK SMILES IDX 21 1 20 2 19 3 17 4 18 5 16 7 15 8 10 9 11 10 12 11 14 12
REMARK SMILES IDX 13 13 9 14 8 16 1 17 2 18 3 19 4 20 6 21 5 22 7 23 22 24
REMARK SMILES IDX 23 25 24 26 25 27 26 29 27 30 28 31 86 32 29 33 85 34 30 35
REMARK SMILES IDX 31 36 32 37 79 38 33 39 84 40 78 41 80 42 34 43 83 44 77 45
REMARK SMILES IDX 76 46 35 48 65 49 46 50 64 51 47 52 50 53 63 54 81 55 48 56
REMARK SMILES IDX 49 57 62 59 82 60 51 61 36 62 37 63 45 64 38 65 44 66 39 67
REMARK SMILES IDX 40 68 41 69 42 70 43 71 66 72 67 73 75 74 68 75 74 76 69 77
REMARK SMILES IDX 70 78 71 79 72 80 73 81 52 82 53 83 61 84 54 85 60 86 55 87
REMARK SMILES IDX 56 88 57 89 58 90 59 91
REMARK H PARENT 19 6 9 15 24 28 80 47 50 58
REMARK Flexibility Score: inf
ROOT
ATOM      1  C   UNL A   1      39.274  21.257  25.937  1.00  0.00     0.023 C 
ENDROOT
BRANCH   1   2
ATOM      2  C   UNL A   1      38.222  22.365  25.909  1.00  0.00     0.116 C 
BRANCH   2   3
ATOM      3  N   UNL A   1      37.579  22.470  24.614  1.00  0.00    -0.356 N 
ATOM      4  C   UNL A   1      36.505  23.241  24.263  1.00  0.00     0.224 C 
ATOM      5  O   UNL A   1      36.052  23.137  23.122  1.00  0.00    -0.275 OA
ATOM      6  H   UNL A   1      37.966  21.918  23.896  1.00  0.00     0.163 HD
BRANCH   4   7
ATOM      7  C   UNL A   1      35.923  24.232  25.262  1.00  0.00     0.137 C 
BRANCH   7   8
ATOM      8  C   UNL A   1      34.617  23.784  25.887  1.00  0.00    -0.015 A 
ATOM      9  C   UNL A   1      33.368  24.358  25.564  1.00  0.00     0.042 A 
ATOM     10  C   UNL A   1      32.233  23.952  26.294  1.00  0.00     0.026 A 
ATOM     11  C   UNL A   1      32.316  22.988  27.297  1.00  0.00     0.002 A 
ATOM     12  C   UNL A   1      34.676  22.782  26.878  1.00  0.00     0.006 A 
ATOM     13  C   UNL A   1      33.537  22.391  27.581  1.00  0.00     0.000 A 
BRANCH   9  14
ATOM     14  N   UNL A   1      33.156  25.285  24.524  1.00  0.00    -0.354 N 
ATOM     15  H   UNL A   1      33.848  25.259  23.823  1.00  0.00     0.167 HD
BRANCH  14  16
ATOM     16  C   UNL A   1      32.144  26.247  24.290  1.00  0.00     0.060 A 
ATOM     17  C   UNL A   1      33.620  27.967  25.481  1.00  0.00     0.046 C 
ATOM     18  C   UNL A   1      32.369  27.578  24.731  1.00  0.00    -0.026 A 
ATOM     19  C   UNL A   1      31.435  28.587  24.437  1.00  0.00     0.005 A 
ATOM     20  C   UNL A   1      30.277  28.302  23.722  1.00  0.00     0.002 A 
ATOM     21  C   UNL A   1      30.945  25.978  23.589  1.00  0.00     0.064 A 
ATOM     22  C   UNL A   1      30.029  26.999  23.307  1.00  0.00     0.023 A 
ATOM     23  Cl  UNL A   1      30.455  24.380  23.129  1.00  0.00    -0.082 Cl
ENDBRANCH  14  16
ENDBRANCH   9  14
ENDBRANCH   7   8
ENDBRANCH   4   7
ENDBRANCH   2   3
ENDBRANCH   1   2
BRANCH   1  24
ATOM     24  C   UNL A   1      40.501  21.561  26.798  1.00  0.00     0.023 C 
BRANCH  24  25
ATOM     25  C   UNL A   1      40.732  23.037  27.097  1.00  0.00     0.116 C 
BRANCH  25  26
ATOM     26  N   UNL A   1      41.327  23.763  25.984  1.00  0.00    -0.352 N 
ATOM     27  C   UNL A   1      41.750  25.071  25.953  1.00  0.00     0.251 C 
ATOM     28  H   UNL A   1      41.439  23.254  25.149  1.00  0.00     0.163 HD
ATOM     29  O   UNL A   1      42.136  25.573  24.902  1.00  0.00    -0.269 OA
BRANCH  27  30
ATOM     30  C   UNL A   1      41.692  25.874  27.192  1.00  0.00     0.039 A 
ATOM     31  C   UNL A   1      42.719  26.783  27.457  1.00  0.00     0.014 A 
ATOM     32  C   UNL A   1      40.602  25.761  28.060  1.00  0.00     0.014 A 
ATOM     33  C   UNL A   1      42.616  27.636  28.558  1.00  0.00     0.010 A 
ATOM     34  C   UNL A   1      40.473  26.653  29.120  1.00  0.00     0.010 A 
ATOM     35  C   UNL A   1      41.474  27.603  29.376  1.00  0.00    -0.014 A 
BRANCH  35  36
ATOM     36  C   UNL A   1      41.294  28.558  30.497  1.00  0.00     0.031 A 
ATOM     37  C   UNL A   1      42.145  28.436  31.731  1.00  0.00     0.074 A 
ATOM     38  C   UNL A   1      40.306  29.473  30.444  1.00  0.00     0.049 A 
ATOM     39  N   UNL A   1      42.063  29.096  32.857  1.00  0.00    -0.248 NA
ATOM     40  C   UNL A   1      43.210  27.420  31.704  1.00  0.00     0.031 C 
ATOM     41  C   UNL A   1      39.387  29.668  29.319  1.00  0.00     0.029 A 
ATOM     42  N   UNL A   1      39.900  30.404  31.368  1.00  0.00    -0.354 N 
ATOM     43  C   UNL A   1      43.046  28.560  33.680  1.00  0.00     0.074 A 
ATOM     44  C   UNL A   1      43.687  27.496  32.938  1.00  0.00     0.031 C 
ATOM     45  C   UNL A   1      38.535  30.663  29.615  1.00  0.00     0.029 A 
ATOM     46  C   UNL A   1      38.819  31.152  30.959  1.00  0.00     0.049 A 
ATOM     47  H   UNL A   1      40.339  30.525  32.240  1.00  0.00     0.167 HD
ATOM     48  C   UNL A   1      43.393  28.928  34.937  1.00  0.00     0.031 A 
ATOM     49  C   UNL A   1      38.128  32.114  31.601  1.00  0.00     0.031 A 
ATOM     50  C   UNL A   1      42.768  29.998  35.665  1.00  0.00     0.049 A 
ATOM     51  C   UNL A   1      38.536  32.512  32.992  1.00  0.00     0.074 A 
ATOM     52  C   UNL A   1      43.086  30.483  36.922  1.00  0.00     0.029 A 
ATOM     53  N   UNL A   1      41.700  30.753  35.203  1.00  0.00    -0.354 N 
ATOM     54  N   UNL A   1      39.504  32.028  33.734  1.00  0.00    -0.248 NA
ATOM     55  C   UNL A   1      37.768  33.590  33.628  1.00  0.00     0.031 C 
ATOM     56  C   UNL A   1      42.186  31.508  37.235  1.00  0.00     0.029 A 
ATOM     57  C   UNL A   1      41.338  31.690  36.154  1.00  0.00     0.049 A 
ATOM     58  H   UNL A   1      41.265  30.638  34.328  1.00  0.00     0.167 HD
ATOM     59  C   UNL A   1      39.478  32.763  34.914  1.00  0.00     0.074 A 
ATOM     60  C   UNL A   1      38.404  33.727  34.785  1.00  0.00     0.031 C 
ATOM     61  C   UNL A   1      40.274  32.649  36.005  1.00  0.00     0.031 A 
BRANCH  48  62
ATOM     62  C   UNL A   1      44.500  28.157  35.603  1.00  0.00    -0.014 A 
ATOM     63  C   UNL A   1      44.267  26.885  36.154  1.00  0.00     0.010 A 
ATOM     64  C   UNL A   1      45.797  28.699  35.651  1.00  0.00     0.010 A 
ATOM     65  C   UNL A   1      45.302  26.187  36.783  1.00  0.00     0.020 A 
ATOM     66  C   UNL A   1      46.841  27.992  36.256  1.00  0.00     0.020 A 
ATOM     67  C   UNL A   1      46.581  26.748  36.835  1.00  0.00     0.054 A 
BRANCH  67  68
ATOM     68  S   UNL A   1      47.909  25.817  37.647  1.00  0.00     0.124 S 
ATOM     69  O   UNL A   1      47.159  24.779  38.352  1.00  0.00    -0.237 OA
ATOM     70  O   UNL A   1      48.714  25.353  36.520  1.00  0.00    -0.237 OA
ATOM     71  O   UNL A   1      48.554  26.809  38.503  1.00  0.00    -0.744 OA
ENDBRANCH  67  68
ENDBRANCH  48  62
BRANCH  49  72
ATOM     72  C   UNL A   1      36.984  32.779  30.922  1.00  0.00    -0.014 A 
ATOM     73  C   UNL A   1      35.663  32.403  31.224  1.00  0.00     0.010 A 
ATOM     74  C   UNL A   1      37.207  33.805  29.986  1.00  0.00     0.010 A 
ATOM     75  C   UNL A   1      34.586  33.030  30.592  1.00  0.00     0.020 A 
ATOM     76  C   UNL A   1      36.131  34.450  29.368  1.00  0.00     0.020 A 
ATOM     77  C   UNL A   1      34.826  34.051  29.668  1.00  0.00     0.054 A 
BRANCH  77  78
ATOM     78  S   UNL A   1      33.413  34.891  28.901  1.00  0.00     0.124 S 
ATOM     79  O   UNL A   1      32.966  33.903  27.925  1.00  0.00    -0.237 OA
ATOM     80  O   UNL A   1      32.519  35.109  30.036  1.00  0.00    -0.237 OA
ATOM     81  O   UNL A   1      34.002  36.105  28.342  1.00  0.00    -0.744 OA
ENDBRANCH  77  78
ENDBRANCH  49  72
BRANCH  61  82
ATOM     82  C   UNL A   1      40.047  33.617  37.134  1.00  0.00    -0.014 A 
ATOM     83  C   UNL A   1      40.784  34.810  37.228  1.00  0.00     0.010 A 
ATOM     84  C   UNL A   1      39.029  33.360  38.070  1.00  0.00     0.010 A 
ATOM     85  C   UNL A   1      40.516  35.724  38.250  1.00  0.00     0.020 A 
ATOM     86  C   UNL A   1      38.745  34.282  39.080  1.00  0.00     0.020 A 
ATOM     87  C   UNL A   1      39.497  35.456  39.169  1.00  0.00     0.054 A 
BRANCH  87  88
ATOM     88  S   UNL A   1      39.123  36.686  40.448  1.00  0.00     0.124 S 
ATOM     89  O   UNL A   1      38.475  37.742  39.675  1.00  0.00    -0.237 OA
ATOM     90  O   UNL A   1      38.251  35.949  41.360  1.00  0.00    -0.237 OA
ATOM     91  O   UNL A   1      40.435  37.028  40.994  1.00  0.00    -0.744 OA
ENDBRANCH  87  88
ENDBRANCH  61  82
ENDBRANCH  35  36
ENDBRANCH  27  30
ENDBRANCH  25  26
ENDBRANCH  24  25
ENDBRANCH   1  24
TORSDOF 17
ENDMDL
