MODEL 1
REMARK VINA RESULT:     -13.2      0.000      0.000
REMARK SMILES O=C1OC(c2ccc(Cl)cc2)=N/C1=C/Nc1ccc(O)c(C(=O)NCCCCNC(=O)c2ccc(-c3c4nc(c(-c5ccc(S(=O)(=O)[O-])cc5)c5ccc([nH]5)c(-c5ccc(S(=O)(=O)[O-])cc5)c5nc(c(-c6ccc(S(=O)(=O)[O-])cc6)c6ccc3[nH]6)C=C5)C=C4)cc2)c1
REMARK SMILES IDX 26 1 25 2 24 3 22 4 23 5 21 7 16 8 17 9 92 10 18 11 19 12
REMARK SMILES IDX 15 13 14 15 1 16 2 17 3 18 13 19 4 20 12 21 5 22 6 23 11 24
REMARK SMILES IDX 7 25 10 26 8 27 9 28 20 29 27 31 28 32 29 33 30 34 31 36
REMARK SMILES IDX 32 37 33 38 91 39 34 40 90 41 35 42 36 43 37 44 84 45 38 46
REMARK SMILES IDX 89 47 83 48 85 49 39 50 88 51 82 52 81 53 40 55 70 56 51 57
REMARK SMILES IDX 69 58 52 59 55 60 68 61 86 62 53 63 54 64 67 66 87 67 56 68
REMARK SMILES IDX 41 69 42 70 50 71 43 72 49 73 44 74 45 75 46 76 47 77 48 78
REMARK SMILES IDX 71 79 72 80 80 81 73 82 79 83 74 84 75 85 76 86 77 87 78 88
REMARK SMILES IDX 57 89 58 90 66 91 59 92 65 93 60 94 61 95 62 96 63 97 64 98
REMARK H PARENT 24 6 15 14 20 30 29 35 85 54 55 65
REMARK Flexibility Score: inf
ROOT
ATOM      1  C   UNL A   1      39.006  21.677  25.749  1.00  0.00     0.023 C 
ENDROOT
BRANCH   1   2
ATOM      2  C   UNL A   1      37.797  22.606  25.906  1.00  0.00     0.116 C 
BRANCH   2   3
ATOM      3  N   UNL A   1      37.295  22.973  24.604  1.00  0.00    -0.352 N 
ATOM      4  C   UNL A   1      36.182  22.590  23.907  1.00  0.00     0.255 C 
ATOM      5  O   UNL A   1      36.111  23.006  22.745  1.00  0.00    -0.269 OA
ATOM      6  H   UNL A   1      37.860  23.624  24.128  1.00  0.00     0.163 HD
BRANCH   4   7
ATOM      7  C   UNL A   1      35.023  21.812  24.458  1.00  0.00     0.083 A 
ATOM      8  C   UNL A   1      32.619  22.007  24.963  1.00  0.00     0.039 A 
ATOM      9  C   UNL A   1      32.646  20.739  25.539  1.00  0.00     0.030 A 
ATOM     10  C   UNL A   1      33.810  22.535  24.456  1.00  0.00     0.043 A 
ATOM     11  C   UNL A   1      33.810  19.979  25.508  1.00  0.00     0.049 A 
ATOM     12  C   UNL A   1      34.980  20.499  24.940  1.00  0.00     0.128 A 
BRANCH   8  13
ATOM     13  N   UNL A   1      31.457  22.787  24.931  1.00  0.00    -0.360 N 
ATOM     14  H   UNL A   1      30.824  22.671  25.676  1.00  0.00     0.166 HD
BRANCH  13  15
ATOM     15  C   UNL A   1      31.118  23.695  23.968  1.00  0.00     0.119 C 
ATOM     16  O   UNL A   1      30.685  25.246  26.528  1.00  0.00    -0.244 OA
ATOM     17  C   UNL A   1      30.494  25.646  25.400  1.00  0.00     0.365 C 
ATOM     18  O   UNL A   1      30.085  26.890  25.015  1.00  0.00    -0.402 OA
ATOM     19  C   UNL A   1      30.648  24.937  24.100  1.00  0.00     0.168 C 
ATOM     20  C   UNL A   1      29.978  26.845  23.668  1.00  0.00     0.231 C 
ATOM     21  N   UNL A   1      30.281  25.746  23.060  1.00  0.00    -0.204 NA
BRANCH  20  22
ATOM     22  C   UNL A   1      29.462  28.054  23.045  1.00  0.00     0.037 A 
ATOM     23  C   UNL A   1      28.110  28.387  23.152  1.00  0.00     0.015 A 
ATOM     24  C   UNL A   1      30.359  28.894  22.377  1.00  0.00     0.015 A 
ATOM     25  C   UNL A   1      27.655  29.580  22.586  1.00  0.00     0.021 A 
ATOM     26  C   UNL A   1      29.896  30.074  21.796  1.00  0.00     0.021 A 
ATOM     27  C   UNL A   1      28.547  30.414  21.908  1.00  0.00     0.041 A 
ATOM     28  Cl  UNL A   1      27.981  31.879  21.208  1.00  0.00    -0.084 Cl
ENDBRANCH  20  22
ENDBRANCH  13  15
ENDBRANCH   8  13
BRANCH  12  29
ATOM     29  O   UNL A   1      36.024  19.631  24.832  1.00  0.00    -0.507 OA
ATOM     30  H   UNL A   1      36.242  19.068  25.548  1.00  0.00     0.293 HD
ENDBRANCH  12  29
ENDBRANCH   4   7
ENDBRANCH   2   3
ENDBRANCH   1   2
BRANCH   1  31
ATOM     31  C   UNL A   1      40.047  21.813  26.859  1.00  0.00     0.023 C 
BRANCH  31  32
ATOM     32  C   UNL A   1      40.332  23.248  27.276  1.00  0.00     0.116 C 
BRANCH  32  33
ATOM     33  N   UNL A   1      40.763  24.090  26.170  1.00  0.00    -0.352 N 
ATOM     34  C   UNL A   1      40.996  25.442  26.165  1.00  0.00     0.251 C 
ATOM     35  H   UNL A   1      40.905  23.629  25.312  1.00  0.00     0.163 HD
ATOM     36  O   UNL A   1      41.238  26.023  25.113  1.00  0.00    -0.269 OA
BRANCH  34  37
ATOM     37  C   UNL A   1      40.908  26.189  27.436  1.00  0.00     0.039 A 
ATOM     38  C   UNL A   1      41.903  27.120  27.734  1.00  0.00     0.014 A 
ATOM     39  C   UNL A   1      39.825  26.005  28.301  1.00  0.00     0.014 A 
ATOM     40  C   UNL A   1      41.778  27.911  28.874  1.00  0.00     0.010 A 
ATOM     41  C   UNL A   1      39.659  26.857  29.387  1.00  0.00     0.010 A 
ATOM     42  C   UNL A   1      40.635  27.814  29.689  1.00  0.00    -0.014 A 
BRANCH  42  43
ATOM     43  C   UNL A   1      40.455  28.733  30.841  1.00  0.00     0.031 A 
ATOM     44  C   UNL A   1      41.308  28.596  32.072  1.00  0.00     0.074 A 
ATOM     45  C   UNL A   1      39.500  29.683  30.779  1.00  0.00     0.049 A 
ATOM     46  N   UNL A   1      41.331  29.348  33.143  1.00  0.00    -0.248 NA
ATOM     47  C   UNL A   1      42.241  27.458  32.121  1.00  0.00     0.031 C 
ATOM     48  C   UNL A   1      38.568  29.874  29.665  1.00  0.00     0.029 A 
ATOM     49  N   UNL A   1      39.166  30.676  31.664  1.00  0.00    -0.354 N 
ATOM     50  C   UNL A   1      42.274  28.775  33.989  1.00  0.00     0.074 A 
ATOM     51  C   UNL A   1      42.754  27.578  33.336  1.00  0.00     0.031 C 
ATOM     52  C   UNL A   1      37.805  30.951  29.909  1.00  0.00     0.029 A 
ATOM     53  C   UNL A   1      38.163  31.502  31.211  1.00  0.00     0.049 A 
ATOM     54  H   UNL A   1      39.600  30.787  32.540  1.00  0.00     0.167 HD
ATOM     55  C   UNL A   1      42.716  29.219  35.190  1.00  0.00     0.031 A 
ATOM     56  C   UNL A   1      37.598  32.585  31.777  1.00  0.00     0.031 A 
ATOM     57  C   UNL A   1      42.229  30.409  35.836  1.00  0.00     0.049 A 
ATOM     58  C   UNL A   1      38.104  33.054  33.113  1.00  0.00     0.074 A 
ATOM     59  C   UNL A   1      42.650  30.976  37.027  1.00  0.00     0.029 A 
ATOM     60  N   UNL A   1      41.204  31.211  35.354  1.00  0.00    -0.354 N 
ATOM     61  N   UNL A   1      39.061  32.550  33.857  1.00  0.00    -0.248 NA
ATOM     62  C   UNL A   1      37.465  34.249  33.677  1.00  0.00     0.031 C 
ATOM     63  C   UNL A   1      41.836  32.080  37.297  1.00  0.00     0.029 A 
ATOM     64  C   UNL A   1      40.956  32.247  36.240  1.00  0.00     0.049 A 
ATOM     65  H   UNL A   1      40.724  31.065  34.507  1.00  0.00     0.167 HD
ATOM     66  C   UNL A   1      39.152  33.380  34.970  1.00  0.00     0.074 A 
ATOM     67  C   UNL A   1      38.176  34.435  34.781  1.00  0.00     0.031 C 
ATOM     68  C   UNL A   1      39.965  33.277  36.050  1.00  0.00     0.031 A 
BRANCH  55  69
ATOM     69  C   UNL A   1      43.780  28.406  35.885  1.00  0.00    -0.014 A 
ATOM     70  C   UNL A   1      45.137  28.773  35.823  1.00  0.00     0.010 A 
ATOM     71  C   UNL A   1      43.414  27.280  36.647  1.00  0.00     0.010 A 
ATOM     72  C   UNL A   1      46.110  28.009  36.471  1.00  0.00     0.020 A 
ATOM     73  C   UNL A   1      44.381  26.532  37.325  1.00  0.00     0.020 A 
ATOM     74  C   UNL A   1      45.725  26.893  37.219  1.00  0.00     0.054 A 
BRANCH  74  75
ATOM     75  S   UNL A   1      47.008  25.936  38.075  1.00  0.00     0.124 S 
ATOM     76  O   UNL A   1      48.099  25.960  37.104  1.00  0.00    -0.237 OA
ATOM     77  O   UNL A   1      47.232  26.719  39.289  1.00  0.00    -0.237 OA
ATOM     78  O   UNL A   1      46.388  24.630  38.283  1.00  0.00    -0.744 OA
ENDBRANCH  74  75
ENDBRANCH  55  69
BRANCH  56  79
ATOM     79  C   UNL A   1      36.505  33.310  31.070  1.00  0.00    -0.014 A 
ATOM     80  C   UNL A   1      36.705  33.831  29.779  1.00  0.00     0.010 A 
ATOM     81  C   UNL A   1      35.250  33.475  31.685  1.00  0.00     0.010 A 
ATOM     82  C   UNL A   1      35.679  34.521  29.126  1.00  0.00     0.020 A 
ATOM     83  C   UNL A   1      34.211  34.134  31.022  1.00  0.00     0.020 A 
ATOM     84  C   UNL A   1      34.436  34.663  29.752  1.00  0.00     0.054 A 
BRANCH  84  85
ATOM     85  S   UNL A   1      33.104  35.518  28.864  1.00  0.00     0.124 S 
ATOM     86  O   UNL A   1      32.290  36.033  29.960  1.00  0.00    -0.237 OA
ATOM     87  O   UNL A   1      33.835  36.520  28.092  1.00  0.00    -0.237 OA
ATOM     88  O   UNL A   1      32.488  34.458  28.070  1.00  0.00    -0.744 OA
ENDBRANCH  84  85
ENDBRANCH  56  79
BRANCH  68  89
ATOM     89  C   UNL A   1      39.841  34.349  37.103  1.00  0.00    -0.014 A 
ATOM     90  C   UNL A   1      39.023  34.173  38.234  1.00  0.00     0.010 A 
ATOM     91  C   UNL A   1      40.564  35.548  36.965  1.00  0.00     0.010 A 
ATOM     92  C   UNL A   1      38.882  35.199  39.172  1.00  0.00     0.020 A 
ATOM     93  C   UNL A   1      40.456  36.562  37.920  1.00  0.00     0.020 A 
ATOM     94  C   UNL A   1      39.595  36.389  39.005  1.00  0.00     0.054 A 
BRANCH  94  95
ATOM     95  S   UNL A   1      39.394  37.705  40.236  1.00  0.00     0.124 S 
ATOM     96  O   UNL A   1      39.085  36.946  41.445  1.00  0.00    -0.237 OA
ATOM     97  O   UNL A   1      40.699  38.360  40.220  1.00  0.00    -0.237 OA
ATOM     98  O   UNL A   1      38.294  38.509  39.708  1.00  0.00    -0.744 OA
ENDBRANCH  94  95
ENDBRANCH  68  89
ENDBRANCH  42  43
ENDBRANCH  34  37
ENDBRANCH  32  33
ENDBRANCH  31  32
ENDBRANCH   1  31
TORSDOF 18
ENDMDL
MODEL 2
REMARK VINA RESULT:     -12.8      2.967      9.374
REMARK SMILES O=C1OC(c2ccc(Cl)cc2)=N/C1=C/Nc1ccc(O)c(C(=O)NCCCCNC(=O)c2ccc(-c3c4nc(c(-c5ccc(S(=O)(=O)[O-])cc5)c5ccc([nH]5)c(-c5ccc(S(=O)(=O)[O-])cc5)c5nc(c(-c6ccc(S(=O)(=O)[O-])cc6)c6ccc3[nH]6)C=C5)C=C4)cc2)c1
REMARK SMILES IDX 26 1 25 2 24 3 22 4 23 5 21 7 16 8 17 9 92 10 18 11 19 12
REMARK SMILES IDX 15 13 14 15 1 16 2 17 3 18 13 19 4 20 12 21 5 22 6 23 11 24
REMARK SMILES IDX 7 25 10 26 8 27 9 28 20 29 27 31 28 32 29 33 30 34 31 36
REMARK SMILES IDX 32 37 33 38 91 39 34 40 90 41 35 42 36 43 37 44 84 45 38 46
REMARK SMILES IDX 89 47 83 48 85 49 39 50 88 51 82 52 81 53 40 55 70 56 51 57
REMARK SMILES IDX 69 58 52 59 55 60 68 61 86 62 53 63 54 64 67 66 87 67 56 68
REMARK SMILES IDX 41 69 42 70 50 71 43 72 49 73 44 74 45 75 46 76 47 77 48 78
REMARK SMILES IDX 71 79 72 80 80 81 73 82 79 83 74 84 75 85 76 86 77 87 78 88
REMARK SMILES IDX 57 89 58 90 66 91 59 92 65 93 60 94 61 95 62 96 63 97 64 98
REMARK H PARENT 24 6 15 14 20 30 29 35 85 54 55 65
REMARK Flexibility Score: inf
ROOT
ATOM      1  C   UNL A   1      34.883  30.326  27.965  1.00  0.00     0.023 C 
ENDROOT
BRANCH   1   2
ATOM      2  C   UNL A   1      34.448  29.147  27.087  1.00  0.00     0.116 C 
BRANCH   2   3
ATOM      3  N   UNL A   1      33.252  28.551  27.632  1.00  0.00    -0.352 N 
ATOM      4  C   UNL A   1      32.017  28.317  27.095  1.00  0.00     0.255 C 
ATOM      5  O   UNL A   1      31.163  27.896  27.885  1.00  0.00    -0.269 OA
ATOM      6  H   UNL A   1      33.344  28.255  28.567  1.00  0.00     0.163 HD
BRANCH   4   7
ATOM      7  C   UNL A   1      31.651  28.430  25.645  1.00  0.00     0.083 A 
ATOM      8  C   UNL A   1      31.252  27.067  23.631  1.00  0.00     0.039 A 
ATOM      9  C   UNL A   1      31.113  28.232  22.881  1.00  0.00     0.030 A 
ATOM     10  C   UNL A   1      31.544  27.182  24.993  1.00  0.00     0.043 A 
ATOM     11  C   UNL A   1      31.157  29.476  23.500  1.00  0.00     0.049 A 
ATOM     12  C   UNL A   1      31.390  29.572  24.878  1.00  0.00     0.128 A 
BRANCH   8  13
ATOM     13  N   UNL A   1      31.168  25.794  23.055  1.00  0.00    -0.360 N 
ATOM     14  H   UNL A   1      31.200  25.749  22.072  1.00  0.00     0.166 HD
BRANCH  13  15
ATOM     15  C   UNL A   1      31.046  24.609  23.725  1.00  0.00     0.119 C 
ATOM     16  O   UNL A   1      33.215  24.013  21.703  1.00  0.00    -0.244 OA
ATOM     17  C   UNL A   1      32.754  23.242  22.516  1.00  0.00     0.365 C 
ATOM     18  O   UNL A   1      33.129  21.950  22.745  1.00  0.00    -0.402 OA
ATOM     19  C   UNL A   1      31.669  23.448  23.514  1.00  0.00     0.168 C 
ATOM     20  C   UNL A   1      32.307  21.491  23.715  1.00  0.00     0.231 C 
ATOM     21  N   UNL A   1      31.427  22.297  24.212  1.00  0.00    -0.204 NA
BRANCH  20  22
ATOM     22  C   UNL A   1      32.472  20.087  24.057  1.00  0.00     0.037 A 
ATOM     23  C   UNL A   1      32.447  19.106  23.062  1.00  0.00     0.015 A 
ATOM     24  C   UNL A   1      32.700  19.749  25.394  1.00  0.00     0.015 A 
ATOM     25  C   UNL A   1      32.657  17.772  23.416  1.00  0.00     0.021 A 
ATOM     26  C   UNL A   1      32.890  18.413  25.745  1.00  0.00     0.021 A 
ATOM     27  C   UNL A   1      32.873  17.431  24.753  1.00  0.00     0.041 A 
ATOM     28  Cl  UNL A   1      33.129  15.786  25.184  1.00  0.00    -0.084 Cl
ENDBRANCH  20  22
ENDBRANCH  13  15
ENDBRANCH   8  13
BRANCH  12  29
ATOM     29  O   UNL A   1      31.278  30.819  25.414  1.00  0.00    -0.507 OA
ATOM     30  H   UNL A   1      31.125  30.923  26.332  1.00  0.00     0.293 HD
ENDBRANCH  12  29
ENDBRANCH   4   7
ENDBRANCH   2   3
ENDBRANCH   1   2
BRANCH   1  31
ATOM     31  C   UNL A   1      34.433  31.690  27.448  1.00  0.00     0.023 C 
BRANCH  31  32
ATOM     32  C   UNL A   1      33.008  32.065  27.830  1.00  0.00     0.116 C 
BRANCH  32  33
ATOM     33  N   UNL A   1      32.781  33.503  27.848  1.00  0.00    -0.352 N 
ATOM     34  C   UNL A   1      33.444  34.463  28.571  1.00  0.00     0.251 C 
ATOM     35  H   UNL A   1      32.058  33.829  27.266  1.00  0.00     0.163 HD
ATOM     36  O   UNL A   1      33.047  35.624  28.564  1.00  0.00    -0.269 OA
BRANCH  34  37
ATOM     37  C   UNL A   1      34.609  34.070  29.386  1.00  0.00     0.039 A 
ATOM     38  C   UNL A   1      34.391  33.352  30.562  1.00  0.00     0.014 A 
ATOM     39  C   UNL A   1      35.910  34.365  28.966  1.00  0.00     0.014 A 
ATOM     40  C   UNL A   1      35.483  32.878  31.286  1.00  0.00     0.010 A 
ATOM     41  C   UNL A   1      36.994  33.815  29.641  1.00  0.00     0.010 A 
ATOM     42  C   UNL A   1      36.793  33.071  30.810  1.00  0.00    -0.014 A 
BRANCH  42  43
ATOM     43  C   UNL A   1      37.947  32.472  31.527  1.00  0.00     0.031 A 
ATOM     44  C   UNL A   1      38.373  32.997  32.871  1.00  0.00     0.074 A 
ATOM     45  C   UNL A   1      38.625  31.460  30.948  1.00  0.00     0.049 A 
ATOM     46  N   UNL A   1      39.314  32.555  33.664  1.00  0.00    -0.248 NA
ATOM     47  C   UNL A   1      37.668  34.184  33.382  1.00  0.00     0.031 C 
ATOM     48  C   UNL A   1      38.347  30.907  29.620  1.00  0.00     0.029 A 
ATOM     49  N   UNL A   1      39.675  30.707  31.407  1.00  0.00    -0.354 N 
ATOM     50  C   UNL A   1      39.316  33.407  34.763  1.00  0.00     0.074 A 
ATOM     51  C   UNL A   1      38.327  34.429  34.505  1.00  0.00     0.031 C 
ATOM     52  C   UNL A   1      39.168  29.869  29.395  1.00  0.00     0.029 A 
ATOM     53  C   UNL A   1      40.057  29.709  30.540  1.00  0.00     0.049 A 
ATOM     54  H   UNL A   1      40.115  30.866  32.273  1.00  0.00     0.167 HD
ATOM     55  C   UNL A   1      40.057  33.331  35.894  1.00  0.00     0.031 A 
ATOM     56  C   UNL A   1      41.011  28.766  30.657  1.00  0.00     0.031 A 
ATOM     57  C   UNL A   1      41.045  32.313  36.141  1.00  0.00     0.049 A 
ATOM     58  C   UNL A   1      41.824  28.706  31.921  1.00  0.00     0.074 A 
ATOM     59  C   UNL A   1      41.811  32.114  37.276  1.00  0.00     0.029 A 
ATOM     60  N   UNL A   1      41.413  31.328  35.235  1.00  0.00    -0.354 N 
ATOM     61  N   UNL A   1      41.748  29.467  32.987  1.00  0.00    -0.248 NA
ATOM     62  C   UNL A   1      42.839  27.649  32.002  1.00  0.00     0.031 C 
ATOM     63  C   UNL A   1      42.687  31.053  37.032  1.00  0.00     0.029 A 
ATOM     64  C   UNL A   1      42.418  30.541  35.773  1.00  0.00     0.049 A 
ATOM     65  H   UNL A   1      41.018  31.207  34.341  1.00  0.00     0.167 HD
ATOM     66  C   UNL A   1      42.694  28.966  33.876  1.00  0.00     0.074 A 
ATOM     67  C   UNL A   1      43.302  27.819  33.232  1.00  0.00     0.031 C 
ATOM     68  C   UNL A   1      43.031  29.416  35.110  1.00  0.00     0.031 A 
BRANCH  55  69
ATOM     69  C   UNL A   1      39.830  34.385  36.949  1.00  0.00    -0.014 A 
ATOM     70  C   UNL A   1      38.959  34.160  38.030  1.00  0.00     0.010 A 
ATOM     71  C   UNL A   1      40.530  35.604  36.881  1.00  0.00     0.010 A 
ATOM     72  C   UNL A   1      38.758  35.147  38.999  1.00  0.00     0.020 A 
ATOM     73  C   UNL A   1      40.358  36.582  37.866  1.00  0.00     0.020 A 
ATOM     74  C   UNL A   1      39.461  36.352  38.910  1.00  0.00     0.054 A 
BRANCH  74  75
ATOM     75  S   UNL A   1      39.203  37.603  40.199  1.00  0.00     0.124 S 
ATOM     76  O   UNL A   1      40.529  38.206  40.304  1.00  0.00    -0.237 OA
ATOM     77  O   UNL A   1      38.171  38.456  39.612  1.00  0.00    -0.237 OA
ATOM     78  O   UNL A   1      38.779  36.825  41.360  1.00  0.00    -0.744 OA
ENDBRANCH  74  75
ENDBRANCH  55  69
BRANCH  56  79
ATOM     79  C   UNL A   1      41.233  27.791  29.552  1.00  0.00    -0.014 A 
ATOM     80  C   UNL A   1      42.343  27.911  28.698  1.00  0.00     0.010 A 
ATOM     81  C   UNL A   1      40.334  26.726  29.356  1.00  0.00     0.010 A 
ATOM     82  C   UNL A   1      42.539  27.000  27.656  1.00  0.00     0.020 A 
ATOM     83  C   UNL A   1      40.545  25.792  28.337  1.00  0.00     0.020 A 
ATOM     84  C   UNL A   1      41.640  25.943  27.486  1.00  0.00     0.054 A 
BRANCH  84  85
ATOM     85  S   UNL A   1      41.942  24.743  26.159  1.00  0.00     0.124 S 
ATOM     86  O   UNL A   1      41.698  25.543  24.964  1.00  0.00    -0.237 OA
ATOM     87  O   UNL A   1      43.333  24.360  26.393  1.00  0.00    -0.237 OA
ATOM     88  O   UNL A   1      40.962  23.691  26.420  1.00  0.00    -0.744 OA
ENDBRANCH  84  85
ENDBRANCH  56  79
BRANCH  68  89
ATOM     89  C   UNL A   1      44.098  28.649  35.850  1.00  0.00    -0.014 A 
ATOM     90  C   UNL A   1      43.769  27.593  36.720  1.00  0.00     0.010 A 
ATOM     91  C   UNL A   1      45.451  28.982  35.662  1.00  0.00     0.010 A 
ATOM     92  C   UNL A   1      44.769  26.929  37.436  1.00  0.00     0.020 A 
ATOM     93  C   UNL A   1      46.458  28.295  36.347  1.00  0.00     0.020 A 
ATOM     94  C   UNL A   1      46.106  27.288  37.249  1.00  0.00     0.054 A 
BRANCH  94  95
ATOM     95  S   UNL A   1      47.384  26.411  38.189  1.00  0.00     0.124 S 
ATOM     96  O   UNL A   1      47.370  27.126  39.462  1.00  0.00    -0.237 OA
ATOM     97  O   UNL A   1      46.870  25.044  38.229  1.00  0.00    -0.237 OA
ATOM     98  O   UNL A   1      48.591  26.593  37.386  1.00  0.00    -0.744 OA
ENDBRANCH  94  95
ENDBRANCH  68  89
ENDBRANCH  42  43
ENDBRANCH  34  37
ENDBRANCH  32  33
ENDBRANCH  31  32
ENDBRANCH   1  31
TORSDOF 18
ENDMDL
MODEL 3
REMARK VINA RESULT:     -12.7      6.084      8.206
REMARK SMILES O=C1OC(c2ccc(Cl)cc2)=N/C1=C/Nc1ccc(O)c(C(=O)NCCCCNC(=O)c2ccc(-c3c4nc(c(-c5ccc(S(=O)(=O)[O-])cc5)c5ccc([nH]5)c(-c5ccc(S(=O)(=O)[O-])cc5)c5nc(c(-c6ccc(S(=O)(=O)[O-])cc6)c6ccc3[nH]6)C=C5)C=C4)cc2)c1
REMARK SMILES IDX 26 1 25 2 24 3 22 4 23 5 21 7 16 8 17 9 92 10 18 11 19 12
REMARK SMILES IDX 15 13 14 15 1 16 2 17 3 18 13 19 4 20 12 21 5 22 6 23 11 24
REMARK SMILES IDX 7 25 10 26 8 27 9 28 20 29 27 31 28 32 29 33 30 34 31 36
REMARK SMILES IDX 32 37 33 38 91 39 34 40 90 41 35 42 36 43 37 44 84 45 38 46
REMARK SMILES IDX 89 47 83 48 85 49 39 50 88 51 82 52 81 53 40 55 70 56 51 57
REMARK SMILES IDX 69 58 52 59 55 60 68 61 86 62 53 63 54 64 67 66 87 67 56 68
REMARK SMILES IDX 41 69 42 70 50 71 43 72 49 73 44 74 45 75 46 76 47 77 48 78
REMARK SMILES IDX 71 79 72 80 80 81 73 82 79 83 74 84 75 85 76 86 77 87 78 88
REMARK SMILES IDX 57 89 58 90 66 91 59 92 65 93 60 94 61 95 62 96 63 97 64 98
REMARK H PARENT 24 6 15 14 20 30 29 35 85 54 55 65
REMARK Flexibility Score: inf
ROOT
ATOM      1  C   UNL A   1      37.313  21.646  24.463  1.00  0.00     0.023 C 
ENDROOT
BRANCH   1   2
ATOM      2  C   UNL A   1      36.517  22.732  25.195  1.00  0.00     0.116 C 
BRANCH   2   3
ATOM      3  N   UNL A   1      35.782  22.141  26.288  1.00  0.00    -0.352 N 
ATOM      4  C   UNL A   1      34.587  21.477  26.337  1.00  0.00     0.255 C 
ATOM      5  O   UNL A   1      34.175  21.205  27.471  1.00  0.00    -0.269 OA
ATOM      6  H   UNL A   1      36.225  22.233  27.162  1.00  0.00     0.163 HD
BRANCH   4   7
ATOM      7  C   UNL A   1      33.809  20.976  25.157  1.00  0.00     0.083 A 
ATOM      8  C   UNL A   1      32.309  21.737  23.355  1.00  0.00     0.039 A 
ATOM      9  C   UNL A   1      32.126  20.414  22.961  1.00  0.00     0.030 A 
ATOM     10  C   UNL A   1      33.125  21.996  24.461  1.00  0.00     0.043 A 
ATOM     11  C   UNL A   1      32.827  19.390  23.588  1.00  0.00     0.049 A 
ATOM     12  C   UNL A   1      33.688  19.674  24.656  1.00  0.00     0.128 A 
BRANCH   8  13
ATOM     13  N   UNL A   1      31.659  22.801  22.721  1.00  0.00    -0.360 N 
ATOM     14  H   UNL A   1      31.590  22.758  21.740  1.00  0.00     0.166 HD
BRANCH  13  15
ATOM     15  C   UNL A   1      31.111  23.895  23.331  1.00  0.00     0.119 C 
ATOM     16  O   UNL A   1      33.836  24.899  22.486  1.00  0.00    -0.244 OA
ATOM     17  C   UNL A   1      32.989  25.525  23.087  1.00  0.00     0.365 C 
ATOM     18  O   UNL A   1      33.042  26.830  23.481  1.00  0.00    -0.402 OA
ATOM     19  C   UNL A   1      31.648  25.094  23.566  1.00  0.00     0.168 C 
ATOM     20  C   UNL A   1      31.887  27.064  24.144  1.00  0.00     0.231 C 
ATOM     21  N   UNL A   1      31.026  26.106  24.243  1.00  0.00    -0.204 NA
BRANCH  20  22
ATOM     22  C   UNL A   1      31.769  28.387  24.739  1.00  0.00     0.037 A 
ATOM     23  C   UNL A   1      30.882  29.328  24.210  1.00  0.00     0.015 A 
ATOM     24  C   UNL A   1      32.529  28.675  25.878  1.00  0.00     0.015 A 
ATOM     25  C   UNL A   1      30.756  30.570  24.834  1.00  0.00     0.021 A 
ATOM     26  C   UNL A   1      32.413  29.924  26.485  1.00  0.00     0.021 A 
ATOM     27  C   UNL A   1      31.523  30.864  25.964  1.00  0.00     0.041 A 
ATOM     28  Cl  UNL A   1      31.366  32.398  26.726  1.00  0.00    -0.084 Cl
ENDBRANCH  20  22
ENDBRANCH  13  15
ENDBRANCH   8  13
BRANCH  12  29
ATOM     29  O   UNL A   1      34.433  18.629  25.113  1.00  0.00    -0.507 OA
ATOM     30  H   UNL A   1      34.096  18.072  25.787  1.00  0.00     0.293 HD
ENDBRANCH  12  29
ENDBRANCH   4   7
ENDBRANCH   2   3
ENDBRANCH   1   2
BRANCH   1  31
ATOM     31  C   UNL A   1      37.933  20.597  25.384  1.00  0.00     0.023 C 
BRANCH  31  32
ATOM     32  C   UNL A   1      39.341  20.932  25.856  1.00  0.00     0.116 C 
BRANCH  32  33
ATOM     33  N   UNL A   1      40.217  19.770  25.909  1.00  0.00    -0.352 N 
ATOM     34  C   UNL A   1      41.572  19.731  26.122  1.00  0.00     0.251 C 
ATOM     35  H   UNL A   1      39.779  18.899  25.775  1.00  0.00     0.163 HD
ATOM     36  O   UNL A   1      42.182  18.673  26.015  1.00  0.00    -0.269 OA
BRANCH  34  37
ATOM     37  C   UNL A   1      42.284  20.985  26.438  1.00  0.00     0.039 A 
ATOM     38  C   UNL A   1      42.671  21.816  25.387  1.00  0.00     0.014 A 
ATOM     39  C   UNL A   1      42.524  21.358  27.763  1.00  0.00     0.014 A 
ATOM     40  C   UNL A   1      43.246  23.053  25.670  1.00  0.00     0.010 A 
ATOM     41  C   UNL A   1      43.014  22.629  28.044  1.00  0.00     0.010 A 
ATOM     42  C   UNL A   1      43.385  23.487  27.001  1.00  0.00    -0.014 A 
BRANCH  42  43
ATOM     43  C   UNL A   1      43.899  24.849  27.297  1.00  0.00     0.031 A 
ATOM     44  C   UNL A   1      45.351  25.183  27.093  1.00  0.00     0.074 A 
ATOM     45  C   UNL A   1      43.047  25.781  27.770  1.00  0.00     0.049 A 
ATOM     46  N   UNL A   1      45.957  26.333  27.239  1.00  0.00    -0.248 NA
ATOM     47  C   UNL A   1      46.244  24.082  26.696  1.00  0.00     0.031 C 
ATOM     48  C   UNL A   1      41.630  25.559  28.069  1.00  0.00     0.029 A 
ATOM     49  N   UNL A   1      43.245  27.105  28.069  1.00  0.00    -0.354 N 
ATOM     50  C   UNL A   1      47.297  26.095  26.955  1.00  0.00     0.074 A 
ATOM     51  C   UNL A   1      47.427  24.680  26.691  1.00  0.00     0.031 C 
ATOM     52  C   UNL A   1      41.075  26.719  28.456  1.00  0.00     0.029 A 
ATOM     53  C   UNL A   1      42.101  27.755  28.473  1.00  0.00     0.049 A 
ATOM     54  H   UNL A   1      44.121  27.549  28.002  1.00  0.00     0.167 HD
ATOM     55  C   UNL A   1      48.321  26.979  26.896  1.00  0.00     0.031 A 
ATOM     56  C   UNL A   1      41.899  29.042  28.813  1.00  0.00     0.031 A 
ATOM     57  C   UNL A   1      48.185  28.387  27.165  1.00  0.00     0.049 A 
ATOM     58  C   UNL A   1      43.055  30.002  28.744  1.00  0.00     0.074 A 
ATOM     59  C   UNL A   1      49.148  29.376  27.079  1.00  0.00     0.029 A 
ATOM     60  N   UNL A   1      47.015  29.005  27.584  1.00  0.00    -0.354 N 
ATOM     61  N   UNL A   1      44.296  29.775  28.385  1.00  0.00    -0.248 NA
ATOM     62  C   UNL A   1      42.775  31.396  29.109  1.00  0.00     0.031 C 
ATOM     63  C   UNL A   1      48.579  30.579  27.510  1.00  0.00     0.029 A 
ATOM     64  C   UNL A   1      47.241  30.355  27.794  1.00  0.00     0.049 A 
ATOM     65  H   UNL A   1      46.152  28.550  27.714  1.00  0.00     0.167 HD
ATOM     66  C   UNL A   1      44.943  31.004  28.462  1.00  0.00     0.074 A 
ATOM     67  C   UNL A   1      43.945  31.973  28.869  1.00  0.00     0.031 C 
ATOM     68  C   UNL A   1      46.244  31.304  28.223  1.00  0.00     0.031 A 
BRANCH  55  69
ATOM     69  C   UNL A   1      49.684  26.444  26.529  1.00  0.00    -0.014 A 
ATOM     70  C   UNL A   1      50.496  25.801  27.481  1.00  0.00     0.010 A 
ATOM     71  C   UNL A   1      50.142  26.548  25.203  1.00  0.00     0.010 A 
ATOM     72  C   UNL A   1      51.755  25.312  27.126  1.00  0.00     0.020 A 
ATOM     73  C   UNL A   1      51.387  26.030  24.835  1.00  0.00     0.020 A 
ATOM     74  C   UNL A   1      52.192  25.429  25.804  1.00  0.00     0.054 A 
BRANCH  74  75
ATOM     75  S   UNL A   1      53.821  24.757  25.365  1.00  0.00     0.124 S 
ATOM     76  O   UNL A   1      53.491  23.382  25.001  1.00  0.00    -0.237 OA
ATOM     77  O   UNL A   1      54.232  25.618  24.258  1.00  0.00    -0.237 OA
ATOM     78  O   UNL A   1      54.600  24.907  26.591  1.00  0.00    -0.744 OA
ENDBRANCH  74  75
ENDBRANCH  55  69
BRANCH  56  79
ATOM     79  C   UNL A   1      40.543  29.498  29.229  1.00  0.00    -0.014 A 
ATOM     80  C   UNL A   1      39.492  29.574  28.297  1.00  0.00     0.010 A 
ATOM     81  C   UNL A   1      40.294  29.850  30.568  1.00  0.00     0.010 A 
ATOM     82  C   UNL A   1      38.225  30.014  28.692  1.00  0.00     0.020 A 
ATOM     83  C   UNL A   1      39.020  30.258  30.974  1.00  0.00     0.020 A 
ATOM     84  C   UNL A   1      37.997  30.348  30.030  1.00  0.00     0.054 A 
BRANCH  84  85
ATOM     85  S   UNL A   1      36.331  30.869  30.528  1.00  0.00     0.124 S 
ATOM     86  O   UNL A   1      35.949  29.813  31.461  1.00  0.00    -0.237 OA
ATOM     87  O   UNL A   1      36.578  32.181  31.122  1.00  0.00    -0.237 OA
ATOM     88  O   UNL A   1      35.590  30.892  29.270  1.00  0.00    -0.744 OA
ENDBRANCH  84  85
ENDBRANCH  56  79
BRANCH  68  89
ATOM     89  C   UNL A   1      46.653  32.746  28.379  1.00  0.00    -0.014 A 
ATOM     90  C   UNL A   1      47.132  33.242  29.605  1.00  0.00     0.010 A 
ATOM     91  C   UNL A   1      46.567  33.618  27.278  1.00  0.00     0.010 A 
ATOM     92  C   UNL A   1      47.457  34.594  29.744  1.00  0.00     0.020 A 
ATOM     93  C   UNL A   1      46.927  34.963  27.402  1.00  0.00     0.020 A 
ATOM     94  C   UNL A   1      47.347  35.446  28.642  1.00  0.00     0.054 A 
BRANCH  94  95
ATOM     95  S   UNL A   1      47.774  37.196  28.848  1.00  0.00     0.124 S 
ATOM     96  O   UNL A   1      49.014  37.118  29.615  1.00  0.00    -0.237 OA
ATOM     97  O   UNL A   1      47.915  37.656  27.469  1.00  0.00    -0.237 OA
ATOM     98  O   UNL A   1      46.630  37.750  29.569  1.00  0.00    -0.744 OA
ENDBRANCH  94  95
ENDBRANCH  68  89
ENDBRANCH  42  43
ENDBRANCH  34  37
ENDBRANCH  32  33
ENDBRANCH  31  32
ENDBRANCH   1  31
TORSDOF 18
ENDMDL
