MODEL 1
REMARK VINA RESULT:     -13.6      0.000      0.000
REMARK SMILES Cc1ccc(-c2c(C(=O)NCCCCNC(=O)c3ccc(-c4c5nc(c(-c6ccc(S(=O)(=O)[O-])cc6)c6ccc([nH]6)c(-c6ccc(S(=O)(=O)[O-])cc6)c6nc(c(-c7ccc(S(=O)(=O)[O-])cc7)c7ccc4[nH]7)C=C6)C=C5)cc3)nnn2Cc2c(F)cccc2Cl)cc1
REMARK SMILES IDX 13 1 12 2 11 3 10 4 8 5 9 6 7 8 6 9 80 10 78 11 79 12 5 13
REMARK SMILES IDX 1 14 2 15 3 16 91 17 4 18 90 19 81 20 82 21 83 22 88 23
REMARK SMILES IDX 84 24 85 25 87 26 89 27 86 28 14 29 15 30 16 31 17 33 18 34
REMARK SMILES IDX 19 35 77 36 20 37 76 38 21 39 22 40 23 41 70 42 24 43 75 44
REMARK SMILES IDX 69 45 71 46 25 47 74 48 68 49 67 50 26 52 56 53 37 54 55 55
REMARK SMILES IDX 38 56 41 57 54 58 72 59 39 60 40 61 53 63 73 64 42 65 27 66
REMARK SMILES IDX 28 67 36 68 29 69 35 70 30 71 31 72 32 73 33 74 34 75 57 76
REMARK SMILES IDX 58 77 66 78 59 79 65 80 60 81 61 82 62 83 63 84 64 85 43 86
REMARK SMILES IDX 44 87 52 88 45 89 51 90 46 91 47 92 48 93 49 94 50 95
REMARK H PARENT 10 7 15 32 71 51 41 62
REMARK Flexibility Score: inf
ROOT
ATOM      1  C   UNL A   1      33.336  29.575  26.040  1.00  0.00     0.023 C 
ENDROOT
BRANCH   1   2
ATOM      2  C   UNL A   1      33.629  28.566  24.921  1.00  0.00     0.023 C 
BRANCH   2   3
ATOM      3  C   UNL A   1      32.837  28.829  23.634  1.00  0.00     0.116 C 
BRANCH   3   4
ATOM      4  N   UNL A   1      33.282  27.996  22.542  1.00  0.00    -0.351 N 
ATOM      5  C   UNL A   1      33.169  26.664  22.246  1.00  0.00     0.274 C 
ATOM      6  O   UNL A   1      33.624  26.377  21.130  1.00  0.00    -0.267 OA
ATOM      7  H   UNL A   1      33.779  28.498  21.857  1.00  0.00     0.163 HD
BRANCH   5   8
ATOM      8  C   UNL A   1      32.572  25.614  23.084  1.00  0.00     0.178 A 
ATOM      9  C   UNL A   1      33.014  24.595  23.935  1.00  0.00     0.102 A 
ATOM     10  N   UNL A   1      31.836  24.026  24.392  1.00  0.00    -0.239 N 
ATOM     11  N   UNL A   1      31.185  25.519  23.010  1.00  0.00    -0.124 NA
ATOM     12  N   UNL A   1      30.763  24.533  23.771  1.00  0.00    -0.066 NA
BRANCH   9  13
ATOM     13  C   UNL A   1      34.303  24.063  24.353  1.00  0.00     0.002 A 
ATOM     14  C   UNL A   1      38.064  22.371  25.620  1.00  0.00     0.044 C 
ATOM     15  C   UNL A   1      36.733  22.922  25.197  1.00  0.00    -0.051 A 
ATOM     16  C   UNL A   1      36.023  23.777  26.045  1.00  0.00     0.004 A 
ATOM     17  C   UNL A   1      36.223  22.646  23.924  1.00  0.00     0.004 A 
ATOM     18  C   UNL A   1      34.807  24.325  25.634  1.00  0.00     0.011 A 
ATOM     19  C   UNL A   1      35.015  23.209  23.505  1.00  0.00     0.011 A 
ENDBRANCH   9  13
BRANCH  10  20
ATOM     20  C   UNL A   1      31.619  22.911  25.310  1.00  0.00     0.187 C 
BRANCH  20  21
ATOM     21  C   UNL A   1      32.343  21.630  24.987  1.00  0.00     0.028 A 
ATOM     22  C   UNL A   1      33.156  21.086  25.994  1.00  0.00     0.129 A 
ATOM     23  C   UNL A   1      32.327  20.963  23.752  1.00  0.00     0.049 A 
ATOM     24  F   UNL A   1      33.286  21.733  27.162  1.00  0.00    -0.207 F 
ATOM     25  C   UNL A   1      33.859  19.896  25.824  1.00  0.00     0.040 A 
ATOM     26  C   UNL A   1      33.005  19.748  23.584  1.00  0.00     0.021 A 
ATOM     27  Cl  UNL A   1      31.508  21.579  22.363  1.00  0.00    -0.084 Cl
ATOM     28  C   UNL A   1      33.765  19.209  24.620  1.00  0.00     0.005 A 
ENDBRANCH  20  21
ENDBRANCH  10  20
ENDBRANCH   5   8
ENDBRANCH   3   4
ENDBRANCH   2   3
ENDBRANCH   1   2
BRANCH   1  29
ATOM     29  C   UNL A   1      34.404  29.575  27.130  1.00  0.00     0.116 C 
BRANCH  29  30
ATOM     30  N   UNL A   1      35.157  30.805  27.271  1.00  0.00    -0.352 N 
ATOM     31  C   UNL A   1      36.330  30.973  27.998  1.00  0.00     0.251 C 
ATOM     32  H   UNL A   1      34.804  31.599  26.808  1.00  0.00     0.163 HD
ATOM     33  O   UNL A   1      36.663  32.051  28.456  1.00  0.00    -0.269 OA
BRANCH  31  34
ATOM     34  C   UNL A   1      37.253  29.811  28.049  1.00  0.00     0.039 A 
ATOM     35  C   UNL A   1      37.280  29.063  29.234  1.00  0.00     0.014 A 
ATOM     36  C   UNL A   1      38.233  29.635  27.078  1.00  0.00     0.014 A 
ATOM     37  C   UNL A   1      38.385  28.261  29.521  1.00  0.00     0.010 A 
ATOM     38  C   UNL A   1      39.371  28.926  27.408  1.00  0.00     0.010 A 
ATOM     39  C   UNL A   1      39.465  28.264  28.641  1.00  0.00    -0.014 A 
BRANCH  39  40
ATOM     40  C   UNL A   1      40.763  27.658  28.920  1.00  0.00     0.031 A 
ATOM     41  C   UNL A   1      41.019  26.247  28.542  1.00  0.00     0.074 A 
ATOM     42  C   UNL A   1      41.783  28.425  29.366  1.00  0.00     0.049 A 
ATOM     43  N   UNL A   1      41.963  25.516  29.038  1.00  0.00    -0.248 NA
ATOM     44  C   UNL A   1      40.185  25.531  27.579  1.00  0.00     0.031 C 
ATOM     45  C   UNL A   1      43.207  28.098  29.319  1.00  0.00     0.029 A 
ATOM     46  N   UNL A   1      41.730  29.579  30.152  1.00  0.00    -0.354 N 
ATOM     47  C   UNL A   1      42.057  24.387  28.252  1.00  0.00     0.074 A 
ATOM     48  C   UNL A   1      40.882  24.404  27.414  1.00  0.00     0.031 C 
ATOM     49  C   UNL A   1      43.844  28.820  30.254  1.00  0.00     0.029 A 
ATOM     50  C   UNL A   1      42.822  29.498  31.032  1.00  0.00     0.049 A 
ATOM     51  H   UNL A   1      41.062  30.301  30.100  1.00  0.00     0.167 HD
ATOM     52  C   UNL A   1      43.191  23.631  28.270  1.00  0.00     0.031 A 
ATOM     53  C   UNL A   1      42.712  29.444  32.393  1.00  0.00     0.031 A 
ATOM     54  C   UNL A   1      44.166  24.129  29.235  1.00  0.00     0.049 A 
ATOM     55  C   UNL A   1      43.394  28.242  33.003  1.00  0.00     0.074 A 
ATOM     56  C   UNL A   1      45.299  24.913  29.104  1.00  0.00     0.029 A 
ATOM     57  N   UNL A   1      43.879  24.068  30.592  1.00  0.00    -0.354 N 
ATOM     58  N   UNL A   1      43.735  27.182  32.329  1.00  0.00    -0.248 NA
ATOM     59  C   UNL A   1      43.689  28.118  34.428  1.00  0.00     0.031 C 
ATOM     60  C   UNL A   1      45.657  25.384  30.391  1.00  0.00     0.029 A 
ATOM     61  C   UNL A   1      44.752  24.868  31.303  1.00  0.00     0.049 A 
ATOM     62  H   UNL A   1      43.156  23.532  30.991  1.00  0.00     0.167 HD
ATOM     63  C   UNL A   1      44.244  26.240  33.183  1.00  0.00     0.074 A 
ATOM     64  C   UNL A   1      44.217  26.882  34.484  1.00  0.00     0.031 C 
ATOM     65  C   UNL A   1      44.622  25.005  32.745  1.00  0.00     0.031 A 
BRANCH  52  66
ATOM     66  C   UNL A   1      43.529  22.635  27.184  1.00  0.00    -0.014 A 
ATOM     67  C   UNL A   1      42.667  21.542  26.953  1.00  0.00     0.010 A 
ATOM     68  C   UNL A   1      44.693  22.687  26.395  1.00  0.00     0.010 A 
ATOM     69  C   UNL A   1      42.996  20.507  26.068  1.00  0.00     0.020 A 
ATOM     70  C   UNL A   1      45.055  21.640  25.532  1.00  0.00     0.020 A 
ATOM     71  C   UNL A   1      44.206  20.547  25.383  1.00  0.00     0.054 A 
BRANCH  71  72
ATOM     72  S   UNL A   1      44.652  19.155  24.311  1.00  0.00     0.124 S 
ATOM     73  O   UNL A   1      43.698  18.126  24.717  1.00  0.00    -0.237 OA
ATOM     74  O   UNL A   1      44.449  19.712  22.977  1.00  0.00    -0.237 OA
ATOM     75  O   UNL A   1      46.043  18.878  24.665  1.00  0.00    -0.744 OA
ENDBRANCH  71  72
ENDBRANCH  52  66
BRANCH  53  76
ATOM     76  C   UNL A   1      41.472  30.054  32.938  1.00  0.00    -0.014 A 
ATOM     77  C   UNL A   1      41.416  31.458  33.005  1.00  0.00     0.010 A 
ATOM     78  C   UNL A   1      40.274  29.315  32.962  1.00  0.00     0.010 A 
ATOM     79  C   UNL A   1      40.189  32.112  32.914  1.00  0.00     0.020 A 
ATOM     80  C   UNL A   1      39.040  29.976  32.878  1.00  0.00     0.020 A 
ATOM     81  C   UNL A   1      39.018  31.369  32.779  1.00  0.00     0.054 A 
BRANCH  81  82
ATOM     82  S   UNL A   1      37.518  32.251  32.259  1.00  0.00     0.124 S 
ATOM     83  O   UNL A   1      37.075  32.875  33.502  1.00  0.00    -0.237 OA
ATOM     84  O   UNL A   1      38.052  33.170  31.254  1.00  0.00    -0.237 OA
ATOM     85  O   UNL A   1      36.663  31.187  31.743  1.00  0.00    -0.744 OA
ENDBRANCH  81  82
ENDBRANCH  53  76
BRANCH  65  86
ATOM     86  C   UNL A   1      44.976  23.828  33.620  1.00  0.00    -0.014 A 
ATOM     87  C   UNL A   1      44.104  22.763  33.893  1.00  0.00     0.010 A 
ATOM     88  C   UNL A   1      46.303  23.710  34.102  1.00  0.00     0.010 A 
ATOM     89  C   UNL A   1      44.512  21.667  34.667  1.00  0.00     0.020 A 
ATOM     90  C   UNL A   1      46.733  22.601  34.836  1.00  0.00     0.020 A 
ATOM     91  C   UNL A   1      45.823  21.595  35.138  1.00  0.00     0.054 A 
BRANCH  91  92
ATOM     92  S   UNL A   1      46.355  20.149  36.087  1.00  0.00     0.124 S 
ATOM     93  O   UNL A   1      45.826  20.450  37.415  1.00  0.00    -0.237 OA
ATOM     94  O   UNL A   1      45.703  19.040  35.392  1.00  0.00    -0.237 OA
ATOM     95  O   UNL A   1      47.810  20.179  35.967  1.00  0.00    -0.744 OA
ENDBRANCH  91  92
ENDBRANCH  65  86
ENDBRANCH  39  40
ENDBRANCH  31  34
ENDBRANCH  29  30
ENDBRANCH   1  29
TORSDOF 17
ENDMDL
MODEL 2
REMARK VINA RESULT:     -13.5      4.440     11.038
REMARK SMILES Cc1ccc(-c2c(C(=O)NCCCCNC(=O)c3ccc(-c4c5nc(c(-c6ccc(S(=O)(=O)[O-])cc6)c6ccc([nH]6)c(-c6ccc(S(=O)(=O)[O-])cc6)c6nc(c(-c7ccc(S(=O)(=O)[O-])cc7)c7ccc4[nH]7)C=C6)C=C5)cc3)nnn2Cc2c(F)cccc2Cl)cc1
REMARK SMILES IDX 13 1 12 2 11 3 10 4 8 5 9 6 7 8 6 9 80 10 78 11 79 12 5 13
REMARK SMILES IDX 1 14 2 15 3 16 91 17 4 18 90 19 81 20 82 21 83 22 88 23
REMARK SMILES IDX 84 24 85 25 87 26 89 27 86 28 14 29 15 30 16 31 17 33 18 34
REMARK SMILES IDX 19 35 77 36 20 37 76 38 21 39 22 40 23 41 70 42 24 43 75 44
REMARK SMILES IDX 69 45 71 46 25 47 74 48 68 49 67 50 26 52 56 53 37 54 55 55
REMARK SMILES IDX 38 56 41 57 54 58 72 59 39 60 40 61 53 63 73 64 42 65 27 66
REMARK SMILES IDX 28 67 36 68 29 69 35 70 30 71 31 72 32 73 33 74 34 75 57 76
REMARK SMILES IDX 58 77 66 78 59 79 65 80 60 81 61 82 62 83 63 84 64 85 43 86
REMARK SMILES IDX 44 87 52 88 45 89 51 90 46 91 47 92 48 93 49 94 50 95
REMARK H PARENT 10 7 15 32 71 51 41 62
REMARK Flexibility Score: inf
ROOT
ATOM      1  C   UNL A   1      37.422  22.194  25.240  1.00  0.00     0.023 C 
ENDROOT
BRANCH   1   2
ATOM      2  C   UNL A   1      35.956  22.050  25.672  1.00  0.00     0.023 C 
BRANCH   2   3
ATOM      3  C   UNL A   1      35.482  23.162  26.617  1.00  0.00     0.116 C 
BRANCH   3   4
ATOM      4  N   UNL A   1      34.379  22.739  27.445  1.00  0.00    -0.351 N 
ATOM      5  C   UNL A   1      33.016  22.818  27.340  1.00  0.00     0.274 C 
ATOM      6  O   UNL A   1      32.426  22.226  28.254  1.00  0.00    -0.267 OA
ATOM      7  H   UNL A   1      34.673  22.293  28.272  1.00  0.00     0.163 HD
BRANCH   5   8
ATOM      8  C   UNL A   1      32.243  23.493  26.288  1.00  0.00     0.178 A 
ATOM      9  C   UNL A   1      32.031  24.801  25.839  1.00  0.00     0.102 A 
ATOM     10  N   UNL A   1      31.175  24.635  24.761  1.00  0.00    -0.239 N 
ATOM     11  N   UNL A   1      31.432  22.657  25.525  1.00  0.00    -0.124 NA
ATOM     12  N   UNL A   1      30.766  23.366  24.640  1.00  0.00    -0.066 NA
BRANCH   9  13
ATOM     13  C   UNL A   1      32.451  26.133  26.251  1.00  0.00     0.002 A 
ATOM     14  C   UNL A   1      33.631  30.129  27.369  1.00  0.00     0.044 C 
ATOM     15  C   UNL A   1      33.204  28.755  26.939  1.00  0.00    -0.051 A 
ATOM     16  C   UNL A   1      34.101  27.916  26.273  1.00  0.00     0.004 A 
ATOM     17  C   UNL A   1      31.931  28.273  27.263  1.00  0.00     0.004 A 
ATOM     18  C   UNL A   1      33.720  26.622  25.913  1.00  0.00     0.011 A 
ATOM     19  C   UNL A   1      31.555  26.973  26.919  1.00  0.00     0.011 A 
ENDBRANCH   9  13
BRANCH  10  20
ATOM     20  C   UNL A   1      30.579  25.624  23.867  1.00  0.00     0.187 C 
BRANCH  20  21
ATOM     21  C   UNL A   1      31.509  26.676  23.320  1.00  0.00     0.028 A 
ATOM     22  C   UNL A   1      31.172  28.016  23.569  1.00  0.00     0.129 A 
ATOM     23  C   UNL A   1      32.648  26.441  22.535  1.00  0.00     0.049 A 
ATOM     24  F   UNL A   1      30.041  28.302  24.231  1.00  0.00    -0.207 F 
ATOM     25  C   UNL A   1      31.962  29.077  23.134  1.00  0.00     0.040 A 
ATOM     26  C   UNL A   1      33.466  27.502  22.122  1.00  0.00     0.021 A 
ATOM     27  Cl  UNL A   1      33.116  24.866  22.006  1.00  0.00    -0.084 Cl
ATOM     28  C   UNL A   1      33.129  28.819  22.427  1.00  0.00     0.005 A 
ENDBRANCH  20  21
ENDBRANCH  10  20
ENDBRANCH   5   8
ENDBRANCH   3   4
ENDBRANCH   2   3
ENDBRANCH   1   2
BRANCH   1  29
ATOM     29  C   UNL A   1      38.134  23.348  25.939  1.00  0.00     0.116 C 
BRANCH  29  30
ATOM     30  N   UNL A   1      39.208  22.971  26.837  1.00  0.00    -0.352 N 
ATOM     31  C   UNL A   1      40.190  23.814  27.345  1.00  0.00     0.251 C 
ATOM     32  H   UNL A   1      39.245  22.028  27.115  1.00  0.00     0.163 HD
ATOM     33  O   UNL A   1      41.281  23.404  27.696  1.00  0.00    -0.269 OA
BRANCH  31  34
ATOM     34  C   UNL A   1      39.791  25.221  27.602  1.00  0.00     0.039 A 
ATOM     35  C   UNL A   1      40.308  26.203  26.746  1.00  0.00     0.014 A 
ATOM     36  C   UNL A   1      39.157  25.578  28.787  1.00  0.00     0.014 A 
ATOM     37  C   UNL A   1      40.343  27.534  27.162  1.00  0.00     0.010 A 
ATOM     38  C   UNL A   1      39.285  26.875  29.242  1.00  0.00     0.010 A 
ATOM     39  C   UNL A   1      39.906  27.850  28.447  1.00  0.00    -0.014 A 
BRANCH  39  40
ATOM     40  C   UNL A   1      40.091  29.147  29.090  1.00  0.00     0.031 A 
ATOM     41  C   UNL A   1      39.043  30.190  28.969  1.00  0.00     0.074 A 
ATOM     42  C   UNL A   1      41.131  29.340  29.931  1.00  0.00     0.049 A 
ATOM     43  N   UNL A   1      39.237  31.450  29.180  1.00  0.00    -0.248 NA
ATOM     44  C   UNL A   1      37.675  29.881  28.558  1.00  0.00     0.031 C 
ATOM     45  C   UNL A   1      41.255  30.389  30.940  1.00  0.00     0.029 A 
ATOM     46  N   UNL A   1      42.397  28.750  29.904  1.00  0.00    -0.354 N 
ATOM     47  C   UNL A   1      37.996  32.047  29.247  1.00  0.00     0.074 A 
ATOM     48  C   UNL A   1      37.066  31.050  28.773  1.00  0.00     0.031 C 
ATOM     49  C   UNL A   1      42.556  30.569  31.217  1.00  0.00     0.029 A 
ATOM     50  C   UNL A   1      43.303  29.760  30.269  1.00  0.00     0.049 A 
ATOM     51  H   UNL A   1      42.611  27.816  29.675  1.00  0.00     0.167 HD
ATOM     52  C   UNL A   1      37.851  33.264  29.843  1.00  0.00     0.031 A 
ATOM     53  C   UNL A   1      44.304  30.224  29.463  1.00  0.00     0.031 A 
ATOM     54  C   UNL A   1      39.128  33.814  30.283  1.00  0.00     0.049 A 
ATOM     55  C   UNL A   1      44.250  31.718  29.241  1.00  0.00     0.074 A 
ATOM     56  C   UNL A   1      39.758  33.853  31.516  1.00  0.00     0.029 A 
ATOM     57  N   UNL A   1      40.079  34.180  29.339  1.00  0.00    -0.354 N 
ATOM     58  N   UNL A   1      43.196  32.448  29.466  1.00  0.00    -0.248 NA
ATOM     59  C   UNL A   1      45.359  32.492  28.690  1.00  0.00     0.031 C 
ATOM     60  C   UNL A   1      41.119  34.180  31.302  1.00  0.00     0.029 A 
ATOM     61  C   UNL A   1      41.309  34.359  29.943  1.00  0.00     0.049 A 
ATOM     62  H   UNL A   1      39.902  34.295  28.378  1.00  0.00     0.167 HD
ATOM     63  C   UNL A   1      43.441  33.738  29.079  1.00  0.00     0.074 A 
ATOM     64  C   UNL A   1      44.818  33.721  28.621  1.00  0.00     0.031 C 
ATOM     65  C   UNL A   1      42.478  34.702  29.148  1.00  0.00     0.031 A 
BRANCH  52  66
ATOM     66  C   UNL A   1      36.513  33.797  30.302  1.00  0.00    -0.014 A 
ATOM     67  C   UNL A   1      35.572  34.228  29.343  1.00  0.00     0.010 A 
ATOM     68  C   UNL A   1      36.139  33.946  31.651  1.00  0.00     0.010 A 
ATOM     69  C   UNL A   1      34.378  34.867  29.704  1.00  0.00     0.020 A 
ATOM     70  C   UNL A   1      34.965  34.618  32.028  1.00  0.00     0.020 A 
ATOM     71  C   UNL A   1      34.095  35.086  31.048  1.00  0.00     0.054 A 
BRANCH  71  72
ATOM     72  S   UNL A   1      32.590  35.993  31.489  1.00  0.00     0.124 S 
ATOM     73  O   UNL A   1      33.118  37.157  32.197  1.00  0.00    -0.237 OA
ATOM     74  O   UNL A   1      31.997  36.266  30.183  1.00  0.00    -0.237 OA
ATOM     75  O   UNL A   1      31.849  35.049  32.323  1.00  0.00    -0.744 OA
ENDBRANCH  71  72
ENDBRANCH  52  66
BRANCH  53  76
ATOM     76  C   UNL A   1      44.776  29.254  28.442  1.00  0.00    -0.014 A 
ATOM     77  C   UNL A   1      45.674  28.256  28.863  1.00  0.00     0.010 A 
ATOM     78  C   UNL A   1      44.042  29.065  27.256  1.00  0.00     0.010 A 
ATOM     79  C   UNL A   1      45.700  27.023  28.215  1.00  0.00     0.020 A 
ATOM     80  C   UNL A   1      44.077  27.826  26.601  1.00  0.00     0.020 A 
ATOM     81  C   UNL A   1      44.850  26.793  27.134  1.00  0.00     0.054 A 
BRANCH  81  82
ATOM     82  S   UNL A   1      44.627  25.073  26.592  1.00  0.00     0.124 S 
ATOM     83  O   UNL A   1      44.385  24.378  27.853  1.00  0.00    -0.237 OA
ATOM     84  O   UNL A   1      43.467  25.193  25.711  1.00  0.00    -0.237 OA
ATOM     85  O   UNL A   1      45.889  24.763  25.928  1.00  0.00    -0.744 OA
ENDBRANCH  81  82
ENDBRANCH  53  76
BRANCH  65  86
ATOM     86  C   UNL A   1      42.565  36.081  28.544  1.00  0.00    -0.014 A 
ATOM     87  C   UNL A   1      41.997  36.435  27.311  1.00  0.00     0.010 A 
ATOM     88  C   UNL A   1      43.141  37.126  29.307  1.00  0.00     0.010 A 
ATOM     89  C   UNL A   1      42.061  37.750  26.829  1.00  0.00     0.020 A 
ATOM     90  C   UNL A   1      43.170  38.449  28.857  1.00  0.00     0.020 A 
ATOM     91  C   UNL A   1      42.652  38.749  27.603  1.00  0.00     0.054 A 
BRANCH  91  92
ATOM     92  S   UNL A   1      42.678  40.454  26.998  1.00  0.00     0.124 S 
ATOM     93  O   UNL A   1      43.350  40.305  25.710  1.00  0.00    -0.237 OA
ATOM     94  O   UNL A   1      41.259  40.799  26.925  1.00  0.00    -0.237 OA
ATOM     95  O   UNL A   1      43.432  41.169  28.023  1.00  0.00    -0.744 OA
ENDBRANCH  91  92
ENDBRANCH  65  86
ENDBRANCH  39  40
ENDBRANCH  31  34
ENDBRANCH  29  30
ENDBRANCH   1  29
TORSDOF 17
ENDMDL
MODEL 3
REMARK VINA RESULT:     -13.2      1.401      2.013
REMARK SMILES Cc1ccc(-c2c(C(=O)NCCCCNC(=O)c3ccc(-c4c5nc(c(-c6ccc(S(=O)(=O)[O-])cc6)c6ccc([nH]6)c(-c6ccc(S(=O)(=O)[O-])cc6)c6nc(c(-c7ccc(S(=O)(=O)[O-])cc7)c7ccc4[nH]7)C=C6)C=C5)cc3)nnn2Cc2c(F)cccc2Cl)cc1
REMARK SMILES IDX 13 1 12 2 11 3 10 4 8 5 9 6 7 8 6 9 80 10 78 11 79 12 5 13
REMARK SMILES IDX 1 14 2 15 3 16 91 17 4 18 90 19 81 20 82 21 83 22 88 23
REMARK SMILES IDX 84 24 85 25 87 26 89 27 86 28 14 29 15 30 16 31 17 33 18 34
REMARK SMILES IDX 19 35 77 36 20 37 76 38 21 39 22 40 23 41 70 42 24 43 75 44
REMARK SMILES IDX 69 45 71 46 25 47 74 48 68 49 67 50 26 52 56 53 37 54 55 55
REMARK SMILES IDX 38 56 41 57 54 58 72 59 39 60 40 61 53 63 73 64 42 65 27 66
REMARK SMILES IDX 28 67 36 68 29 69 35 70 30 71 31 72 32 73 33 74 34 75 57 76
REMARK SMILES IDX 58 77 66 78 59 79 65 80 60 81 61 82 62 83 63 84 64 85 43 86
REMARK SMILES IDX 44 87 52 88 45 89 51 90 46 91 47 92 48 93 49 94 50 95
REMARK H PARENT 10 7 15 32 71 51 41 62
REMARK Flexibility Score: inf
ROOT
ATOM      1  C   UNL A   1      32.547  29.988  26.428  1.00  0.00     0.023 C 
ENDROOT
BRANCH   1   2
ATOM      2  C   UNL A   1      32.523  29.221  25.098  1.00  0.00     0.023 C 
BRANCH   2   3
ATOM      3  C   UNL A   1      33.839  28.499  24.781  1.00  0.00     0.116 C 
BRANCH   3   4
ATOM      4  N   UNL A   1      34.009  28.276  23.366  1.00  0.00    -0.351 N 
ATOM      5  C   UNL A   1      33.646  27.278  22.502  1.00  0.00     0.274 C 
ATOM      6  O   UNL A   1      33.914  27.539  21.321  1.00  0.00    -0.267 OA
ATOM      7  H   UNL A   1      34.498  29.006  22.921  1.00  0.00     0.163 HD
BRANCH   5   8
ATOM      8  C   UNL A   1      32.988  26.007  22.838  1.00  0.00     0.178 A 
ATOM      9  C   UNL A   1      33.334  24.790  23.436  1.00  0.00     0.102 A 
ATOM     10  N   UNL A   1      32.145  24.077  23.423  1.00  0.00    -0.239 N 
ATOM     11  N   UNL A   1      31.663  25.902  22.422  1.00  0.00    -0.124 NA
ATOM     12  N   UNL A   1      31.186  24.720  22.745  1.00  0.00    -0.066 NA
BRANCH   9  13
ATOM     13  C   UNL A   1      34.550  24.191  23.969  1.00  0.00     0.002 A 
ATOM     14  C   UNL A   1      38.217  22.529  25.516  1.00  0.00     0.044 C 
ATOM     15  C   UNL A   1      36.966  23.144  24.960  1.00  0.00    -0.051 A 
ATOM     16  C   UNL A   1      36.510  22.784  23.688  1.00  0.00     0.004 A 
ATOM     17  C   UNL A   1      36.203  24.026  25.733  1.00  0.00     0.004 A 
ATOM     18  C   UNL A   1      35.322  23.321  23.188  1.00  0.00     0.011 A 
ATOM     19  C   UNL A   1      35.005  24.549  25.241  1.00  0.00     0.011 A 
ENDBRANCH   9  13
BRANCH  10  20
ATOM     20  C   UNL A   1      31.846  22.731  23.903  1.00  0.00     0.187 C 
BRANCH  20  21
ATOM     21  C   UNL A   1      32.440  22.349  25.234  1.00  0.00     0.028 A 
ATOM     22  C   UNL A   1      33.337  21.269  25.245  1.00  0.00     0.129 A 
ATOM     23  C   UNL A   1      32.134  22.936  26.472  1.00  0.00     0.049 A 
ATOM     24  F   UNL A   1      33.592  20.608  24.106  1.00  0.00    -0.207 F 
ATOM     25  C   UNL A   1      33.967  20.835  26.409  1.00  0.00     0.040 A 
ATOM     26  C   UNL A   1      32.789  22.526  27.641  1.00  0.00     0.021 A 
ATOM     27  Cl  UNL A   1      30.938  24.166  26.658  1.00  0.00    -0.084 Cl
ATOM     28  C   UNL A   1      33.711  21.482  27.611  1.00  0.00     0.005 A 
ENDBRANCH  20  21
ENDBRANCH  10  20
ENDBRANCH   5   8
ENDBRANCH   3   4
ENDBRANCH   2   3
ENDBRANCH   1   2
BRANCH   1  29
ATOM     29  C   UNL A   1      33.885  29.874  27.151  1.00  0.00     0.116 C 
BRANCH  29  30
ATOM     30  N   UNL A   1      34.559  31.128  27.425  1.00  0.00    -0.352 N 
ATOM     31  C   UNL A   1      35.675  31.303  28.236  1.00  0.00     0.251 C 
ATOM     32  H   UNL A   1      34.192  31.934  26.996  1.00  0.00     0.163 HD
ATOM     33  O   UNL A   1      35.919  32.360  28.788  1.00  0.00    -0.269 OA
BRANCH  31  34
ATOM     34  C   UNL A   1      36.656  30.188  28.266  1.00  0.00     0.039 A 
ATOM     35  C   UNL A   1      36.801  29.491  29.473  1.00  0.00     0.014 A 
ATOM     36  C   UNL A   1      37.576  30.019  27.237  1.00  0.00     0.014 A 
ATOM     37  C   UNL A   1      37.961  28.755  29.712  1.00  0.00     0.010 A 
ATOM     38  C   UNL A   1      38.767  29.379  27.512  1.00  0.00     0.010 A 
ATOM     39  C   UNL A   1      38.978  28.773  28.760  1.00  0.00    -0.014 A 
BRANCH  39  40
ATOM     40  C   UNL A   1      40.320  28.241  28.970  1.00  0.00     0.031 A 
ATOM     41  C   UNL A   1      40.613  26.821  28.656  1.00  0.00     0.074 A 
ATOM     42  C   UNL A   1      41.334  29.076  29.288  1.00  0.00     0.049 A 
ATOM     43  N   UNL A   1      41.625  26.162  29.117  1.00  0.00    -0.248 NA
ATOM     44  C   UNL A   1      39.742  26.012  27.806  1.00  0.00     0.031 C 
ATOM     45  C   UNL A   1      42.764  28.807  29.148  1.00  0.00     0.029 A 
ATOM     46  N   UNL A   1      41.287  30.273  30.008  1.00  0.00    -0.354 N 
ATOM     47  C   UNL A   1      41.712  24.992  28.394  1.00  0.00     0.074 A 
ATOM     48  C   UNL A   1      40.476  24.907  27.652  1.00  0.00     0.031 C 
ATOM     49  C   UNL A   1      43.437  29.612  29.985  1.00  0.00     0.029 A 
ATOM     50  C   UNL A   1      42.446  30.293  30.802  1.00  0.00     0.049 A 
ATOM     51  H   UNL A   1      40.584  30.962  29.966  1.00  0.00     0.167 HD
ATOM     52  C   UNL A   1      42.878  24.287  28.366  1.00  0.00     0.031 A 
ATOM     53  C   UNL A   1      42.443  30.319  32.167  1.00  0.00     0.031 A 
ATOM     54  C   UNL A   1      43.899  24.885  29.220  1.00  0.00     0.049 A 
ATOM     55  C   UNL A   1      43.225  29.187  32.791  1.00  0.00     0.074 A 
ATOM     56  C   UNL A   1      44.981  25.706  28.954  1.00  0.00     0.029 A 
ATOM     57  N   UNL A   1      43.720  24.896  30.597  1.00  0.00    -0.354 N 
ATOM     58  N   UNL A   1      43.563  28.102  32.155  1.00  0.00    -0.248 NA
ATOM     59  C   UNL A   1      43.633  29.164  34.193  1.00  0.00     0.031 C 
ATOM     60  C   UNL A   1      45.414  26.271  30.179  1.00  0.00     0.029 A 
ATOM     61  C   UNL A   1      44.607  25.775  31.189  1.00  0.00     0.049 A 
ATOM     62  H   UNL A   1      43.056  24.355  31.083  1.00  0.00     0.167 HD
ATOM     63  C   UNL A   1      44.180  27.238  33.020  1.00  0.00     0.074 A 
ATOM     64  C   UNL A   1      44.222  27.957  34.279  1.00  0.00     0.031 C 
ATOM     65  C   UNL A   1      44.581  25.995  32.626  1.00  0.00     0.031 A 
BRANCH  52  66
ATOM     66  C   UNL A   1      43.178  23.241  27.317  1.00  0.00    -0.014 A 
ATOM     67  C   UNL A   1      42.483  22.014  27.343  1.00  0.00     0.010 A 
ATOM     68  C   UNL A   1      44.159  23.380  26.318  1.00  0.00     0.010 A 
ATOM     69  C   UNL A   1      42.817  20.949  26.495  1.00  0.00     0.020 A 
ATOM     70  C   UNL A   1      44.530  22.311  25.486  1.00  0.00     0.020 A 
ATOM     71  C   UNL A   1      43.862  21.095  25.589  1.00  0.00     0.054 A 
BRANCH  71  72
ATOM     72  S   UNL A   1      44.335  19.677  24.564  1.00  0.00     0.124 S 
ATOM     73  O   UNL A   1      44.514  20.285  23.247  1.00  0.00    -0.237 OA
ATOM     74  O   UNL A   1      45.558  19.216  25.216  1.00  0.00    -0.237 OA
ATOM     75  O   UNL A   1      43.192  18.773  24.674  1.00  0.00    -0.744 OA
ENDBRANCH  71  72
ENDBRANCH  52  66
BRANCH  53  76
ATOM     76  C   UNL A   1      41.220  30.909  32.772  1.00  0.00    -0.014 A 
ATOM     77  C   UNL A   1      40.130  30.049  32.996  1.00  0.00     0.010 A 
ATOM     78  C   UNL A   1      41.298  32.122  33.481  1.00  0.00     0.010 A 
ATOM     79  C   UNL A   1      39.239  30.310  34.036  1.00  0.00     0.020 A 
ATOM     80  C   UNL A   1      40.396  32.386  34.521  1.00  0.00     0.020 A 
ATOM     81  C   UNL A   1      39.420  31.437  34.835  1.00  0.00     0.054 A 
BRANCH  81  82
ATOM     82  S   UNL A   1      38.501  31.515  36.399  1.00  0.00     0.124 S 
ATOM     83  O   UNL A   1      38.220  30.108  36.666  1.00  0.00    -0.237 OA
ATOM     84  O   UNL A   1      39.484  32.135  37.286  1.00  0.00    -0.237 OA
ATOM     85  O   UNL A   1      37.345  32.342  36.069  1.00  0.00    -0.744 OA
ENDBRANCH  81  82
ENDBRANCH  53  76
BRANCH  65  86
ATOM     86  C   UNL A   1      45.055  24.891  33.538  1.00  0.00    -0.014 A 
ATOM     87  C   UNL A   1      46.329  24.850  34.124  1.00  0.00     0.010 A 
ATOM     88  C   UNL A   1      44.133  23.894  33.940  1.00  0.00     0.010 A 
ATOM     89  C   UNL A   1      46.691  23.826  35.011  1.00  0.00     0.020 A 
ATOM     90  C   UNL A   1      44.468  22.895  34.858  1.00  0.00     0.020 A 
ATOM     91  C   UNL A   1      45.760  22.852  35.369  1.00  0.00     0.054 A 
BRANCH  91  92
ATOM     92  S   UNL A   1      46.219  21.568  36.559  1.00  0.00     0.124 S 
ATOM     93  O   UNL A   1      47.667  21.498  36.381  1.00  0.00    -0.237 OA
ATOM     94  O   UNL A   1      45.773  22.127  37.835  1.00  0.00    -0.237 OA
ATOM     95  O   UNL A   1      45.471  20.399  36.106  1.00  0.00    -0.744 OA
ENDBRANCH  91  92
ENDBRANCH  65  86
ENDBRANCH  39  40
ENDBRANCH  31  34
ENDBRANCH  29  30
ENDBRANCH   1  29
TORSDOF 17
ENDMDL
