MODEL 1
REMARK VINA RESULT:      -8.8      0.000      0.000
REMARK SMILES CN(CCc1cccs1)C(=O)N[C@@H]1COC[C@H]1C(=O)NCCCCNC(=O)c1ccc(-c2c3nc(c(-c4ccc(S(=O)(=O)[O-])cc4)c4ccc([nH]4)c(-c4ccc(S(=O)(=O)[O-])cc4)c4nc(c(-c5ccc(S(=O)(=O)[O-])cc5)c5ccc2[nH]5)C=C4)C=C3)cc1
REMARK SMILES IDX 21 1 20 2 18 3 19 4 17 6 13 7 14 8 15 9 16 10 12 11 10 12
REMARK SMILES IDX 11 13 2 15 1 16 3 17 4 18 5 19 6 20 9 21 7 22 8 23 22 24
REMARK SMILES IDX 23 25 24 26 25 27 26 28 27 30 28 31 29 32 87 33 30 34 86 35
REMARK SMILES IDX 31 36 32 37 33 38 80 39 34 40 85 41 79 42 81 43 35 44 84 45
REMARK SMILES IDX 78 46 77 47 36 49 66 50 47 51 65 52 48 53 51 54 64 55 82 56
REMARK SMILES IDX 49 57 50 58 63 60 83 61 52 62 37 63 38 64 46 65 39 66 45 67
REMARK SMILES IDX 40 68 41 69 42 70 43 71 44 72 67 73 68 74 76 75 69 76 75 77
REMARK SMILES IDX 70 78 71 79 72 80 73 81 74 82 53 83 54 84 62 85 55 86 61 87
REMARK SMILES IDX 56 88 57 89 58 90 59 91 60 92
REMARK H PARENT 20 5 12 14 25 29 81 48 51 59
REMARK Flexibility Score: inf
ROOT
ATOM      1  C   UNL A   1      35.904  32.497  27.667  1.00  0.00     0.116 C 
ENDROOT
BRANCH   1   2
ATOM      2  N   UNL A   1      36.026  31.229  28.347  1.00  0.00    -0.356 N 
ATOM      3  C   UNL A   1      35.436  30.040  28.075  1.00  0.00     0.227 C 
ATOM      4  O   UNL A   1      35.801  29.052  28.717  1.00  0.00    -0.275 OA
ATOM      5  H   UNL A   1      36.629  31.229  29.125  1.00  0.00     0.163 HD
BRANCH   3   6
ATOM      6  C   UNL A   1      34.354  29.906  27.031  1.00  0.00     0.129 C 
ATOM      7  C   UNL A   1      33.870  28.480  26.840  1.00  0.00     0.124 C 
ATOM      8  C   UNL A   1      32.365  28.567  27.070  1.00  0.00     0.186 C 
ATOM      9  O   UNL A   1      31.970  29.943  27.130  1.00  0.00    -0.378 OA
ATOM     10  C   UNL A   1      33.133  30.770  27.219  1.00  0.00     0.176 C 
BRANCH   7  11
ATOM     11  N   UNL A   1      34.215  28.013  25.509  1.00  0.00    -0.332 N 
ATOM     12  C   UNL A   1      33.344  28.130  24.469  1.00  0.00     0.317 C 
ATOM     13  O   UNL A   1      32.886  29.228  24.171  1.00  0.00    -0.249 OA
ATOM     14  H   UNL A   1      35.096  27.601  25.355  1.00  0.00     0.165 HD
BRANCH  12  15
ATOM     15  N   UNL A   1      33.059  26.947  23.803  1.00  0.00    -0.328 N 
ATOM     16  C   UNL A   1      33.171  26.991  22.352  1.00  0.00     0.148 C 
BRANCH  15  17
ATOM     17  C   UNL A   1      32.196  25.885  24.341  1.00  0.00     0.126 C 
BRANCH  17  18
ATOM     18  C   UNL A   1      32.524  24.392  24.158  1.00  0.00     0.068 C 
BRANCH  18  19
ATOM     19  C   UNL A   1      33.762  23.802  24.768  1.00  0.00     0.006 A 
ATOM     20  C   UNL A   1      34.636  24.366  25.682  1.00  0.00     0.015 A 
ATOM     21  S   UNL A   1      34.196  22.177  24.421  1.00  0.00    -0.149 S 
ATOM     22  C   UNL A   1      35.692  23.478  26.047  1.00  0.00     0.012 A 
ATOM     23  C   UNL A   1      35.590  22.266  25.406  1.00  0.00     0.065 A 
ENDBRANCH  18  19
ENDBRANCH  17  18
ENDBRANCH  15  17
ENDBRANCH  12  15
ENDBRANCH   7  11
ENDBRANCH   3   6
ENDBRANCH   1   2
BRANCH   1  24
ATOM     24  C   UNL A   1      35.796  33.684  28.620  1.00  0.00     0.023 C 
BRANCH  24  25
ATOM     25  C   UNL A   1      34.394  33.947  29.156  1.00  0.00     0.023 C 
BRANCH  25  26
ATOM     26  C   UNL A   1      34.149  35.378  29.604  1.00  0.00     0.116 C 
BRANCH  26  27
ATOM     27  N   UNL A   1      32.923  35.549  30.377  1.00  0.00    -0.352 N 
ATOM     28  C   UNL A   1      32.746  35.339  31.721  1.00  0.00     0.251 C 
ATOM     29  H   UNL A   1      32.132  35.850  29.876  1.00  0.00     0.163 HD
ATOM     30  O   UNL A   1      31.658  35.518  32.255  1.00  0.00    -0.269 OA
BRANCH  28  31
ATOM     31  C   UNL A   1      33.893  34.821  32.480  1.00  0.00     0.039 A 
ATOM     32  C   UNL A   1      33.767  33.572  33.087  1.00  0.00     0.014 A 
ATOM     33  C   UNL A   1      35.121  35.487  32.430  1.00  0.00     0.014 A 
ATOM     34  C   UNL A   1      34.905  32.948  33.589  1.00  0.00     0.010 A 
ATOM     35  C   UNL A   1      36.262  34.828  32.861  1.00  0.00     0.010 A 
ATOM     36  C   UNL A   1      36.163  33.552  33.439  1.00  0.00    -0.014 A 
BRANCH  36  37
ATOM     37  C   UNL A   1      37.393  32.857  33.880  1.00  0.00     0.031 A 
ATOM     38  C   UNL A   1      38.076  33.290  35.144  1.00  0.00     0.074 A 
ATOM     39  C   UNL A   1      37.921  31.885  33.108  1.00  0.00     0.049 A 
ATOM     40  N   UNL A   1      39.181  32.838  35.677  1.00  0.00    -0.248 NA
ATOM     41  C   UNL A   1      37.456  34.397  35.892  1.00  0.00     0.031 C 
ATOM     42  C   UNL A   1      37.376  31.428  31.825  1.00  0.00     0.029 A 
ATOM     43  N   UNL A   1      39.039  31.111  33.286  1.00  0.00    -0.354 N 
ATOM     44  C   UNL A   1      39.399  33.619  36.805  1.00  0.00     0.074 A 
ATOM     45  C   UNL A   1      38.341  34.602  36.857  1.00  0.00     0.031 C 
ATOM     46  C   UNL A   1      38.149  30.440  31.346  1.00  0.00     0.029 A 
ATOM     47  C   UNL A   1      39.257  30.213  32.267  1.00  0.00     0.049 A 
ATOM     48  H   UNL A   1      39.630  31.192  34.069  1.00  0.00     0.167 HD
ATOM     49  C   UNL A   1      40.383  33.510  37.727  1.00  0.00     0.031 A 
ATOM     50  C   UNL A   1      40.242  29.310  32.098  1.00  0.00     0.031 A 
ATOM     51  C   UNL A   1      41.411  32.509  37.684  1.00  0.00     0.049 A 
ATOM     52  C   UNL A   1      41.302  29.186  33.158  1.00  0.00     0.074 A 
ATOM     53  C   UNL A   1      42.405  32.258  38.614  1.00  0.00     0.029 A 
ATOM     54  N   UNL A   1      41.576  31.590  36.660  1.00  0.00    -0.354 N 
ATOM     55  N   UNL A   1      41.440  29.872  34.267  1.00  0.00    -0.248 NA
ATOM     56  C   UNL A   1      42.330  28.156  32.952  1.00  0.00     0.031 C 
ATOM     57  C   UNL A   1      43.199  31.214  38.129  1.00  0.00     0.029 A 
ATOM     58  C   UNL A   1      42.669  30.784  36.921  1.00  0.00     0.049 A 
ATOM     59  H   UNL A   1      41.001  31.522  35.864  1.00  0.00     0.167 HD
ATOM     60  C   UNL A   1      42.559  29.347  34.900  1.00  0.00     0.074 A 
ATOM     61  C   UNL A   1      43.049  28.271  34.060  1.00  0.00     0.031 C 
ATOM     62  C   UNL A   1      43.135  29.720  36.069  1.00  0.00     0.031 A 
BRANCH  49  63
ATOM     63  C   UNL A   1      40.387  34.499  38.860  1.00  0.00    -0.014 A 
ATOM     64  C   UNL A   1      41.193  35.651  38.815  1.00  0.00     0.010 A 
ATOM     65  C   UNL A   1      39.541  34.296  39.964  1.00  0.00     0.010 A 
ATOM     66  C   UNL A   1      41.177  36.566  39.870  1.00  0.00     0.020 A 
ATOM     67  C   UNL A   1      39.503  35.222  41.010  1.00  0.00     0.020 A 
ATOM     68  C   UNL A   1      40.332  36.345  40.962  1.00  0.00     0.054 A 
BRANCH  68  69
ATOM     69  S   UNL A   1      40.302  37.570  42.299  1.00  0.00     0.124 S 
ATOM     70  O   UNL A   1      41.719  37.687  42.631  1.00  0.00    -0.237 OA
ATOM     71  O   UNL A   1      39.712  38.738  41.650  1.00  0.00    -0.237 OA
ATOM     72  O   UNL A   1      39.471  36.945  43.324  1.00  0.00    -0.744 OA
ENDBRANCH  68  69
ENDBRANCH  49  63
BRANCH  50  73
ATOM     73  C   UNL A   1      40.265  28.447  30.886  1.00  0.00    -0.014 A 
ATOM     74  C   UNL A   1      41.271  28.600  29.916  1.00  0.00     0.010 A 
ATOM     75  C   UNL A   1      39.278  27.463  30.696  1.00  0.00     0.010 A 
ATOM     76  C   UNL A   1      41.277  27.803  28.768  1.00  0.00     0.020 A 
ATOM     77  C   UNL A   1      39.294  26.646  29.562  1.00  0.00     0.020 A 
ATOM     78  C   UNL A   1      40.286  26.832  28.597  1.00  0.00     0.054 A 
BRANCH  78  79
ATOM     79  S   UNL A   1      40.333  25.781  27.117  1.00  0.00     0.124 S 
ATOM     80  O   UNL A   1      38.946  25.338  27.018  1.00  0.00    -0.237 OA
ATOM     81  O   UNL A   1      40.776  26.711  26.081  1.00  0.00    -0.237 OA
ATOM     82  O   UNL A   1      41.302  24.744  27.468  1.00  0.00    -0.744 OA
ENDBRANCH  78  79
ENDBRANCH  50  73
BRANCH  62  83
ATOM     83  C   UNL A   1      44.343  28.948  36.520  1.00  0.00    -0.014 A 
ATOM     84  C   UNL A   1      44.209  27.774  37.281  1.00  0.00     0.010 A 
ATOM     85  C   UNL A   1      45.625  29.370  36.124  1.00  0.00     0.010 A 
ATOM     86  C   UNL A   1      45.339  27.048  37.661  1.00  0.00     0.020 A 
ATOM     87  C   UNL A   1      46.756  28.633  36.481  1.00  0.00     0.020 A 
ATOM     88  C   UNL A   1      46.607  27.483  37.259  1.00  0.00     0.054 A 
BRANCH  88  89
ATOM     89  S   UNL A   1      48.057  26.499  37.723  1.00  0.00     0.124 S 
ATOM     90  O   UNL A   1      47.994  25.397  36.765  1.00  0.00    -0.237 OA
ATOM     91  O   UNL A   1      49.159  27.438  37.529  1.00  0.00    -0.237 OA
ATOM     92  O   UNL A   1      47.797  26.132  39.113  1.00  0.00    -0.744 OA
ENDBRANCH  88  89
ENDBRANCH  62  83
ENDBRANCH  36  37
ENDBRANCH  28  31
ENDBRANCH  26  27
ENDBRANCH  25  26
ENDBRANCH  24  25
ENDBRANCH   1  24
TORSDOF 19
ENDMDL
MODEL 2
REMARK VINA RESULT:      -8.7      6.631     10.900
REMARK SMILES CN(CCc1cccs1)C(=O)N[C@@H]1COC[C@H]1C(=O)NCCCCNC(=O)c1ccc(-c2c3nc(c(-c4ccc(S(=O)(=O)[O-])cc4)c4ccc([nH]4)c(-c4ccc(S(=O)(=O)[O-])cc4)c4nc(c(-c5ccc(S(=O)(=O)[O-])cc5)c5ccc2[nH]5)C=C4)C=C3)cc1
REMARK SMILES IDX 21 1 20 2 18 3 19 4 17 6 13 7 14 8 15 9 16 10 12 11 10 12
REMARK SMILES IDX 11 13 2 15 1 16 3 17 4 18 5 19 6 20 9 21 7 22 8 23 22 24
REMARK SMILES IDX 23 25 24 26 25 27 26 28 27 30 28 31 29 32 87 33 30 34 86 35
REMARK SMILES IDX 31 36 32 37 33 38 80 39 34 40 85 41 79 42 81 43 35 44 84 45
REMARK SMILES IDX 78 46 77 47 36 49 66 50 47 51 65 52 48 53 51 54 64 55 82 56
REMARK SMILES IDX 49 57 50 58 63 60 83 61 52 62 37 63 38 64 46 65 39 66 45 67
REMARK SMILES IDX 40 68 41 69 42 70 43 71 44 72 67 73 68 74 76 75 69 76 75 77
REMARK SMILES IDX 70 78 71 79 72 80 73 81 74 82 53 83 54 84 62 85 55 86 61 87
REMARK SMILES IDX 56 88 57 89 58 90 59 91 60 92
REMARK H PARENT 20 5 12 14 25 29 81 48 51 59
REMARK Flexibility Score: inf
ROOT
ATOM      1  C   UNL A   1      41.076  34.407  33.260  1.00  0.00     0.116 C 
ENDROOT
BRANCH   1   2
ATOM      2  N   UNL A   1      40.602  35.437  34.154  1.00  0.00    -0.356 N 
ATOM      3  C   UNL A   1      39.873  35.329  35.292  1.00  0.00     0.227 C 
ATOM      4  O   UNL A   1      39.703  36.346  35.968  1.00  0.00    -0.275 OA
ATOM      5  H   UNL A   1      40.846  36.357  33.899  1.00  0.00     0.163 HD
BRANCH   3   6
ATOM      6  C   UNL A   1      39.270  34.018  35.731  1.00  0.00     0.129 C 
ATOM      7  C   UNL A   1      39.685  33.598  37.129  1.00  0.00     0.124 C 
ATOM      8  C   UNL A   1      38.364  33.404  37.865  1.00  0.00     0.186 C 
ATOM      9  O   UNL A   1      37.283  33.450  36.926  1.00  0.00    -0.378 OA
ATOM     10  C   UNL A   1      37.766  33.919  35.665  1.00  0.00     0.176 C 
BRANCH   7  11
ATOM     11  N   UNL A   1      40.483  32.386  37.067  1.00  0.00    -0.332 N 
ATOM     12  C   UNL A   1      41.772  32.407  36.628  1.00  0.00     0.317 C 
ATOM     13  O   UNL A   1      42.592  33.146  37.164  1.00  0.00    -0.249 OA
ATOM     14  H   UNL A   1      40.084  31.531  37.346  1.00  0.00     0.165 HD
BRANCH  12  15
ATOM     15  N   UNL A   1      42.054  31.540  35.583  1.00  0.00    -0.328 N 
ATOM     16  C   UNL A   1      41.839  30.126  35.855  1.00  0.00     0.148 C 
BRANCH  15  17
ATOM     17  C   UNL A   1      42.990  31.841  34.491  1.00  0.00     0.126 C 
BRANCH  17  18
ATOM     18  C   UNL A   1      42.877  31.174  33.108  1.00  0.00     0.068 C 
BRANCH  18  19
ATOM     19  C   UNL A   1      43.969  30.279  32.601  1.00  0.00     0.006 A 
ATOM     20  C   UNL A   1      45.252  30.612  32.199  1.00  0.00     0.015 A 
ATOM     21  S   UNL A   1      43.730  28.578  32.555  1.00  0.00    -0.149 S 
ATOM     22  C   UNL A   1      46.012  29.471  31.800  1.00  0.00     0.012 A 
ATOM     23  C   UNL A   1      45.291  28.306  31.912  1.00  0.00     0.065 A 
ENDBRANCH  18  19
ENDBRANCH  17  18
ENDBRANCH  15  17
ENDBRANCH  12  15
ENDBRANCH   7  11
ENDBRANCH   3   6
ENDBRANCH   1   2
BRANCH   1  24
ATOM     24  C   UNL A   1      40.375  34.417  31.905  1.00  0.00     0.023 C 
BRANCH  24  25
ATOM     25  C   UNL A   1      38.872  34.174  31.962  1.00  0.00     0.023 C 
BRANCH  25  26
ATOM     26  C   UNL A   1      38.476  32.775  32.400  1.00  0.00     0.116 C 
BRANCH  26  27
ATOM     27  N   UNL A   1      37.181  32.343  31.885  1.00  0.00    -0.352 N 
ATOM     28  C   UNL A   1      36.926  31.291  31.041  1.00  0.00     0.251 C 
ATOM     29  H   UNL A   1      36.400  32.866  32.176  1.00  0.00     0.163 HD
ATOM     30  O   UNL A   1      35.785  31.030  30.677  1.00  0.00    -0.269 OA
BRANCH  28  31
ATOM     31  C   UNL A   1      38.081  30.537  30.535  1.00  0.00     0.039 A 
ATOM     32  C   UNL A   1      38.354  30.596  29.169  1.00  0.00     0.014 A 
ATOM     33  C   UNL A   1      38.970  29.937  31.431  1.00  0.00     0.014 A 
ATOM     34  C   UNL A   1      39.571  30.109  28.702  1.00  0.00     0.010 A 
ATOM     35  C   UNL A   1      40.212  29.525  30.973  1.00  0.00     0.010 A 
ATOM     36  C   UNL A   1      40.524  29.613  29.607  1.00  0.00    -0.014 A 
BRANCH  36  37
ATOM     37  C   UNL A   1      41.860  29.183  29.137  1.00  0.00     0.031 A 
ATOM     38  C   UNL A   1      42.976  30.185  29.061  1.00  0.00     0.074 A 
ATOM     39  C   UNL A   1      42.044  27.913  28.724  1.00  0.00     0.049 A 
ATOM     40  N   UNL A   1      44.202  30.018  28.640  1.00  0.00    -0.248 NA
ATOM     41  C   UNL A   1      42.666  31.562  29.481  1.00  0.00     0.031 C 
ATOM     42  C   UNL A   1      41.011  26.871  28.694  1.00  0.00     0.029 A 
ATOM     43  N   UNL A   1      43.163  27.283  28.243  1.00  0.00    -0.354 N 
ATOM     44  C   UNL A   1      44.799  31.269  28.722  1.00  0.00     0.074 A 
ATOM     45  C   UNL A   1      43.792  32.195  29.189  1.00  0.00     0.031 C 
ATOM     46  C   UNL A   1      41.553  25.728  28.241  1.00  0.00     0.029 A 
ATOM     47  C   UNL A   1      42.957  25.961  27.921  1.00  0.00     0.049 A 
ATOM     48  H   UNL A   1      44.031  27.734  28.138  1.00  0.00     0.167 HD
ATOM     49  C   UNL A   1      46.080  31.609  28.453  1.00  0.00     0.031 A 
ATOM     50  C   UNL A   1      43.807  25.043  27.423  1.00  0.00     0.031 A 
ATOM     51  C   UNL A   1      47.082  30.676  28.023  1.00  0.00     0.049 A 
ATOM     52  C   UNL A   1      45.236  25.440  27.169  1.00  0.00     0.074 A 
ATOM     53  C   UNL A   1      48.430  30.901  27.804  1.00  0.00     0.029 A 
ATOM     54  N   UNL A   1      46.847  29.337  27.746  1.00  0.00    -0.354 N 
ATOM     55  N   UNL A   1      45.808  26.609  27.341  1.00  0.00    -0.248 NA
ATOM     56  C   UNL A   1      46.137  24.394  26.668  1.00  0.00     0.031 C 
ATOM     57  C   UNL A   1      49.002  29.707  27.354  1.00  0.00     0.029 A 
ATOM     58  C   UNL A   1      48.020  28.728  27.338  1.00  0.00     0.049 A 
ATOM     59  H   UNL A   1      45.976  28.889  27.828  1.00  0.00     0.167 HD
ATOM     60  C   UNL A   1      47.139  26.434  26.987  1.00  0.00     0.074 A 
ATOM     61  C   UNL A   1      47.293  25.042  26.611  1.00  0.00     0.031 C 
ATOM     62  C   UNL A   1      48.146  27.341  26.970  1.00  0.00     0.031 A 
BRANCH  49  63
ATOM     63  C   UNL A   1      46.467  33.053  28.624  1.00  0.00    -0.014 A 
ATOM     64  C   UNL A   1      46.347  33.967  27.561  1.00  0.00     0.010 A 
ATOM     65  C   UNL A   1      46.913  33.511  29.876  1.00  0.00     0.010 A 
ATOM     66  C   UNL A   1      46.700  35.306  27.739  1.00  0.00     0.020 A 
ATOM     67  C   UNL A   1      47.243  34.856  30.064  1.00  0.00     0.020 A 
ATOM     68  C   UNL A   1      47.146  35.742  28.990  1.00  0.00     0.054 A 
BRANCH  68  69
ATOM     69  S   UNL A   1      47.558  37.496  29.203  1.00  0.00     0.124 S 
ATOM     70  O   UNL A   1      47.735  37.933  27.820  1.00  0.00    -0.237 OA
ATOM     71  O   UNL A   1      46.376  38.023  29.880  1.00  0.00    -0.237 OA
ATOM     72  O   UNL A   1      48.775  37.471  30.009  1.00  0.00    -0.744 OA
ENDBRANCH  68  69
ENDBRANCH  49  63
BRANCH  50  73
ATOM     73  C   UNL A   1      43.336  23.660  27.144  1.00  0.00    -0.014 A 
ATOM     74  C   UNL A   1      42.940  22.813  28.193  1.00  0.00     0.010 A 
ATOM     75  C   UNL A   1      43.279  23.182  25.822  1.00  0.00     0.010 A 
ATOM     76  C   UNL A   1      42.518  21.506  27.930  1.00  0.00     0.020 A 
ATOM     77  C   UNL A   1      42.836  21.884  25.551  1.00  0.00     0.020 A 
ATOM     78  C   UNL A   1      42.472  21.049  26.611  1.00  0.00     0.054 A 
BRANCH  78  79
ATOM     79  S   UNL A   1      41.886  19.361  26.285  1.00  0.00     0.124 S 
ATOM     80  O   UNL A   1      40.440  19.546  26.245  1.00  0.00    -0.237 OA
ATOM     81  O   UNL A   1      42.521  19.047  25.007  1.00  0.00    -0.237 OA
ATOM     82  O   UNL A   1      42.392  18.601  27.427  1.00  0.00    -0.744 OA
ENDBRANCH  78  79
ENDBRANCH  50  73
BRANCH  62  83
ATOM     83  C   UNL A   1      49.506  26.855  26.553  1.00  0.00    -0.014 A 
ATOM     84  C   UNL A   1      50.397  26.306  27.491  1.00  0.00     0.010 A 
ATOM     85  C   UNL A   1      49.869  26.890  25.195  1.00  0.00     0.010 A 
ATOM     86  C   UNL A   1      51.642  25.825  27.081  1.00  0.00     0.020 A 
ATOM     87  C   UNL A   1      51.103  26.387  24.778  1.00  0.00     0.020 A 
ATOM     88  C   UNL A   1      51.988  25.870  25.727  1.00  0.00     0.054 A 
BRANCH  88  89
ATOM     89  S   UNL A   1      53.590  25.195  25.211  1.00  0.00     0.124 S 
ATOM     90  O   UNL A   1      54.489  25.742  26.223  1.00  0.00    -0.237 OA
ATOM     91  O   UNL A   1      53.369  23.753  25.279  1.00  0.00    -0.237 OA
ATOM     92  O   UNL A   1      53.772  25.728  23.862  1.00  0.00    -0.744 OA
ENDBRANCH  88  89
ENDBRANCH  62  83
ENDBRANCH  36  37
ENDBRANCH  28  31
ENDBRANCH  26  27
ENDBRANCH  25  26
ENDBRANCH  24  25
ENDBRANCH   1  24
TORSDOF 19
ENDMDL
MODEL 3
REMARK VINA RESULT:      -8.7      7.070      8.834
REMARK SMILES CN(CCc1cccs1)C(=O)N[C@@H]1COC[C@H]1C(=O)NCCCCNC(=O)c1ccc(-c2c3nc(c(-c4ccc(S(=O)(=O)[O-])cc4)c4ccc([nH]4)c(-c4ccc(S(=O)(=O)[O-])cc4)c4nc(c(-c5ccc(S(=O)(=O)[O-])cc5)c5ccc2[nH]5)C=C4)C=C3)cc1
REMARK SMILES IDX 21 1 20 2 18 3 19 4 17 6 13 7 14 8 15 9 16 10 12 11 10 12
REMARK SMILES IDX 11 13 2 15 1 16 3 17 4 18 5 19 6 20 9 21 7 22 8 23 22 24
REMARK SMILES IDX 23 25 24 26 25 27 26 28 27 30 28 31 29 32 87 33 30 34 86 35
REMARK SMILES IDX 31 36 32 37 33 38 80 39 34 40 85 41 79 42 81 43 35 44 84 45
REMARK SMILES IDX 78 46 77 47 36 49 66 50 47 51 65 52 48 53 51 54 64 55 82 56
REMARK SMILES IDX 49 57 50 58 63 60 83 61 52 62 37 63 38 64 46 65 39 66 45 67
REMARK SMILES IDX 40 68 41 69 42 70 43 71 44 72 67 73 68 74 76 75 69 76 75 77
REMARK SMILES IDX 70 78 71 79 72 80 73 81 74 82 53 83 54 84 62 85 55 86 61 87
REMARK SMILES IDX 56 88 57 89 58 90 59 91 60 92
REMARK H PARENT 20 5 12 14 25 29 81 48 51 59
REMARK Flexibility Score: inf
ROOT
ATOM      1  C   UNL A   1      39.465  27.125  28.654  1.00  0.00     0.116 C 
ENDROOT
BRANCH   1   2
ATOM      2  N   UNL A   1      40.085  26.915  27.368  1.00  0.00    -0.356 N 
ATOM      3  C   UNL A   1      40.392  25.758  26.732  1.00  0.00     0.227 C 
ATOM      4  O   UNL A   1      40.797  25.826  25.569  1.00  0.00    -0.275 OA
ATOM      5  H   UNL A   1      40.320  27.736  26.878  1.00  0.00     0.163 HD
BRANCH   3   6
ATOM      6  C   UNL A   1      40.260  24.416  27.410  1.00  0.00     0.129 C 
ATOM      7  C   UNL A   1      39.852  23.299  26.467  1.00  0.00     0.124 C 
ATOM      8  C   UNL A   1      40.948  22.252  26.637  1.00  0.00     0.186 C 
ATOM      9  O   UNL A   1      41.773  22.603  27.755  1.00  0.00    -0.378 OA
ATOM     10  C   UNL A   1      41.466  23.933  28.176  1.00  0.00     0.176 C 
BRANCH   7  11
ATOM     11  N   UNL A   1      38.535  22.804  26.826  1.00  0.00    -0.332 N 
ATOM     12  C   UNL A   1      37.660  22.365  25.879  1.00  0.00     0.317 C 
ATOM     13  O   UNL A   1      37.990  21.477  25.100  1.00  0.00    -0.249 OA
ATOM     14  H   UNL A   1      38.268  22.786  27.773  1.00  0.00     0.165 HD
BRANCH  12  15
ATOM     15  N   UNL A   1      36.416  22.979  25.896  1.00  0.00    -0.328 N 
ATOM     16  C   UNL A   1      35.321  22.182  26.430  1.00  0.00     0.148 C 
BRANCH  15  17
ATOM     17  C   UNL A   1      36.025  24.075  24.999  1.00  0.00     0.126 C 
BRANCH  17  18
ATOM     18  C   UNL A   1      34.686  24.820  25.151  1.00  0.00     0.068 C 
BRANCH  18  19
ATOM     19  C   UNL A   1      33.957  25.335  23.944  1.00  0.00     0.006 A 
ATOM     20  C   UNL A   1      33.651  26.641  23.603  1.00  0.00     0.015 A 
ATOM     21  S   UNL A   1      33.470  24.244  22.709  1.00  0.00    -0.149 S 
ATOM     22  C   UNL A   1      32.964  26.733  22.355  1.00  0.00     0.012 A 
ATOM     23  C   UNL A   1      32.771  25.499  21.781  1.00  0.00     0.065 A 
ENDBRANCH  18  19
ENDBRANCH  17  18
ENDBRANCH  15  17
ENDBRANCH  12  15
ENDBRANCH   7  11
ENDBRANCH   3   6
ENDBRANCH   1   2
BRANCH   1  24
ATOM     24  C   UNL A   1      38.735  28.460  28.760  1.00  0.00     0.023 C 
BRANCH  24  25
ATOM     25  C   UNL A   1      37.783  28.575  29.946  1.00  0.00     0.023 C 
BRANCH  25  26
ATOM     26  C   UNL A   1      36.648  29.564  29.748  1.00  0.00     0.116 C 
BRANCH  26  27
ATOM     27  N   UNL A   1      36.079  30.062  30.997  1.00  0.00    -0.352 N 
ATOM     28  C   UNL A   1      36.619  30.993  31.848  1.00  0.00     0.251 C 
ATOM     29  H   UNL A   1      35.208  29.687  31.259  1.00  0.00     0.163 HD
ATOM     30  O   UNL A   1      36.039  31.328  32.875  1.00  0.00    -0.269 OA
BRANCH  28  31
ATOM     31  C   UNL A   1      37.952  31.517  31.518  1.00  0.00     0.039 A 
ATOM     32  C   UNL A   1      39.033  31.086  32.284  1.00  0.00     0.014 A 
ATOM     33  C   UNL A   1      38.134  32.277  30.359  1.00  0.00     0.014 A 
ATOM     34  C   UNL A   1      40.324  31.360  31.842  1.00  0.00     0.010 A 
ATOM     35  C   UNL A   1      39.421  32.480  29.883  1.00  0.00     0.010 A 
ATOM     36  C   UNL A   1      40.525  32.018  30.618  1.00  0.00    -0.014 A 
BRANCH  36  37
ATOM     37  C   UNL A   1      41.890  32.229  30.087  1.00  0.00     0.031 A 
ATOM     38  C   UNL A   1      42.524  33.586  30.192  1.00  0.00     0.074 A 
ATOM     39  C   UNL A   1      42.524  31.217  29.460  1.00  0.00     0.049 A 
ATOM     40  N   UNL A   1      43.690  33.983  29.754  1.00  0.00    -0.248 NA
ATOM     41  C   UNL A   1      41.733  34.643  30.844  1.00  0.00     0.031 C 
ATOM     42  C   UNL A   1      41.975  29.875  29.244  1.00  0.00     0.029 A 
ATOM     43  N   UNL A   1      43.766  31.163  28.882  1.00  0.00    -0.354 N 
ATOM     44  C   UNL A   1      43.761  35.337  30.056  1.00  0.00     0.074 A 
ATOM     45  C   UNL A   1      42.506  35.705  30.672  1.00  0.00     0.031 C 
ATOM     46  C   UNL A   1      42.886  29.125  28.601  1.00  0.00     0.029 A 
ATOM     47  C   UNL A   1      44.067  29.938  28.333  1.00  0.00     0.049 A 
ATOM     48  H   UNL A   1      44.384  31.929  28.861  1.00  0.00     0.167 HD
ATOM     49  C   UNL A   1      44.791  36.191  29.857  1.00  0.00     0.031 A 
ATOM     50  C   UNL A   1      45.172  29.521  27.686  1.00  0.00     0.031 A 
ATOM     51  C   UNL A   1      46.046  35.808  29.274  1.00  0.00     0.049 A 
ATOM     52  C   UNL A   1      46.317  30.482  27.512  1.00  0.00     0.074 A 
ATOM     53  C   UNL A   1      47.185  36.576  29.105  1.00  0.00     0.029 A 
ATOM     54  N   UNL A   1      46.330  34.549  28.768  1.00  0.00    -0.354 N 
ATOM     55  N   UNL A   1      46.402  31.736  27.889  1.00  0.00    -0.248 NA
ATOM     56  C   UNL A   1      47.519  29.969  26.841  1.00  0.00     0.031 C 
ATOM     57  C   UNL A   1      48.144  35.791  28.457  1.00  0.00     0.029 A 
ATOM     58  C   UNL A   1      47.618  34.523  28.266  1.00  0.00     0.049 A 
ATOM     59  H   UNL A   1      45.706  33.787  28.766  1.00  0.00     0.167 HD
ATOM     60  C   UNL A   1      47.672  32.157  27.515  1.00  0.00     0.074 A 
ATOM     61  C   UNL A   1      48.328  31.018  26.903  1.00  0.00     0.031 C 
ATOM     62  C   UNL A   1      48.246  33.376  27.662  1.00  0.00     0.031 A 
BRANCH  49  63
ATOM     63  C   UNL A   1      44.599  37.622  30.278  1.00  0.00    -0.014 A 
ATOM     64  C   UNL A   1      44.048  38.570  29.397  1.00  0.00     0.010 A 
ATOM     65  C   UNL A   1      44.933  38.013  31.587  1.00  0.00     0.010 A 
ATOM     66  C   UNL A   1      43.866  39.893  29.808  1.00  0.00     0.020 A 
ATOM     67  C   UNL A   1      44.729  39.330  32.009  1.00  0.00     0.020 A 
ATOM     68  C   UNL A   1      44.209  40.264  31.111  1.00  0.00     0.054 A 
BRANCH  68  69
ATOM     69  S   UNL A   1      43.923  41.979  31.629  1.00  0.00     0.124 S 
ATOM     70  O   UNL A   1      42.981  42.446  30.615  1.00  0.00    -0.237 OA
ATOM     71  O   UNL A   1      43.370  41.821  32.972  1.00  0.00    -0.237 OA
ATOM     72  O   UNL A   1      45.251  42.584  31.572  1.00  0.00    -0.744 OA
ENDBRANCH  68  69
ENDBRANCH  49  63
BRANCH  50  73
ATOM     73  C   UNL A   1      45.255  28.129  27.168  1.00  0.00    -0.014 A 
ATOM     74  C   UNL A   1      44.871  27.831  25.849  1.00  0.00     0.010 A 
ATOM     75  C   UNL A   1      45.722  27.090  27.994  1.00  0.00     0.010 A 
ATOM     76  C   UNL A   1      44.929  26.519  25.372  1.00  0.00     0.020 A 
ATOM     77  C   UNL A   1      45.805  25.780  27.514  1.00  0.00     0.020 A 
ATOM     78  C   UNL A   1      45.393  25.500  26.209  1.00  0.00     0.054 A 
BRANCH  78  79
ATOM     79  S   UNL A   1      45.496  23.808  25.560  1.00  0.00     0.124 S 
ATOM     80  O   UNL A   1      46.035  24.029  24.222  1.00  0.00    -0.237 OA
ATOM     81  O   UNL A   1      46.400  23.160  26.507  1.00  0.00    -0.237 OA
ATOM     82  O   UNL A   1      44.113  23.339  25.611  1.00  0.00    -0.744 OA
ENDBRANCH  78  79
ENDBRANCH  50  73
BRANCH  62  83
ATOM     83  C   UNL A   1      49.659  33.536  27.172  1.00  0.00    -0.014 A 
ATOM     84  C   UNL A   1      50.751  33.266  28.015  1.00  0.00     0.010 A 
ATOM     85  C   UNL A   1      49.893  33.900  25.835  1.00  0.00     0.010 A 
ATOM     86  C   UNL A   1      52.057  33.384  27.534  1.00  0.00     0.020 A 
ATOM     87  C   UNL A   1      51.197  33.995  25.343  1.00  0.00     0.020 A 
ATOM     88  C   UNL A   1      52.271  33.749  26.201  1.00  0.00     0.054 A 
BRANCH  88  89
ATOM     89  S   UNL A   1      53.974  33.849  25.585  1.00  0.00     0.124 S 
ATOM     90  O   UNL A   1      54.632  32.786  26.339  1.00  0.00    -0.237 OA
ATOM     91  O   UNL A   1      53.814  33.599  24.155  1.00  0.00    -0.237 OA
ATOM     92  O   UNL A   1      54.388  35.207  25.931  1.00  0.00    -0.744 OA
ENDBRANCH  88  89
ENDBRANCH  62  83
ENDBRANCH  36  37
ENDBRANCH  28  31
ENDBRANCH  26  27
ENDBRANCH  25  26
ENDBRANCH  24  25
ENDBRANCH   1  24
TORSDOF 19
ENDMDL
