MODEL 1
REMARK VINA RESULT:     -12.1      0.000      0.000
REMARK SMILES C[NH+]1CCC(NC(=O)N[C@@H]2C=C[C@H](C(=O)NCCCCNC(=O)c3ccc(-c4c5nc(c(-c6ccc(S(=O)(=O)[O-])cc6)c6ccc([nH]6)c(-c6ccc(S(=O)(=O)[O-])cc6)c6nc(c(-c7ccc(S(=O)(=O)[O-])cc7)c7ccc4[nH]7)C=C6)C=C5)cc3)C2)CC1
REMARK SMILES IDX 19 1 18 2 17 3 16 4 14 5 15 6 13 8 10 9 11 10 84 11 12 12
REMARK SMILES IDX 9 13 6 14 7 15 8 17 5 19 1 20 2 21 3 22 86 23 4 25 85 26
REMARK SMILES IDX 20 27 21 28 22 29 23 31 24 32 25 33 83 34 26 35 82 36 27 37
REMARK SMILES IDX 28 38 29 39 76 40 30 41 81 42 75 43 77 44 31 45 80 46 74 47
REMARK SMILES IDX 73 48 32 50 62 51 43 52 61 53 44 54 47 55 60 56 78 57 45 58
REMARK SMILES IDX 46 59 59 61 79 62 48 63 33 64 34 65 42 66 35 67 41 68 36 69
REMARK SMILES IDX 37 70 38 71 39 72 40 73 63 74 64 75 72 76 65 77 71 78 66 79
REMARK SMILES IDX 67 80 68 81 69 82 70 83 49 84 50 85 58 86 51 87 57 88 52 89
REMARK SMILES IDX 53 90 54 91 55 92 56 93
REMARK H PARENT 16 7 6 16 9 18 2 24 21 30 77 49 47 60
REMARK Flexibility Score: inf
ROOT
ATOM      1  C   UNL A   1      39.291  22.195  26.470  1.00  0.00     0.023 C 
ENDROOT
BRANCH   1   2
ATOM      2  C   UNL A   1      37.868  22.522  26.004  1.00  0.00     0.023 C 
BRANCH   2   3
ATOM      3  C   UNL A   1      37.453  21.807  24.720  1.00  0.00     0.116 C 
BRANCH   3   4
ATOM      4  N   UNL A   1      36.394  20.849  24.972  1.00  0.00    -0.356 N 
ATOM      5  C   UNL A   1      35.044  21.043  24.939  1.00  0.00     0.227 C 
ATOM      6  O   UNL A   1      34.303  20.108  25.241  1.00  0.00    -0.274 OA
ATOM      7  H   UNL A   1      36.689  19.936  25.194  1.00  0.00     0.163 HD
BRANCH   5   8
ATOM      8  C   UNL A   1      34.521  22.392  24.464  1.00  0.00     0.103 C 
ATOM      9  C   UNL A   1      32.447  23.482  25.218  1.00  0.00     0.107 C 
ATOM     10  C   UNL A   1      32.252  22.708  23.955  1.00  0.00    -0.006 C 
ATOM     11  C   UNL A   1      33.902  23.207  25.608  1.00  0.00     0.047 C 
ATOM     12  C   UNL A   1      33.379  22.139  23.528  1.00  0.00    -0.016 C 
BRANCH   9  13
ATOM     13  N   UNL A   1      31.475  23.041  26.187  1.00  0.00    -0.332 N 
ATOM     14  N   UNL A   1      29.884  24.797  26.309  1.00  0.00    -0.335 N 
ATOM     15  C   UNL A   1      30.361  23.598  26.697  1.00  0.00     0.315 C 
ATOM     16  H   UNL A   1      29.060  25.071  26.775  1.00  0.00     0.165 HD
ATOM     17  O   UNL A   1      29.734  22.980  27.560  1.00  0.00    -0.249 OA
ATOM     18  H   UNL A   1      31.665  22.147  26.553  1.00  0.00     0.165 HD
BRANCH  14  19
ATOM     19  C   UNL A   1      30.356  25.759  25.335  1.00  0.00     0.095 C 
ATOM     20  C   UNL A   1      31.551  28.872  22.785  1.00  0.00     0.332 C 
ATOM     21  N   UNL A   1      30.814  28.200  23.861  1.00  0.00    -0.337 N 
ATOM     22  C   UNL A   1      31.762  27.756  24.896  1.00  0.00     0.264 C 
ATOM     23  C   UNL A   1      30.001  27.105  23.305  1.00  0.00     0.264 C 
ATOM     24  H   UNL A   1      30.162  28.846  24.308  1.00  0.00     0.347 HD
ATOM     25  C   UNL A   1      31.089  26.926  25.987  1.00  0.00     0.086 C 
ATOM     26  C   UNL A   1      29.284  26.299  24.399  1.00  0.00     0.086 C 
ENDBRANCH  14  19
ENDBRANCH   9  13
ENDBRANCH   5   8
ENDBRANCH   3   4
ENDBRANCH   2   3
ENDBRANCH   1   2
BRANCH   1  27
ATOM     27  C   UNL A   1      40.076  23.379  27.023  1.00  0.00     0.116 C 
BRANCH  27  28
ATOM     28  N   UNL A   1      40.814  24.091  25.995  1.00  0.00    -0.352 N 
ATOM     29  C   UNL A   1      41.263  25.389  25.993  1.00  0.00     0.251 C 
ATOM     30  H   UNL A   1      41.022  23.571  25.185  1.00  0.00     0.163 HD
ATOM     31  O   UNL A   1      41.741  25.865  24.970  1.00  0.00    -0.269 OA
BRANCH  29  32
ATOM     32  C   UNL A   1      41.137  26.212  27.216  1.00  0.00     0.039 A 
ATOM     33  C   UNL A   1      42.082  27.215  27.447  1.00  0.00     0.014 A 
ATOM     34  C   UNL A   1      40.099  26.002  28.129  1.00  0.00     0.014 A 
ATOM     35  C   UNL A   1      41.956  28.036  28.569  1.00  0.00     0.010 A 
ATOM     36  C   UNL A   1      39.930  26.874  29.201  1.00  0.00     0.010 A 
ATOM     37  C   UNL A   1      40.864  27.893  29.439  1.00  0.00    -0.014 A 
BRANCH  37  38
ATOM     38  C   UNL A   1      40.693  28.808  30.598  1.00  0.00     0.031 A 
ATOM     39  C   UNL A   1      41.559  28.662  31.822  1.00  0.00     0.074 A 
ATOM     40  C   UNL A   1      39.732  29.752  30.562  1.00  0.00     0.049 A 
ATOM     41  N   UNL A   1      41.567  29.381  32.915  1.00  0.00    -0.248 NA
ATOM     42  C   UNL A   1      42.525  27.551  31.831  1.00  0.00     0.031 C 
ATOM     43  C   UNL A   1      38.789  29.957  29.459  1.00  0.00     0.029 A 
ATOM     44  N   UNL A   1      39.388  30.717  31.474  1.00  0.00    -0.354 N 
ATOM     45  C   UNL A   1      42.523  28.805  33.744  1.00  0.00     0.074 A 
ATOM     46  C   UNL A   1      43.034  27.643  33.050  1.00  0.00     0.031 C 
ATOM     47  C   UNL A   1      38.001  31.005  29.743  1.00  0.00     0.029 A 
ATOM     48  C   UNL A   1      38.352  31.523  31.061  1.00  0.00     0.049 A 
ATOM     49  H   UNL A   1      39.841  30.824  32.342  1.00  0.00     0.167 HD
ATOM     50  C   UNL A   1      42.952  29.215  34.961  1.00  0.00     0.031 A 
ATOM     51  C   UNL A   1      37.750  32.560  31.674  1.00  0.00     0.031 A 
ATOM     52  C   UNL A   1      42.440  30.373  35.646  1.00  0.00     0.049 A 
ATOM     53  C   UNL A   1      38.248  33.004  33.021  1.00  0.00     0.074 A 
ATOM     54  C   UNL A   1      42.852  30.909  36.854  1.00  0.00     0.029 A 
ATOM     55  N   UNL A   1      41.399  31.168  35.191  1.00  0.00    -0.354 N 
ATOM     56  N   UNL A   1      39.215  32.497  33.750  1.00  0.00    -0.248 NA
ATOM     57  C   UNL A   1      37.588  34.171  33.621  1.00  0.00     0.031 C 
ATOM     58  C   UNL A   1      42.017  31.989  37.160  1.00  0.00     0.029 A 
ATOM     59  C   UNL A   1      41.134  32.173  36.108  1.00  0.00     0.049 A 
ATOM     60  H   UNL A   1      40.918  31.038  34.342  1.00  0.00     0.167 HD
ATOM     61  C   UNL A   1      39.295  33.301  34.882  1.00  0.00     0.074 A 
ATOM     62  C   UNL A   1      38.295  34.338  34.729  1.00  0.00     0.031 C 
ATOM     63  C   UNL A   1      40.126  33.192  35.951  1.00  0.00     0.031 A 
BRANCH  50  64
ATOM     64  C   UNL A   1      44.021  28.393  35.638  1.00  0.00    -0.014 A 
ATOM     65  C   UNL A   1      45.388  28.659  35.436  1.00  0.00     0.010 A 
ATOM     66  C   UNL A   1      43.653  27.359  36.518  1.00  0.00     0.010 A 
ATOM     67  C   UNL A   1      46.364  27.877  36.058  1.00  0.00     0.020 A 
ATOM     68  C   UNL A   1      44.625  26.595  37.170  1.00  0.00     0.020 A 
ATOM     69  C   UNL A   1      45.976  26.847  36.920  1.00  0.00     0.054 A 
BRANCH  69  70
ATOM     70  S   UNL A   1      47.265  25.858  37.727  1.00  0.00     0.124 S 
ATOM     71  O   UNL A   1      47.467  26.588  38.976  1.00  0.00    -0.237 OA
ATOM     72  O   UNL A   1      46.627  24.551  37.861  1.00  0.00    -0.237 OA
ATOM     73  O   UNL A   1      48.382  25.910  36.788  1.00  0.00    -0.744 OA
ENDBRANCH  69  70
ENDBRANCH  50  64
BRANCH  51  74
ATOM     74  C   UNL A   1      36.619  33.260  31.002  1.00  0.00    -0.014 A 
ATOM     75  C   UNL A   1      35.343  33.298  31.592  1.00  0.00     0.010 A 
ATOM     76  C   UNL A   1      36.822  33.912  29.772  1.00  0.00     0.010 A 
ATOM     77  C   UNL A   1      34.289  33.963  30.958  1.00  0.00     0.020 A 
ATOM     78  C   UNL A   1      35.779  34.605  29.151  1.00  0.00     0.020 A 
ATOM     79  C   UNL A   1      34.516  34.616  29.744  1.00  0.00     0.054 A 
BRANCH  79  80
ATOM     80  S   UNL A   1      33.149  35.524  28.969  1.00  0.00     0.124 S 
ATOM     81  O   UNL A   1      33.855  36.553  28.214  1.00  0.00    -0.237 OA
ATOM     82  O   UNL A   1      32.497  34.487  28.170  1.00  0.00    -0.237 OA
ATOM     83  O   UNL A   1      32.367  36.004  30.107  1.00  0.00    -0.744 OA
ENDBRANCH  79  80
ENDBRANCH  51  74
BRANCH  63  84
ATOM     84  C   UNL A   1      40.010  34.244  37.025  1.00  0.00    -0.014 A 
ATOM     85  C   UNL A   1      40.781  35.420  36.989  1.00  0.00     0.010 A 
ATOM     86  C   UNL A   1      39.090  34.061  38.074  1.00  0.00     0.010 A 
ATOM     87  C   UNL A   1      40.672  36.367  38.010  1.00  0.00     0.020 A 
ATOM     88  C   UNL A   1      38.953  35.022  39.078  1.00  0.00     0.020 A 
ATOM     89  C   UNL A   1      39.762  36.160  39.051  1.00  0.00     0.054 A 
BRANCH  89  90
ATOM     90  S   UNL A   1      39.630  37.410  40.358  1.00  0.00     0.124 S 
ATOM     91  O   UNL A   1      38.195  37.679  40.377  1.00  0.00    -0.237 OA
ATOM     92  O   UNL A   1      40.153  36.707  41.527  1.00  0.00    -0.237 OA
ATOM     93  O   UNL A   1      40.464  38.508  39.874  1.00  0.00    -0.744 OA
ENDBRANCH  89  90
ENDBRANCH  63  84
ENDBRANCH  37  38
ENDBRANCH  29  32
ENDBRANCH  27  28
ENDBRANCH   1  27
TORSDOF 16
ENDMDL
MODEL 2
REMARK VINA RESULT:     -11.9      6.061      8.245
REMARK SMILES C[NH+]1CCC(NC(=O)N[C@@H]2C=C[C@H](C(=O)NCCCCNC(=O)c3ccc(-c4c5nc(c(-c6ccc(S(=O)(=O)[O-])cc6)c6ccc([nH]6)c(-c6ccc(S(=O)(=O)[O-])cc6)c6nc(c(-c7ccc(S(=O)(=O)[O-])cc7)c7ccc4[nH]7)C=C6)C=C5)cc3)C2)CC1
REMARK SMILES IDX 19 1 18 2 17 3 16 4 14 5 15 6 13 8 10 9 11 10 84 11 12 12
REMARK SMILES IDX 9 13 6 14 7 15 8 17 5 19 1 20 2 21 3 22 86 23 4 25 85 26
REMARK SMILES IDX 20 27 21 28 22 29 23 31 24 32 25 33 83 34 26 35 82 36 27 37
REMARK SMILES IDX 28 38 29 39 76 40 30 41 81 42 75 43 77 44 31 45 80 46 74 47
REMARK SMILES IDX 73 48 32 50 62 51 43 52 61 53 44 54 47 55 60 56 78 57 45 58
REMARK SMILES IDX 46 59 59 61 79 62 48 63 33 64 34 65 42 66 35 67 41 68 36 69
REMARK SMILES IDX 37 70 38 71 39 72 40 73 63 74 64 75 72 76 65 77 71 78 66 79
REMARK SMILES IDX 67 80 68 81 69 82 70 83 49 84 50 85 58 86 51 87 57 88 52 89
REMARK SMILES IDX 53 90 54 91 55 92 56 93
REMARK H PARENT 16 7 6 16 9 18 2 24 21 30 77 49 47 60
REMARK Flexibility Score: inf
ROOT
ATOM      1  C   UNL A   1      38.312  20.279  25.019  1.00  0.00     0.023 C 
ENDROOT
BRANCH   1   2
ATOM      2  C   UNL A   1      37.326  21.439  24.849  1.00  0.00     0.023 C 
BRANCH   2   3
ATOM      3  C   UNL A   1      36.109  21.362  25.769  1.00  0.00     0.116 C 
BRANCH   3   4
ATOM      4  N   UNL A   1      35.177  20.346  25.323  1.00  0.00    -0.356 N 
ATOM      5  C   UNL A   1      34.026  20.500  24.606  1.00  0.00     0.227 C 
ATOM      6  O   UNL A   1      33.336  19.508  24.372  1.00  0.00    -0.274 OA
ATOM      7  H   UNL A   1      35.405  19.420  25.569  1.00  0.00     0.163 HD
BRANCH   5   8
ATOM      8  C   UNL A   1      33.690  21.886  24.072  1.00  0.00     0.103 C 
ATOM      9  C   UNL A   1      31.823  23.305  24.817  1.00  0.00     0.107 C 
ATOM     10  C   UNL A   1      31.476  22.507  23.603  1.00  0.00    -0.006 C 
ATOM     11  C   UNL A   1      33.234  22.839  25.185  1.00  0.00     0.047 C 
ATOM     12  C   UNL A   1      32.494  21.758  23.179  1.00  0.00    -0.016 C 
BRANCH   9  13
ATOM     13  N   UNL A   1      30.828  23.060  25.832  1.00  0.00    -0.332 N 
ATOM     14  N   UNL A   1      30.241  25.208  26.652  1.00  0.00    -0.335 N 
ATOM     15  C   UNL A   1      30.137  23.864  26.660  1.00  0.00     0.315 C 
ATOM     16  H   UNL A   1      29.672  25.658  27.318  1.00  0.00     0.165 HD
ATOM     17  O   UNL A   1      29.358  23.352  27.467  1.00  0.00    -0.249 OA
ATOM     18  H   UNL A   1      30.610  22.107  25.943  1.00  0.00     0.165 HD
BRANCH  14  19
ATOM     19  C   UNL A   1      31.034  26.113  25.847  1.00  0.00     0.095 C 
ATOM     20  C   UNL A   1      33.127  29.080  23.740  1.00  0.00     0.332 C 
ATOM     21  N   UNL A   1      32.083  28.491  24.585  1.00  0.00    -0.337 N 
ATOM     22  C   UNL A   1      32.695  27.956  25.814  1.00  0.00     0.264 C 
ATOM     23  C   UNL A   1      31.329  27.481  23.822  1.00  0.00     0.264 C 
ATOM     24  H   UNL A   1      31.408  29.200  24.871  1.00  0.00     0.347 HD
ATOM     25  C   UNL A   1      31.693  27.203  26.685  1.00  0.00     0.086 C 
ATOM     26  C   UNL A   1      30.287  26.756  24.687  1.00  0.00     0.086 C 
ENDBRANCH  14  19
ENDBRANCH   9  13
ENDBRANCH   5   8
ENDBRANCH   3   4
ENDBRANCH   2   3
ENDBRANCH   1   2
BRANCH   1  27
ATOM     27  C   UNL A   1      39.408  20.511  26.053  1.00  0.00     0.116 C 
BRANCH  27  28
ATOM     28  N   UNL A   1      40.419  19.468  26.041  1.00  0.00    -0.352 N 
ATOM     29  C   UNL A   1      41.785  19.585  26.131  1.00  0.00     0.251 C 
ATOM     30  H   UNL A   1      40.079  18.547  25.956  1.00  0.00     0.163 HD
ATOM     31  O   UNL A   1      42.492  18.600  25.952  1.00  0.00    -0.269 OA
BRANCH  29  32
ATOM     32  C   UNL A   1      42.393  20.905  26.411  1.00  0.00     0.039 A 
ATOM     33  C   UNL A   1      42.678  21.750  25.336  1.00  0.00     0.014 A 
ATOM     34  C   UNL A   1      42.679  21.310  27.718  1.00  0.00     0.014 A 
ATOM     35  C   UNL A   1      43.206  23.019  25.578  1.00  0.00     0.010 A 
ATOM     36  C   UNL A   1      43.128  22.605  27.960  1.00  0.00     0.010 A 
ATOM     37  C   UNL A   1      43.408  23.470  26.893  1.00  0.00    -0.014 A 
BRANCH  37  38
ATOM     38  C   UNL A   1      43.909  24.844  27.154  1.00  0.00     0.031 A 
ATOM     39  C   UNL A   1      45.359  25.185  26.931  1.00  0.00     0.074 A 
ATOM     40  C   UNL A   1      43.062  25.780  27.626  1.00  0.00     0.049 A 
ATOM     41  N   UNL A   1      45.968  26.333  27.086  1.00  0.00    -0.248 NA
ATOM     42  C   UNL A   1      46.247  24.091  26.504  1.00  0.00     0.031 C 
ATOM     43  C   UNL A   1      41.648  25.560  27.940  1.00  0.00     0.029 A 
ATOM     44  N   UNL A   1      43.264  27.104  27.924  1.00  0.00    -0.354 N 
ATOM     45  C   UNL A   1      47.306  26.097  26.788  1.00  0.00     0.074 A 
ATOM     46  C   UNL A   1      47.430  24.686  26.500  1.00  0.00     0.031 C 
ATOM     47  C   UNL A   1      41.103  26.716  28.349  1.00  0.00     0.029 A 
ATOM     48  C   UNL A   1      42.133  27.749  28.367  1.00  0.00     0.049 A 
ATOM     49  H   UNL A   1      44.137  27.551  27.830  1.00  0.00     0.167 HD
ATOM     50  C   UNL A   1      48.334  26.978  26.739  1.00  0.00     0.031 A 
ATOM     51  C   UNL A   1      41.944  29.028  28.746  1.00  0.00     0.031 A 
ATOM     52  C   UNL A   1      48.204  28.383  27.026  1.00  0.00     0.049 A 
ATOM     53  C   UNL A   1      43.097  29.990  28.676  1.00  0.00     0.074 A 
ATOM     54  C   UNL A   1      49.170  29.371  26.944  1.00  0.00     0.029 A 
ATOM     55  N   UNL A   1      47.040  28.999  27.461  1.00  0.00    -0.354 N 
ATOM     56  N   UNL A   1      44.336  29.766  28.307  1.00  0.00    -0.248 NA
ATOM     57  C   UNL A   1      42.822  31.382  29.053  1.00  0.00     0.031 C 
ATOM     58  C   UNL A   1      48.608  30.571  27.389  1.00  0.00     0.029 A 
ATOM     59  C   UNL A   1      47.271  30.349  27.679  1.00  0.00     0.049 A 
ATOM     60  H   UNL A   1      46.177  28.546  27.594  1.00  0.00     0.167 HD
ATOM     61  C   UNL A   1      44.982  30.995  28.383  1.00  0.00     0.074 A 
ATOM     62  C   UNL A   1      43.990  31.960  28.811  1.00  0.00     0.031 C 
ATOM     63  C   UNL A   1      46.279  31.298  28.119  1.00  0.00     0.031 A 
BRANCH  50  64
ATOM     64  C   UNL A   1      49.696  26.441  26.375  1.00  0.00    -0.014 A 
ATOM     65  C   UNL A   1      50.229  26.613  25.084  1.00  0.00     0.010 A 
ATOM     66  C   UNL A   1      50.470  25.786  27.349  1.00  0.00     0.010 A 
ATOM     67  C   UNL A   1      51.486  26.094  24.760  1.00  0.00     0.020 A 
ATOM     68  C   UNL A   1      51.742  25.295  27.040  1.00  0.00     0.020 A 
ATOM     69  C   UNL A   1      52.234  25.436  25.741  1.00  0.00     0.054 A 
BRANCH  69  70
ATOM     70  S   UNL A   1      53.869  24.787  25.296  1.00  0.00     0.124 S 
ATOM     71  O   UNL A   1      54.644  25.074  26.501  1.00  0.00    -0.237 OA
ATOM     72  O   UNL A   1      53.595  23.375  25.048  1.00  0.00    -0.237 OA
ATOM     73  O   UNL A   1      54.242  25.564  24.117  1.00  0.00    -0.744 OA
ENDBRANCH  69  70
ENDBRANCH  50  64
BRANCH  51  74
ATOM     74  C   UNL A   1      40.599  29.470  29.209  1.00  0.00    -0.014 A 
ATOM     75  C   UNL A   1      39.563  29.712  28.289  1.00  0.00     0.010 A 
ATOM     76  C   UNL A   1      40.342  29.630  30.583  1.00  0.00     0.010 A 
ATOM     77  C   UNL A   1      38.302  30.121  28.734  1.00  0.00     0.020 A 
ATOM     78  C   UNL A   1      39.074  30.007  31.033  1.00  0.00     0.020 A 
ATOM     79  C   UNL A   1      38.064  30.260  30.104  1.00  0.00     0.054 A 
BRANCH  79  80
ATOM     80  S   UNL A   1      36.403  30.732  30.661  1.00  0.00     0.124 S 
ATOM     81  O   UNL A   1      35.644  30.706  29.416  1.00  0.00    -0.237 OA
ATOM     82  O   UNL A   1      36.083  29.677  31.621  1.00  0.00    -0.237 OA
ATOM     83  O   UNL A   1      36.602  32.056  31.248  1.00  0.00    -0.744 OA
ENDBRANCH  79  80
ENDBRANCH  51  74
BRANCH  63  84
ATOM     84  C   UNL A   1      46.691  32.742  28.253  1.00  0.00    -0.014 A 
ATOM     85  C   UNL A   1      46.543  33.650  27.190  1.00  0.00     0.010 A 
ATOM     86  C   UNL A   1      47.211  33.201  29.477  1.00  0.00     0.010 A 
ATOM     87  C   UNL A   1      46.957  34.978  27.332  1.00  0.00     0.020 A 
ATOM     88  C   UNL A   1      47.593  34.535  29.636  1.00  0.00     0.020 A 
ATOM     89  C   UNL A   1      47.484  35.410  28.553  1.00  0.00     0.054 A 
BRANCH  89  90
ATOM     90  S   UNL A   1      48.002  37.140  28.718  1.00  0.00     0.124 S 
ATOM     91  O   UNL A   1      49.248  37.013  29.470  1.00  0.00    -0.237 OA
ATOM     92  O   UNL A   1      48.146  37.565  27.328  1.00  0.00    -0.237 OA
ATOM     93  O   UNL A   1      46.899  37.765  29.443  1.00  0.00    -0.744 OA
ENDBRANCH  89  90
ENDBRANCH  63  84
ENDBRANCH  37  38
ENDBRANCH  29  32
ENDBRANCH  27  28
ENDBRANCH   1  27
TORSDOF 16
ENDMDL
MODEL 3
REMARK VINA RESULT:     -11.8      6.652     11.720
REMARK SMILES C[NH+]1CCC(NC(=O)N[C@@H]2C=C[C@H](C(=O)NCCCCNC(=O)c3ccc(-c4c5nc(c(-c6ccc(S(=O)(=O)[O-])cc6)c6ccc([nH]6)c(-c6ccc(S(=O)(=O)[O-])cc6)c6nc(c(-c7ccc(S(=O)(=O)[O-])cc7)c7ccc4[nH]7)C=C6)C=C5)cc3)C2)CC1
REMARK SMILES IDX 19 1 18 2 17 3 16 4 14 5 15 6 13 8 10 9 11 10 84 11 12 12
REMARK SMILES IDX 9 13 6 14 7 15 8 17 5 19 1 20 2 21 3 22 86 23 4 25 85 26
REMARK SMILES IDX 20 27 21 28 22 29 23 31 24 32 25 33 83 34 26 35 82 36 27 37
REMARK SMILES IDX 28 38 29 39 76 40 30 41 81 42 75 43 77 44 31 45 80 46 74 47
REMARK SMILES IDX 73 48 32 50 62 51 43 52 61 53 44 54 47 55 60 56 78 57 45 58
REMARK SMILES IDX 46 59 59 61 79 62 48 63 33 64 34 65 42 66 35 67 41 68 36 69
REMARK SMILES IDX 37 70 38 71 39 72 40 73 63 74 64 75 72 76 65 77 71 78 66 79
REMARK SMILES IDX 67 80 68 81 69 82 70 83 49 84 50 85 58 86 51 87 57 88 52 89
REMARK SMILES IDX 53 90 54 91 55 92 56 93
REMARK H PARENT 16 7 6 16 9 18 2 24 21 30 77 49 47 60
REMARK Flexibility Score: inf
ROOT
ATOM      1  C   UNL A   1      34.117  29.150  27.169  1.00  0.00     0.023 C 
ENDROOT
BRANCH   1   2
ATOM      2  C   UNL A   1      33.359  30.346  26.582  1.00  0.00     0.023 C 
BRANCH   2   3
ATOM      3  C   UNL A   1      31.839  30.198  26.619  1.00  0.00     0.116 C 
BRANCH   3   4
ATOM      4  N   UNL A   1      31.270  30.296  25.290  1.00  0.00    -0.356 N 
ATOM      5  C   UNL A   1      31.099  29.311  24.361  1.00  0.00     0.227 C 
ATOM      6  O   UNL A   1      30.644  29.609  23.257  1.00  0.00    -0.274 OA
ATOM      7  H   UNL A   1      30.964  31.193  25.022  1.00  0.00     0.163 HD
BRANCH   5   8
ATOM      8  C   UNL A   1      31.419  27.877  24.764  1.00  0.00     0.103 C 
ATOM      9  C   UNL A   1      32.130  26.076  23.244  1.00  0.00     0.107 C 
ATOM     10  C   UNL A   1      30.658  26.056  23.494  1.00  0.00    -0.006 C 
ATOM     11  C   UNL A   1      32.623  27.316  23.995  1.00  0.00     0.047 C 
ATOM     12  C   UNL A   1      30.271  27.013  24.338  1.00  0.00    -0.016 C 
BRANCH   9  13
ATOM     13  N   UNL A   1      32.359  26.109  21.821  1.00  0.00    -0.332 N 
ATOM     14  N   UNL A   1      33.096  23.924  21.264  1.00  0.00    -0.335 N 
ATOM     15  C   UNL A   1      32.797  25.197  20.935  1.00  0.00     0.315 C 
ATOM     16  H   UNL A   1      33.406  23.376  20.505  1.00  0.00     0.165 HD
ATOM     17  O   UNL A   1      32.927  25.533  19.756  1.00  0.00    -0.249 OA
ATOM     18  H   UNL A   1      32.152  26.981  21.412  1.00  0.00     0.165 HD
BRANCH  14  19
ATOM     19  C   UNL A   1      33.047  23.212  22.523  1.00  0.00     0.095 C 
ATOM     20  C   UNL A   1      33.270  20.908  26.025  1.00  0.00     0.332 C 
ATOM     21  N   UNL A   1      33.508  21.289  24.629  1.00  0.00    -0.337 N 
ATOM     22  C   UNL A   1      34.253  22.559  24.591  1.00  0.00     0.264 C 
ATOM     23  C   UNL A   1      32.231  21.340  23.896  1.00  0.00     0.264 C 
ATOM     24  H   UNL A   1      34.083  20.589  24.158  1.00  0.00     0.347 HD
ATOM     25  C   UNL A   1      34.422  23.094  23.172  1.00  0.00     0.086 C 
ATOM     26  C   UNL A   1      32.407  21.833  22.453  1.00  0.00     0.086 C 
ENDBRANCH  14  19
ENDBRANCH   9  13
ENDBRANCH   5   8
ENDBRANCH   3   4
ENDBRANCH   2   3
ENDBRANCH   1   2
BRANCH   1  27
ATOM     27  C   UNL A   1      35.501  29.473  27.722  1.00  0.00     0.116 C 
BRANCH  27  28
ATOM     28  N   UNL A   1      35.474  29.821  29.132  1.00  0.00    -0.352 N 
ATOM     29  C   UNL A   1      36.474  29.719  30.068  1.00  0.00     0.251 C 
ATOM     30  H   UNL A   1      34.619  30.181  29.464  1.00  0.00     0.163 HD
ATOM     31  O   UNL A   1      36.221  29.922  31.250  1.00  0.00    -0.269 OA
BRANCH  29  32
ATOM     32  C   UNL A   1      37.838  29.333  29.647  1.00  0.00     0.039 A 
ATOM     33  C   UNL A   1      38.240  29.617  28.340  1.00  0.00     0.014 A 
ATOM     34  C   UNL A   1      38.718  28.698  30.530  1.00  0.00     0.014 A 
ATOM     35  C   UNL A   1      39.538  29.307  27.934  1.00  0.00     0.010 A 
ATOM     36  C   UNL A   1      40.036  28.465  30.147  1.00  0.00     0.010 A 
ATOM     37  C   UNL A   1      40.458  28.756  28.842  1.00  0.00    -0.014 A 
BRANCH  37  38
ATOM     38  C   UNL A   1      41.859  28.484  28.430  1.00  0.00     0.031 A 
ATOM     39  C   UNL A   1      42.272  27.107  27.980  1.00  0.00     0.074 A 
ATOM     40  C   UNL A   1      42.772  29.474  28.493  1.00  0.00     0.049 A 
ATOM     41  N   UNL A   1      43.442  26.693  27.566  1.00  0.00    -0.248 NA
ATOM     42  C   UNL A   1      41.246  26.053  28.025  1.00  0.00     0.031 C 
ATOM     43  C   UNL A   1      42.512  30.836  28.967  1.00  0.00     0.029 A 
ATOM     44  N   UNL A   1      44.102  29.490  28.157  1.00  0.00    -0.354 N 
ATOM     45  C   UNL A   1      43.297  25.333  27.314  1.00  0.00     0.074 A 
ATOM     46  C   UNL A   1      41.942  24.981  27.676  1.00  0.00     0.031 C 
ATOM     47  C   UNL A   1      43.635  31.562  28.856  1.00  0.00     0.029 A 
ATOM     48  C   UNL A   1      44.704  30.713  28.342  1.00  0.00     0.049 A 
ATOM     49  H   UNL A   1      44.581  28.700  27.815  1.00  0.00     0.167 HD
ATOM     50  C   UNL A   1      44.201  24.461  26.808  1.00  0.00     0.031 A 
ATOM     51  C   UNL A   1      45.973  31.108  28.125  1.00  0.00     0.031 A 
ATOM     52  C   UNL A   1      45.549  24.818  26.449  1.00  0.00     0.049 A 
ATOM     53  C   UNL A   1      46.958  30.125  27.555  1.00  0.00     0.074 A 
ATOM     54  C   UNL A   1      46.523  24.023  25.870  1.00  0.00     0.029 A 
ATOM     55  N   UNL A   1      46.117  26.068  26.642  1.00  0.00    -0.354 N 
ATOM     56  N   UNL A   1      46.776  28.864  27.241  1.00  0.00    -0.248 NA
ATOM     57  C   UNL A   1      48.314  30.623  27.292  1.00  0.00     0.031 C 
ATOM     58  C   UNL A   1      47.699  24.774  25.772  1.00  0.00     0.029 A 
ATOM     59  C   UNL A   1      47.438  26.059  26.221  1.00  0.00     0.049 A 
ATOM     60  H   UNL A   1      45.651  26.847  27.022  1.00  0.00     0.167 HD
ATOM     61  C   UNL A   1      47.988  28.426  26.719  1.00  0.00     0.074 A 
ATOM     62  C   UNL A   1      48.886  29.563  26.740  1.00  0.00     0.031 C 
ATOM     63  C   UNL A   1      48.326  27.194  26.260  1.00  0.00     0.031 A 
BRANCH  50  64
ATOM     64  C   UNL A   1      43.764  23.028  26.629  1.00  0.00    -0.014 A 
ATOM     65  C   UNL A   1      44.142  22.283  25.496  1.00  0.00     0.010 A 
ATOM     66  C   UNL A   1      42.993  22.404  27.626  1.00  0.00     0.010 A 
ATOM     67  C   UNL A   1      43.714  20.962  25.339  1.00  0.00     0.020 A 
ATOM     68  C   UNL A   1      42.590  21.072  27.490  1.00  0.00     0.020 A 
ATOM     69  C   UNL A   1      42.939  20.366  26.337  1.00  0.00     0.054 A 
BRANCH  69  70
ATOM     70  S   UNL A   1      42.411  18.645  26.114  1.00  0.00     0.124 S 
ATOM     71  O   UNL A   1      41.007  18.806  25.741  1.00  0.00    -0.237 OA
ATOM     72  O   UNL A   1      43.293  18.176  25.049  1.00  0.00    -0.237 OA
ATOM     73  O   UNL A   1      42.640  18.038  27.423  1.00  0.00    -0.744 OA
ENDBRANCH  69  70
ENDBRANCH  50  64
BRANCH  51  74
ATOM     74  C   UNL A   1      46.374  32.509  28.434  1.00  0.00    -0.014 A 
ATOM     75  C   UNL A   1      46.973  32.834  29.664  1.00  0.00     0.010 A 
ATOM     76  C   UNL A   1      46.176  33.526  27.482  1.00  0.00     0.010 A 
ATOM     77  C   UNL A   1      47.352  34.150  29.942  1.00  0.00     0.020 A 
ATOM     78  C   UNL A   1      46.583  34.838  27.743  1.00  0.00     0.020 A 
ATOM     79  C   UNL A   1      47.159  35.143  28.977  1.00  0.00     0.054 A 
BRANCH  79  80
ATOM     80  S   UNL A   1      47.714  36.833  29.336  1.00  0.00     0.124 S 
ATOM     81  O   UNL A   1      49.132  36.767  28.999  1.00  0.00    -0.237 OA
ATOM     82  O   UNL A   1      46.885  37.633  28.437  1.00  0.00    -0.237 OA
ATOM     83  O   UNL A   1      47.414  36.998  30.757  1.00  0.00    -0.744 OA
ENDBRANCH  79  80
ENDBRANCH  51  74
BRANCH  63  84
ATOM     84  C   UNL A   1      49.719  27.021  25.709  1.00  0.00    -0.014 A 
ATOM     85  C   UNL A   1      50.791  26.629  26.531  1.00  0.00     0.010 A 
ATOM     86  C   UNL A   1      49.950  27.229  24.337  1.00  0.00     0.010 A 
ATOM     87  C   UNL A   1      52.078  26.501  26.001  1.00  0.00     0.020 A 
ATOM     88  C   UNL A   1      51.228  27.067  23.796  1.00  0.00     0.020 A 
ATOM     89  C   UNL A   1      52.288  26.725  24.637  1.00  0.00     0.054 A 
BRANCH  89  90
ATOM     90  S   UNL A   1      53.964  26.540  23.969  1.00  0.00     0.124 S 
ATOM     91  O   UNL A   1      53.700  26.246  22.563  1.00  0.00    -0.237 OA
ATOM     92  O   UNL A   1      54.562  27.845  24.239  1.00  0.00    -0.237 OA
ATOM     93  O   UNL A   1      54.525  25.433  24.741  1.00  0.00    -0.744 OA
ENDBRANCH  89  90
ENDBRANCH  63  84
ENDBRANCH  37  38
ENDBRANCH  29  32
ENDBRANCH  27  28
ENDBRANCH   1  27
TORSDOF 16
ENDMDL
