MODEL 1
REMARK VINA RESULT:     -10.3      0.000      0.000
REMARK SMILES C[NH2+][C@]1(C(=O)NCCCCNC(=O)c2ccc(-c3c4nc(c(-c5ccc(S(=O)(=O)[O-])cc5)c5ccc([nH]5)c(-c5ccc(S(=O)(=O)[O-])cc5)c5nc(c(-c6ccc(S(=O)(=O)[O-])cc6)c6ccc3[nH]6)C=C5)C=C4)cc2)CCC[C@@H](Sc2nncs2)C1
REMARK SMILES IDX 9 1 8 2 7 3 6 4 4 5 5 6 3 8 74 9 84 10 75 11 77 12 76 13
REMARK SMILES IDX 2 14 1 15 78 18 79 19 80 20 83 21 81 22 82 23 10 24 11 25
REMARK SMILES IDX 12 26 13 28 14 29 15 30 73 31 16 32 72 33 17 34 18 35 19 36
REMARK SMILES IDX 66 37 20 38 71 39 65 40 67 41 21 42 70 43 64 44 63 45 22 47
REMARK SMILES IDX 52 48 33 49 51 50 34 51 37 52 50 53 68 54 35 55 36 56 49 58
REMARK SMILES IDX 69 59 38 60 23 61 24 62 32 63 25 64 31 65 26 66 27 67 28 68
REMARK SMILES IDX 29 69 30 70 53 71 54 72 62 73 55 74 61 75 56 76 57 77 58 78
REMARK SMILES IDX 59 79 60 80 39 81 40 82 48 83 41 84 47 85 42 86 43 87 44 88
REMARK SMILES IDX 45 89 46 90
REMARK H PARENT 6 7 2 16 2 17 11 27 67 46 37 57
REMARK Flexibility Score: inf
ROOT
ATOM      1  C   UNL A   1      32.314  27.624  27.010  1.00  0.00     0.023 C 
ENDROOT
BRANCH   1   2
ATOM      2  C   UNL A   1      31.772  27.414  25.597  1.00  0.00     0.023 C 
BRANCH   2   3
ATOM      3  C   UNL A   1      31.494  25.958  25.224  1.00  0.00     0.116 C 
BRANCH   3   4
ATOM      4  N   UNL A   1      31.421  25.099  26.398  1.00  0.00    -0.351 N 
ATOM      5  C   UNL A   1      31.734  23.783  26.607  1.00  0.00     0.281 C 
ATOM      6  O   UNL A   1      31.558  23.375  27.761  1.00  0.00    -0.268 OA
ATOM      7  H   UNL A   1      31.077  25.555  27.199  1.00  0.00     0.163 HD
BRANCH   5   8
ATOM      8  C   UNL A   1      32.316  22.864  25.461  1.00  0.00     0.176 C 
ATOM      9  C   UNL A   1      31.312  22.838  24.274  1.00  0.00     0.079 C 
ATOM     10  C   UNL A   1      33.719  23.392  25.056  1.00  0.00     0.094 C 
ATOM     11  C   UNL A   1      31.890  22.307  22.965  1.00  0.00     0.008 C 
ATOM     12  C   UNL A   1      34.222  22.840  23.721  1.00  0.00     0.061 C 
ATOM     13  C   UNL A   1      33.193  23.010  22.602  1.00  0.00     0.015 C 
BRANCH   8  14
ATOM     14  N   UNL A   1      32.370  21.441  25.922  1.00  0.00    -0.336 N 
ATOM     15  C   UNL A   1      33.545  21.043  26.679  1.00  0.00     0.331 C 
ATOM     16  H   UNL A   1      31.553  21.276  26.510  1.00  0.00     0.346 HD
ATOM     17  H   UNL A   1      32.401  20.884  25.068  1.00  0.00     0.346 HD
ENDBRANCH   8  14
BRANCH  12  18
ATOM     18  S   UNL A   1      35.868  23.492  23.245  1.00  0.00    -0.090 SA
BRANCH  18  19
ATOM     19  C   UNL A   1      36.950  22.796  24.428  1.00  0.00     0.174 A 
ATOM     20  N   UNL A   1      37.296  21.527  24.423  1.00  0.00    -0.132 NA
ATOM     21  S   UNL A   1      37.683  23.716  25.677  1.00  0.00    -0.094 S 
ATOM     22  N   UNL A   1      38.168  21.213  25.444  1.00  0.00    -0.146 NA
ATOM     23  C   UNL A   1      38.465  22.270  26.169  1.00  0.00     0.203 A 
ENDBRANCH  18  19
ENDBRANCH  12  18
ENDBRANCH   5   8
ENDBRANCH   3   4
ENDBRANCH   2   3
ENDBRANCH   1   2
BRANCH   1  24
ATOM     24  C   UNL A   1      33.667  28.321  27.092  1.00  0.00     0.116 C 
BRANCH  24  25
ATOM     25  N   UNL A   1      33.573  29.717  27.496  1.00  0.00    -0.352 N 
ATOM     26  C   UNL A   1      34.522  30.500  28.109  1.00  0.00     0.251 C 
ATOM     27  H   UNL A   1      32.714  30.158  27.306  1.00  0.00     0.163 HD
ATOM     28  O   UNL A   1      34.238  31.632  28.490  1.00  0.00    -0.269 OA
BRANCH  26  29
ATOM     29  C   UNL A   1      35.877  29.955  28.335  1.00  0.00     0.039 A 
ATOM     30  C   UNL A   1      36.833  30.071  27.322  1.00  0.00     0.014 A 
ATOM     31  C   UNL A   1      36.213  29.365  29.557  1.00  0.00     0.014 A 
ATOM     32  C   UNL A   1      38.147  29.663  27.564  1.00  0.00     0.010 A 
ATOM     33  C   UNL A   1      37.538  29.031  29.821  1.00  0.00     0.010 A 
ATOM     34  C   UNL A   1      38.519  29.178  28.828  1.00  0.00    -0.014 A 
BRANCH  34  35
ATOM     35  C   UNL A   1      39.928  28.827  29.139  1.00  0.00     0.031 A 
ATOM     36  C   UNL A   1      40.836  29.843  29.778  1.00  0.00     0.074 A 
ATOM     37  C   UNL A   1      40.410  27.620  28.782  1.00  0.00     0.049 A 
ATOM     38  N   UNL A   1      42.109  29.746  30.064  1.00  0.00    -0.248 NA
ATOM     39  C   UNL A   1      40.240  31.144  30.122  1.00  0.00     0.031 C 
ATOM     40  C   UNL A   1      39.644  26.562  28.119  1.00  0.00     0.029 A 
ATOM     41  N   UNL A   1      41.664  27.080  28.922  1.00  0.00    -0.354 N 
ATOM     42  C   UNL A   1      42.469  30.975  30.603  1.00  0.00     0.074 A 
ATOM     43  C   UNL A   1      41.294  31.817  30.559  1.00  0.00     0.031 C 
ATOM     44  C   UNL A   1      40.435  25.491  27.939  1.00  0.00     0.029 A 
ATOM     45  C   UNL A   1      41.774  25.799  28.433  1.00  0.00     0.049 A 
ATOM     46  H   UNL A   1      42.416  27.564  29.335  1.00  0.00     0.167 HD
ATOM     47  C   UNL A   1      43.665  31.363  31.109  1.00  0.00     0.031 A 
ATOM     48  C   UNL A   1      42.831  24.967  28.383  1.00  0.00     0.031 A 
ATOM     49  C   UNL A   1      44.830  30.521  31.161  1.00  0.00     0.049 A 
ATOM     50  C   UNL A   1      44.151  25.424  28.940  1.00  0.00     0.074 A 
ATOM     51  C   UNL A   1      46.074  30.805  31.697  1.00  0.00     0.029 A 
ATOM     52  N   UNL A   1      44.896  29.229  30.662  1.00  0.00    -0.354 N 
ATOM     53  N   UNL A   1      44.458  26.571  29.495  1.00  0.00    -0.248 NA
ATOM     54  C   UNL A   1      45.266  24.468  28.873  1.00  0.00     0.031 C 
ATOM     55  C   UNL A   1      46.905  29.701  31.482  1.00  0.00     0.029 A 
ATOM     56  C   UNL A   1      46.164  28.709  30.861  1.00  0.00     0.049 A 
ATOM     57  H   UNL A   1      44.151  28.751  30.229  1.00  0.00     0.167 HD
ATOM     58  C   UNL A   1      45.793  26.466  29.870  1.00  0.00     0.074 A 
ATOM     59  C   UNL A   1      46.231  25.139  29.488  1.00  0.00     0.031 C 
ATOM     60  C   UNL A   1      46.584  27.385  30.476  1.00  0.00     0.031 A 
BRANCH  47  61
ATOM     61  C   UNL A   1      43.767  32.765  31.648  1.00  0.00    -0.014 A 
ATOM     62  C   UNL A   1      43.980  33.857  30.787  1.00  0.00     0.010 A 
ATOM     63  C   UNL A   1      43.615  33.000  33.026  1.00  0.00     0.010 A 
ATOM     64  C   UNL A   1      44.082  35.153  31.299  1.00  0.00     0.020 A 
ATOM     65  C   UNL A   1      43.689  34.298  33.539  1.00  0.00     0.020 A 
ATOM     66  C   UNL A   1      43.940  35.366  32.674  1.00  0.00     0.054 A 
BRANCH  66  67
ATOM     67  S   UNL A   1      44.058  37.060  33.308  1.00  0.00     0.124 S 
ATOM     68  O   UNL A   1      45.189  36.959  34.226  1.00  0.00    -0.237 OA
ATOM     69  O   UNL A   1      44.302  37.840  32.097  1.00  0.00    -0.237 OA
ATOM     70  O   UNL A   1      42.761  37.286  33.939  1.00  0.00    -0.744 OA
ENDBRANCH  66  67
ENDBRANCH  47  61
BRANCH  48  71
ATOM     71  C   UNL A   1      42.678  23.603  27.805  1.00  0.00    -0.014 A 
ATOM     72  C   UNL A   1      42.184  22.550  28.593  1.00  0.00     0.010 A 
ATOM     73  C   UNL A   1      43.014  23.353  26.462  1.00  0.00     0.010 A 
ATOM     74  C   UNL A   1      42.042  21.267  28.056  1.00  0.00     0.020 A 
ATOM     75  C   UNL A   1      42.849  22.078  25.913  1.00  0.00     0.020 A 
ATOM     76  C   UNL A   1      42.375  21.040  26.718  1.00  0.00     0.054 A 
BRANCH  76  77
ATOM     77  S   UNL A   1      42.133  19.379  26.026  1.00  0.00     0.124 S 
ATOM     78  O   UNL A   1      40.689  19.343  25.821  1.00  0.00    -0.237 OA
ATOM     79  O   UNL A   1      42.945  19.423  24.811  1.00  0.00    -0.237 OA
ATOM     80  O   UNL A   1      42.642  18.496  27.073  1.00  0.00    -0.744 OA
ENDBRANCH  76  77
ENDBRANCH  48  71
BRANCH  60  81
ATOM     81  C   UNL A   1      47.997  26.978  30.801  1.00  0.00    -0.014 A 
ATOM     82  C   UNL A   1      49.046  27.198  29.893  1.00  0.00     0.010 A 
ATOM     83  C   UNL A   1      48.283  26.417  32.059  1.00  0.00     0.010 A 
ATOM     84  C   UNL A   1      50.354  26.838  30.225  1.00  0.00     0.020 A 
ATOM     85  C   UNL A   1      49.594  26.080  32.406  1.00  0.00     0.020 A 
ATOM     86  C   UNL A   1      50.620  26.281  31.481  1.00  0.00     0.054 A 
BRANCH  86  87
ATOM     87  S   UNL A   1      52.333  25.865  31.908  1.00  0.00     0.124 S 
ATOM     88  O   UNL A   1      53.050  26.246  30.695  1.00  0.00    -0.237 OA
ATOM     89  O   UNL A   1      52.585  26.703  33.078  1.00  0.00    -0.237 OA
ATOM     90  O   UNL A   1      52.284  24.429  32.179  1.00  0.00    -0.744 OA
ENDBRANCH  86  87
ENDBRANCH  60  81
ENDBRANCH  34  35
ENDBRANCH  26  29
ENDBRANCH  24  25
ENDBRANCH   1  24
TORSDOF 17
ENDMDL
MODEL 2
REMARK VINA RESULT:     -10.2      1.702      2.402
REMARK SMILES C[NH2+][C@]1(C(=O)NCCCCNC(=O)c2ccc(-c3c4nc(c(-c5ccc(S(=O)(=O)[O-])cc5)c5ccc([nH]5)c(-c5ccc(S(=O)(=O)[O-])cc5)c5nc(c(-c6ccc(S(=O)(=O)[O-])cc6)c6ccc3[nH]6)C=C5)C=C4)cc2)CCC[C@@H](Sc2nncs2)C1
REMARK SMILES IDX 9 1 8 2 7 3 6 4 4 5 5 6 3 8 74 9 84 10 75 11 77 12 76 13
REMARK SMILES IDX 2 14 1 15 78 18 79 19 80 20 83 21 81 22 82 23 10 24 11 25
REMARK SMILES IDX 12 26 13 28 14 29 15 30 73 31 16 32 72 33 17 34 18 35 19 36
REMARK SMILES IDX 66 37 20 38 71 39 65 40 67 41 21 42 70 43 64 44 63 45 22 47
REMARK SMILES IDX 52 48 33 49 51 50 34 51 37 52 50 53 68 54 35 55 36 56 49 58
REMARK SMILES IDX 69 59 38 60 23 61 24 62 32 63 25 64 31 65 26 66 27 67 28 68
REMARK SMILES IDX 29 69 30 70 53 71 54 72 62 73 55 74 61 75 56 76 57 77 58 78
REMARK SMILES IDX 59 79 60 80 39 81 40 82 48 83 41 84 47 85 42 86 43 87 44 88
REMARK SMILES IDX 45 89 46 90
REMARK H PARENT 6 7 2 16 2 17 11 27 67 46 37 57
REMARK Flexibility Score: inf
ROOT
ATOM      1  C   UNL A   1      32.617  27.868  26.050  1.00  0.00     0.023 C 
ENDROOT
BRANCH   1   2
ATOM      2  C   UNL A   1      31.787  26.636  26.410  1.00  0.00     0.023 C 
BRANCH   2   3
ATOM      3  C   UNL A   1      32.336  25.313  25.876  1.00  0.00     0.116 C 
BRANCH   3   4
ATOM      4  N   UNL A   1      33.045  25.485  24.615  1.00  0.00    -0.351 N 
ATOM      5  C   UNL A   1      33.971  24.721  23.958  1.00  0.00     0.281 C 
ATOM      6  O   UNL A   1      34.357  25.176  22.875  1.00  0.00    -0.268 OA
ATOM      7  H   UNL A   1      32.812  26.317  24.143  1.00  0.00     0.163 HD
BRANCH   5   8
ATOM      8  C   UNL A   1      34.478  23.338  24.529  1.00  0.00     0.176 C 
ATOM      9  C   UNL A   1      34.519  23.417  26.082  1.00  0.00     0.079 C 
ATOM     10  C   UNL A   1      33.555  22.207  24.003  1.00  0.00     0.094 C 
ATOM     11  C   UNL A   1      34.628  22.065  26.783  1.00  0.00     0.008 C 
ATOM     12  C   UNL A   1      33.696  20.891  24.770  1.00  0.00     0.061 C 
ATOM     13  C   UNL A   1      33.570  21.087  26.282  1.00  0.00     0.015 C 
BRANCH   8  14
ATOM     14  N   UNL A   1      35.906  23.116  24.140  1.00  0.00    -0.336 N 
ATOM     15  C   UNL A   1      36.918  23.692  25.010  1.00  0.00     0.331 C 
ATOM     16  H   UNL A   1      36.065  22.109  24.107  1.00  0.00     0.346 HD
ATOM     17  H   UNL A   1      36.018  23.596  23.247  1.00  0.00     0.346 HD
ENDBRANCH   8  14
BRANCH  12  18
ATOM     18  S   UNL A   1      32.580  19.573  24.154  1.00  0.00    -0.090 SA
BRANCH  18  19
ATOM     19  C   UNL A   1      33.395  18.094  24.604  1.00  0.00     0.174 A 
ATOM     20  N   UNL A   1      34.660  17.861  24.330  1.00  0.00    -0.132 NA
ATOM     21  S   UNL A   1      32.625  16.832  25.475  1.00  0.00    -0.094 S 
ATOM     22  N   UNL A   1      35.084  16.634  24.796  1.00  0.00    -0.146 NA
ATOM     23  C   UNL A   1      34.122  15.997  25.427  1.00  0.00     0.203 A 
ENDBRANCH  18  19
ENDBRANCH  12  18
ENDBRANCH   5   8
ENDBRANCH   3   4
ENDBRANCH   2   3
ENDBRANCH   1   2
BRANCH   1  24
ATOM     24  C   UNL A   1      33.651  28.283  27.091  1.00  0.00     0.116 C 
BRANCH  24  25
ATOM     25  N   UNL A   1      33.550  29.685  27.476  1.00  0.00    -0.352 N 
ATOM     26  C   UNL A   1      34.503  30.487  28.057  1.00  0.00     0.251 C 
ATOM     27  H   UNL A   1      32.684  30.115  27.295  1.00  0.00     0.163 HD
ATOM     28  O   UNL A   1      34.215  31.622  28.426  1.00  0.00    -0.269 OA
BRANCH  26  29
ATOM     29  C   UNL A   1      35.868  29.958  28.264  1.00  0.00     0.039 A 
ATOM     30  C   UNL A   1      36.815  30.107  27.248  1.00  0.00     0.014 A 
ATOM     31  C   UNL A   1      36.221  29.352  29.473  1.00  0.00     0.014 A 
ATOM     32  C   UNL A   1      38.137  29.716  27.474  1.00  0.00     0.010 A 
ATOM     33  C   UNL A   1      37.552  29.033  29.723  1.00  0.00     0.010 A 
ATOM     34  C   UNL A   1      38.524  29.213  28.727  1.00  0.00    -0.014 A 
BRANCH  34  35
ATOM     35  C   UNL A   1      39.941  28.878  29.022  1.00  0.00     0.031 A 
ATOM     36  C   UNL A   1      40.848  29.910  29.635  1.00  0.00     0.074 A 
ATOM     37  C   UNL A   1      40.428  27.670  28.675  1.00  0.00     0.049 A 
ATOM     38  N   UNL A   1      42.127  29.828  29.904  1.00  0.00    -0.248 NA
ATOM     39  C   UNL A   1      40.247  31.211  29.969  1.00  0.00     0.031 C 
ATOM     40  C   UNL A   1      39.661  26.597  28.038  1.00  0.00     0.029 A 
ATOM     41  N   UNL A   1      41.688  27.143  28.805  1.00  0.00    -0.354 N 
ATOM     42  C   UNL A   1      42.484  31.067  30.421  1.00  0.00     0.074 A 
ATOM     43  C   UNL A   1      41.301  31.899  30.383  1.00  0.00     0.031 C 
ATOM     44  C   UNL A   1      40.460  25.531  27.860  1.00  0.00     0.029 A 
ATOM     45  C   UNL A   1      41.802  25.857  28.332  1.00  0.00     0.049 A 
ATOM     46  H   UNL A   1      42.442  27.639  29.200  1.00  0.00     0.167 HD
ATOM     47  C   UNL A   1      43.683  31.472  30.905  1.00  0.00     0.031 A 
ATOM     48  C   UNL A   1      42.866  25.033  28.278  1.00  0.00     0.031 A 
ATOM     49  C   UNL A   1      44.856  30.640  30.952  1.00  0.00     0.049 A 
ATOM     50  C   UNL A   1      44.190  25.508  28.810  1.00  0.00     0.074 A 
ATOM     51  C   UNL A   1      46.105  30.942  31.467  1.00  0.00     0.029 A 
ATOM     52  N   UNL A   1      44.926  29.342  30.469  1.00  0.00    -0.354 N 
ATOM     53  N   UNL A   1      44.494  26.666  29.345  1.00  0.00    -0.248 NA
ATOM     54  C   UNL A   1      45.311  24.561  28.740  1.00  0.00     0.031 C 
ATOM     55  C   UNL A   1      46.942  29.843  31.255  1.00  0.00     0.029 A 
ATOM     56  C   UNL A   1      46.201  28.836  30.658  1.00  0.00     0.049 A 
ATOM     57  H   UNL A   1      44.179  28.853  30.054  1.00  0.00     0.167 HD
ATOM     58  C   UNL A   1      45.835  26.577  29.702  1.00  0.00     0.074 A 
ATOM     59  C   UNL A   1      46.279  25.248  29.333  1.00  0.00     0.031 C 
ATOM     60  C   UNL A   1      46.626  27.510  30.285  1.00  0.00     0.031 A 
BRANCH  47  61
ATOM     61  C   UNL A   1      43.781  32.882  31.423  1.00  0.00    -0.014 A 
ATOM     62  C   UNL A   1      43.636  33.160  32.795  1.00  0.00     0.010 A 
ATOM     63  C   UNL A   1      44.055  33.939  30.536  1.00  0.00     0.010 A 
ATOM     64  C   UNL A   1      43.720  34.474  33.264  1.00  0.00     0.020 A 
ATOM     65  C   UNL A   1      44.168  35.251  31.006  1.00  0.00     0.020 A 
ATOM     66  C   UNL A   1      43.981  35.512  32.365  1.00  0.00     0.054 A 
BRANCH  66  67
ATOM     67  S   UNL A   1      44.104  37.204  33.005  1.00  0.00     0.124 S 
ATOM     68  O   UNL A   1      42.918  37.292  33.851  1.00  0.00    -0.237 OA
ATOM     69  O   UNL A   1      45.381  37.187  33.715  1.00  0.00    -0.237 OA
ATOM     70  O   UNL A   1      44.075  38.034  31.803  1.00  0.00    -0.744 OA
ENDBRANCH  66  67
ENDBRANCH  47  61
BRANCH  48  71
ATOM     71  C   UNL A   1      42.717  23.660  27.721  1.00  0.00    -0.014 A 
ATOM     72  C   UNL A   1      42.273  22.606  28.539  1.00  0.00     0.010 A 
ATOM     73  C   UNL A   1      43.004  23.401  26.369  1.00  0.00     0.010 A 
ATOM     74  C   UNL A   1      42.135  21.315  28.021  1.00  0.00     0.020 A 
ATOM     75  C   UNL A   1      42.842  22.117  25.840  1.00  0.00     0.020 A 
ATOM     76  C   UNL A   1      42.420  21.080  26.673  1.00  0.00     0.054 A 
BRANCH  76  77
ATOM     77  S   UNL A   1      42.183  19.407  26.008  1.00  0.00     0.124 S 
ATOM     78  O   UNL A   1      42.620  18.573  27.123  1.00  0.00    -0.237 OA
ATOM     79  O   UNL A   1      40.751  19.381  25.722  1.00  0.00    -0.237 OA
ATOM     80  O   UNL A   1      43.047  19.383  24.829  1.00  0.00    -0.744 OA
ENDBRANCH  76  77
ENDBRANCH  48  71
BRANCH  60  81
ATOM     81  C   UNL A   1      48.047  27.120  30.595  1.00  0.00    -0.014 A 
ATOM     82  C   UNL A   1      49.107  27.492  29.751  1.00  0.00     0.010 A 
ATOM     83  C   UNL A   1      48.328  26.416  31.781  1.00  0.00     0.010 A 
ATOM     84  C   UNL A   1      50.421  27.142  30.072  1.00  0.00     0.020 A 
ATOM     85  C   UNL A   1      49.643  26.088  32.119  1.00  0.00     0.020 A 
ATOM     86  C   UNL A   1      50.681  26.442  31.255  1.00  0.00     0.054 A 
BRANCH  86  87
ATOM     87  S   UNL A   1      52.399  26.041  31.674  1.00  0.00     0.124 S 
ATOM     88  O   UNL A   1      52.756  27.133  32.575  1.00  0.00    -0.237 OA
ATOM     89  O   UNL A   1      52.279  24.725  32.298  1.00  0.00    -0.237 OA
ATOM     90  O   UNL A   1      53.082  26.050  30.381  1.00  0.00    -0.744 OA
ENDBRANCH  86  87
ENDBRANCH  60  81
ENDBRANCH  34  35
ENDBRANCH  26  29
ENDBRANCH  24  25
ENDBRANCH   1  24
TORSDOF 17
ENDMDL
MODEL 3
REMARK VINA RESULT:     -10.2      1.394      2.478
REMARK SMILES C[NH2+][C@]1(C(=O)NCCCCNC(=O)c2ccc(-c3c4nc(c(-c5ccc(S(=O)(=O)[O-])cc5)c5ccc([nH]5)c(-c5ccc(S(=O)(=O)[O-])cc5)c5nc(c(-c6ccc(S(=O)(=O)[O-])cc6)c6ccc3[nH]6)C=C5)C=C4)cc2)CCC[C@@H](Sc2nncs2)C1
REMARK SMILES IDX 9 1 8 2 7 3 6 4 4 5 5 6 3 8 74 9 84 10 75 11 77 12 76 13
REMARK SMILES IDX 2 14 1 15 78 18 79 19 80 20 83 21 81 22 82 23 10 24 11 25
REMARK SMILES IDX 12 26 13 28 14 29 15 30 73 31 16 32 72 33 17 34 18 35 19 36
REMARK SMILES IDX 66 37 20 38 71 39 65 40 67 41 21 42 70 43 64 44 63 45 22 47
REMARK SMILES IDX 52 48 33 49 51 50 34 51 37 52 50 53 68 54 35 55 36 56 49 58
REMARK SMILES IDX 69 59 38 60 23 61 24 62 32 63 25 64 31 65 26 66 27 67 28 68
REMARK SMILES IDX 29 69 30 70 53 71 54 72 62 73 55 74 61 75 56 76 57 77 58 78
REMARK SMILES IDX 59 79 60 80 39 81 40 82 48 83 41 84 47 85 42 86 43 87 44 88
REMARK SMILES IDX 45 89 46 90
REMARK H PARENT 6 7 2 16 2 17 11 27 67 46 37 57
REMARK Flexibility Score: inf
ROOT
ATOM      1  C   UNL A   1      32.813  27.675  27.223  1.00  0.00     0.023 C 
ENDROOT
BRANCH   1   2
ATOM      2  C   UNL A   1      31.384  27.779  26.690  1.00  0.00     0.023 C 
BRANCH   2   3
ATOM      3  C   UNL A   1      30.958  26.637  25.767  1.00  0.00     0.116 C 
BRANCH   3   4
ATOM      4  N   UNL A   1      30.649  25.422  26.509  1.00  0.00    -0.351 N 
ATOM      5  C   UNL A   1      31.124  24.140  26.432  1.00  0.00     0.281 C 
ATOM      6  O   UNL A   1      30.637  23.348  27.248  1.00  0.00    -0.268 OA
ATOM      7  H   UNL A   1      29.961  25.548  27.202  1.00  0.00     0.163 HD
BRANCH   5   8
ATOM      8  C   UNL A   1      32.242  23.718  25.400  1.00  0.00     0.176 C 
ATOM      9  C   UNL A   1      32.119  22.194  25.117  1.00  0.00     0.079 C 
ATOM     10  C   UNL A   1      32.101  24.586  24.121  1.00  0.00     0.094 C 
ATOM     11  C   UNL A   1      32.875  21.715  23.879  1.00  0.00     0.008 C 
ATOM     12  C   UNL A   1      32.861  24.031  22.914  1.00  0.00     0.061 C 
ATOM     13  C   UNL A   1      32.537  22.559  22.655  1.00  0.00     0.015 C 
BRANCH   8  14
ATOM     14  N   UNL A   1      33.595  23.862  26.023  1.00  0.00    -0.336 N 
ATOM     15  C   UNL A   1      34.394  24.999  25.594  1.00  0.00     0.331 C 
ATOM     16  H   UNL A   1      33.466  23.939  27.031  1.00  0.00     0.346 HD
ATOM     17  H   UNL A   1      34.118  23.040  25.721  1.00  0.00     0.346 HD
ENDBRANCH   8  14
BRANCH  12  18
ATOM     18  S   UNL A   1      32.662  25.053  21.405  1.00  0.00    -0.090 SA
BRANCH  18  19
ATOM     19  C   UNL A   1      32.241  26.632  22.024  1.00  0.00     0.174 A 
ATOM     20  N   UNL A   1      31.015  27.107  21.999  1.00  0.00    -0.132 NA
ATOM     21  S   UNL A   1      33.383  27.684  22.753  1.00  0.00    -0.094 S 
ATOM     22  N   UNL A   1      30.924  28.366  22.555  1.00  0.00    -0.146 NA
ATOM     23  C   UNL A   1      32.089  28.783  23.002  1.00  0.00     0.203 A 
ENDBRANCH  18  19
ENDBRANCH  12  18
ENDBRANCH   5   8
ENDBRANCH   3   4
ENDBRANCH   2   3
ENDBRANCH   1   2
BRANCH   1  24
ATOM     24  C   UNL A   1      33.788  28.712  26.678  1.00  0.00     0.116 C 
BRANCH  24  25
ATOM     25  N   UNL A   1      33.643  30.022  27.298  1.00  0.00    -0.352 N 
ATOM     26  C   UNL A   1      34.535  30.698  28.096  1.00  0.00     0.251 C 
ATOM     27  H   UNL A   1      32.793  30.484  27.122  1.00  0.00     0.163 HD
ATOM     28  O   UNL A   1      34.207  31.751  28.636  1.00  0.00    -0.269 OA
BRANCH  26  29
ATOM     29  C   UNL A   1      35.880  30.130  28.324  1.00  0.00     0.039 A 
ATOM     30  C   UNL A   1      36.802  30.125  27.274  1.00  0.00     0.014 A 
ATOM     31  C   UNL A   1      36.242  29.639  29.582  1.00  0.00     0.014 A 
ATOM     32  C   UNL A   1      38.111  29.696  27.508  1.00  0.00     0.010 A 
ATOM     33  C   UNL A   1      37.564  29.285  29.831  1.00  0.00     0.010 A 
ATOM     34  C   UNL A   1      38.513  29.312  28.798  1.00  0.00    -0.014 A 
BRANCH  34  35
ATOM     35  C   UNL A   1      39.921  28.943  29.091  1.00  0.00     0.031 A 
ATOM     36  C   UNL A   1      40.853  29.951  29.707  1.00  0.00     0.074 A 
ATOM     37  C   UNL A   1      40.380  27.725  28.740  1.00  0.00     0.049 A 
ATOM     38  N   UNL A   1      42.129  29.838  29.975  1.00  0.00    -0.248 NA
ATOM     39  C   UNL A   1      40.283  31.265  30.045  1.00  0.00     0.031 C 
ATOM     40  C   UNL A   1      39.588  26.672  28.100  1.00  0.00     0.029 A 
ATOM     41  N   UNL A   1      41.628  27.168  28.868  1.00  0.00    -0.354 N 
ATOM     42  C   UNL A   1      42.516  31.067  30.496  1.00  0.00     0.074 A 
ATOM     43  C   UNL A   1      41.353  31.927  30.460  1.00  0.00     0.031 C 
ATOM     44  C   UNL A   1      40.361  25.588  27.919  1.00  0.00     0.029 A 
ATOM     45  C   UNL A   1      41.711  25.881  28.391  1.00  0.00     0.049 A 
ATOM     46  H   UNL A   1      42.393  27.645  29.265  1.00  0.00     0.167 HD
ATOM     47  C   UNL A   1      43.724  31.442  30.981  1.00  0.00     0.031 A 
ATOM     48  C   UNL A   1      42.755  25.032  28.334  1.00  0.00     0.031 A 
ATOM     49  C   UNL A   1      44.877  30.583  31.025  1.00  0.00     0.049 A 
ATOM     50  C   UNL A   1      44.090  25.475  28.868  1.00  0.00     0.074 A 
ATOM     51  C   UNL A   1      46.133  30.854  31.540  1.00  0.00     0.029 A 
ATOM     52  N   UNL A   1      44.917  29.285  30.538  1.00  0.00    -0.354 N 
ATOM     53  N   UNL A   1      44.421  26.623  29.406  1.00  0.00    -0.248 NA
ATOM     54  C   UNL A   1      45.188  24.501  28.795  1.00  0.00     0.031 C 
ATOM     55  C   UNL A   1      46.944  29.736  31.324  1.00  0.00     0.029 A 
ATOM     56  C   UNL A   1      46.179  28.748  30.725  1.00  0.00     0.049 A 
ATOM     57  H   UNL A   1      44.158  28.814  30.121  1.00  0.00     0.167 HD
ATOM     58  C   UNL A   1      45.760  26.501  29.762  1.00  0.00     0.074 A 
ATOM     59  C   UNL A   1      46.172  25.163  29.389  1.00  0.00     0.031 C 
ATOM     60  C   UNL A   1      46.573  27.414  30.348  1.00  0.00     0.031 A 
BRANCH  47  61
ATOM     61  C   UNL A   1      43.855  32.848  31.503  1.00  0.00    -0.014 A 
ATOM     62  C   UNL A   1      43.596  33.145  32.854  1.00  0.00     0.010 A 
ATOM     63  C   UNL A   1      44.276  33.880  30.645  1.00  0.00     0.010 A 
ATOM     64  C   UNL A   1      43.712  34.454  33.326  1.00  0.00     0.020 A 
ATOM     65  C   UNL A   1      44.421  35.187  31.120  1.00  0.00     0.020 A 
ATOM     66  C   UNL A   1      44.120  35.469  32.455  1.00  0.00     0.054 A 
BRANCH  66  67
ATOM     67  S   UNL A   1      44.281  37.156  33.100  1.00  0.00     0.124 S 
ATOM     68  O   UNL A   1      45.607  37.118  33.712  1.00  0.00    -0.237 OA
ATOM     69  O   UNL A   1      44.171  37.973  31.894  1.00  0.00    -0.237 OA
ATOM     70  O   UNL A   1      43.166  37.279  34.035  1.00  0.00    -0.744 OA
ENDBRANCH  66  67
ENDBRANCH  47  61
BRANCH  48  71
ATOM     71  C   UNL A   1      42.573  23.665  27.773  1.00  0.00    -0.014 A 
ATOM     72  C   UNL A   1      42.875  23.405  26.425  1.00  0.00     0.010 A 
ATOM     73  C   UNL A   1      42.112  22.613  28.586  1.00  0.00     0.010 A 
ATOM     74  C   UNL A   1      42.702  22.123  25.894  1.00  0.00     0.020 A 
ATOM     75  C   UNL A   1      41.964  21.324  28.066  1.00  0.00     0.020 A 
ATOM     76  C   UNL A   1      42.249  21.090  26.719  1.00  0.00     0.054 A 
BRANCH  76  77
ATOM     77  S   UNL A   1      42.083  19.423  26.022  1.00  0.00     0.124 S 
ATOM     78  O   UNL A   1      42.978  19.484  24.871  1.00  0.00    -0.237 OA
ATOM     79  O   UNL A   1      42.527  18.574  27.125  1.00  0.00    -0.237 OA
ATOM     80  O   UNL A   1      40.659  19.325  25.706  1.00  0.00    -0.744 OA
ENDBRANCH  76  77
ENDBRANCH  48  71
BRANCH  60  81
ATOM     81  C   UNL A   1      47.985  26.989  30.656  1.00  0.00    -0.014 A 
ATOM     82  C   UNL A   1      49.043  27.284  29.780  1.00  0.00     0.010 A 
ATOM     83  C   UNL A   1      48.259  26.333  31.871  1.00  0.00     0.010 A 
ATOM     84  C   UNL A   1      50.349  26.904  30.100  1.00  0.00     0.020 A 
ATOM     85  C   UNL A   1      49.568  25.975  32.205  1.00  0.00     0.020 A 
ATOM     86  C   UNL A   1      50.603  26.252  31.311  1.00  0.00     0.054 A 
BRANCH  86  87
ATOM     87  S   UNL A   1      52.313  25.811  31.724  1.00  0.00     0.124 S 
ATOM     88  O   UNL A   1      52.173  24.427  32.166  1.00  0.00    -0.237 OA
ATOM     89  O   UNL A   1      53.010  25.998  30.453  1.00  0.00    -0.237 OA
ATOM     90  O   UNL A   1      52.675  26.766  32.770  1.00  0.00    -0.744 OA
ENDBRANCH  86  87
ENDBRANCH  60  81
ENDBRANCH  34  35
ENDBRANCH  26  29
ENDBRANCH  24  25
ENDBRANCH   1  24
TORSDOF 17
ENDMDL
