MODEL 1
REMARK VINA RESULT:     -11.1      0.000      0.000
REMARK SMILES NC(=O)C[C@H](NC(=O)c1cccc2[nH]ccc12)C(=O)NCCCCNC(=O)c1ccc(-c2c3nc(c(-c4ccc(S(=O)(=O)[O-])cc4)c4ccc([nH]4)c(-c4ccc(S(=O)(=O)[O-])cc4)c4nc(c(-c5ccc(S(=O)(=O)[O-])cc5)c5ccc2[nH]5)C=C4)C=C3)cc1
REMARK SMILES IDX 23 1 22 2 21 3 20 4 18 5 19 6 5 8 4 9 2 10 1 11 3 14 6 15
REMARK SMILES IDX 7 16 8 18 9 19 10 20 17 21 11 22 13 23 16 24 12 25 14 26
REMARK SMILES IDX 15 27 24 29 25 30 26 31 27 33 28 34 29 35 87 36 30 37 86 38
REMARK SMILES IDX 31 39 32 40 33 41 80 42 34 43 85 44 79 45 81 46 35 47 84 48
REMARK SMILES IDX 78 49 77 50 36 52 66 53 47 54 65 55 48 56 51 57 64 58 82 59
REMARK SMILES IDX 49 60 50 61 63 63 83 64 52 65 37 66 38 67 46 68 39 69 45 70
REMARK SMILES IDX 40 71 41 72 42 73 43 74 44 75 67 76 68 77 76 78 69 79 75 80
REMARK SMILES IDX 70 81 71 82 72 83 73 84 74 85 53 86 54 87 62 88 55 89 61 90
REMARK SMILES IDX 56 91 57 92 58 93 59 94 60 95
REMARK H PARENT 20 7 1 12 1 13 6 17 14 28 25 32 81 51 51 62
REMARK Flexibility Score: inf
ROOT
ATOM      1  C   UNL A   1      34.054  27.844  25.925  1.00  0.00     0.023 C 
ENDROOT
BRANCH   1   2
ATOM      2  C   UNL A   1      33.321  28.314  24.670  1.00  0.00     0.023 C 
BRANCH   2   3
ATOM      3  C   UNL A   1      32.709  27.249  23.759  1.00  0.00     0.116 C 
BRANCH   3   4
ATOM      4  N   UNL A   1      31.261  27.170  23.713  1.00  0.00    -0.354 N 
ATOM      5  C   UNL A   1      30.414  26.133  23.968  1.00  0.00     0.243 C 
ATOM      6  O   UNL A   1      29.225  26.412  24.164  1.00  0.00    -0.273 OA
ATOM      7  H   UNL A   1      30.814  28.008  23.453  1.00  0.00     0.163 HD
BRANCH   5   8
ATOM      8  C   UNL A   1      30.887  24.676  24.122  1.00  0.00     0.180 C 
BRANCH   8   9
ATOM      9  C   UNL A   1      31.587  24.644  25.505  1.00  0.00     0.134 C 
BRANCH   9  10
ATOM     10  C   UNL A   1      31.083  23.640  26.503  1.00  0.00     0.220 C 
ATOM     11  N   UNL A   1      29.983  22.936  26.128  1.00  0.00    -0.370 N 
ATOM     12  H   UNL A   1      29.600  22.262  26.734  1.00  0.00     0.159 HD
ATOM     13  H   UNL A   1      29.570  23.100  25.250  1.00  0.00     0.159 HD
ATOM     14  O   UNL A   1      31.604  23.451  27.601  1.00  0.00    -0.275 OA
ENDBRANCH   9  10
ENDBRANCH   8   9
BRANCH   8  15
ATOM     15  N   UNL A   1      31.606  24.026  23.005  1.00  0.00    -0.340 N 
ATOM     16  C   UNL A   1      32.967  23.882  22.747  1.00  0.00     0.252 C 
ATOM     17  H   UNL A   1      31.019  23.622  22.324  1.00  0.00     0.164 HD
ATOM     18  O   UNL A   1      33.308  24.118  21.586  1.00  0.00    -0.269 OA
BRANCH  16  19
ATOM     19  C   UNL A   1      33.980  23.346  23.722  1.00  0.00     0.049 A 
ATOM     20  C   UNL A   1      35.016  24.132  24.235  1.00  0.00     0.014 A 
ATOM     21  C   UNL A   1      33.843  22.057  24.317  1.00  0.00     0.012 A 
ATOM     22  C   UNL A   1      35.885  23.736  25.248  1.00  0.00     0.003 A 
ATOM     23  C   UNL A   1      34.714  21.687  25.358  1.00  0.00     0.046 A 
ATOM     24  C   UNL A   1      32.954  20.945  24.159  1.00  0.00     0.029 A 
ATOM     25  C   UNL A   1      35.743  22.498  25.837  1.00  0.00     0.027 A 
ATOM     26  N   UNL A   1      34.340  20.442  25.811  1.00  0.00    -0.361 N 
ATOM     27  C   UNL A   1      33.280  19.980  25.085  1.00  0.00     0.083 A 
ATOM     28  H   UNL A   1      34.773  19.957  26.550  1.00  0.00     0.166 HD
ENDBRANCH  16  19
ENDBRANCH   8  15
ENDBRANCH   5   8
ENDBRANCH   3   4
ENDBRANCH   2   3
ENDBRANCH   1   2
BRANCH   1  29
ATOM     29  C   UNL A   1      33.441  28.217  27.262  1.00  0.00     0.116 C 
BRANCH  29  30
ATOM     30  N   UNL A   1      33.334  29.653  27.437  1.00  0.00    -0.352 N 
ATOM     31  C   UNL A   1      34.245  30.529  27.978  1.00  0.00     0.251 C 
ATOM     32  H   UNL A   1      32.491  30.056  27.127  1.00  0.00     0.163 HD
ATOM     33  O   UNL A   1      33.890  31.677  28.247  1.00  0.00    -0.269 OA
BRANCH  31  34
ATOM     34  C   UNL A   1      35.642  30.107  28.248  1.00  0.00     0.039 A 
ATOM     35  C   UNL A   1      35.982  29.665  29.532  1.00  0.00     0.014 A 
ATOM     36  C   UNL A   1      36.634  30.192  27.266  1.00  0.00     0.014 A 
ATOM     37  C   UNL A   1      37.298  29.286  29.818  1.00  0.00     0.010 A 
ATOM     38  C   UNL A   1      37.924  29.732  27.528  1.00  0.00     0.010 A 
ATOM     39  C   UNL A   1      38.280  29.304  28.815  1.00  0.00    -0.014 A 
BRANCH  39  40
ATOM     40  C   UNL A   1      39.695  28.945  29.108  1.00  0.00     0.031 A 
ATOM     41  C   UNL A   1      40.605  29.958  29.761  1.00  0.00     0.074 A 
ATOM     42  C   UNL A   1      40.179  27.737  28.756  1.00  0.00     0.049 A 
ATOM     43  N   UNL A   1      41.880  29.863  30.045  1.00  0.00    -0.248 NA
ATOM     44  C   UNL A   1      40.011  31.259  30.113  1.00  0.00     0.031 C 
ATOM     45  C   UNL A   1      39.417  26.679  28.088  1.00  0.00     0.029 A 
ATOM     46  N   UNL A   1      41.430  27.193  28.913  1.00  0.00    -0.354 N 
ATOM     47  C   UNL A   1      42.241  31.095  30.581  1.00  0.00     0.074 A 
ATOM     48  C   UNL A   1      41.068  31.938  30.532  1.00  0.00     0.031 C 
ATOM     49  C   UNL A   1      40.208  25.606  27.923  1.00  0.00     0.029 A 
ATOM     50  C   UNL A   1      41.540  25.908  28.437  1.00  0.00     0.049 A 
ATOM     51  H   UNL A   1      42.180  27.679  29.328  1.00  0.00     0.167 HD
ATOM     52  C   UNL A   1      43.432  31.485  31.095  1.00  0.00     0.031 A 
ATOM     53  C   UNL A   1      42.593  25.067  28.414  1.00  0.00     0.031 A 
ATOM     54  C   UNL A   1      44.590  30.635  31.177  1.00  0.00     0.049 A 
ATOM     55  C   UNL A   1      43.904  25.517  29.001  1.00  0.00     0.074 A 
ATOM     56  C   UNL A   1      45.826  30.916  31.732  1.00  0.00     0.029 A 
ATOM     57  N   UNL A   1      44.650  29.335  30.698  1.00  0.00    -0.354 N 
ATOM     58  N   UNL A   1      44.209  26.669  29.551  1.00  0.00    -0.248 NA
ATOM     59  C   UNL A   1      45.010  24.549  28.976  1.00  0.00     0.031 C 
ATOM     60  C   UNL A   1      46.649  29.799  31.550  1.00  0.00     0.029 A 
ATOM     61  C   UNL A   1      45.908  28.805  30.930  1.00  0.00     0.049 A 
ATOM     62  H   UNL A   1      43.909  28.861  30.259  1.00  0.00     0.167 HD
ATOM     63  C   UNL A   1      45.532  26.553  29.962  1.00  0.00     0.074 A 
ATOM     64  C   UNL A   1      45.965  25.217  29.611  1.00  0.00     0.031 C 
ATOM     65  C   UNL A   1      46.320  27.470  30.577  1.00  0.00     0.031 A 
BRANCH  52  66
ATOM     66  C   UNL A   1      43.540  32.896  31.615  1.00  0.00    -0.014 A 
ATOM     67  C   UNL A   1      43.956  33.949  30.778  1.00  0.00     0.010 A 
ATOM     68  C   UNL A   1      43.188  33.182  32.946  1.00  0.00     0.010 A 
ATOM     69  C   UNL A   1      44.065  35.250  31.276  1.00  0.00     0.020 A 
ATOM     70  C   UNL A   1      43.265  34.487  33.440  1.00  0.00     0.020 A 
ATOM     71  C   UNL A   1      43.723  35.510  32.606  1.00  0.00     0.054 A 
BRANCH  71  72
ATOM     72  S   UNL A   1      43.855  37.212  33.220  1.00  0.00     0.124 S 
ATOM     73  O   UNL A   1      45.154  37.190  33.889  1.00  0.00    -0.237 OA
ATOM     74  O   UNL A   1      43.795  38.002  31.993  1.00  0.00    -0.237 OA
ATOM     75  O   UNL A   1      42.702  37.353  34.106  1.00  0.00    -0.744 OA
ENDBRANCH  71  72
ENDBRANCH  52  66
BRANCH  53  76
ATOM     76  C   UNL A   1      42.446  23.703  27.835  1.00  0.00    -0.014 A 
ATOM     77  C   UNL A   1      42.779  23.458  26.491  1.00  0.00     0.010 A 
ATOM     78  C   UNL A   1      41.976  22.638  28.626  1.00  0.00     0.010 A 
ATOM     79  C   UNL A   1      42.627  22.180  25.943  1.00  0.00     0.020 A 
ATOM     80  C   UNL A   1      41.850  21.354  28.090  1.00  0.00     0.020 A 
ATOM     81  C   UNL A   1      42.165  21.136  26.748  1.00  0.00     0.054 A 
BRANCH  81  82
ATOM     82  S   UNL A   1      42.024  19.473  26.032  1.00  0.00     0.124 S 
ATOM     83  O   UNL A   1      42.578  18.640  27.095  1.00  0.00    -0.237 OA
ATOM     84  O   UNL A   1      40.586  19.344  25.811  1.00  0.00    -0.237 OA
ATOM     85  O   UNL A   1      42.829  19.557  24.816  1.00  0.00    -0.744 OA
ENDBRANCH  81  82
ENDBRANCH  53  76
BRANCH  65  86
ATOM     86  C   UNL A   1      47.718  27.053  30.941  1.00  0.00    -0.014 A 
ATOM     87  C   UNL A   1      48.807  27.341  30.100  1.00  0.00     0.010 A 
ATOM     88  C   UNL A   1      47.951  26.415  32.173  1.00  0.00     0.010 A 
ATOM     89  C   UNL A   1      50.102  26.972  30.473  1.00  0.00     0.020 A 
ATOM     90  C   UNL A   1      49.248  26.069  32.561  1.00  0.00     0.020 A 
ATOM     91  C   UNL A   1      50.315  26.337  31.702  1.00  0.00     0.054 A 
BRANCH  91  92
ATOM     92  S   UNL A   1      52.010  25.910  32.182  1.00  0.00     0.124 S 
ATOM     93  O   UNL A   1      51.820  24.639  32.874  1.00  0.00    -0.237 OA
ATOM     94  O   UNL A   1      52.699  25.830  30.895  1.00  0.00    -0.237 OA
ATOM     95  O   UNL A   1      52.420  27.027  33.032  1.00  0.00    -0.744 OA
ENDBRANCH  91  92
ENDBRANCH  65  86
ENDBRANCH  39  40
ENDBRANCH  31  34
ENDBRANCH  29  30
ENDBRANCH   1  29
TORSDOF 18
ENDMDL
MODEL 2
REMARK VINA RESULT:     -11.0      2.561      9.282
REMARK SMILES NC(=O)C[C@H](NC(=O)c1cccc2[nH]ccc12)C(=O)NCCCCNC(=O)c1ccc(-c2c3nc(c(-c4ccc(S(=O)(=O)[O-])cc4)c4ccc([nH]4)c(-c4ccc(S(=O)(=O)[O-])cc4)c4nc(c(-c5ccc(S(=O)(=O)[O-])cc5)c5ccc2[nH]5)C=C4)C=C3)cc1
REMARK SMILES IDX 23 1 22 2 21 3 20 4 18 5 19 6 5 8 4 9 2 10 1 11 3 14 6 15
REMARK SMILES IDX 7 16 8 18 9 19 10 20 17 21 11 22 13 23 16 24 12 25 14 26
REMARK SMILES IDX 15 27 24 29 25 30 26 31 27 33 28 34 29 35 87 36 30 37 86 38
REMARK SMILES IDX 31 39 32 40 33 41 80 42 34 43 85 44 79 45 81 46 35 47 84 48
REMARK SMILES IDX 78 49 77 50 36 52 66 53 47 54 65 55 48 56 51 57 64 58 82 59
REMARK SMILES IDX 49 60 50 61 63 63 83 64 52 65 37 66 38 67 46 68 39 69 45 70
REMARK SMILES IDX 40 71 41 72 42 73 43 74 44 75 67 76 68 77 76 78 69 79 75 80
REMARK SMILES IDX 70 81 71 82 72 83 73 84 74 85 53 86 54 87 62 88 55 89 61 90
REMARK SMILES IDX 56 91 57 92 58 93 59 94 60 95
REMARK H PARENT 20 7 1 12 1 13 6 17 14 28 25 32 81 51 51 62
REMARK Flexibility Score: inf
ROOT
ATOM      1  C   UNL A   1      35.282  22.856  25.510  1.00  0.00     0.023 C 
ENDROOT
BRANCH   1   2
ATOM      2  C   UNL A   1      33.974  23.393  26.087  1.00  0.00     0.023 C 
BRANCH   2   3
ATOM      3  C   UNL A   1      32.707  22.560  25.883  1.00  0.00     0.116 C 
BRANCH   3   4
ATOM      4  N   UNL A   1      32.499  21.982  24.568  1.00  0.00    -0.354 N 
ATOM      5  C   UNL A   1      32.074  22.546  23.402  1.00  0.00     0.243 C 
ATOM      6  O   UNL A   1      32.286  21.912  22.361  1.00  0.00    -0.273 OA
ATOM      7  H   UNL A   1      32.698  21.020  24.509  1.00  0.00     0.163 HD
BRANCH   5   8
ATOM      8  C   UNL A   1      31.453  23.952  23.322  1.00  0.00     0.180 C 
BRANCH   8   9
ATOM      9  C   UNL A   1      32.672  24.903  23.203  1.00  0.00     0.134 C 
BRANCH   9  10
ATOM     10  C   UNL A   1      32.901  25.557  21.869  1.00  0.00     0.220 C 
ATOM     11  N   UNL A   1      31.920  25.375  20.947  1.00  0.00    -0.370 N 
ATOM     12  H   UNL A   1      32.006  25.775  20.052  1.00  0.00     0.159 HD
ATOM     13  H   UNL A   1      31.123  24.843  21.174  1.00  0.00     0.159 HD
ATOM     14  O   UNL A   1      33.905  26.212  21.596  1.00  0.00    -0.275 OA
ENDBRANCH   9  10
ENDBRANCH   8   9
BRANCH   8  15
ATOM     15  N   UNL A   1      30.408  24.339  24.294  1.00  0.00    -0.340 N 
ATOM     16  C   UNL A   1      30.188  25.529  24.983  1.00  0.00     0.252 C 
ATOM     17  H   UNL A   1      29.751  23.631  24.488  1.00  0.00     0.164 HD
ATOM     18  O   UNL A   1      29.926  25.400  26.182  1.00  0.00    -0.269 OA
BRANCH  16  19
ATOM     19  C   UNL A   1      30.117  26.893  24.352  1.00  0.00     0.049 A 
ATOM     20  C   UNL A   1      29.060  27.282  23.526  1.00  0.00     0.014 A 
ATOM     21  C   UNL A   1      31.033  27.931  24.698  1.00  0.00     0.012 A 
ATOM     22  C   UNL A   1      28.866  28.573  23.041  1.00  0.00     0.003 A 
ATOM     23  C   UNL A   1      30.803  29.234  24.220  1.00  0.00     0.046 A 
ATOM     24  C   UNL A   1      32.211  28.030  25.507  1.00  0.00     0.029 A 
ATOM     25  C   UNL A   1      29.739  29.581  23.388  1.00  0.00     0.027 A 
ATOM     26  N   UNL A   1      31.771  30.061  24.743  1.00  0.00    -0.361 N 
ATOM     27  C   UNL A   1      32.634  29.340  25.517  1.00  0.00     0.083 A 
ATOM     28  H   UNL A   1      31.832  31.030  24.582  1.00  0.00     0.166 HD
ENDBRANCH  16  19
ENDBRANCH   8  15
ENDBRANCH   5   8
ENDBRANCH   3   4
ENDBRANCH   2   3
ENDBRANCH   1   2
BRANCH   1  29
ATOM     29  C   UNL A   1      36.558  23.569  25.916  1.00  0.00     0.116 C 
BRANCH  29  30
ATOM     30  N   UNL A   1      37.695  22.670  25.982  1.00  0.00    -0.352 N 
ATOM     31  C   UNL A   1      38.992  22.941  26.346  1.00  0.00     0.251 C 
ATOM     32  H   UNL A   1      37.512  21.736  25.729  1.00  0.00     0.163 HD
ATOM     33  O   UNL A   1      39.866  22.102  26.128  1.00  0.00    -0.269 OA
BRANCH  31  34
ATOM     34  C   UNL A   1      39.351  24.229  26.990  1.00  0.00     0.039 A 
ATOM     35  C   UNL A   1      40.083  25.172  26.259  1.00  0.00     0.014 A 
ATOM     36  C   UNL A   1      39.021  24.498  28.322  1.00  0.00     0.014 A 
ATOM     37  C   UNL A   1      40.456  26.383  26.852  1.00  0.00     0.010 A 
ATOM     38  C   UNL A   1      39.317  25.740  28.883  1.00  0.00     0.010 A 
ATOM     39  C   UNL A   1      40.065  26.686  28.166  1.00  0.00    -0.014 A 
BRANCH  39  40
ATOM     40  C   UNL A   1      40.486  27.950  28.830  1.00  0.00     0.031 A 
ATOM     41  C   UNL A   1      41.877  28.067  29.405  1.00  0.00     0.074 A 
ATOM     42  C   UNL A   1      39.619  28.975  28.957  1.00  0.00     0.049 A 
ATOM     43  N   UNL A   1      42.416  29.056  30.072  1.00  0.00    -0.248 NA
ATOM     44  C   UNL A   1      42.769  26.907  29.236  1.00  0.00     0.031 C 
ATOM     45  C   UNL A   1      38.235  28.980  28.478  1.00  0.00     0.029 A 
ATOM     46  N   UNL A   1      39.775  30.213  29.528  1.00  0.00    -0.354 N 
ATOM     47  C   UNL A   1      43.693  28.628  30.420  1.00  0.00     0.074 A 
ATOM     48  C   UNL A   1      43.829  27.271  29.941  1.00  0.00     0.031 C 
ATOM     49  C   UNL A   1      37.681  30.174  28.747  1.00  0.00     0.029 A 
ATOM     50  C   UNL A   1      38.653  31.005  29.449  1.00  0.00     0.049 A 
ATOM     51  H   UNL A   1      40.612  30.508  29.956  1.00  0.00     0.167 HD
ATOM     52  C   UNL A   1      44.677  29.308  31.056  1.00  0.00     0.031 A 
ATOM     53  C   UNL A   1      38.431  32.259  29.891  1.00  0.00     0.031 A 
ATOM     54  C   UNL A   1      44.555  30.670  31.502  1.00  0.00     0.049 A 
ATOM     55  C   UNL A   1      39.542  33.001  30.585  1.00  0.00     0.074 A 
ATOM     56  C   UNL A   1      45.512  31.468  32.104  1.00  0.00     0.029 A 
ATOM     57  N   UNL A   1      43.407  31.439  31.384  1.00  0.00    -0.354 N 
ATOM     58  N   UNL A   1      40.760  32.594  30.857  1.00  0.00    -0.248 NA
ATOM     59  C   UNL A   1      39.254  34.374  31.021  1.00  0.00     0.031 C 
ATOM     60  C   UNL A   1      44.930  32.707  32.390  1.00  0.00     0.029 A 
ATOM     61  C   UNL A   1      43.626  32.698  31.917  1.00  0.00     0.049 A 
ATOM     62  H   UNL A   1      42.563  31.135  30.981  1.00  0.00     0.167 HD
ATOM     63  C   UNL A   1      41.390  33.671  31.470  1.00  0.00     0.074 A 
ATOM     64  C   UNL A   1      40.425  34.751  31.516  1.00  0.00     0.031 C 
ATOM     65  C   UNL A   1      42.655  33.762  31.950  1.00  0.00     0.031 A 
BRANCH  52  66
ATOM     66  C   UNL A   1      45.977  28.586  31.304  1.00  0.00    -0.014 A 
ATOM     67  C   UNL A   1      46.177  27.827  32.473  1.00  0.00     0.010 A 
ATOM     68  C   UNL A   1      47.002  28.636  30.341  1.00  0.00     0.010 A 
ATOM     69  C   UNL A   1      47.392  27.174  32.695  1.00  0.00     0.020 A 
ATOM     70  C   UNL A   1      48.207  27.959  30.545  1.00  0.00     0.020 A 
ATOM     71  C   UNL A   1      48.402  27.248  31.731  1.00  0.00     0.054 A 
BRANCH  71  72
ATOM     72  S   UNL A   1      49.961  26.375  32.039  1.00  0.00     0.124 S 
ATOM     73  O   UNL A   1      49.705  25.075  31.424  1.00  0.00    -0.237 OA
ATOM     74  O   UNL A   1      50.940  27.212  31.351  1.00  0.00    -0.237 OA
ATOM     75  O   UNL A   1      50.071  26.363  33.496  1.00  0.00    -0.744 OA
ENDBRANCH  71  72
ENDBRANCH  52  66
BRANCH  53  76
ATOM     76  C   UNL A   1      37.107  32.904  29.671  1.00  0.00    -0.014 A 
ATOM     77  C   UNL A   1      36.112  32.850  30.664  1.00  0.00     0.010 A 
ATOM     78  C   UNL A   1      36.833  33.580  28.468  1.00  0.00     0.010 A 
ATOM     79  C   UNL A   1      34.864  33.443  30.452  1.00  0.00     0.020 A 
ATOM     80  C   UNL A   1      35.596  34.198  28.264  1.00  0.00     0.020 A 
ATOM     81  C   UNL A   1      34.615  34.115  29.252  1.00  0.00     0.054 A 
BRANCH  81  82
ATOM     82  S   UNL A   1      33.006  34.922  29.016  1.00  0.00     0.124 S 
ATOM     83  O   UNL A   1      32.466  34.921  30.372  1.00  0.00    -0.237 OA
ATOM     84  O   UNL A   1      33.383  36.230  28.485  1.00  0.00    -0.237 OA
ATOM     85  O   UNL A   1      32.322  34.047  28.068  1.00  0.00    -0.744 OA
ENDBRANCH  81  82
ENDBRANCH  53  76
BRANCH  65  86
ATOM     86  C   UNL A   1      43.083  35.079  32.537  1.00  0.00    -0.014 A 
ATOM     87  C   UNL A   1      43.674  36.075  31.739  1.00  0.00     0.010 A 
ATOM     88  C   UNL A   1      42.834  35.345  33.896  1.00  0.00     0.010 A 
ATOM     89  C   UNL A   1      44.035  37.303  32.298  1.00  0.00     0.020 A 
ATOM     90  C   UNL A   1      43.169  36.582  34.451  1.00  0.00     0.020 A 
ATOM     91  C   UNL A   1      43.780  37.549  33.652  1.00  0.00     0.054 A 
BRANCH  91  92
ATOM     92  S   UNL A   1      44.216  39.169  34.342  1.00  0.00     0.124 S 
ATOM     93  O   UNL A   1      43.136  40.014  33.840  1.00  0.00    -0.237 OA
ATOM     94  O   UNL A   1      44.204  38.920  35.781  1.00  0.00    -0.237 OA
ATOM     95  O   UNL A   1      45.536  39.442  33.774  1.00  0.00    -0.744 OA
ENDBRANCH  91  92
ENDBRANCH  65  86
ENDBRANCH  39  40
ENDBRANCH  31  34
ENDBRANCH  29  30
ENDBRANCH   1  29
TORSDOF 18
ENDMDL
MODEL 3
REMARK VINA RESULT:     -11.0      0.917      1.939
REMARK SMILES NC(=O)C[C@H](NC(=O)c1cccc2[nH]ccc12)C(=O)NCCCCNC(=O)c1ccc(-c2c3nc(c(-c4ccc(S(=O)(=O)[O-])cc4)c4ccc([nH]4)c(-c4ccc(S(=O)(=O)[O-])cc4)c4nc(c(-c5ccc(S(=O)(=O)[O-])cc5)c5ccc2[nH]5)C=C4)C=C3)cc1
REMARK SMILES IDX 23 1 22 2 21 3 20 4 18 5 19 6 5 8 4 9 2 10 1 11 3 14 6 15
REMARK SMILES IDX 7 16 8 18 9 19 10 20 17 21 11 22 13 23 16 24 12 25 14 26
REMARK SMILES IDX 15 27 24 29 25 30 26 31 27 33 28 34 29 35 87 36 30 37 86 38
REMARK SMILES IDX 31 39 32 40 33 41 80 42 34 43 85 44 79 45 81 46 35 47 84 48
REMARK SMILES IDX 78 49 77 50 36 52 66 53 47 54 65 55 48 56 51 57 64 58 82 59
REMARK SMILES IDX 49 60 50 61 63 63 83 64 52 65 37 66 38 67 46 68 39 69 45 70
REMARK SMILES IDX 40 71 41 72 42 73 43 74 44 75 67 76 68 77 76 78 69 79 75 80
REMARK SMILES IDX 70 81 71 82 72 83 73 84 74 85 53 86 54 87 62 88 55 89 61 90
REMARK SMILES IDX 56 91 57 92 58 93 59 94 60 95
REMARK H PARENT 20 7 1 12 1 13 6 17 14 28 25 32 81 51 51 62
REMARK Flexibility Score: inf
ROOT
ATOM      1  C   UNL A   1      34.030  27.867  25.936  1.00  0.00     0.023 C 
ENDROOT
BRANCH   1   2
ATOM      2  C   UNL A   1      33.282  28.308  24.679  1.00  0.00     0.023 C 
BRANCH   2   3
ATOM      3  C   UNL A   1      32.313  27.313  24.037  1.00  0.00     0.116 C 
BRANCH   3   4
ATOM      4  N   UNL A   1      31.153  26.924  24.816  1.00  0.00    -0.354 N 
ATOM      5  C   UNL A   1      30.921  25.822  25.585  1.00  0.00     0.243 C 
ATOM      6  O   UNL A   1      29.984  25.884  26.389  1.00  0.00    -0.273 OA
ATOM      7  H   UNL A   1      30.405  27.563  24.783  1.00  0.00     0.163 HD
BRANCH   5   8
ATOM      8  C   UNL A   1      31.825  24.576  25.567  1.00  0.00     0.180 C 
BRANCH   8   9
ATOM      9  C   UNL A   1      31.019  23.530  24.754  1.00  0.00     0.134 C 
BRANCH   9  10
ATOM     10  C   UNL A   1      31.557  23.154  23.402  1.00  0.00     0.220 C 
ATOM     11  N   UNL A   1      31.565  24.145  22.473  1.00  0.00    -0.370 N 
ATOM     12  H   UNL A   1      31.904  23.967  21.566  1.00  0.00     0.159 HD
ATOM     13  H   UNL A   1      31.231  25.042  22.707  1.00  0.00     0.159 HD
ATOM     14  O   UNL A   1      31.963  22.027  23.120  1.00  0.00    -0.275 OA
ENDBRANCH   9  10
ENDBRANCH   8   9
BRANCH   8  15
ATOM     15  N   UNL A   1      32.432  24.102  26.830  1.00  0.00    -0.340 N 
ATOM     16  C   UNL A   1      32.876  22.842  27.221  1.00  0.00     0.252 C 
ATOM     17  H   UNL A   1      32.543  24.802  27.515  1.00  0.00     0.164 HD
ATOM     18  O   UNL A   1      32.536  22.494  28.354  1.00  0.00    -0.269 OA
BRANCH  16  19
ATOM     19  C   UNL A   1      33.820  21.975  26.432  1.00  0.00     0.049 A 
ATOM     20  C   UNL A   1      33.445  20.729  25.923  1.00  0.00     0.014 A 
ATOM     21  C   UNL A   1      35.098  22.447  26.006  1.00  0.00     0.012 A 
ATOM     22  C   UNL A   1      34.222  19.957  25.064  1.00  0.00     0.003 A 
ATOM     23  C   UNL A   1      35.855  21.663  25.116  1.00  0.00     0.046 A 
ATOM     24  C   UNL A   1      35.878  23.627  26.225  1.00  0.00     0.029 A 
ATOM     25  C   UNL A   1      35.448  20.418  24.637  1.00  0.00     0.027 A 
ATOM     26  N   UNL A   1      37.001  22.357  24.801  1.00  0.00    -0.361 N 
ATOM     27  C   UNL A   1      37.029  23.544  25.474  1.00  0.00     0.083 A 
ATOM     28  H   UNL A   1      37.698  22.042  24.181  1.00  0.00     0.166 HD
ENDBRANCH  16  19
ENDBRANCH   8  15
ENDBRANCH   5   8
ENDBRANCH   3   4
ENDBRANCH   2   3
ENDBRANCH   1   2
BRANCH   1  29
ATOM     29  C   UNL A   1      33.424  28.260  27.270  1.00  0.00     0.116 C 
BRANCH  29  30
ATOM     30  N   UNL A   1      33.332  29.699  27.431  1.00  0.00    -0.352 N 
ATOM     31  C   UNL A   1      34.250  30.570  27.967  1.00  0.00     0.251 C 
ATOM     32  H   UNL A   1      32.495  30.108  27.113  1.00  0.00     0.163 HD
ATOM     33  O   UNL A   1      33.906  31.725  28.223  1.00  0.00    -0.269 OA
BRANCH  31  34
ATOM     34  C   UNL A   1      35.642  30.137  28.247  1.00  0.00     0.039 A 
ATOM     35  C   UNL A   1      35.962  29.669  29.526  1.00  0.00     0.014 A 
ATOM     36  C   UNL A   1      36.647  30.235  27.279  1.00  0.00     0.014 A 
ATOM     37  C   UNL A   1      37.273  29.278  29.822  1.00  0.00     0.010 A 
ATOM     38  C   UNL A   1      37.931  29.764  27.549  1.00  0.00     0.010 A 
ATOM     39  C   UNL A   1      38.269  29.309  28.833  1.00  0.00    -0.014 A 
BRANCH  39  40
ATOM     40  C   UNL A   1      39.678  28.938  29.137  1.00  0.00     0.031 A 
ATOM     41  C   UNL A   1      40.589  29.940  29.804  1.00  0.00     0.074 A 
ATOM     42  C   UNL A   1      40.155  27.728  28.783  1.00  0.00     0.049 A 
ATOM     43  N   UNL A   1      41.860  29.834  30.099  1.00  0.00    -0.248 NA
ATOM     44  C   UNL A   1      40.002  31.244  30.158  1.00  0.00     0.031 C 
ATOM     45  C   UNL A   1      39.392  26.680  28.101  1.00  0.00     0.029 A 
ATOM     46  N   UNL A   1      41.401  27.174  28.948  1.00  0.00    -0.354 N 
ATOM     47  C   UNL A   1      42.226  31.060  30.647  1.00  0.00     0.074 A 
ATOM     48  C   UNL A   1      41.060  31.912  30.591  1.00  0.00     0.031 C 
ATOM     49  C   UNL A   1      40.176  25.602  27.937  1.00  0.00     0.029 A 
ATOM     50  C   UNL A   1      41.505  25.891  28.465  1.00  0.00     0.049 A 
ATOM     51  H   UNL A   1      42.150  27.651  29.373  1.00  0.00     0.167 HD
ATOM     52  C   UNL A   1      43.415  31.438  31.174  1.00  0.00     0.031 A 
ATOM     53  C   UNL A   1      42.552  25.042  28.448  1.00  0.00     0.031 A 
ATOM     54  C   UNL A   1      44.566  30.579  31.262  1.00  0.00     0.049 A 
ATOM     55  C   UNL A   1      43.861  25.478  29.050  1.00  0.00     0.074 A 
ATOM     56  C   UNL A   1      45.799  30.846  31.830  1.00  0.00     0.029 A 
ATOM     57  N   UNL A   1      44.620  29.281  30.775  1.00  0.00    -0.354 N 
ATOM     58  N   UNL A   1      44.170  26.624  29.609  1.00  0.00    -0.248 NA
ATOM     59  C   UNL A   1      44.960  24.502  29.029  1.00  0.00     0.031 C 
ATOM     60  C   UNL A   1      46.615  29.724  31.649  1.00  0.00     0.029 A 
ATOM     61  C   UNL A   1      45.871  28.739  31.017  1.00  0.00     0.049 A 
ATOM     62  H   UNL A   1      43.879  28.814  30.326  1.00  0.00     0.167 HD
ATOM     63  C   UNL A   1      45.488  26.496  30.032  1.00  0.00     0.074 A 
ATOM     64  C   UNL A   1      45.914  25.159  29.677  1.00  0.00     0.031 C 
ATOM     65  C   UNL A   1      46.276  27.404  30.660  1.00  0.00     0.031 A 
BRANCH  52  66
ATOM     66  C   UNL A   1      43.529  32.845  31.702  1.00  0.00    -0.014 A 
ATOM     67  C   UNL A   1      43.847  33.919  30.849  1.00  0.00     0.010 A 
ATOM     68  C   UNL A   1      43.281  33.105  33.063  1.00  0.00     0.010 A 
ATOM     69  C   UNL A   1      43.962  35.216  31.355  1.00  0.00     0.020 A 
ATOM     70  C   UNL A   1      43.365  34.406  33.566  1.00  0.00     0.020 A 
ATOM     71  C   UNL A   1      43.725  35.451  32.713  1.00  0.00     0.054 A 
BRANCH  71  72
ATOM     72  S   UNL A   1      43.863  37.148  33.337  1.00  0.00     0.124 S 
ATOM     73  O   UNL A   1      42.660  37.267  34.157  1.00  0.00    -0.237 OA
ATOM     74  O   UNL A   1      45.124  37.118  34.075  1.00  0.00    -0.237 OA
ATOM     75  O   UNL A   1      43.874  37.964  32.125  1.00  0.00    -0.744 OA
ENDBRANCH  71  72
ENDBRANCH  52  66
BRANCH  53  76
ATOM     76  C   UNL A   1      42.400  23.683  27.860  1.00  0.00    -0.014 A 
ATOM     77  C   UNL A   1      42.740  23.443  26.516  1.00  0.00     0.010 A 
ATOM     78  C   UNL A   1      41.919  22.616  28.641  1.00  0.00     0.010 A 
ATOM     79  C   UNL A   1      42.584  22.170  25.959  1.00  0.00     0.020 A 
ATOM     80  C   UNL A   1      41.788  21.336  28.096  1.00  0.00     0.020 A 
ATOM     81  C   UNL A   1      42.109  21.124  26.754  1.00  0.00     0.054 A 
BRANCH  81  82
ATOM     82  S   UNL A   1      41.963  19.467  26.028  1.00  0.00     0.124 S 
ATOM     83  O   UNL A   1      42.818  19.576  24.850  1.00  0.00    -0.237 OA
ATOM     84  O   UNL A   1      42.464  18.606  27.097  1.00  0.00    -0.237 OA
ATOM     85  O   UNL A   1      40.533  19.340  25.756  1.00  0.00    -0.744 OA
ENDBRANCH  81  82
ENDBRANCH  53  76
BRANCH  65  86
ATOM     86  C   UNL A   1      47.668  26.973  31.035  1.00  0.00    -0.014 A 
ATOM     87  C   UNL A   1      47.937  26.382  32.282  1.00  0.00     0.010 A 
ATOM     88  C   UNL A   1      48.710  27.108  30.099  1.00  0.00     0.010 A 
ATOM     89  C   UNL A   1      49.231  25.961  32.597  1.00  0.00     0.020 A 
ATOM     90  C   UNL A   1      49.999  26.663  30.401  1.00  0.00     0.020 A 
ATOM     91  C   UNL A   1      50.255  26.104  31.654  1.00  0.00     0.054 A 
BRANCH  91  92
ATOM     92  S   UNL A   1      51.916  25.506  32.071  1.00  0.00     0.124 S 
ATOM     93  O   UNL A   1      51.706  24.064  32.162  1.00  0.00    -0.237 OA
ATOM     94  O   UNL A   1      52.715  25.955  30.933  1.00  0.00    -0.237 OA
ATOM     95  O   UNL A   1      52.215  26.174  33.337  1.00  0.00    -0.744 OA
ENDBRANCH  91  92
ENDBRANCH  65  86
ENDBRANCH  39  40
ENDBRANCH  31  34
ENDBRANCH  29  30
ENDBRANCH   1  29
TORSDOF 18
ENDMDL
