MODEL 1
REMARK VINA RESULT:     -10.5      0.000      0.000
REMARK SMILES CN(CCS(C)(=O)=O)S(=O)(=O)c1cc(C(=O)NCCCCNC(=O)c2ccc(-c3c4nc(c(-c5ccc(S(=O)(=O)[O-])cc5)c5ccc([nH]5)c(-c5ccc(S(=O)(=O)[O-])cc5)c5nc(c(-c6ccc(S(=O)(=O)[O-])cc6)c6ccc3[nH]6)C=C5)C=C4)cc2)ccc1F
REMARK SMILES IDX 18 1 17 2 15 3 16 4 14 6 12 7 13 8 87 9 86 10 88 11 85 12
REMARK SMILES IDX 9 13 10 14 11 15 2 16 1 17 3 18 4 19 5 20 6 21 7 22 8 23
REMARK SMILES IDX 19 24 20 25 21 26 22 27 23 28 24 30 25 31 26 32 84 33 27 34
REMARK SMILES IDX 83 35 28 36 29 37 30 38 77 39 31 40 82 41 76 42 78 43 32 44
REMARK SMILES IDX 81 45 75 46 74 47 33 49 63 50 44 51 62 52 45 53 48 54 61 55
REMARK SMILES IDX 79 56 46 57 47 58 60 60 80 61 49 62 34 63 35 64 43 65 36 66
REMARK SMILES IDX 42 67 37 68 38 69 39 70 40 71 41 72 64 73 65 74 73 75 66 76
REMARK SMILES IDX 72 77 67 78 68 79 69 80 70 81 71 82 50 83 51 84 59 85 52 86
REMARK SMILES IDX 58 87 53 88 54 89 55 90 56 91 57 92
REMARK H PARENT 17 5 22 29 78 48 48 59
REMARK Flexibility Score: inf
ROOT
ATOM      1  C   UNL A   1      35.474  20.484  25.016  1.00  0.00     0.116 C 
ENDROOT
BRANCH   1   2
ATOM      2  N   UNL A   1      34.337  19.622  25.283  1.00  0.00    -0.352 N 
ATOM      3  C   UNL A   1      32.988  19.778  25.103  1.00  0.00     0.251 C 
ATOM      4  O   UNL A   1      32.258  18.838  25.414  1.00  0.00    -0.269 OA
ATOM      5  H   UNL A   1      34.585  18.752  25.671  1.00  0.00     0.163 HD
BRANCH   3   6
ATOM      6  C   UNL A   1      32.362  21.006  24.535  1.00  0.00     0.041 A 
ATOM      7  C   UNL A   1      31.315  23.159  24.969  1.00  0.00     0.119 A 
ATOM      8  C   UNL A   1      31.882  21.970  25.443  1.00  0.00     0.038 A 
ATOM      9  C   UNL A   1      31.167  23.371  23.606  1.00  0.00     0.143 A 
ATOM     10  C   UNL A   1      31.682  22.453  22.701  1.00  0.00     0.041 A 
ATOM     11  F   UNL A   1      30.629  24.499  23.126  1.00  0.00    -0.206 F 
ATOM     12  C   UNL A   1      32.313  21.295  23.165  1.00  0.00     0.017 A 
BRANCH   7  13
ATOM     13  S   UNL A   1      30.893  24.464  26.073  1.00  0.00     0.245 S 
ATOM     14  O   UNL A   1      31.476  24.204  27.366  1.00  0.00    -0.207 OA
ATOM     15  O   UNL A   1      29.465  24.682  25.951  1.00  0.00    -0.207 OA
BRANCH  13  16
ATOM     16  N   UNL A   1      31.688  25.834  25.449  1.00  0.00    -0.200 NA
ATOM     17  C   UNL A   1      30.797  26.912  24.978  1.00  0.00     0.124 C 
BRANCH  16  18
ATOM     18  C   UNL A   1      33.027  26.269  25.925  1.00  0.00     0.118 C 
BRANCH  18  19
ATOM     19  C   UNL A   1      33.521  27.646  25.533  1.00  0.00     0.153 C 
BRANCH  19  20
ATOM     20  S   UNL A   1      33.185  28.984  26.664  1.00  0.00     0.148 S 
ATOM     21  C   UNL A   1      34.707  29.389  27.492  1.00  0.00     0.158 C 
ATOM     22  O   UNL A   1      32.846  30.135  25.844  1.00  0.00    -0.229 OA
ATOM     23  O   UNL A   1      32.265  28.512  27.673  1.00  0.00    -0.229 OA
ENDBRANCH  19  20
ENDBRANCH  18  19
ENDBRANCH  16  18
ENDBRANCH  13  16
ENDBRANCH   7  13
ENDBRANCH   3   6
ENDBRANCH   1   2
BRANCH   1  24
ATOM     24  C   UNL A   1      35.543  21.615  26.047  1.00  0.00     0.023 C 
BRANCH  24  25
ATOM     25  C   UNL A   1      35.569  23.018  25.433  1.00  0.00     0.023 C 
BRANCH  25  26
ATOM     26  C   UNL A   1      36.953  23.657  25.346  1.00  0.00     0.116 C 
BRANCH  26  27
ATOM     27  N   UNL A   1      38.039  22.712  25.565  1.00  0.00    -0.352 N 
ATOM     28  C   UNL A   1      39.245  22.924  26.188  1.00  0.00     0.251 C 
ATOM     29  H   UNL A   1      37.888  21.801  25.222  1.00  0.00     0.163 HD
ATOM     30  O   UNL A   1      40.096  22.040  26.192  1.00  0.00    -0.269 OA
BRANCH  28  31
ATOM     31  C   UNL A   1      39.522  24.236  26.810  1.00  0.00     0.039 A 
ATOM     32  C   UNL A   1      39.103  24.459  28.123  1.00  0.00     0.014 A 
ATOM     33  C   UNL A   1      40.220  25.226  26.114  1.00  0.00     0.014 A 
ATOM     34  C   UNL A   1      39.448  25.652  28.762  1.00  0.00     0.010 A 
ATOM     35  C   UNL A   1      40.626  26.381  26.776  1.00  0.00     0.010 A 
ATOM     36  C   UNL A   1      40.246  26.606  28.107  1.00  0.00    -0.014 A 
BRANCH  36  37
ATOM     37  C   UNL A   1      40.699  27.835  28.806  1.00  0.00     0.031 A 
ATOM     38  C   UNL A   1      42.083  27.911  29.394  1.00  0.00     0.074 A 
ATOM     39  C   UNL A   1      39.842  28.864  28.963  1.00  0.00     0.049 A 
ATOM     40  N   UNL A   1      42.643  28.890  30.056  1.00  0.00    -0.248 NA
ATOM     41  C   UNL A   1      42.939  26.724  29.239  1.00  0.00     0.031 C 
ATOM     42  C   UNL A   1      38.456  28.893  28.489  1.00  0.00     0.029 A 
ATOM     43  N   UNL A   1      40.007  30.085  29.569  1.00  0.00    -0.354 N 
ATOM     44  C   UNL A   1      43.907  28.433  30.409  1.00  0.00     0.074 A 
ATOM     45  C   UNL A   1      44.012  27.071  29.935  1.00  0.00     0.031 C 
ATOM     46  C   UNL A   1      37.910  30.082  28.791  1.00  0.00     0.029 A 
ATOM     47  C   UNL A   1      38.891  30.887  29.513  1.00  0.00     0.049 A 
ATOM     48  H   UNL A   1      40.847  30.360  30.003  1.00  0.00     0.167 HD
ATOM     49  C   UNL A   1      44.901  29.094  31.050  1.00  0.00     0.031 A 
ATOM     50  C   UNL A   1      38.680  32.130  29.986  1.00  0.00     0.031 A 
ATOM     51  C   UNL A   1      44.798  30.453  31.511  1.00  0.00     0.049 A 
ATOM     52  C   UNL A   1      39.799  32.847  30.690  1.00  0.00     0.074 A 
ATOM     53  C   UNL A   1      45.768  31.232  32.117  1.00  0.00     0.029 A 
ATOM     54  N   UNL A   1      43.656  31.236  31.420  1.00  0.00    -0.354 N 
ATOM     55  N   UNL A   1      41.016  32.425  30.945  1.00  0.00    -0.248 NA
ATOM     56  C   UNL A   1      39.524  34.213  31.155  1.00  0.00     0.031 C 
ATOM     57  C   UNL A   1      45.197  32.468  32.439  1.00  0.00     0.029 A 
ATOM     58  C   UNL A   1      43.891  32.482  31.977  1.00  0.00     0.049 A 
ATOM     59  H   UNL A   1      42.805  30.948  31.017  1.00  0.00     0.167 HD
ATOM     60  C   UNL A   1      41.659  33.485  31.574  1.00  0.00     0.074 A 
ATOM     61  C   UNL A   1      40.703  34.570  31.648  1.00  0.00     0.031 C 
ATOM     62  C   UNL A   1      42.930  33.554  32.043  1.00  0.00     0.031 A 
BRANCH  49  63
ATOM     63  C   UNL A   1      46.189  28.351  31.290  1.00  0.00    -0.014 A 
ATOM     64  C   UNL A   1      46.365  27.554  32.437  1.00  0.00     0.010 A 
ATOM     65  C   UNL A   1      47.226  28.420  30.341  1.00  0.00     0.010 A 
ATOM     66  C   UNL A   1      47.568  26.879  32.653  1.00  0.00     0.020 A 
ATOM     67  C   UNL A   1      48.420  27.722  30.539  1.00  0.00     0.020 A 
ATOM     68  C   UNL A   1      48.591  26.970  31.704  1.00  0.00     0.054 A 
BRANCH  68  69
ATOM     69  S   UNL A   1      50.137  26.070  32.003  1.00  0.00     0.124 S 
ATOM     70  O   UNL A   1      49.713  25.056  32.965  1.00  0.00    -0.237 OA
ATOM     71  O   UNL A   1      50.479  25.571  30.674  1.00  0.00    -0.237 OA
ATOM     72  O   UNL A   1      51.037  27.092  32.532  1.00  0.00    -0.744 OA
ENDBRANCH  68  69
ENDBRANCH  49  63
BRANCH  50  73
ATOM     73  C   UNL A   1      37.359  32.786  29.783  1.00  0.00    -0.014 A 
ATOM     74  C   UNL A   1      36.382  32.751  30.794  1.00  0.00     0.010 A 
ATOM     75  C   UNL A   1      37.076  33.467  28.585  1.00  0.00     0.010 A 
ATOM     76  C   UNL A   1      35.141  33.368  30.604  1.00  0.00     0.020 A 
ATOM     77  C   UNL A   1      35.849  34.109  28.402  1.00  0.00     0.020 A 
ATOM     78  C   UNL A   1      34.884  34.046  29.410  1.00  0.00     0.054 A 
BRANCH  78  79
ATOM     79  S   UNL A   1      33.289  34.887  29.206  1.00  0.00     0.124 S 
ATOM     80  O   UNL A   1      32.626  34.046  28.216  1.00  0.00    -0.237 OA
ATOM     81  O   UNL A   1      32.733  34.834  30.557  1.00  0.00    -0.237 OA
ATOM     82  O   UNL A   1      33.663  36.223  28.748  1.00  0.00    -0.744 OA
ENDBRANCH  78  79
ENDBRANCH  50  73
BRANCH  62  83
ATOM     83  C   UNL A   1      43.378  34.859  32.645  1.00  0.00    -0.014 A 
ATOM     84  C   UNL A   1      43.837  35.916  31.843  1.00  0.00     0.010 A 
ATOM     85  C   UNL A   1      43.278  35.046  34.037  1.00  0.00     0.010 A 
ATOM     86  C   UNL A   1      44.221  37.129  32.424  1.00  0.00     0.020 A 
ATOM     87  C   UNL A   1      43.632  36.265  34.618  1.00  0.00     0.020 A 
ATOM     88  C   UNL A   1      44.116  37.294  33.808  1.00  0.00     0.054 A 
BRANCH  88  89
ATOM     89  S   UNL A   1      44.575  38.893  34.534  1.00  0.00     0.124 S 
ATOM     90  O   UNL A   1      44.666  38.566  35.954  1.00  0.00    -0.237 OA
ATOM     91  O   UNL A   1      45.845  39.191  33.875  1.00  0.00    -0.237 OA
ATOM     92  O   UNL A   1      43.468  39.772  34.166  1.00  0.00    -0.744 OA
ENDBRANCH  88  89
ENDBRANCH  62  83
ENDBRANCH  36  37
ENDBRANCH  28  31
ENDBRANCH  26  27
ENDBRANCH  25  26
ENDBRANCH  24  25
ENDBRANCH   1  24
TORSDOF 19
ENDMDL
MODEL 2
REMARK VINA RESULT:     -10.3      2.615      9.281
REMARK SMILES CN(CCS(C)(=O)=O)S(=O)(=O)c1cc(C(=O)NCCCCNC(=O)c2ccc(-c3c4nc(c(-c5ccc(S(=O)(=O)[O-])cc5)c5ccc([nH]5)c(-c5ccc(S(=O)(=O)[O-])cc5)c5nc(c(-c6ccc(S(=O)(=O)[O-])cc6)c6ccc3[nH]6)C=C5)C=C4)cc2)ccc1F
REMARK SMILES IDX 18 1 17 2 15 3 16 4 14 6 12 7 13 8 87 9 86 10 88 11 85 12
REMARK SMILES IDX 9 13 10 14 11 15 2 16 1 17 3 18 4 19 5 20 6 21 7 22 8 23
REMARK SMILES IDX 19 24 20 25 21 26 22 27 23 28 24 30 25 31 26 32 84 33 27 34
REMARK SMILES IDX 83 35 28 36 29 37 30 38 77 39 31 40 82 41 76 42 78 43 32 44
REMARK SMILES IDX 81 45 75 46 74 47 33 49 63 50 44 51 62 52 45 53 48 54 61 55
REMARK SMILES IDX 79 56 46 57 47 58 60 60 80 61 49 62 34 63 35 64 43 65 36 66
REMARK SMILES IDX 42 67 37 68 38 69 39 70 40 71 41 72 64 73 65 74 73 75 66 76
REMARK SMILES IDX 72 77 67 78 68 79 69 80 70 81 71 82 50 83 51 84 59 85 52 86
REMARK SMILES IDX 58 87 53 88 54 89 55 90 56 91 57 92
REMARK H PARENT 17 5 22 29 78 48 48 59
REMARK Flexibility Score: inf
ROOT
ATOM      1  C   UNL A   1      31.318  29.072  24.215  1.00  0.00     0.116 C 
ENDROOT
BRANCH   1   2
ATOM      2  N   UNL A   1      30.014  28.469  24.008  1.00  0.00    -0.352 N 
ATOM      3  C   UNL A   1      29.611  27.183  23.764  1.00  0.00     0.251 C 
ATOM      4  O   UNL A   1      28.403  26.974  23.652  1.00  0.00    -0.269 OA
ATOM      5  H   UNL A   1      29.270  29.113  24.052  1.00  0.00     0.163 HD
BRANCH   3   6
ATOM      6  C   UNL A   1      30.545  26.027  23.648  1.00  0.00     0.041 A 
ATOM      7  C   UNL A   1      31.529  24.074  24.715  1.00  0.00     0.119 A 
ATOM      8  C   UNL A   1      30.691  25.194  24.775  1.00  0.00     0.038 A 
ATOM      9  C   UNL A   1      32.265  23.809  23.570  1.00  0.00     0.143 A 
ATOM     10  C   UNL A   1      32.092  24.592  22.436  1.00  0.00     0.041 A 
ATOM     11  F   UNL A   1      33.073  22.745  23.486  1.00  0.00    -0.206 F 
ATOM     12  C   UNL A   1      31.205  25.672  22.464  1.00  0.00     0.017 A 
BRANCH   7  13
ATOM     13  S   UNL A   1      31.576  22.906  26.031  1.00  0.00     0.245 S 
ATOM     14  O   UNL A   1      30.847  21.722  25.647  1.00  0.00    -0.207 OA
ATOM     15  O   UNL A   1      31.220  23.615  27.245  1.00  0.00    -0.207 OA
BRANCH  13  16
ATOM     16  N   UNL A   1      33.212  22.450  26.150  1.00  0.00    -0.200 NA
ATOM     17  C   UNL A   1      34.100  23.464  26.749  1.00  0.00     0.124 C 
BRANCH  16  18
ATOM     18  C   UNL A   1      33.639  21.037  26.326  1.00  0.00     0.118 C 
BRANCH  18  19
ATOM     19  C   UNL A   1      34.143  20.279  25.116  1.00  0.00     0.153 C 
BRANCH  19  20
ATOM     20  S   UNL A   1      33.287  18.773  24.685  1.00  0.00     0.148 S 
ATOM     21  C   UNL A   1      32.343  19.089  23.210  1.00  0.00     0.158 C 
ATOM     22  O   UNL A   1      34.313  17.813  24.317  1.00  0.00    -0.229 OA
ATOM     23  O   UNL A   1      32.344  18.465  25.735  1.00  0.00    -0.229 OA
ENDBRANCH  19  20
ENDBRANCH  18  19
ENDBRANCH  16  18
ENDBRANCH  13  16
ENDBRANCH   7  13
ENDBRANCH   3   6
ENDBRANCH   1   2
BRANCH   1  24
ATOM     24  C   UNL A   1      31.679  29.069  25.703  1.00  0.00     0.023 C 
BRANCH  24  25
ATOM     25  C   UNL A   1      32.712  28.005  26.091  1.00  0.00     0.023 C 
BRANCH  25  26
ATOM     26  C   UNL A   1      33.653  28.405  27.225  1.00  0.00     0.116 C 
BRANCH  26  27
ATOM     27  N   UNL A   1      33.536  29.805  27.603  1.00  0.00    -0.352 N 
ATOM     28  C   UNL A   1      34.486  30.620  28.173  1.00  0.00     0.251 C 
ATOM     29  H   UNL A   1      32.663  30.224  27.428  1.00  0.00     0.163 HD
ATOM     30  O   UNL A   1      34.186  31.755  28.529  1.00  0.00    -0.269 OA
BRANCH  28  31
ATOM     31  C   UNL A   1      35.853  30.101  28.391  1.00  0.00     0.039 A 
ATOM     32  C   UNL A   1      36.781  30.193  27.351  1.00  0.00     0.014 A 
ATOM     33  C   UNL A   1      36.226  29.558  29.623  1.00  0.00     0.014 A 
ATOM     34  C   UNL A   1      38.104  29.805  27.574  1.00  0.00     0.010 A 
ATOM     35  C   UNL A   1      37.560  29.243  29.865  1.00  0.00     0.010 A 
ATOM     36  C   UNL A   1      38.513  29.364  28.844  1.00  0.00    -0.014 A 
BRANCH  36  37
ATOM     37  C   UNL A   1      39.935  29.038  29.120  1.00  0.00     0.031 A 
ATOM     38  C   UNL A   1      40.843  30.062  29.747  1.00  0.00     0.074 A 
ATOM     39  C   UNL A   1      40.426  27.837  28.752  1.00  0.00     0.049 A 
ATOM     40  N   UNL A   1      42.114  29.966  30.041  1.00  0.00    -0.248 NA
ATOM     41  C   UNL A   1      40.253  31.374  30.062  1.00  0.00     0.031 C 
ATOM     42  C   UNL A   1      39.663  26.779  28.086  1.00  0.00     0.029 A 
ATOM     43  N   UNL A   1      41.684  27.304  28.882  1.00  0.00    -0.354 N 
ATOM     44  C   UNL A   1      42.477  31.203  30.559  1.00  0.00     0.074 A 
ATOM     45  C   UNL A   1      41.308  32.051  30.490  1.00  0.00     0.031 C 
ATOM     46  C   UNL A   1      40.458  25.713  27.897  1.00  0.00     0.029 A 
ATOM     47  C   UNL A   1      41.796  26.023  28.393  1.00  0.00     0.049 A 
ATOM     48  H   UNL A   1      42.436  27.793  29.288  1.00  0.00     0.167 HD
ATOM     49  C   UNL A   1      43.671  31.593  31.069  1.00  0.00     0.031 A 
ATOM     50  C   UNL A   1      42.854  25.191  28.348  1.00  0.00     0.031 A 
ATOM     51  C   UNL A   1      44.830  30.744  31.146  1.00  0.00     0.049 A 
ATOM     52  C   UNL A   1      44.168  25.643  28.924  1.00  0.00     0.074 A 
ATOM     53  C   UNL A   1      46.067  31.025  31.698  1.00  0.00     0.029 A 
ATOM     54  N   UNL A   1      44.897  29.449  30.654  1.00  0.00    -0.354 N 
ATOM     55  N   UNL A   1      44.470  26.793  29.482  1.00  0.00    -0.248 NA
ATOM     56  C   UNL A   1      45.277  24.683  28.880  1.00  0.00     0.031 C 
ATOM     57  C   UNL A   1      46.898  29.919  31.495  1.00  0.00     0.029 A 
ATOM     58  C   UNL A   1      46.161  28.925  30.871  1.00  0.00     0.049 A 
ATOM     59  H   UNL A   1      44.155  28.972  30.216  1.00  0.00     0.167 HD
ATOM     60  C   UNL A   1      45.797  26.680  29.882  1.00  0.00     0.074 A 
ATOM     61  C   UNL A   1      46.234  25.349  29.514  1.00  0.00     0.031 C 
ATOM     62  C   UNL A   1      46.581  27.597  30.502  1.00  0.00     0.031 A 
BRANCH  49  63
ATOM     63  C   UNL A   1      43.780  33.005  31.582  1.00  0.00    -0.014 A 
ATOM     64  C   UNL A   1      43.507  33.312  32.928  1.00  0.00     0.010 A 
ATOM     65  C   UNL A   1      44.196  34.035  30.718  1.00  0.00     0.010 A 
ATOM     66  C   UNL A   1      43.601  34.627  33.388  1.00  0.00     0.020 A 
ATOM     67  C   UNL A   1      44.321  35.347  31.182  1.00  0.00     0.020 A 
ATOM     68  C   UNL A   1      44.004  35.638  32.511  1.00  0.00     0.054 A 
BRANCH  68  69
ATOM     69  S   UNL A   1      44.132  37.334  33.140  1.00  0.00     0.124 S 
ATOM     70  O   UNL A   1      45.378  37.279  33.899  1.00  0.00    -0.237 OA
ATOM     71  O   UNL A   1      44.178  38.127  31.914  1.00  0.00    -0.237 OA
ATOM     72  O   UNL A   1      42.922  37.500  33.940  1.00  0.00    -0.744 OA
ENDBRANCH  68  69
ENDBRANCH  49  63
BRANCH  50  73
ATOM     73  C   UNL A   1      42.704  23.832  27.760  1.00  0.00    -0.014 A 
ATOM     74  C   UNL A   1      42.505  22.713  28.589  1.00  0.00     0.010 A 
ATOM     75  C   UNL A   1      42.740  23.649  26.366  1.00  0.00     0.010 A 
ATOM     76  C   UNL A   1      42.364  21.436  28.036  1.00  0.00     0.020 A 
ATOM     77  C   UNL A   1      42.571  22.379  25.808  1.00  0.00     0.020 A 
ATOM     78  C   UNL A   1      42.394  21.278  26.649  1.00  0.00     0.054 A 
BRANCH  78  79
ATOM     79  S   UNL A   1      42.153  19.620  25.951  1.00  0.00     0.124 S 
ATOM     80  O   UNL A   1      42.434  18.764  27.099  1.00  0.00    -0.237 OA
ATOM     81  O   UNL A   1      40.758  19.662  25.518  1.00  0.00    -0.237 OA
ATOM     82  O   UNL A   1      43.131  19.560  24.867  1.00  0.00    -0.744 OA
ENDBRANCH  78  79
ENDBRANCH  50  73
BRANCH  62  83
ATOM     83  C   UNL A   1      47.983  27.182  30.860  1.00  0.00    -0.014 A 
ATOM     84  C   UNL A   1      49.062  27.420  29.992  1.00  0.00     0.010 A 
ATOM     85  C   UNL A   1      48.229  26.597  32.116  1.00  0.00     0.010 A 
ATOM     86  C   UNL A   1      50.360  27.051  30.360  1.00  0.00     0.020 A 
ATOM     87  C   UNL A   1      49.527  26.254  32.500  1.00  0.00     0.020 A 
ATOM     88  C   UNL A   1      50.583  26.470  31.612  1.00  0.00     0.054 A 
BRANCH  88  89
ATOM     89  S   UNL A   1      52.282  26.042  32.086  1.00  0.00     0.124 S 
ATOM     90  O   UNL A   1      52.093  24.767  32.772  1.00  0.00    -0.237 OA
ATOM     91  O   UNL A   1      52.965  25.968  30.797  1.00  0.00    -0.237 OA
ATOM     92  O   UNL A   1      52.693  27.154  32.940  1.00  0.00    -0.744 OA
ENDBRANCH  88  89
ENDBRANCH  62  83
ENDBRANCH  36  37
ENDBRANCH  28  31
ENDBRANCH  26  27
ENDBRANCH  25  26
ENDBRANCH  24  25
ENDBRANCH   1  24
TORSDOF 19
ENDMDL
MODEL 3
REMARK VINA RESULT:     -10.0      2.653      8.225
REMARK SMILES CN(CCS(C)(=O)=O)S(=O)(=O)c1cc(C(=O)NCCCCNC(=O)c2ccc(-c3c4nc(c(-c5ccc(S(=O)(=O)[O-])cc5)c5ccc([nH]5)c(-c5ccc(S(=O)(=O)[O-])cc5)c5nc(c(-c6ccc(S(=O)(=O)[O-])cc6)c6ccc3[nH]6)C=C5)C=C4)cc2)ccc1F
REMARK SMILES IDX 18 1 17 2 15 3 16 4 14 6 12 7 13 8 87 9 86 10 88 11 85 12
REMARK SMILES IDX 9 13 10 14 11 15 2 16 1 17 3 18 4 19 5 20 6 21 7 22 8 23
REMARK SMILES IDX 19 24 20 25 21 26 22 27 23 28 24 30 25 31 26 32 84 33 27 34
REMARK SMILES IDX 83 35 28 36 29 37 30 38 77 39 31 40 82 41 76 42 78 43 32 44
REMARK SMILES IDX 81 45 75 46 74 47 33 49 63 50 44 51 62 52 45 53 48 54 61 55
REMARK SMILES IDX 79 56 46 57 47 58 60 60 80 61 49 62 34 63 35 64 43 65 36 66
REMARK SMILES IDX 42 67 37 68 38 69 39 70 40 71 41 72 64 73 65 74 73 75 66 76
REMARK SMILES IDX 72 77 67 78 68 79 69 80 70 81 71 82 50 83 51 84 59 85 52 86
REMARK SMILES IDX 58 87 53 88 54 89 55 90 56 91 57 92
REMARK H PARENT 17 5 22 29 78 48 48 59
REMARK Flexibility Score: inf
ROOT
ATOM      1  C   UNL A   1      31.374  28.999  24.280  1.00  0.00     0.116 C 
ENDROOT
BRANCH   1   2
ATOM      2  N   UNL A   1      30.065  28.423  24.035  1.00  0.00    -0.352 N 
ATOM      3  C   UNL A   1      29.644  27.146  23.771  1.00  0.00     0.251 C 
ATOM      4  O   UNL A   1      28.436  26.961  23.626  1.00  0.00    -0.269 OA
ATOM      5  H   UNL A   1      29.333  29.081  24.064  1.00  0.00     0.163 HD
BRANCH   3   6
ATOM      6  C   UNL A   1      30.559  25.974  23.672  1.00  0.00     0.041 A 
ATOM      7  C   UNL A   1      31.484  24.001  24.754  1.00  0.00     0.119 A 
ATOM      8  C   UNL A   1      30.666  25.136  24.799  1.00  0.00     0.038 A 
ATOM      9  C   UNL A   1      32.239  23.724  23.623  1.00  0.00     0.143 A 
ATOM     10  C   UNL A   1      32.103  24.512  22.488  1.00  0.00     0.041 A 
ATOM     11  F   UNL A   1      33.028  22.645  23.553  1.00  0.00    -0.206 F 
ATOM     12  C   UNL A   1      31.235  25.608  22.501  1.00  0.00     0.017 A 
BRANCH   7  13
ATOM     13  S   UNL A   1      31.483  22.830  26.069  1.00  0.00     0.245 S 
ATOM     14  O   UNL A   1      30.790  21.637  25.646  1.00  0.00    -0.207 OA
ATOM     15  O   UNL A   1      31.058  23.530  27.265  1.00  0.00    -0.207 OA
BRANCH  13  16
ATOM     16  N   UNL A   1      33.117  22.395  26.266  1.00  0.00    -0.200 NA
ATOM     17  C   UNL A   1      33.953  23.403  26.946  1.00  0.00     0.124 C 
BRANCH  16  18
ATOM     18  C   UNL A   1      33.558  20.984  26.422  1.00  0.00     0.118 C 
BRANCH  18  19
ATOM     19  C   UNL A   1      34.157  20.278  25.224  1.00  0.00     0.153 C 
BRANCH  19  20
ATOM     20  S   UNL A   1      33.254  18.889  24.562  1.00  0.00     0.148 S 
ATOM     21  C   UNL A   1      32.308  19.470  23.171  1.00  0.00     0.158 C 
ATOM     22  O   UNL A   1      34.248  17.974  24.028  1.00  0.00    -0.229 OA
ATOM     23  O   UNL A   1      32.310  18.439  25.559  1.00  0.00    -0.229 OA
ENDBRANCH  19  20
ENDBRANCH  18  19
ENDBRANCH  16  18
ENDBRANCH  13  16
ENDBRANCH   7  13
ENDBRANCH   3   6
ENDBRANCH   1   2
BRANCH   1  24
ATOM     24  C   UNL A   1      31.758  28.849  25.756  1.00  0.00     0.023 C 
BRANCH  24  25
ATOM     25  C   UNL A   1      32.937  27.901  26.000  1.00  0.00     0.023 C 
BRANCH  25  26
ATOM     26  C   UNL A   1      33.905  28.347  27.093  1.00  0.00     0.116 C 
BRANCH  26  27
ATOM     27  N   UNL A   1      33.697  29.722  27.521  1.00  0.00    -0.352 N 
ATOM     28  C   UNL A   1      34.578  30.563  28.158  1.00  0.00     0.251 C 
ATOM     29  H   UNL A   1      32.808  30.100  27.328  1.00  0.00     0.163 HD
ATOM     30  O   UNL A   1      34.202  31.665  28.547  1.00  0.00    -0.269 OA
BRANCH  28  31
ATOM     31  C   UNL A   1      35.963  30.110  28.409  1.00  0.00     0.039 A 
ATOM     32  C   UNL A   1      36.907  30.235  27.387  1.00  0.00     0.014 A 
ATOM     33  C   UNL A   1      36.335  29.598  29.654  1.00  0.00     0.014 A 
ATOM     34  C   UNL A   1      38.241  29.912  27.640  1.00  0.00     0.010 A 
ATOM     35  C   UNL A   1      37.677  29.347  29.926  1.00  0.00     0.010 A 
ATOM     36  C   UNL A   1      38.644  29.503  28.923  1.00  0.00    -0.014 A 
BRANCH  36  37
ATOM     37  C   UNL A   1      40.074  29.246  29.231  1.00  0.00     0.031 A 
ATOM     38  C   UNL A   1      40.698  27.917  28.898  1.00  0.00     0.074 A 
ATOM     39  C   UNL A   1      40.797  30.191  29.865  1.00  0.00     0.049 A 
ATOM     40  N   UNL A   1      41.921  27.505  29.112  1.00  0.00    -0.248 NA
ATOM     41  C   UNL A   1      39.829  26.912  28.264  1.00  0.00     0.031 C 
ATOM     42  C   UNL A   1      40.294  31.499  30.291  1.00  0.00     0.029 A 
ATOM     43  N   UNL A   1      42.110  30.197  30.266  1.00  0.00    -0.354 N 
ATOM     44  C   UNL A   1      41.964  26.193  28.656  1.00  0.00     0.074 A 
ATOM     45  C   UNL A   1      40.631  25.859  28.202  1.00  0.00     0.031 C 
ATOM     46  C   UNL A   1      41.293  32.192  30.861  1.00  0.00     0.029 A 
ATOM     47  C   UNL A   1      42.497  31.367  30.877  1.00  0.00     0.049 A 
ATOM     48  H   UNL A   1      42.718  29.435  30.128  1.00  0.00     0.167 HD
ATOM     49  C   UNL A   1      43.021  25.348  28.597  1.00  0.00     0.031 A 
ATOM     50  C   UNL A   1      43.686  31.736  31.391  1.00  0.00     0.031 A 
ATOM     51  C   UNL A   1      44.348  25.687  29.038  1.00  0.00     0.049 A 
ATOM     52  C   UNL A   1      44.848  30.784  31.311  1.00  0.00     0.074 A 
ATOM     53  C   UNL A   1      45.500  24.923  28.966  1.00  0.00     0.029 A 
ATOM     54  N   UNL A   1      44.701  26.887  29.637  1.00  0.00    -0.354 N 
ATOM     55  N   UNL A   1      44.886  29.573  30.803  1.00  0.00    -0.248 NA
ATOM     56  C   UNL A   1      46.129  31.251  31.855  1.00  0.00     0.031 C 
ATOM     57  C   UNL A   1      46.538  25.641  29.567  1.00  0.00     0.029 A 
ATOM     58  C   UNL A   1      46.049  26.877  29.958  1.00  0.00     0.049 A 
ATOM     59  H   UNL A   1      44.086  27.636  29.807  1.00  0.00     0.167 HD
ATOM     60  C   UNL A   1      46.203  29.148  30.942  1.00  0.00     0.074 A 
ATOM     61  C   UNL A   1      46.930  30.234  31.567  1.00  0.00     0.031 C 
ATOM     62  C   UNL A   1      46.760  27.966  30.579  1.00  0.00     0.031 A 
BRANCH  49  63
ATOM     63  C   UNL A   1      42.782  23.972  28.034  1.00  0.00    -0.014 A 
ATOM     64  C   UNL A   1      42.260  22.939  28.836  1.00  0.00     0.010 A 
ATOM     65  C   UNL A   1      43.047  23.713  26.677  1.00  0.00     0.010 A 
ATOM     66  C   UNL A   1      42.053  21.664  28.305  1.00  0.00     0.020 A 
ATOM     67  C   UNL A   1      42.813  22.447  26.133  1.00  0.00     0.020 A 
ATOM     68  C   UNL A   1      42.335  21.425  26.956  1.00  0.00     0.054 A 
BRANCH  68  69
ATOM     69  S   UNL A   1      42.042  19.764  26.290  1.00  0.00     0.124 S 
ATOM     70  O   UNL A   1      40.597  19.776  26.077  1.00  0.00    -0.237 OA
ATOM     71  O   UNL A   1      42.855  19.758  25.076  1.00  0.00    -0.237 OA
ATOM     72  O   UNL A   1      42.507  18.876  27.352  1.00  0.00    -0.744 OA
ENDBRANCH  68  69
ENDBRANCH  49  63
BRANCH  50  73
ATOM     73  C   UNL A   1      43.843  33.084  32.003  1.00  0.00    -0.014 A 
ATOM     74  C   UNL A   1      44.265  34.177  31.224  1.00  0.00     0.010 A 
ATOM     75  C   UNL A   1      43.554  33.288  33.365  1.00  0.00     0.010 A 
ATOM     76  C   UNL A   1      44.413  35.443  31.799  1.00  0.00     0.020 A 
ATOM     77  C   UNL A   1      43.672  34.557  33.936  1.00  0.00     0.020 A 
ATOM     78  C   UNL A   1      44.111  35.626  33.151  1.00  0.00     0.054 A 
BRANCH  78  79
ATOM     79  S   UNL A   1      44.256  37.289  33.863  1.00  0.00     0.124 S 
ATOM     80  O   UNL A   1      44.284  38.128  32.670  1.00  0.00    -0.237 OA
ATOM     81  O   UNL A   1      43.047  37.387  34.679  1.00  0.00    -0.237 OA
ATOM     82  O   UNL A   1      45.505  37.229  34.619  1.00  0.00    -0.744 OA
ENDBRANCH  78  79
ENDBRANCH  50  73
BRANCH  62  83
ATOM     83  C   UNL A   1      48.237  27.794  30.812  1.00  0.00    -0.014 A 
ATOM     84  C   UNL A   1      48.737  27.346  32.047  1.00  0.00     0.010 A 
ATOM     85  C   UNL A   1      49.134  28.030  29.754  1.00  0.00     0.010 A 
ATOM     86  C   UNL A   1      50.112  27.167  32.229  1.00  0.00     0.020 A 
ATOM     87  C   UNL A   1      50.505  27.824  29.922  1.00  0.00     0.020 A 
ATOM     88  C   UNL A   1      50.986  27.408  31.165  1.00  0.00     0.054 A 
BRANCH  88  89
ATOM     89  S   UNL A   1      52.761  27.123  31.413  1.00  0.00     0.124 S 
ATOM     90  O   UNL A   1      53.351  28.250  30.695  1.00  0.00    -0.237 OA
ATOM     91  O   UNL A   1      52.893  27.165  32.867  1.00  0.00    -0.237 OA
ATOM     92  O   UNL A   1      52.989  25.812  30.810  1.00  0.00    -0.744 OA
ENDBRANCH  88  89
ENDBRANCH  62  83
ENDBRANCH  36  37
ENDBRANCH  28  31
ENDBRANCH  26  27
ENDBRANCH  25  26
ENDBRANCH  24  25
ENDBRANCH   1  24
TORSDOF 19
ENDMDL
