MODEL 1
REMARK VINA RESULT:     -11.2      0.000      0.000
REMARK SMILES NC(=O)[C@@H]1CCCCN1c1cncc(C(=O)NCCCCNC(=O)c2ccc(-c3c4nc(c(-c5ccc(S(=O)(=O)[O-])cc5)c5ccc([nH]5)c(-c5ccc(S(=O)(=O)[O-])cc5)c5nc(c(-c6ccc(S(=O)(=O)[O-])cc6)c6ccc3[nH]6)C=C5)C=C4)cc2)n1
REMARK SMILES IDX 20 1 19 2 18 3 17 4 15 5 16 6 14 8 10 9 11 10 85 11 12 12
REMARK SMILES IDX 13 13 9 14 4 15 5 16 6 17 8 18 7 19 2 20 1 21 3 24 21 25
REMARK SMILES IDX 22 26 23 27 24 29 25 30 26 31 84 32 27 33 83 34 28 35 29 36
REMARK SMILES IDX 30 37 77 38 31 39 82 40 76 41 78 42 32 43 81 44 75 45 74 46
REMARK SMILES IDX 33 48 63 49 44 50 62 51 45 52 48 53 61 54 79 55 46 56 47 57
REMARK SMILES IDX 60 59 80 60 49 61 34 62 35 63 43 64 36 65 42 66 37 67 38 68
REMARK SMILES IDX 39 69 40 70 41 71 64 72 65 73 73 74 66 75 72 76 67 77 68 78
REMARK SMILES IDX 69 79 70 80 71 81 50 82 51 83 59 84 52 85 58 86 53 87 54 88
REMARK SMILES IDX 55 89 56 90 57 91
REMARK H PARENT 17 7 1 22 1 23 22 28 78 47 48 58
REMARK Flexibility Score: inf
ROOT
ATOM      1  C   UNL A   1      33.446  27.847  26.375  1.00  0.00     0.023 C 
ENDROOT
BRANCH   1   2
ATOM      2  C   UNL A   1      31.958  27.891  26.717  1.00  0.00     0.023 C 
BRANCH   2   3
ATOM      3  C   UNL A   1      31.107  26.869  25.967  1.00  0.00     0.116 C 
BRANCH   3   4
ATOM      4  N   UNL A   1      30.815  25.702  26.779  1.00  0.00    -0.351 N 
ATOM      5  C   UNL A   1      30.989  24.361  26.527  1.00  0.00     0.271 C 
ATOM      6  O   UNL A   1      30.627  23.564  27.397  1.00  0.00    -0.267 OA
ATOM      7  H   UNL A   1      30.425  25.905  27.660  1.00  0.00     0.163 HD
BRANCH   5   8
ATOM      8  C   UNL A   1      31.567  23.825  25.260  1.00  0.00     0.148 A 
ATOM      9  C   UNL A   1      33.312  22.872  24.069  1.00  0.00     0.148 A 
ATOM     10  C   UNL A   1      32.504  22.959  22.926  1.00  0.00     0.157 A 
ATOM     11  N   UNL A   1      32.824  23.303  25.243  1.00  0.00    -0.222 NA
ATOM     12  N   UNL A   1      31.239  23.450  22.908  1.00  0.00    -0.258 NA
ATOM     13  C   UNL A   1      30.790  23.881  24.110  1.00  0.00     0.145 A 
BRANCH   9  14
ATOM     14  N   UNL A   1      34.598  22.357  24.000  1.00  0.00    -0.343 N 
ATOM     15  C   UNL A   1      35.017  21.160  24.778  1.00  0.00     0.172 C 
ATOM     16  C   UNL A   1      35.838  21.542  26.012  1.00  0.00     0.035 C 
ATOM     17  C   UNL A   1      36.997  22.456  25.632  1.00  0.00     0.004 C 
ATOM     18  C   UNL A   1      35.660  23.317  23.674  1.00  0.00     0.119 C 
ATOM     19  C   UNL A   1      36.464  23.694  24.921  1.00  0.00     0.022 C 
BRANCH  15  20
ATOM     20  C   UNL A   1      33.892  20.168  25.145  1.00  0.00     0.240 C 
ATOM     21  N   UNL A   1      33.414  20.274  26.424  1.00  0.00    -0.368 N 
ATOM     22  H   UNL A   1      32.697  19.676  26.732  1.00  0.00     0.159 HD
ATOM     23  H   UNL A   1      33.790  20.949  27.035  1.00  0.00     0.159 HD
ATOM     24  O   UNL A   1      33.368  19.382  24.361  1.00  0.00    -0.273 OA
ENDBRANCH  15  20
ENDBRANCH   9  14
ENDBRANCH   5   8
ENDBRANCH   3   4
ENDBRANCH   2   3
ENDBRANCH   1   2
BRANCH   1  25
ATOM     25  C   UNL A   1      34.026  29.144  25.816  1.00  0.00     0.116 C 
BRANCH  25  26
ATOM     26  N   UNL A   1      33.769  30.304  26.659  1.00  0.00    -0.352 N 
ATOM     27  C   UNL A   1      34.512  30.788  27.708  1.00  0.00     0.251 C 
ATOM     28  H   UNL A   1      32.951  30.810  26.448  1.00  0.00     0.163 HD
ATOM     29  O   UNL A   1      34.091  31.718  28.390  1.00  0.00    -0.269 OA
BRANCH  27  30
ATOM     30  C   UNL A   1      35.807  30.153  28.033  1.00  0.00     0.039 A 
ATOM     31  C   UNL A   1      36.841  30.207  27.096  1.00  0.00     0.014 A 
ATOM     32  C   UNL A   1      36.010  29.542  29.274  1.00  0.00     0.014 A 
ATOM     33  C   UNL A   1      38.105  29.717  27.434  1.00  0.00     0.010 A 
ATOM     34  C   UNL A   1      37.285  29.116  29.633  1.00  0.00     0.010 A 
ATOM     35  C   UNL A   1      38.347  29.206  28.720  1.00  0.00    -0.014 A 
BRANCH  35  36
ATOM     36  C   UNL A   1      39.704  28.769  29.134  1.00  0.00     0.031 A 
ATOM     37  C   UNL A   1      40.607  29.718  29.875  1.00  0.00     0.074 A 
ATOM     38  C   UNL A   1      40.147  27.542  28.791  1.00  0.00     0.049 A 
ATOM     39  N   UNL A   1      41.852  29.553  30.241  1.00  0.00    -0.248 NA
ATOM     40  C   UNL A   1      40.043  31.030  30.234  1.00  0.00     0.031 C 
ATOM     41  C   UNL A   1      39.383  26.540  28.042  1.00  0.00     0.029 A 
ATOM     42  N   UNL A   1      41.355  26.931  29.019  1.00  0.00    -0.354 N 
ATOM     43  C   UNL A   1      42.223  30.740  30.864  1.00  0.00     0.074 A 
ATOM     44  C   UNL A   1      41.089  31.634  30.783  1.00  0.00     0.031 C 
ATOM     45  C   UNL A   1      40.132  25.435  27.893  1.00  0.00     0.029 A 
ATOM     46  C   UNL A   1      41.440  25.660  28.497  1.00  0.00     0.049 A 
ATOM     47  H   UNL A   1      42.091  27.361  29.511  1.00  0.00     0.167 HD
ATOM     48  C   UNL A   1      43.393  31.049  31.471  1.00  0.00     0.031 A 
ATOM     49  C   UNL A   1      42.462  24.781  28.495  1.00  0.00     0.031 A 
ATOM     50  C   UNL A   1      44.517  30.157  31.565  1.00  0.00     0.049 A 
ATOM     51  C   UNL A   1      43.757  25.160  29.162  1.00  0.00     0.074 A 
ATOM     52  C   UNL A   1      45.739  30.374  32.179  1.00  0.00     0.029 A 
ATOM     53  N   UNL A   1      44.555  28.875  31.040  1.00  0.00    -0.354 N 
ATOM     54  N   UNL A   1      44.073  26.274  29.777  1.00  0.00    -0.248 NA
ATOM     55  C   UNL A   1      44.831  24.156  29.144  1.00  0.00     0.031 C 
ATOM     56  C   UNL A   1      46.527  29.232  32.000  1.00  0.00     0.029 A 
ATOM     57  C   UNL A   1      45.779  28.290  31.314  1.00  0.00     0.049 A 
ATOM     58  H   UNL A   1      43.820  28.444  30.546  1.00  0.00     0.167 HD
ATOM     59  C   UNL A   1      45.369  26.092  30.246  1.00  0.00     0.074 A 
ATOM     60  C   UNL A   1      45.774  24.757  29.857  1.00  0.00     0.031 C 
ATOM     61  C   UNL A   1      46.157  26.953  30.935  1.00  0.00     0.031 A 
BRANCH  48  62
ATOM     62  C   UNL A   1      43.510  32.408  32.104  1.00  0.00    -0.014 A 
ATOM     63  C   UNL A   1      43.143  32.605  33.448  1.00  0.00     0.010 A 
ATOM     64  C   UNL A   1      44.051  33.483  31.377  1.00  0.00     0.010 A 
ATOM     65  C   UNL A   1      43.291  33.859  34.045  1.00  0.00     0.020 A 
ATOM     66  C   UNL A   1      44.224  34.734  31.979  1.00  0.00     0.020 A 
ATOM     67  C   UNL A   1      43.832  34.915  33.306  1.00  0.00     0.054 A 
BRANCH  67  68
ATOM     68  S   UNL A   1      44.058  36.519  34.125  1.00  0.00     0.124 S 
ATOM     69  O   UNL A   1      44.814  37.265  33.123  1.00  0.00    -0.237 OA
ATOM     70  O   UNL A   1      42.684  36.967  34.339  1.00  0.00    -0.237 OA
ATOM     71  O   UNL A   1      44.797  36.186  35.341  1.00  0.00    -0.744 OA
ENDBRANCH  67  68
ENDBRANCH  48  62
BRANCH  49  72
ATOM     72  C   UNL A   1      42.312  23.451  27.844  1.00  0.00    -0.014 A 
ATOM     73  C   UNL A   1      41.887  22.336  28.587  1.00  0.00     0.010 A 
ATOM     74  C   UNL A   1      42.634  23.284  26.484  1.00  0.00     0.010 A 
ATOM     75  C   UNL A   1      41.829  21.071  27.997  1.00  0.00     0.020 A 
ATOM     76  C   UNL A   1      42.549  22.025  25.883  1.00  0.00     0.020 A 
ATOM     77  C   UNL A   1      42.169  20.921  26.650  1.00  0.00     0.054 A 
BRANCH  77  78
ATOM     78  S   UNL A   1      42.086  19.272  25.898  1.00  0.00     0.124 S 
ATOM     79  O   UNL A   1      40.661  19.148  25.604  1.00  0.00    -0.237 OA
ATOM     80  O   UNL A   1      42.963  19.405  24.738  1.00  0.00    -0.237 OA
ATOM     81  O   UNL A   1      42.589  18.394  26.952  1.00  0.00    -0.744 OA
ENDBRANCH  77  78
ENDBRANCH  49  72
BRANCH  61  82
ATOM     82  C   UNL A   1      47.514  26.463  31.358  1.00  0.00    -0.014 A 
ATOM     83  C   UNL A   1      47.720  25.890  32.625  1.00  0.00     0.010 A 
ATOM     84  C   UNL A   1      48.587  26.528  30.450  1.00  0.00     0.010 A 
ATOM     85  C   UNL A   1      48.985  25.419  32.989  1.00  0.00     0.020 A 
ATOM     86  C   UNL A   1      49.846  26.035  30.801  1.00  0.00     0.020 A 
ATOM     87  C   UNL A   1      50.040  25.496  32.075  1.00  0.00     0.054 A 
BRANCH  87  88
ATOM     88  S   UNL A   1      51.661  24.835  32.551  1.00  0.00     0.124 S 
ATOM     89  O   UNL A   1      51.542  23.432  32.166  1.00  0.00    -0.237 OA
ATOM     90  O   UNL A   1      52.583  25.632  31.746  1.00  0.00    -0.237 OA
ATOM     91  O   UNL A   1      51.727  25.083  33.989  1.00  0.00    -0.744 OA
ENDBRANCH  87  88
ENDBRANCH  61  82
ENDBRANCH  35  36
ENDBRANCH  27  30
ENDBRANCH  25  26
ENDBRANCH   1  25
TORSDOF 16
ENDMDL
MODEL 2
REMARK VINA RESULT:     -10.9      1.476      1.952
REMARK SMILES NC(=O)[C@@H]1CCCCN1c1cncc(C(=O)NCCCCNC(=O)c2ccc(-c3c4nc(c(-c5ccc(S(=O)(=O)[O-])cc5)c5ccc([nH]5)c(-c5ccc(S(=O)(=O)[O-])cc5)c5nc(c(-c6ccc(S(=O)(=O)[O-])cc6)c6ccc3[nH]6)C=C5)C=C4)cc2)n1
REMARK SMILES IDX 20 1 19 2 18 3 17 4 15 5 16 6 14 8 10 9 11 10 85 11 12 12
REMARK SMILES IDX 13 13 9 14 4 15 5 16 6 17 8 18 7 19 2 20 1 21 3 24 21 25
REMARK SMILES IDX 22 26 23 27 24 29 25 30 26 31 84 32 27 33 83 34 28 35 29 36
REMARK SMILES IDX 30 37 77 38 31 39 82 40 76 41 78 42 32 43 81 44 75 45 74 46
REMARK SMILES IDX 33 48 63 49 44 50 62 51 45 52 48 53 61 54 79 55 46 56 47 57
REMARK SMILES IDX 60 59 80 60 49 61 34 62 35 63 43 64 36 65 42 66 37 67 38 68
REMARK SMILES IDX 39 69 40 70 41 71 64 72 65 73 73 74 66 75 72 76 67 77 68 78
REMARK SMILES IDX 69 79 70 80 71 81 50 82 51 83 59 84 52 85 58 86 53 87 54 88
REMARK SMILES IDX 55 89 56 90 57 91
REMARK H PARENT 17 7 1 22 1 23 22 28 78 47 48 58
REMARK Flexibility Score: inf
ROOT
ATOM      1  C   UNL A   1      31.985  27.914  26.683  1.00  0.00     0.023 C 
ENDROOT
BRANCH   1   2
ATOM      2  C   UNL A   1      31.470  28.624  25.431  1.00  0.00     0.023 C 
BRANCH   2   3
ATOM      3  C   UNL A   1      31.567  27.798  24.151  1.00  0.00     0.116 C 
BRANCH   3   4
ATOM      4  N   UNL A   1      32.624  28.272  23.276  1.00  0.00    -0.351 N 
ATOM      5  C   UNL A   1      33.467  27.592  22.429  1.00  0.00     0.271 C 
ATOM      6  O   UNL A   1      34.306  28.250  21.806  1.00  0.00    -0.267 OA
ATOM      7  H   UNL A   1      32.759  29.247  23.292  1.00  0.00     0.163 HD
BRANCH   5   8
ATOM      8  C   UNL A   1      33.434  26.111  22.242  1.00  0.00     0.148 A 
ATOM      9  C   UNL A   1      33.981  23.966  22.927  1.00  0.00     0.148 A 
ATOM     10  C   UNL A   1      33.361  23.496  21.761  1.00  0.00     0.157 A 
ATOM     11  N   UNL A   1      34.002  25.288  23.164  1.00  0.00    -0.222 NA
ATOM     12  N   UNL A   1      32.762  24.284  20.832  1.00  0.00    -0.258 NA
ATOM     13  C   UNL A   1      32.815  25.608  21.105  1.00  0.00     0.145 A 
BRANCH   9  14
ATOM     14  N   UNL A   1      34.571  23.091  23.827  1.00  0.00    -0.343 N 
ATOM     15  C   UNL A   1      34.040  22.888  25.202  1.00  0.00     0.172 C 
ATOM     16  C   UNL A   1      34.868  23.638  26.249  1.00  0.00     0.035 C 
ATOM     17  C   UNL A   1      36.348  23.302  26.113  1.00  0.00     0.004 C 
ATOM     18  C   UNL A   1      36.011  22.861  23.653  1.00  0.00     0.119 C 
ATOM     19  C   UNL A   1      36.823  23.627  24.702  1.00  0.00     0.022 C 
BRANCH  15  20
ATOM     20  C   UNL A   1      32.532  23.159  25.388  1.00  0.00     0.240 C 
ATOM     21  N   UNL A   1      32.214  24.421  25.815  1.00  0.00    -0.368 N 
ATOM     22  H   UNL A   1      31.273  24.670  25.957  1.00  0.00     0.159 HD
ATOM     23  H   UNL A   1      32.928  25.079  25.981  1.00  0.00     0.159 HD
ATOM     24  O   UNL A   1      31.638  22.367  25.106  1.00  0.00    -0.273 OA
ENDBRANCH  15  20
ENDBRANCH   9  14
ENDBRANCH   5   8
ENDBRANCH   3   4
ENDBRANCH   2   3
ENDBRANCH   1   2
BRANCH   1  25
ATOM     25  C   UNL A   1      33.290  28.462  27.254  1.00  0.00     0.116 C 
BRANCH  25  26
ATOM     26  N   UNL A   1      33.253  29.895  27.511  1.00  0.00    -0.352 N 
ATOM     27  C   UNL A   1      34.242  30.705  28.016  1.00  0.00     0.251 C 
ATOM     28  H   UNL A   1      32.405  30.344  27.294  1.00  0.00     0.163 HD
ATOM     29  O   UNL A   1      34.006  31.881  28.279  1.00  0.00    -0.269 OA
BRANCH  27  30
ATOM     30  C   UNL A   1      35.581  30.137  28.277  1.00  0.00     0.039 A 
ATOM     31  C   UNL A   1      36.521  30.119  27.244  1.00  0.00     0.014 A 
ATOM     32  C   UNL A   1      35.919  29.662  29.547  1.00  0.00     0.014 A 
ATOM     33  C   UNL A   1      37.826  29.696  27.506  1.00  0.00     0.010 A 
ATOM     34  C   UNL A   1      37.236  29.306  29.823  1.00  0.00     0.010 A 
ATOM     35  C   UNL A   1      38.205  29.326  28.807  1.00  0.00    -0.014 A 
BRANCH  35  36
ATOM     36  C   UNL A   1      39.609  28.967  29.130  1.00  0.00     0.031 A 
ATOM     37  C   UNL A   1      40.517  29.980  29.771  1.00  0.00     0.074 A 
ATOM     38  C   UNL A   1      40.083  27.750  28.793  1.00  0.00     0.049 A 
ATOM     39  N   UNL A   1      41.793  29.886  30.047  1.00  0.00    -0.248 NA
ATOM     40  C   UNL A   1      39.919  31.277  30.131  1.00  0.00     0.031 C 
ATOM     41  C   UNL A   1      39.315  26.689  28.135  1.00  0.00     0.029 A 
ATOM     42  N   UNL A   1      41.332  27.203  28.947  1.00  0.00    -0.354 N 
ATOM     43  C   UNL A   1      42.151  31.109  30.602  1.00  0.00     0.074 A 
ATOM     44  C   UNL A   1      40.972  31.947  30.580  1.00  0.00     0.031 C 
ATOM     45  C   UNL A   1      40.103  25.615  27.964  1.00  0.00     0.029 A 
ATOM     46  C   UNL A   1      41.440  25.921  28.460  1.00  0.00     0.049 A 
ATOM     47  H   UNL A   1      42.082  27.683  29.369  1.00  0.00     0.167 HD
ATOM     48  C   UNL A   1      43.347  31.492  31.109  1.00  0.00     0.031 A 
ATOM     49  C   UNL A   1      42.500  25.089  28.408  1.00  0.00     0.031 A 
ATOM     50  C   UNL A   1      44.516  30.656  31.144  1.00  0.00     0.049 A 
ATOM     51  C   UNL A   1      43.821  25.550  28.962  1.00  0.00     0.074 A 
ATOM     52  C   UNL A   1      45.768  30.950  31.657  1.00  0.00     0.029 A 
ATOM     53  N   UNL A   1      44.577  29.360  30.658  1.00  0.00    -0.354 N 
ATOM     54  N   UNL A   1      44.128  26.698  29.517  1.00  0.00    -0.248 NA
ATOM     55  C   UNL A   1      44.938  24.596  28.894  1.00  0.00     0.031 C 
ATOM     56  C   UNL A   1      46.595  29.840  31.454  1.00  0.00     0.029 A 
ATOM     57  C   UNL A   1      45.844  28.841  30.857  1.00  0.00     0.049 A 
ATOM     58  H   UNL A   1      43.829  28.879  30.236  1.00  0.00     0.167 HD
ATOM     59  C   UNL A   1      45.463  26.591  29.891  1.00  0.00     0.074 A 
ATOM     60  C   UNL A   1      45.901  25.263  29.514  1.00  0.00     0.031 C 
ATOM     61  C   UNL A   1      46.258  27.511  30.491  1.00  0.00     0.031 A 
BRANCH  48  62
ATOM     62  C   UNL A   1      43.445  32.877  31.689  1.00  0.00    -0.014 A 
ATOM     63  C   UNL A   1      43.193  33.099  33.055  1.00  0.00     0.010 A 
ATOM     64  C   UNL A   1      43.855  33.954  30.883  1.00  0.00     0.010 A 
ATOM     65  C   UNL A   1      43.324  34.378  33.599  1.00  0.00     0.020 A 
ATOM     66  C   UNL A   1      44.012  35.231  31.430  1.00  0.00     0.020 A 
ATOM     67  C   UNL A   1      43.734  35.436  32.783  1.00  0.00     0.054 A 
BRANCH  67  68
ATOM     68  S   UNL A   1      43.944  37.076  33.530  1.00  0.00     0.124 S 
ATOM     69  O   UNL A   1      42.696  37.230  34.275  1.00  0.00    -0.237 OA
ATOM     70  O   UNL A   1      45.145  36.907  34.345  1.00  0.00    -0.237 OA
ATOM     71  O   UNL A   1      44.096  37.965  32.380  1.00  0.00    -0.744 OA
ENDBRANCH  67  68
ENDBRANCH  48  62
BRANCH  49  72
ATOM     72  C   UNL A   1      42.366  23.732  27.811  1.00  0.00    -0.014 A 
ATOM     73  C   UNL A   1      41.978  22.639  28.605  1.00  0.00     0.010 A 
ATOM     74  C   UNL A   1      42.668  23.519  26.453  1.00  0.00     0.010 A 
ATOM     75  C   UNL A   1      41.936  21.350  28.065  1.00  0.00     0.020 A 
ATOM     76  C   UNL A   1      42.598  22.236  25.903  1.00  0.00     0.020 A 
ATOM     77  C   UNL A   1      42.255  21.155  26.718  1.00  0.00     0.054 A 
BRANCH  77  78
ATOM     78  S   UNL A   1      42.193  19.477  26.033  1.00  0.00     0.124 S 
ATOM     79  O   UNL A   1      42.633  18.672  27.168  1.00  0.00    -0.237 OA
ATOM     80  O   UNL A   1      40.787  19.335  25.663  1.00  0.00    -0.237 OA
ATOM     81  O   UNL A   1      43.122  19.536  24.907  1.00  0.00    -0.744 OA
ENDBRANCH  77  78
ENDBRANCH  49  72
BRANCH  61  82
ATOM     82  C   UNL A   1      47.664  27.098  30.826  1.00  0.00    -0.014 A 
ATOM     83  C   UNL A   1      47.955  26.386  32.001  1.00  0.00     0.010 A 
ATOM     84  C   UNL A   1      48.702  27.382  29.918  1.00  0.00     0.010 A 
ATOM     85  C   UNL A   1      49.267  25.991  32.281  1.00  0.00     0.020 A 
ATOM     86  C   UNL A   1      50.010  26.967  30.182  1.00  0.00     0.020 A 
ATOM     87  C   UNL A   1      50.286  26.286  31.369  1.00  0.00     0.054 A 
BRANCH  87  88
ATOM     88  S   UNL A   1      51.972  25.723  31.730  1.00  0.00     0.124 S 
ATOM     89  O   UNL A   1      52.666  26.022  30.480  1.00  0.00    -0.237 OA
ATOM     90  O   UNL A   1      52.351  26.550  32.873  1.00  0.00    -0.237 OA
ATOM     91  O   UNL A   1      51.807  24.302  32.026  1.00  0.00    -0.744 OA
ENDBRANCH  87  88
ENDBRANCH  61  82
ENDBRANCH  35  36
ENDBRANCH  27  30
ENDBRANCH  25  26
ENDBRANCH   1  25
TORSDOF 16
ENDMDL
MODEL 3
REMARK VINA RESULT:     -10.8      2.534      9.239
REMARK SMILES NC(=O)[C@@H]1CCCCN1c1cncc(C(=O)NCCCCNC(=O)c2ccc(-c3c4nc(c(-c5ccc(S(=O)(=O)[O-])cc5)c5ccc([nH]5)c(-c5ccc(S(=O)(=O)[O-])cc5)c5nc(c(-c6ccc(S(=O)(=O)[O-])cc6)c6ccc3[nH]6)C=C5)C=C4)cc2)n1
REMARK SMILES IDX 20 1 19 2 18 3 17 4 15 5 16 6 14 8 10 9 11 10 85 11 12 12
REMARK SMILES IDX 13 13 9 14 4 15 5 16 6 17 8 18 7 19 2 20 1 21 3 24 21 25
REMARK SMILES IDX 22 26 23 27 24 29 25 30 26 31 84 32 27 33 83 34 28 35 29 36
REMARK SMILES IDX 30 37 77 38 31 39 82 40 76 41 78 42 32 43 81 44 75 45 74 46
REMARK SMILES IDX 33 48 63 49 44 50 62 51 45 52 48 53 61 54 79 55 46 56 47 57
REMARK SMILES IDX 60 59 80 60 49 61 34 62 35 63 43 64 36 65 42 66 37 67 38 68
REMARK SMILES IDX 39 69 40 70 41 71 64 72 65 73 73 74 66 75 72 76 67 77 68 78
REMARK SMILES IDX 69 79 70 80 71 81 50 82 51 83 59 84 52 85 58 86 53 87 54 88
REMARK SMILES IDX 55 89 56 90 57 91
REMARK H PARENT 17 7 1 22 1 23 22 28 78 47 48 58
REMARK Flexibility Score: inf
ROOT
ATOM      1  C   UNL A   1      35.800  23.492  26.078  1.00  0.00     0.023 C 
ENDROOT
BRANCH   1   2
ATOM      2  C   UNL A   1      35.473  22.075  26.547  1.00  0.00     0.023 C 
BRANCH   2   3
ATOM      3  C   UNL A   1      34.143  21.944  27.284  1.00  0.00     0.116 C 
BRANCH   3   4
ATOM      4  N   UNL A   1      33.191  21.131  26.550  1.00  0.00    -0.351 N 
ATOM      5  C   UNL A   1      32.462  21.398  25.415  1.00  0.00     0.271 C 
ATOM      6  O   UNL A   1      31.694  20.521  25.008  1.00  0.00    -0.267 OA
ATOM      7  H   UNL A   1      33.041  20.235  26.931  1.00  0.00     0.163 HD
BRANCH   5   8
ATOM      8  C   UNL A   1      32.537  22.688  24.668  1.00  0.00     0.148 A 
ATOM      9  C   UNL A   1      32.453  25.003  24.602  1.00  0.00     0.148 A 
ATOM     10  C   UNL A   1      32.628  24.913  23.213  1.00  0.00     0.157 A 
ATOM     11  N   UNL A   1      32.419  23.873  25.326  1.00  0.00    -0.222 NA
ATOM     12  N   UNL A   1      32.774  23.752  22.525  1.00  0.00    -0.258 NA
ATOM     13  C   UNL A   1      32.725  22.639  23.293  1.00  0.00     0.145 A 
BRANCH   9  14
ATOM     14  N   UNL A   1      32.311  26.232  25.228  1.00  0.00    -0.343 N 
ATOM     15  C   UNL A   1      31.022  26.975  25.236  1.00  0.00     0.172 C 
ATOM     16  C   UNL A   1      31.019  28.122  24.221  1.00  0.00     0.035 C 
ATOM     17  C   UNL A   1      32.238  29.017  24.409  1.00  0.00     0.004 C 
ATOM     18  C   UNL A   1      33.526  27.051  25.324  1.00  0.00     0.119 C 
ATOM     19  C   UNL A   1      33.510  28.185  24.295  1.00  0.00     0.022 C 
BRANCH  15  20
ATOM     20  C   UNL A   1      29.748  26.115  25.105  1.00  0.00     0.240 C 
ATOM     21  N   UNL A   1      29.477  25.306  26.177  1.00  0.00    -0.368 N 
ATOM     22  H   UNL A   1      28.682  24.727  26.168  1.00  0.00     0.159 HD
ATOM     23  H   UNL A   1      30.079  25.305  26.957  1.00  0.00     0.159 HD
ATOM     24  O   UNL A   1      28.954  26.174  24.170  1.00  0.00    -0.273 OA
ENDBRANCH  15  20
ENDBRANCH   9  14
ENDBRANCH   5   8
ENDBRANCH   3   4
ENDBRANCH   2   3
ENDBRANCH   1   2
BRANCH   1  25
ATOM     25  C   UNL A   1      36.997  23.609  25.138  1.00  0.00     0.116 C 
BRANCH  25  26
ATOM     26  N   UNL A   1      38.066  22.667  25.440  1.00  0.00    -0.352 N 
ATOM     27  C   UNL A   1      39.240  22.886  26.120  1.00  0.00     0.251 C 
ATOM     28  H   UNL A   1      37.929  21.749  25.113  1.00  0.00     0.163 HD
ATOM     29  O   UNL A   1      40.091  22.004  26.189  1.00  0.00    -0.269 OA
BRANCH  27  30
ATOM     30  C   UNL A   1      39.486  24.208  26.734  1.00  0.00     0.039 A 
ATOM     31  C   UNL A   1      39.054  24.436  28.043  1.00  0.00     0.014 A 
ATOM     32  C   UNL A   1      40.175  25.202  26.035  1.00  0.00     0.014 A 
ATOM     33  C   UNL A   1      39.383  25.636  28.678  1.00  0.00     0.010 A 
ATOM     34  C   UNL A   1      40.560  26.368  26.691  1.00  0.00     0.010 A 
ATOM     35  C   UNL A   1      40.175  26.593  28.022  1.00  0.00    -0.014 A 
BRANCH  35  36
ATOM     36  C   UNL A   1      40.618  27.832  28.710  1.00  0.00     0.031 A 
ATOM     37  C   UNL A   1      41.998  27.910  29.304  1.00  0.00     0.074 A 
ATOM     38  C   UNL A   1      39.760  28.863  28.853  1.00  0.00     0.049 A 
ATOM     39  N   UNL A   1      42.535  28.867  30.018  1.00  0.00    -0.248 NA
ATOM     40  C   UNL A   1      42.883  26.754  29.086  1.00  0.00     0.031 C 
ATOM     41  C   UNL A   1      38.383  28.899  28.353  1.00  0.00     0.029 A 
ATOM     42  N   UNL A   1      39.917  30.078  29.471  1.00  0.00    -0.354 N 
ATOM     43  C   UNL A   1      43.813  28.425  30.340  1.00  0.00     0.074 A 
ATOM     44  C   UNL A   1      43.956  27.096  29.788  1.00  0.00     0.031 C 
ATOM     45  C   UNL A   1      37.831  30.084  28.666  1.00  0.00     0.029 A 
ATOM     46  C   UNL A   1      38.796  30.874  29.421  1.00  0.00     0.049 A 
ATOM     47  H   UNL A   1      40.755  30.355  29.909  1.00  0.00     0.167 HD
ATOM     48  C   UNL A   1      44.790  29.078  31.013  1.00  0.00     0.031 A 
ATOM     49  C   UNL A   1      38.568  32.099  29.936  1.00  0.00     0.031 A 
ATOM     50  C   UNL A   1      44.656  30.404  31.552  1.00  0.00     0.049 A 
ATOM     51  C   UNL A   1      39.667  32.792  30.696  1.00  0.00     0.074 A 
ATOM     52  C   UNL A   1      45.598  31.156  32.232  1.00  0.00     0.029 A 
ATOM     53  N   UNL A   1      43.512  31.181  31.463  1.00  0.00    -0.354 N 
ATOM     54  N   UNL A   1      40.881  32.371  30.957  1.00  0.00    -0.248 NA
ATOM     55  C   UNL A   1      39.368  34.133  31.221  1.00  0.00     0.031 C 
ATOM     56  C   UNL A   1      45.014  32.379  32.580  1.00  0.00     0.029 A 
ATOM     57  C   UNL A   1      43.724  32.403  32.077  1.00  0.00     0.049 A 
ATOM     58  H   UNL A   1      42.673  30.906  31.026  1.00  0.00     0.167 HD
ATOM     59  C   UNL A   1      41.499  33.407  31.648  1.00  0.00     0.074 A 
ATOM     60  C   UNL A   1      40.532  34.480  31.752  1.00  0.00     0.031 C 
ATOM     61  C   UNL A   1      42.755  33.466  32.155  1.00  0.00     0.031 A 
BRANCH  48  62
ATOM     62  C   UNL A   1      46.107  28.370  31.188  1.00  0.00    -0.014 A 
ATOM     63  C   UNL A   1      47.138  28.535  30.245  1.00  0.00     0.010 A 
ATOM     64  C   UNL A   1      46.343  27.588  32.332  1.00  0.00     0.010 A 
ATOM     65  C   UNL A   1      48.372  27.909  30.430  1.00  0.00     0.020 A 
ATOM     66  C   UNL A   1      47.586  26.980  32.534  1.00  0.00     0.020 A 
ATOM     67  C   UNL A   1      48.589  27.136  31.575  1.00  0.00     0.054 A 
BRANCH  67  68
ATOM     68  S   UNL A   1      50.220  26.377  31.812  1.00  0.00     0.124 S 
ATOM     69  O   UNL A   1      51.051  27.159  30.901  1.00  0.00    -0.237 OA
ATOM     70  O   UNL A   1      50.471  26.592  33.235  1.00  0.00    -0.237 OA
ATOM     71  O   UNL A   1      50.012  24.983  31.424  1.00  0.00    -0.744 OA
ENDBRANCH  67  68
ENDBRANCH  48  62
BRANCH  49  72
ATOM     72  C   UNL A   1      37.246  32.760  29.755  1.00  0.00    -0.014 A 
ATOM     73  C   UNL A   1      36.951  33.451  28.568  1.00  0.00     0.010 A 
ATOM     74  C   UNL A   1      36.292  32.735  30.788  1.00  0.00     0.010 A 
ATOM     75  C   UNL A   1      35.745  34.144  28.432  1.00  0.00     0.020 A 
ATOM     76  C   UNL A   1      35.072  33.402  30.644  1.00  0.00     0.020 A 
ATOM     77  C   UNL A   1      34.815  34.123  29.476  1.00  0.00     0.054 A 
BRANCH  77  78
ATOM     78  S   UNL A   1      33.253  35.024  29.282  1.00  0.00     0.124 S 
ATOM     79  O   UNL A   1      33.716  36.333  28.831  1.00  0.00    -0.237 OA
ATOM     80  O   UNL A   1      32.544  34.225  28.286  1.00  0.00    -0.237 OA
ATOM     81  O   UNL A   1      32.674  34.990  30.623  1.00  0.00    -0.744 OA
ENDBRANCH  77  78
ENDBRANCH  49  72
BRANCH  61  82
ATOM     82  C   UNL A   1      43.174  34.748  32.820  1.00  0.00    -0.014 A 
ATOM     83  C   UNL A   1      43.637  35.842  32.070  1.00  0.00     0.010 A 
ATOM     84  C   UNL A   1      43.049  34.875  34.217  1.00  0.00     0.010 A 
ATOM     85  C   UNL A   1      43.998  37.032  32.707  1.00  0.00     0.020 A 
ATOM     86  C   UNL A   1      43.386  36.071  34.854  1.00  0.00     0.020 A 
ATOM     87  C   UNL A   1      43.872  37.138  34.096  1.00  0.00     0.054 A 
BRANCH  87  88
ATOM     88  S   UNL A   1      44.302  38.708  34.896  1.00  0.00     0.124 S 
ATOM     89  O   UNL A   1      43.937  38.450  36.287  1.00  0.00    -0.237 OA
ATOM     90  O   UNL A   1      45.734  38.822  34.634  1.00  0.00    -0.237 OA
ATOM     91  O   UNL A   1      43.469  39.689  34.205  1.00  0.00    -0.744 OA
ENDBRANCH  87  88
ENDBRANCH  61  82
ENDBRANCH  35  36
ENDBRANCH  27  30
ENDBRANCH  25  26
ENDBRANCH   1  25
TORSDOF 16
ENDMDL
