MODEL 1
REMARK VINA RESULT:     -13.9      0.000      0.000
REMARK SMILES Cc1ccc(NC(=O)[C@H]2CC(Cl)=CC[C@@H]2C(=O)NCCCCNC(=O)c2ccc(-c3c4nc(c(-c5ccc(S(=O)(=O)[O-])cc5)c5ccc([nH]5)c(-c5ccc(S(=O)(=O)[O-])cc5)c5nc(c(-c6ccc(S(=O)(=O)[O-])cc6)c6ccc3[nH]6)C=C5)C=C4)cc2)cc1[N+](=O)[O-]
REMARK SMILES IDX 20 1 19 2 18 3 16 4 17 5 15 7 9 8 10 9 11 10 14 11 12 12
REMARK SMILES IDX 13 13 7 14 6 15 8 17 5 18 1 19 2 20 3 21 87 22 4 23 86 24
REMARK SMILES IDX 88 25 89 26 90 27 21 28 22 29 23 30 24 31 25 33 26 34 27 35
REMARK SMILES IDX 85 36 28 37 84 38 29 39 30 40 31 41 78 42 32 43 83 44 77 45
REMARK SMILES IDX 79 46 33 47 82 48 76 49 75 50 34 52 64 53 45 54 63 55 46 56
REMARK SMILES IDX 49 57 62 58 80 59 47 60 48 61 61 63 81 64 50 65 35 66 36 67
REMARK SMILES IDX 44 68 37 69 43 70 38 71 39 72 40 73 41 74 42 75 65 76 66 77
REMARK SMILES IDX 74 78 67 79 73 80 68 81 69 82 70 83 71 84 72 85 51 86 52 87
REMARK SMILES IDX 60 88 53 89 59 90 54 91 55 92 56 93 57 94 58 95
REMARK H PARENT 18 6 6 16 23 32 79 51 49 62
REMARK Flexibility Score: inf
ROOT
ATOM      1  C   UNL A   1      32.142  29.940  27.042  1.00  0.00     0.023 C 
ENDROOT
BRANCH   1   2
ATOM      2  C   UNL A   1      32.394  28.559  27.657  1.00  0.00     0.116 C 
BRANCH   2   3
ATOM      3  N   UNL A   1      31.416  27.547  27.276  1.00  0.00    -0.356 N 
ATOM      4  C   UNL A   1      31.514  26.347  26.651  1.00  0.00     0.224 C 
ATOM      5  O   UNL A   1      30.483  25.674  26.558  1.00  0.00    -0.275 OA
ATOM      6  H   UNL A   1      30.492  27.784  27.524  1.00  0.00     0.163 HD
BRANCH   4   7
ATOM      7  C   UNL A   1      32.823  25.841  26.046  1.00  0.00     0.095 C 
ATOM      8  C   UNL A   1      32.831  26.134  24.526  1.00  0.00     0.097 C 
ATOM      9  C   UNL A   1      33.992  25.407  23.818  1.00  0.00     0.062 C 
ATOM     10  C   UNL A   1      33.958  23.941  24.093  1.00  0.00     0.015 C 
ATOM     11  C   UNL A   1      32.897  24.306  26.326  1.00  0.00     0.043 C 
ATOM     12  Cl  UNL A   1      34.548  22.905  22.848  1.00  0.00    -0.089 Cl
ATOM     13  C   UNL A   1      33.460  23.443  25.229  1.00  0.00    -0.010 C 
BRANCH   8  14
ATOM     14  C   UNL A   1      32.983  27.614  24.214  1.00  0.00     0.228 C 
ATOM     15  N   UNL A   1      31.977  28.409  23.750  1.00  0.00    -0.326 N 
ATOM     16  H   UNL A   1      32.261  29.338  23.592  1.00  0.00     0.169 HD
ATOM     17  O   UNL A   1      34.062  28.176  24.447  1.00  0.00    -0.274 OA
BRANCH  15  18
ATOM     18  C   UNL A   1      30.622  28.189  23.449  1.00  0.00     0.048 A 
ATOM     19  C   UNL A   1      26.302  28.033  23.562  1.00  0.00     0.052 C 
ATOM     20  C   UNL A   1      27.787  28.106  23.369  1.00  0.00     0.027 A 
ATOM     21  C   UNL A   1      28.540  26.949  23.593  1.00  0.00     0.012 A 
ATOM     22  C   UNL A   1      28.495  29.271  23.048  1.00  0.00     0.274 A 
ATOM     23  C   UNL A   1      29.940  26.989  23.611  1.00  0.00     0.027 A 
ATOM     24  C   UNL A   1      29.898  29.303  23.024  1.00  0.00     0.112 A 
BRANCH  22  25
ATOM     25  N   UNL A   1      27.809  30.530  22.816  1.00  0.00     0.063 N 
ATOM     26  O   UNL A   1      27.768  30.933  21.647  1.00  0.00    -0.258 OA
ATOM     27  O   UNL A   1      27.327  31.105  23.801  1.00  0.00    -0.258 OA
ENDBRANCH  22  25
ENDBRANCH  15  18
ENDBRANCH   8  14
ENDBRANCH   4   7
ENDBRANCH   2   3
ENDBRANCH   1   2
BRANCH   1  28
ATOM     28  C   UNL A   1      33.273  30.962  27.167  1.00  0.00     0.023 C 
BRANCH  28  29
ATOM     29  C   UNL A   1      34.644  30.409  27.538  1.00  0.00     0.116 C 
BRANCH  29  30
ATOM     30  N   UNL A   1      35.361  31.316  28.442  1.00  0.00    -0.352 N 
ATOM     31  C   UNL A   1      36.553  31.106  29.125  1.00  0.00     0.251 C 
ATOM     32  H   UNL A   1      34.940  32.194  28.584  1.00  0.00     0.163 HD
ATOM     33  O   UNL A   1      37.040  31.884  29.908  1.00  0.00    -0.269 OA
BRANCH  31  34
ATOM     34  C   UNL A   1      37.255  29.861  28.766  1.00  0.00     0.039 A 
ATOM     35  C   UNL A   1      37.453  28.948  29.808  1.00  0.00     0.014 A 
ATOM     36  C   UNL A   1      38.060  29.886  27.631  1.00  0.00     0.014 A 
ATOM     37  C   UNL A   1      38.618  28.196  29.820  1.00  0.00     0.010 A 
ATOM     38  C   UNL A   1      39.251  29.191  27.683  1.00  0.00     0.010 A 
ATOM     39  C   UNL A   1      39.560  28.418  28.813  1.00  0.00    -0.014 A 
BRANCH  39  40
ATOM     40  C   UNL A   1      40.929  27.928  28.905  1.00  0.00     0.031 A 
ATOM     41  C   UNL A   1      41.185  26.518  28.524  1.00  0.00     0.074 A 
ATOM     42  C   UNL A   1      41.936  28.739  29.313  1.00  0.00     0.049 A 
ATOM     43  N   UNL A   1      42.189  25.821  28.931  1.00  0.00    -0.248 NA
ATOM     44  C   UNL A   1      40.260  25.753  27.690  1.00  0.00     0.031 C 
ATOM     45  C   UNL A   1      43.365  28.423  29.285  1.00  0.00     0.029 A 
ATOM     46  N   UNL A   1      41.896  29.949  30.018  1.00  0.00    -0.354 N 
ATOM     47  C   UNL A   1      42.201  24.644  28.214  1.00  0.00     0.074 A 
ATOM     48  C   UNL A   1      40.934  24.613  27.525  1.00  0.00     0.031 C 
ATOM     49  C   UNL A   1      43.991  29.186  30.195  1.00  0.00     0.029 A 
ATOM     50  C   UNL A   1      42.960  29.893  30.934  1.00  0.00     0.049 A 
ATOM     51  H   UNL A   1      41.256  30.687  29.896  1.00  0.00     0.167 HD
ATOM     52  C   UNL A   1      43.338  23.893  28.186  1.00  0.00     0.031 A 
ATOM     53  C   UNL A   1      42.817  29.848  32.294  1.00  0.00     0.031 A 
ATOM     54  C   UNL A   1      44.330  24.408  29.128  1.00  0.00     0.049 A 
ATOM     55  C   UNL A   1      43.445  28.608  32.923  1.00  0.00     0.074 A 
ATOM     56  C   UNL A   1      45.448  25.213  28.985  1.00  0.00     0.029 A 
ATOM     57  N   UNL A   1      44.041  24.378  30.488  1.00  0.00    -0.354 N 
ATOM     58  N   UNL A   1      43.798  27.550  32.243  1.00  0.00    -0.248 NA
ATOM     59  C   UNL A   1      43.701  28.445  34.353  1.00  0.00     0.031 C 
ATOM     60  C   UNL A   1      45.764  25.753  30.264  1.00  0.00     0.029 A 
ATOM     61  C   UNL A   1      44.867  25.239  31.185  1.00  0.00     0.049 A 
ATOM     62  H   UNL A   1      43.343  23.818  30.899  1.00  0.00     0.167 HD
ATOM     63  C   UNL A   1      44.306  26.593  33.085  1.00  0.00     0.074 A 
ATOM     64  C   UNL A   1      44.238  27.211  34.398  1.00  0.00     0.031 C 
ATOM     65  C   UNL A   1      44.729  25.374  32.632  1.00  0.00     0.031 A 
BRANCH  52  66
ATOM     66  C   UNL A   1      43.639  22.869  27.110  1.00  0.00    -0.014 A 
ATOM     67  C   UNL A   1      42.843  21.708  27.011  1.00  0.00     0.010 A 
ATOM     68  C   UNL A   1      44.730  22.941  26.223  1.00  0.00     0.010 A 
ATOM     69  C   UNL A   1      43.174  20.649  26.147  1.00  0.00     0.020 A 
ATOM     70  C   UNL A   1      45.094  21.880  25.381  1.00  0.00     0.020 A 
ATOM     71  C   UNL A   1      44.317  20.731  25.356  1.00  0.00     0.054 A 
BRANCH  71  72
ATOM     72  S   UNL A   1      44.781  19.332  24.303  1.00  0.00     0.124 S 
ATOM     73  O   UNL A   1      46.216  19.211  24.552  1.00  0.00    -0.237 OA
ATOM     74  O   UNL A   1      43.955  18.252  24.834  1.00  0.00    -0.237 OA
ATOM     75  O   UNL A   1      44.427  19.777  22.956  1.00  0.00    -0.744 OA
ENDBRANCH  71  72
ENDBRANCH  52  66
BRANCH  53  76
ATOM     76  C   UNL A   1      41.632  30.579  32.825  1.00  0.00    -0.014 A 
ATOM     77  C   UNL A   1      40.398  29.895  32.849  1.00  0.00     0.010 A 
ATOM     78  C   UNL A   1      41.784  31.723  33.625  1.00  0.00     0.010 A 
ATOM     79  C   UNL A   1      39.402  30.243  33.767  1.00  0.00     0.020 A 
ATOM     80  C   UNL A   1      40.785  32.078  34.545  1.00  0.00     0.020 A 
ATOM     81  C   UNL A   1      39.626  31.301  34.648  1.00  0.00     0.054 A 
BRANCH  81  82
ATOM     82  S   UNL A   1      38.465  31.525  36.031  1.00  0.00     0.124 S 
ATOM     83  O   UNL A   1      38.371  30.175  36.576  1.00  0.00    -0.237 OA
ATOM     84  O   UNL A   1      39.170  32.491  36.874  1.00  0.00    -0.237 OA
ATOM     85  O   UNL A   1      37.264  32.034  35.378  1.00  0.00    -0.744 OA
ENDBRANCH  81  82
ENDBRANCH  53  76
BRANCH  65  86
ATOM     86  C   UNL A   1      45.114  24.182  33.485  1.00  0.00    -0.014 A 
ATOM     87  C   UNL A   1      44.312  23.047  33.676  1.00  0.00     0.010 A 
ATOM     88  C   UNL A   1      46.425  24.131  34.027  1.00  0.00     0.010 A 
ATOM     89  C   UNL A   1      44.773  21.942  34.412  1.00  0.00     0.020 A 
ATOM     90  C   UNL A   1      46.911  23.018  34.717  1.00  0.00     0.020 A 
ATOM     91  C   UNL A   1      46.069  21.935  34.927  1.00  0.00     0.054 A 
BRANCH  91  92
ATOM     92  S   UNL A   1      46.681  20.475  35.807  1.00  0.00     0.124 S 
ATOM     93  O   UNL A   1      47.549  19.863  34.804  1.00  0.00    -0.237 OA
ATOM     94  O   UNL A   1      47.369  21.052  36.961  1.00  0.00    -0.237 OA
ATOM     95  O   UNL A   1      45.465  19.731  36.125  1.00  0.00    -0.744 OA
ENDBRANCH  91  92
ENDBRANCH  65  86
ENDBRANCH  39  40
ENDBRANCH  31  34
ENDBRANCH  29  30
ENDBRANCH  28  29
ENDBRANCH   1  28
TORSDOF 17
ENDMDL
MODEL 2
REMARK VINA RESULT:     -13.4      1.884      3.558
REMARK SMILES Cc1ccc(NC(=O)[C@H]2CC(Cl)=CC[C@@H]2C(=O)NCCCCNC(=O)c2ccc(-c3c4nc(c(-c5ccc(S(=O)(=O)[O-])cc5)c5ccc([nH]5)c(-c5ccc(S(=O)(=O)[O-])cc5)c5nc(c(-c6ccc(S(=O)(=O)[O-])cc6)c6ccc3[nH]6)C=C5)C=C4)cc2)cc1[N+](=O)[O-]
REMARK SMILES IDX 20 1 19 2 18 3 16 4 17 5 15 7 9 8 10 9 11 10 14 11 12 12
REMARK SMILES IDX 13 13 7 14 6 15 8 17 5 18 1 19 2 20 3 21 87 22 4 23 86 24
REMARK SMILES IDX 88 25 89 26 90 27 21 28 22 29 23 30 24 31 25 33 26 34 27 35
REMARK SMILES IDX 85 36 28 37 84 38 29 39 30 40 31 41 78 42 32 43 83 44 77 45
REMARK SMILES IDX 79 46 33 47 82 48 76 49 75 50 34 52 64 53 45 54 63 55 46 56
REMARK SMILES IDX 49 57 62 58 80 59 47 60 48 61 61 63 81 64 50 65 35 66 36 67
REMARK SMILES IDX 44 68 37 69 43 70 38 71 39 72 40 73 41 74 42 75 65 76 66 77
REMARK SMILES IDX 74 78 67 79 73 80 68 81 69 82 70 83 71 84 72 85 51 86 52 87
REMARK SMILES IDX 60 88 53 89 59 90 54 91 55 92 56 93 57 94 58 95
REMARK H PARENT 18 6 6 16 23 32 79 51 49 62
REMARK Flexibility Score: inf
ROOT
ATOM      1  C   UNL A   1      32.197  30.734  26.109  1.00  0.00     0.023 C 
ENDROOT
BRANCH   1   2
ATOM      2  C   UNL A   1      31.799  29.597  25.161  1.00  0.00     0.116 C 
BRANCH   2   3
ATOM      3  N   UNL A   1      32.789  29.304  24.131  1.00  0.00    -0.356 N 
ATOM      4  C   UNL A   1      33.316  28.150  23.649  1.00  0.00     0.224 C 
ATOM      5  O   UNL A   1      34.086  28.240  22.688  1.00  0.00    -0.275 OA
ATOM      6  H   UNL A   1      33.149  30.109  23.693  1.00  0.00     0.163 HD
BRANCH   4   7
ATOM      7  C   UNL A   1      33.019  26.787  24.273  1.00  0.00     0.095 C 
ATOM      8  C   UNL A   1      31.696  26.234  23.688  1.00  0.00     0.097 C 
ATOM      9  C   UNL A   1      31.205  25.002  24.474  1.00  0.00     0.062 C 
ATOM     10  C   UNL A   1      31.075  25.306  25.929  1.00  0.00     0.015 C 
ATOM     11  C   UNL A   1      32.908  27.000  25.816  1.00  0.00     0.043 C 
ATOM     12  Cl  UNL A   1      29.841  24.466  26.790  1.00  0.00    -0.089 Cl
ATOM     13  C   UNL A   1      31.846  26.213  26.536  1.00  0.00    -0.010 C 
BRANCH   8  14
ATOM     14  C   UNL A   1      31.831  25.805  22.236  1.00  0.00     0.228 C 
ATOM     15  N   UNL A   1      32.549  24.724  21.818  1.00  0.00    -0.326 N 
ATOM     16  H   UNL A   1      32.535  24.606  20.841  1.00  0.00     0.169 HD
ATOM     17  O   UNL A   1      31.209  26.421  21.360  1.00  0.00    -0.274 OA
BRANCH  15  18
ATOM     18  C   UNL A   1      33.304  23.741  22.481  1.00  0.00     0.048 A 
ATOM     19  C   UNL A   1      34.976  21.059  25.432  1.00  0.00     0.052 C 
ATOM     20  C   UNL A   1      34.419  21.876  24.305  1.00  0.00     0.027 A 
ATOM     21  C   UNL A   1      35.144  22.992  23.875  1.00  0.00     0.012 A 
ATOM     22  C   UNL A   1      33.182  21.648  23.689  1.00  0.00     0.274 A 
ATOM     23  C   UNL A   1      34.599  23.900  22.958  1.00  0.00     0.027 A 
ATOM     24  C   UNL A   1      32.653  22.534  22.738  1.00  0.00     0.112 A 
BRANCH  22  25
ATOM     25  N   UNL A   1      32.342  20.528  24.075  1.00  0.00     0.063 N 
ATOM     26  O   UNL A   1      31.701  20.650  25.126  1.00  0.00    -0.258 OA
ATOM     27  O   UNL A   1      32.338  19.537  23.333  1.00  0.00    -0.258 OA
ENDBRANCH  22  25
ENDBRANCH  15  18
ENDBRANCH   8  14
ENDBRANCH   4   7
ENDBRANCH   2   3
ENDBRANCH   1   2
BRANCH   1  28
ATOM     28  C   UNL A   1      32.977  30.337  27.363  1.00  0.00     0.023 C 
BRANCH  28  29
ATOM     29  C   UNL A   1      34.481  30.159  27.195  1.00  0.00     0.116 C 
BRANCH  29  30
ATOM     30  N   UNL A   1      35.229  31.189  27.927  1.00  0.00    -0.352 N 
ATOM     31  C   UNL A   1      36.455  31.086  28.571  1.00  0.00     0.251 C 
ATOM     32  H   UNL A   1      34.801  32.075  27.967  1.00  0.00     0.163 HD
ATOM     33  O   UNL A   1      36.968  31.969  29.212  1.00  0.00    -0.269 OA
BRANCH  31  34
ATOM     34  C   UNL A   1      37.158  29.809  28.353  1.00  0.00     0.039 A 
ATOM     35  C   UNL A   1      37.331  29.005  29.485  1.00  0.00     0.014 A 
ATOM     36  C   UNL A   1      37.985  29.717  27.237  1.00  0.00     0.014 A 
ATOM     37  C   UNL A   1      38.492  28.254  29.595  1.00  0.00     0.010 A 
ATOM     38  C   UNL A   1      39.171  29.027  27.381  1.00  0.00     0.010 A 
ATOM     39  C   UNL A   1      39.454  28.371  28.589  1.00  0.00    -0.014 A 
BRANCH  39  40
ATOM     40  C   UNL A   1      40.818  27.888  28.756  1.00  0.00     0.031 A 
ATOM     41  C   UNL A   1      41.107  26.486  28.372  1.00  0.00     0.074 A 
ATOM     42  C   UNL A   1      41.794  28.700  29.235  1.00  0.00     0.049 A 
ATOM     43  N   UNL A   1      42.090  25.789  28.829  1.00  0.00    -0.248 NA
ATOM     44  C   UNL A   1      40.239  25.726  27.474  1.00  0.00     0.031 C 
ATOM     45  C   UNL A   1      43.224  28.393  29.289  1.00  0.00     0.029 A 
ATOM     46  N   UNL A   1      41.703  29.900  29.954  1.00  0.00    -0.354 N 
ATOM     47  C   UNL A   1      42.153  24.623  28.098  1.00  0.00     0.074 A 
ATOM     48  C   UNL A   1      40.931  24.593  27.334  1.00  0.00     0.031 C 
ATOM     49  C   UNL A   1      43.789  29.147  30.245  1.00  0.00     0.029 A 
ATOM     50  C   UNL A   1      42.710  29.838  30.931  1.00  0.00     0.049 A 
ATOM     51  H   UNL A   1      41.066  30.635  29.803  1.00  0.00     0.167 HD
ATOM     52  C   UNL A   1      43.295  23.879  28.129  1.00  0.00     0.031 A 
ATOM     53  C   UNL A   1      42.486  29.772  32.279  1.00  0.00     0.031 A 
ATOM     54  C   UNL A   1      44.225  24.388  29.136  1.00  0.00     0.049 A 
ATOM     55  C   UNL A   1      43.084  28.528  32.927  1.00  0.00     0.074 A 
ATOM     56  C   UNL A   1      45.344  25.201  29.071  1.00  0.00     0.029 A 
ATOM     57  N   UNL A   1      43.855  24.336  30.475  1.00  0.00    -0.354 N 
ATOM     58  N   UNL A   1      43.485  27.482  32.255  1.00  0.00    -0.248 NA
ATOM     59  C   UNL A   1      43.255  28.346  34.368  1.00  0.00     0.031 C 
ATOM     60  C   UNL A   1      45.579  25.725  30.374  1.00  0.00     0.029 A 
ATOM     61  C   UNL A   1      44.632  25.193  31.232  1.00  0.00     0.049 A 
ATOM     62  H   UNL A   1      43.138  23.766  30.835  1.00  0.00     0.167 HD
ATOM     63  C   UNL A   1      43.948  26.516  33.113  1.00  0.00     0.074 A 
ATOM     64  C   UNL A   1      43.797  27.115  34.428  1.00  0.00     0.031 C 
ATOM     65  C   UNL A   1      44.406  25.306  32.670  1.00  0.00     0.031 A 
BRANCH  52  66
ATOM     66  C   UNL A   1      43.667  22.872  27.058  1.00  0.00    -0.014 A 
ATOM     67  C   UNL A   1      42.815  21.777  26.805  1.00  0.00     0.010 A 
ATOM     68  C   UNL A   1      44.870  22.894  26.327  1.00  0.00     0.010 A 
ATOM     69  C   UNL A   1      43.186  20.726  25.949  1.00  0.00     0.020 A 
ATOM     70  C   UNL A   1      45.271  21.838  25.495  1.00  0.00     0.020 A 
ATOM     71  C   UNL A   1      44.428  20.750  25.319  1.00  0.00     0.054 A 
BRANCH  71  72
ATOM     72  S   UNL A   1      44.933  19.357  24.278  1.00  0.00     0.124 S 
ATOM     73  O   UNL A   1      44.201  18.239  24.868  1.00  0.00    -0.237 OA
ATOM     74  O   UNL A   1      44.485  19.776  22.953  1.00  0.00    -0.237 OA
ATOM     75  O   UNL A   1      46.384  19.301  24.451  1.00  0.00    -0.744 OA
ENDBRANCH  71  72
ENDBRANCH  52  66
BRANCH  53  76
ATOM     76  C   UNL A   1      41.266  30.489  32.747  1.00  0.00    -0.014 A 
ATOM     77  C   UNL A   1      40.169  29.706  33.168  1.00  0.00     0.010 A 
ATOM     78  C   UNL A   1      41.321  31.837  33.136  1.00  0.00     0.010 A 
ATOM     79  C   UNL A   1      39.241  30.208  34.086  1.00  0.00     0.020 A 
ATOM     80  C   UNL A   1      40.388  32.344  34.054  1.00  0.00     0.020 A 
ATOM     81  C   UNL A   1      39.389  31.509  34.565  1.00  0.00     0.054 A 
BRANCH  81  82
ATOM     82  S   UNL A   1      38.370  32.021  35.983  1.00  0.00     0.124 S 
ATOM     83  O   UNL A   1      37.428  32.949  35.367  1.00  0.00    -0.237 OA
ATOM     84  O   UNL A   1      37.796  30.751  36.427  1.00  0.00    -0.237 OA
ATOM     85  O   UNL A   1      39.343  32.613  36.895  1.00  0.00    -0.744 OA
ENDBRANCH  81  82
ENDBRANCH  53  76
BRANCH  65  86
ATOM     86  C   UNL A   1      44.748  24.104  33.527  1.00  0.00    -0.014 A 
ATOM     87  C   UNL A   1      43.920  22.984  33.695  1.00  0.00     0.010 A 
ATOM     88  C   UNL A   1      46.044  24.028  34.102  1.00  0.00     0.010 A 
ATOM     89  C   UNL A   1      44.343  21.869  34.438  1.00  0.00     0.020 A 
ATOM     90  C   UNL A   1      46.492  22.905  34.801  1.00  0.00     0.020 A 
ATOM     91  C   UNL A   1      45.625  21.836  34.986  1.00  0.00     0.054 A 
BRANCH  91  92
ATOM     92  S   UNL A   1      46.188  20.362  35.875  1.00  0.00     0.124 S 
ATOM     93  O   UNL A   1      47.629  20.402  35.640  1.00  0.00    -0.237 OA
ATOM     94  O   UNL A   1      45.771  20.631  37.251  1.00  0.00    -0.237 OA
ATOM     95  O   UNL A   1      45.473  19.272  35.218  1.00  0.00    -0.744 OA
ENDBRANCH  91  92
ENDBRANCH  65  86
ENDBRANCH  39  40
ENDBRANCH  31  34
ENDBRANCH  29  30
ENDBRANCH  28  29
ENDBRANCH   1  28
TORSDOF 17
ENDMDL
MODEL 3
REMARK VINA RESULT:     -11.5      1.861      3.272
REMARK SMILES Cc1ccc(NC(=O)[C@H]2CC(Cl)=CC[C@@H]2C(=O)NCCCCNC(=O)c2ccc(-c3c4nc(c(-c5ccc(S(=O)(=O)[O-])cc5)c5ccc([nH]5)c(-c5ccc(S(=O)(=O)[O-])cc5)c5nc(c(-c6ccc(S(=O)(=O)[O-])cc6)c6ccc3[nH]6)C=C5)C=C4)cc2)cc1[N+](=O)[O-]
REMARK SMILES IDX 20 1 19 2 18 3 16 4 17 5 15 7 9 8 10 9 11 10 14 11 12 12
REMARK SMILES IDX 13 13 7 14 6 15 8 17 5 18 1 19 2 20 3 21 87 22 4 23 86 24
REMARK SMILES IDX 88 25 89 26 90 27 21 28 22 29 23 30 24 31 25 33 26 34 27 35
REMARK SMILES IDX 85 36 28 37 84 38 29 39 30 40 31 41 78 42 32 43 83 44 77 45
REMARK SMILES IDX 79 46 33 47 82 48 76 49 75 50 34 52 64 53 45 54 63 55 46 56
REMARK SMILES IDX 49 57 62 58 80 59 47 60 48 61 61 63 81 64 50 65 35 66 36 67
REMARK SMILES IDX 44 68 37 69 43 70 38 71 39 72 40 73 41 74 42 75 65 76 66 77
REMARK SMILES IDX 74 78 67 79 73 80 68 81 69 82 70 83 71 84 72 85 51 86 52 87
REMARK SMILES IDX 60 88 53 89 59 90 54 91 55 92 56 93 57 94 58 95
REMARK H PARENT 18 6 6 16 23 32 79 51 49 62
REMARK Flexibility Score: inf
ROOT
ATOM      1  C   UNL A   1      33.069  28.994  27.184  1.00  0.00     0.023 C 
ENDROOT
BRANCH   1   2
ATOM      2  C   UNL A   1      31.610  28.546  27.042  1.00  0.00     0.116 C 
BRANCH   2   3
ATOM      3  N   UNL A   1      31.403  27.115  27.228  1.00  0.00    -0.356 N 
ATOM      4  C   UNL A   1      31.243  26.078  26.368  1.00  0.00     0.224 C 
ATOM      5  O   UNL A   1      31.179  24.945  26.857  1.00  0.00    -0.275 OA
ATOM      6  H   UNL A   1      31.375  26.844  28.175  1.00  0.00     0.163 HD
BRANCH   4   7
ATOM      7  C   UNL A   1      31.105  26.276  24.859  1.00  0.00     0.095 C 
ATOM      8  C   UNL A   1      32.149  27.315  24.382  1.00  0.00     0.097 C 
ATOM      9  C   UNL A   1      31.879  27.758  22.930  1.00  0.00     0.062 C 
ATOM     10  C   UNL A   1      30.486  28.269  22.772  1.00  0.00     0.015 C 
ATOM     11  C   UNL A   1      29.649  26.773  24.590  1.00  0.00     0.043 C 
ATOM     12  Cl  UNL A   1      30.243  29.508  21.598  1.00  0.00    -0.089 Cl
ATOM     13  C   UNL A   1      29.477  27.823  23.526  1.00  0.00    -0.010 C 
BRANCH   8  14
ATOM     14  C   UNL A   1      33.571  26.779  24.422  1.00  0.00     0.228 C 
ATOM     15  N   UNL A   1      33.932  25.529  24.012  1.00  0.00    -0.326 N 
ATOM     16  H   UNL A   1      34.893  25.350  24.123  1.00  0.00     0.169 HD
ATOM     17  O   UNL A   1      34.491  27.523  24.785  1.00  0.00    -0.274 OA
BRANCH  15  18
ATOM     18  C   UNL A   1      33.229  24.442  23.467  1.00  0.00     0.048 A 
ATOM     19  C   UNL A   1      32.037  20.517  22.098  1.00  0.00     0.052 C 
ATOM     20  C   UNL A   1      32.301  21.902  22.608  1.00  0.00     0.027 A 
ATOM     21  C   UNL A   1      32.681  22.884  21.688  1.00  0.00     0.012 A 
ATOM     22  C   UNL A   1      32.266  22.277  23.957  1.00  0.00     0.274 A 
ATOM     23  C   UNL A   1      33.118  24.145  22.114  1.00  0.00     0.027 A 
ATOM     24  C   UNL A   1      32.663  23.554  24.382  1.00  0.00     0.112 A 
BRANCH  22  25
ATOM     25  N   UNL A   1      31.903  21.327  24.994  1.00  0.00     0.063 N 
ATOM     26  O   UNL A   1      32.601  20.309  25.086  1.00  0.00    -0.258 OA
ATOM     27  O   UNL A   1      30.922  21.601  25.699  1.00  0.00    -0.258 OA
ENDBRANCH  22  25
ENDBRANCH  15  18
ENDBRANCH   8  14
ENDBRANCH   4   7
ENDBRANCH   2   3
ENDBRANCH   1   2
BRANCH   1  28
ATOM     28  C   UNL A   1      33.300  30.446  27.604  1.00  0.00     0.023 C 
BRANCH  28  29
ATOM     29  C   UNL A   1      34.744  30.933  27.578  1.00  0.00     0.116 C 
BRANCH  29  30
ATOM     30  N   UNL A   1      35.139  31.509  28.870  1.00  0.00    -0.352 N 
ATOM     31  C   UNL A   1      36.023  31.007  29.816  1.00  0.00     0.251 C 
ATOM     32  H   UNL A   1      34.719  32.371  29.096  1.00  0.00     0.163 HD
ATOM     33  O   UNL A   1      36.239  31.514  30.889  1.00  0.00    -0.269 OA
BRANCH  31  34
ATOM     34  C   UNL A   1      36.771  29.813  29.385  1.00  0.00     0.039 A 
ATOM     35  C   UNL A   1      37.111  28.905  30.395  1.00  0.00     0.014 A 
ATOM     36  C   UNL A   1      37.477  29.898  28.188  1.00  0.00     0.014 A 
ATOM     37  C   UNL A   1      38.318  28.230  30.301  1.00  0.00     0.010 A 
ATOM     38  C   UNL A   1      38.709  29.280  28.133  1.00  0.00     0.010 A 
ATOM     39  C   UNL A   1      39.158  28.519  29.224  1.00  0.00    -0.014 A 
BRANCH  39  40
ATOM     40  C   UNL A   1      40.558  28.117  29.197  1.00  0.00     0.031 A 
ATOM     41  C   UNL A   1      40.870  26.726  28.792  1.00  0.00     0.074 A 
ATOM     42  C   UNL A   1      41.543  28.991  29.521  1.00  0.00     0.049 A 
ATOM     43  N   UNL A   1      41.947  26.094  29.110  1.00  0.00    -0.248 NA
ATOM     44  C   UNL A   1      39.927  25.901  28.037  1.00  0.00     0.031 C 
ATOM     45  C   UNL A   1      42.981  28.766  29.370  1.00  0.00     0.029 A 
ATOM     46  N   UNL A   1      41.487  30.199  30.231  1.00  0.00    -0.354 N 
ATOM     47  C   UNL A   1      41.971  24.919  28.391  1.00  0.00     0.074 A 
ATOM     48  C   UNL A   1      40.656  24.806  27.812  1.00  0.00     0.031 C 
ATOM     49  C   UNL A   1      43.633  29.570  30.226  1.00  0.00     0.029 A 
ATOM     50  C   UNL A   1      42.626  30.212  31.052  1.00  0.00     0.049 A 
ATOM     51  H   UNL A   1      40.793  30.894  30.165  1.00  0.00     0.167 HD
ATOM     52  C   UNL A   1      43.147  24.241  28.264  1.00  0.00     0.031 A 
ATOM     53  C   UNL A   1      42.603  30.161  32.419  1.00  0.00     0.031 A 
ATOM     54  C   UNL A   1      44.182  24.821  29.120  1.00  0.00     0.049 A 
ATOM     55  C   UNL A   1      43.360  28.965  32.988  1.00  0.00     0.074 A 
ATOM     56  C   UNL A   1      45.231  25.694  28.884  1.00  0.00     0.029 A 
ATOM     57  N   UNL A   1      44.012  24.775  30.499  1.00  0.00    -0.354 N 
ATOM     58  N   UNL A   1      43.719  27.930  32.277  1.00  0.00    -0.248 NA
ATOM     59  C   UNL A   1      43.746  28.822  34.391  1.00  0.00     0.031 C 
ATOM     60  C   UNL A   1      45.619  26.256  30.133  1.00  0.00     0.029 A 
ATOM     61  C   UNL A   1      44.839  25.689  31.125  1.00  0.00     0.049 A 
ATOM     62  H   UNL A   1      43.388  24.173  30.966  1.00  0.00     0.167 HD
ATOM     63  C   UNL A   1      44.356  27.009  33.071  1.00  0.00     0.074 A 
ATOM     64  C   UNL A   1      44.362  27.624  34.386  1.00  0.00     0.031 C 
ATOM     65  C   UNL A   1      44.816  25.818  32.580  1.00  0.00     0.031 A 
BRANCH  52  66
ATOM     66  C   UNL A   1      43.420  23.236  27.163  1.00  0.00    -0.014 A 
ATOM     67  C   UNL A   1      42.797  21.970  27.205  1.00  0.00     0.010 A 
ATOM     68  C   UNL A   1      44.333  23.434  26.110  1.00  0.00     0.010 A 
ATOM     69  C   UNL A   1      43.138  20.941  26.309  1.00  0.00     0.020 A 
ATOM     70  C   UNL A   1      44.709  22.409  25.230  1.00  0.00     0.020 A 
ATOM     71  C   UNL A   1      44.116  21.160  25.342  1.00  0.00     0.054 A 
BRANCH  71  72
ATOM     72  S   UNL A   1      44.606  19.808  24.242  1.00  0.00     0.124 S 
ATOM     73  O   UNL A   1      43.540  18.830  24.447  1.00  0.00    -0.237 OA
ATOM     74  O   UNL A   1      44.624  20.458  22.935  1.00  0.00    -0.237 OA
ATOM     75  O   UNL A   1      45.917  19.403  24.749  1.00  0.00    -0.744 OA
ENDBRANCH  71  72
ENDBRANCH  52  66
BRANCH  53  76
ATOM     76  C   UNL A   1      41.423  30.817  33.051  1.00  0.00    -0.014 A 
ATOM     77  C   UNL A   1      40.255  30.043  33.218  1.00  0.00     0.010 A 
ATOM     78  C   UNL A   1      41.565  31.994  33.804  1.00  0.00     0.010 A 
ATOM     79  C   UNL A   1      39.333  30.344  34.225  1.00  0.00     0.020 A 
ATOM     80  C   UNL A   1      40.639  32.301  34.813  1.00  0.00     0.020 A 
ATOM     81  C   UNL A   1      39.561  31.443  35.053  1.00  0.00     0.054 A 
BRANCH  81  82
ATOM     82  S   UNL A   1      38.530  31.622  36.542  1.00  0.00     0.124 S 
ATOM     83  O   UNL A   1      37.991  30.277  36.707  1.00  0.00    -0.237 OA
ATOM     84  O   UNL A   1      39.510  32.029  37.550  1.00  0.00    -0.237 OA
ATOM     85  O   UNL A   1      37.570  32.652  36.161  1.00  0.00    -0.744 OA
ENDBRANCH  81  82
ENDBRANCH  53  76
BRANCH  65  86
ATOM     86  C   UNL A   1      45.347  24.654  33.392  1.00  0.00    -0.014 A 
ATOM     87  C   UNL A   1      46.623  24.605  33.973  1.00  0.00     0.010 A 
ATOM     88  C   UNL A   1      44.462  23.591  33.711  1.00  0.00     0.010 A 
ATOM     89  C   UNL A   1      47.014  23.527  34.786  1.00  0.00     0.020 A 
ATOM     90  C   UNL A   1      44.823  22.541  34.559  1.00  0.00     0.020 A 
ATOM     91  C   UNL A   1      46.111  22.503  35.074  1.00  0.00     0.054 A 
BRANCH  91  92
ATOM     92  S   UNL A   1      46.599  21.160  36.187  1.00  0.00     0.124 S 
ATOM     93  O   UNL A   1      47.868  21.653  36.715  1.00  0.00    -0.237 OA
ATOM     94  O   UNL A   1      45.497  21.114  37.147  1.00  0.00    -0.237 OA
ATOM     95  O   UNL A   1      46.693  20.000  35.304  1.00  0.00    -0.744 OA
ENDBRANCH  91  92
ENDBRANCH  65  86
ENDBRANCH  39  40
ENDBRANCH  31  34
ENDBRANCH  29  30
ENDBRANCH  28  29
ENDBRANCH   1  28
TORSDOF 17
ENDMDL
