MODEL 1
REMARK VINA RESULT:     -10.7      0.000      0.000
REMARK SMILES Cc1cscc1CNC(=O)N[C@@H](C)c1nc(C(=O)NCCCCNC(=O)c2ccc(-c3c4nc(c(-c5ccc(S(=O)(=O)[O-])cc5)c5ccc([nH]5)c(-c5ccc(S(=O)(=O)[O-])cc5)c5nc(c(-c6ccc(S(=O)(=O)[O-])cc6)c6ccc3[nH]6)C=C5)C=C4)cc2)cs1
REMARK SMILES IDX 21 1 20 2 19 3 17 4 18 5 16 7 14 8 15 9 88 10 87 11 12 12
REMARK SMILES IDX 13 13 11 14 8 15 9 16 10 18 7 20 6 21 1 22 2 23 3 24 4 25
REMARK SMILES IDX 5 26 22 27 23 28 24 29 25 30 26 32 27 33 28 34 86 35 29 36
REMARK SMILES IDX 85 37 30 38 31 39 32 40 79 41 33 42 84 43 78 44 80 45 34 46
REMARK SMILES IDX 83 47 77 48 76 49 35 51 65 52 46 53 64 54 47 55 50 56 63 57
REMARK SMILES IDX 81 58 48 59 49 60 62 62 82 63 51 64 36 65 37 66 45 67 38 68
REMARK SMILES IDX 44 69 39 70 40 71 41 72 42 73 43 74 66 75 67 76 75 77 68 78
REMARK SMILES IDX 74 79 69 80 70 81 71 82 72 83 73 84 52 85 53 86 61 87 54 88
REMARK SMILES IDX 60 89 55 90 56 91 57 92 58 93 59 94
REMARK H PARENT 19 6 8 17 11 19 24 31 80 50 50 61
REMARK Flexibility Score: inf
ROOT
ATOM      1  C   UNL A   1      33.803  28.954  24.874  1.00  0.00     0.023 C 
ENDROOT
BRANCH   1   2
ATOM      2  C   UNL A   1      33.837  28.399  23.452  1.00  0.00     0.116 C 
BRANCH   2   3
ATOM      3  N   UNL A   1      32.525  28.448  22.833  1.00  0.00    -0.351 N 
ATOM      4  C   UNL A   1      31.618  27.446  22.567  1.00  0.00     0.270 C 
ATOM      5  O   UNL A   1      30.554  27.763  22.043  1.00  0.00    -0.267 OA
ATOM      6  H   UNL A   1      32.236  29.348  22.556  1.00  0.00     0.163 HD
BRANCH   4   7
ATOM      7  C   UNL A   1      31.903  26.054  22.944  1.00  0.00     0.139 A 
ATOM      8  C   UNL A   1      31.835  24.199  24.181  1.00  0.00     0.116 A 
ATOM      9  N   UNL A   1      31.562  25.487  24.167  1.00  0.00    -0.234 NA
ATOM     10  S   UNL A   1      32.610  23.603  22.772  1.00  0.00    -0.124 S 
ATOM     11  C   UNL A   1      32.537  25.169  22.086  1.00  0.00     0.101 A 
BRANCH   8  12
ATOM     12  C   UNL A   1      31.477  23.279  25.323  1.00  0.00     0.140 C 
ATOM     13  C   UNL A   1      30.412  23.931  26.207  1.00  0.00     0.039 C 
BRANCH  12  14
ATOM     14  N   UNL A   1      32.683  23.054  26.108  1.00  0.00    -0.329 N 
ATOM     15  N   UNL A   1      33.530  20.914  25.581  1.00  0.00    -0.334 N 
ATOM     16  C   UNL A   1      33.584  22.082  26.221  1.00  0.00     0.315 C 
ATOM     17  H   UNL A   1      34.323  20.356  25.753  1.00  0.00     0.165 HD
ATOM     18  O   UNL A   1      34.549  22.274  26.963  1.00  0.00    -0.249 OA
ATOM     19  H   UNL A   1      32.881  23.811  26.704  1.00  0.00     0.166 HD
BRANCH  15  20
ATOM     20  C   UNL A   1      32.589  20.273  24.696  1.00  0.00     0.154 C 
BRANCH  20  21
ATOM     21  C   UNL A   1      32.717  18.773  24.750  1.00  0.00    -0.015 A 
ATOM     22  C   UNL A   1      32.516  18.408  22.172  1.00  0.00     0.045 C 
ATOM     23  C   UNL A   1      32.674  17.921  23.576  1.00  0.00    -0.035 A 
ATOM     24  C   UNL A   1      32.794  16.585  23.913  1.00  0.00     0.068 A 
ATOM     25  S   UNL A   1      32.976  16.336  25.588  1.00  0.00    -0.152 S 
ATOM     26  C   UNL A   1      32.887  18.011  25.895  1.00  0.00     0.070 A 
ENDBRANCH  20  21
ENDBRANCH  15  20
ENDBRANCH  12  14
ENDBRANCH   8  12
ENDBRANCH   4   7
ENDBRANCH   2   3
ENDBRANCH   1   2
BRANCH   1  27
ATOM     27  C   UNL A   1      33.225  27.980  25.907  1.00  0.00     0.023 C 
BRANCH  27  28
ATOM     28  C   UNL A   1      33.346  28.424  27.364  1.00  0.00     0.116 C 
BRANCH  28  29
ATOM     29  N   UNL A   1      33.300  29.869  27.531  1.00  0.00    -0.352 N 
ATOM     30  C   UNL A   1      34.289  30.713  27.977  1.00  0.00     0.251 C 
ATOM     31  H   UNL A   1      32.448  30.299  27.293  1.00  0.00     0.163 HD
ATOM     32  O   UNL A   1      34.048  31.902  28.160  1.00  0.00    -0.269 OA
BRANCH  30  33
ATOM     33  C   UNL A   1      35.632  30.171  28.275  1.00  0.00     0.039 A 
ATOM     34  C   UNL A   1      36.588  30.154  27.257  1.00  0.00     0.014 A 
ATOM     35  C   UNL A   1      35.955  29.711  29.554  1.00  0.00     0.014 A 
ATOM     36  C   UNL A   1      37.891  29.741  27.543  1.00  0.00     0.010 A 
ATOM     37  C   UNL A   1      37.270  29.364  29.852  1.00  0.00     0.010 A 
ATOM     38  C   UNL A   1      38.253  29.381  28.851  1.00  0.00    -0.014 A 
BRANCH  38  39
ATOM     39  C   UNL A   1      39.662  29.055  29.189  1.00  0.00     0.031 A 
ATOM     40  C   UNL A   1      40.542  30.070  29.865  1.00  0.00     0.074 A 
ATOM     41  C   UNL A   1      40.165  27.856  28.834  1.00  0.00     0.049 A 
ATOM     42  N   UNL A   1      41.795  29.960  30.229  1.00  0.00    -0.248 NA
ATOM     43  C   UNL A   1      39.947  31.385  30.149  1.00  0.00     0.031 C 
ATOM     44  C   UNL A   1      39.430  26.807  28.122  1.00  0.00     0.029 A 
ATOM     45  N   UNL A   1      41.413  27.317  29.020  1.00  0.00    -0.354 N 
ATOM     46  C   UNL A   1      42.141  31.192  30.771  1.00  0.00     0.074 A 
ATOM     47  C   UNL A   1      40.982  32.049  30.645  1.00  0.00     0.031 C 
ATOM     48  C   UNL A   1      40.230  25.741  27.963  1.00  0.00     0.029 A 
ATOM     49  C   UNL A   1      41.542  26.041  28.527  1.00  0.00     0.049 A 
ATOM     50  H   UNL A   1      42.147  27.800  29.465  1.00  0.00     0.167 HD
ATOM     51  C   UNL A   1      43.311  31.571  31.342  1.00  0.00     0.031 A 
ATOM     52  C   UNL A   1      42.597  25.202  28.527  1.00  0.00     0.031 A 
ATOM     53  C   UNL A   1      44.461  30.714  31.470  1.00  0.00     0.049 A 
ATOM     54  C   UNL A   1      43.883  25.641  29.170  1.00  0.00     0.074 A 
ATOM     55  C   UNL A   1      45.669  30.982  32.089  1.00  0.00     0.029 A 
ATOM     56  N   UNL A   1      44.549  29.426  30.964  1.00  0.00    -0.354 N 
ATOM     57  N   UNL A   1      44.164  26.783  29.752  1.00  0.00    -0.248 NA
ATOM     58  C   UNL A   1      44.989  24.675  29.167  1.00  0.00     0.031 C 
ATOM     59  C   UNL A   1      46.507  29.876  31.913  1.00  0.00     0.029 A 
ATOM     60  C   UNL A   1      45.801  28.896  31.233  1.00  0.00     0.049 A 
ATOM     61  H   UNL A   1      43.829  28.956  30.485  1.00  0.00     0.167 HD
ATOM     62  C   UNL A   1      45.474  26.664  30.203  1.00  0.00     0.074 A 
ATOM     63  C   UNL A   1      45.920  25.333  29.842  1.00  0.00     0.031 C 
ATOM     64  C   UNL A   1      46.237  27.575  30.855  1.00  0.00     0.031 A 
BRANCH  51  65
ATOM     65  C   UNL A   1      43.403  32.981  31.863  1.00  0.00    -0.014 A 
ATOM     66  C   UNL A   1      43.085  33.283  33.201  1.00  0.00     0.010 A 
ATOM     67  C   UNL A   1      43.840  34.014  31.016  1.00  0.00     0.010 A 
ATOM     68  C   UNL A   1      43.155  34.599  33.666  1.00  0.00     0.020 A 
ATOM     69  C   UNL A   1      43.939  35.328  31.484  1.00  0.00     0.020 A 
ATOM     70  C   UNL A   1      43.577  35.614  32.803  1.00  0.00     0.054 A 
BRANCH  70  71
ATOM     71  S   UNL A   1      43.667  37.312  33.435  1.00  0.00     0.124 S 
ATOM     72  O   UNL A   1      43.764  38.087  32.200  1.00  0.00    -0.237 OA
ATOM     73  O   UNL A   1      42.409  37.451  34.164  1.00  0.00    -0.237 OA
ATOM     74  O   UNL A   1      44.868  37.311  34.265  1.00  0.00    -0.744 OA
ENDBRANCH  70  71
ENDBRANCH  51  65
BRANCH  52  75
ATOM     75  C   UNL A   1      42.466  23.851  27.918  1.00  0.00    -0.014 A 
ATOM     76  C   UNL A   1      42.813  23.637  26.573  1.00  0.00     0.010 A 
ATOM     77  C   UNL A   1      42.020  22.763  28.690  1.00  0.00     0.010 A 
ATOM     78  C   UNL A   1      42.706  22.363  26.007  1.00  0.00     0.020 A 
ATOM     79  C   UNL A   1      41.936  21.482  28.136  1.00  0.00     0.020 A 
ATOM     80  C   UNL A   1      42.272  21.292  26.794  1.00  0.00     0.054 A 
BRANCH  80  81
ATOM     81  S   UNL A   1      42.204  19.635  26.058  1.00  0.00     0.124 S 
ATOM     82  O   UNL A   1      40.792  19.515  25.712  1.00  0.00    -0.237 OA
ATOM     83  O   UNL A   1      43.125  19.754  24.929  1.00  0.00    -0.237 OA
ATOM     84  O   UNL A   1      42.664  18.764  27.135  1.00  0.00    -0.744 OA
ENDBRANCH  80  81
ENDBRANCH  52  75
BRANCH  64  85
ATOM     85  C   UNL A   1      47.633  27.157  31.235  1.00  0.00    -0.014 A 
ATOM     86  C   UNL A   1      48.752  27.619  30.520  1.00  0.00     0.010 A 
ATOM     87  C   UNL A   1      47.828  26.317  32.348  1.00  0.00     0.010 A 
ATOM     88  C   UNL A   1      50.040  27.219  30.889  1.00  0.00     0.020 A 
ATOM     89  C   UNL A   1      49.116  25.939  32.735  1.00  0.00     0.020 A 
ATOM     90  C   UNL A   1      50.213  26.379  31.992  1.00  0.00     0.054 A 
BRANCH  90  91
ATOM     91  S   UNL A   1      51.895  25.897  32.468  1.00  0.00     0.124 S 
ATOM     92  O   UNL A   1      51.648  24.765  33.357  1.00  0.00    -0.237 OA
ATOM     93  O   UNL A   1      52.511  25.566  31.185  1.00  0.00    -0.237 OA
ATOM     94  O   UNL A   1      52.428  27.094  33.116  1.00  0.00    -0.744 OA
ENDBRANCH  90  91
ENDBRANCH  64  85
ENDBRANCH  38  39
ENDBRANCH  30  33
ENDBRANCH  28  29
ENDBRANCH  27  28
ENDBRANCH   1  27
TORSDOF 18
ENDMDL
MODEL 2
REMARK VINA RESULT:     -10.5      3.255      3.967
REMARK SMILES Cc1cscc1CNC(=O)N[C@@H](C)c1nc(C(=O)NCCCCNC(=O)c2ccc(-c3c4nc(c(-c5ccc(S(=O)(=O)[O-])cc5)c5ccc([nH]5)c(-c5ccc(S(=O)(=O)[O-])cc5)c5nc(c(-c6ccc(S(=O)(=O)[O-])cc6)c6ccc3[nH]6)C=C5)C=C4)cc2)cs1
REMARK SMILES IDX 21 1 20 2 19 3 17 4 18 5 16 7 14 8 15 9 88 10 87 11 12 12
REMARK SMILES IDX 13 13 11 14 8 15 9 16 10 18 7 20 6 21 1 22 2 23 3 24 4 25
REMARK SMILES IDX 5 26 22 27 23 28 24 29 25 30 26 32 27 33 28 34 86 35 29 36
REMARK SMILES IDX 85 37 30 38 31 39 32 40 79 41 33 42 84 43 78 44 80 45 34 46
REMARK SMILES IDX 83 47 77 48 76 49 35 51 65 52 46 53 64 54 47 55 50 56 63 57
REMARK SMILES IDX 81 58 48 59 49 60 62 62 82 63 51 64 36 65 37 66 45 67 38 68
REMARK SMILES IDX 44 69 39 70 40 71 41 72 42 73 43 74 66 75 67 76 75 77 68 78
REMARK SMILES IDX 74 79 69 80 70 81 71 82 72 83 73 84 52 85 53 86 61 87 54 88
REMARK SMILES IDX 60 89 55 90 56 91 57 92 58 93 59 94
REMARK H PARENT 19 6 8 17 11 19 24 31 80 50 50 61
REMARK Flexibility Score: inf
ROOT
ATOM      1  C   UNL A   1      33.330  30.790  27.283  1.00  0.00     0.023 C 
ENDROOT
BRANCH   1   2
ATOM      2  C   UNL A   1      33.035  29.538  26.460  1.00  0.00     0.116 C 
BRANCH   2   3
ATOM      3  N   UNL A   1      33.485  29.686  25.088  1.00  0.00    -0.351 N 
ATOM      4  C   UNL A   1      33.146  28.989  23.951  1.00  0.00     0.270 C 
ATOM      5  O   UNL A   1      33.667  29.334  22.893  1.00  0.00    -0.267 OA
ATOM      6  H   UNL A   1      34.144  30.405  24.949  1.00  0.00     0.163 HD
BRANCH   4   7
ATOM      7  C   UNL A   1      32.158  27.902  24.001  1.00  0.00     0.139 A 
ATOM      8  C   UNL A   1      31.405  25.806  24.135  1.00  0.00     0.116 A 
ATOM      9  N   UNL A   1      32.477  26.549  23.953  1.00  0.00    -0.234 NA
ATOM     10  S   UNL A   1      29.932  26.674  24.273  1.00  0.00    -0.124 S 
ATOM     11  C   UNL A   1      30.797  28.142  24.119  1.00  0.00     0.101 A 
BRANCH   8  12
ATOM     12  C   UNL A   1      31.438  24.301  24.249  1.00  0.00     0.140 C 
ATOM     13  C   UNL A   1      30.550  23.675  23.172  1.00  0.00     0.039 C 
BRANCH  12  14
ATOM     14  N   UNL A   1      30.924  23.944  25.565  1.00  0.00    -0.329 N 
ATOM     15  N   UNL A   1      32.136  22.080  26.359  1.00  0.00    -0.334 N 
ATOM     16  C   UNL A   1      31.213  23.032  26.489  1.00  0.00     0.315 C 
ATOM     17  H   UNL A   1      32.239  21.543  27.179  1.00  0.00     0.165 HD
ATOM     18  O   UNL A   1      30.591  23.072  27.553  1.00  0.00    -0.249 OA
ATOM     19  H   UNL A   1      30.177  24.522  25.837  1.00  0.00     0.166 HD
BRANCH  15  20
ATOM     20  C   UNL A   1      33.021  21.648  25.306  1.00  0.00     0.154 C 
BRANCH  20  21
ATOM     21  C   UNL A   1      32.811  20.194  24.972  1.00  0.00    -0.015 A 
ATOM     22  C   UNL A   1      32.145  20.600  22.480  1.00  0.00     0.045 C 
ATOM     23  C   UNL A   1      32.398  19.722  23.663  1.00  0.00    -0.035 A 
ATOM     24  C   UNL A   1      32.261  18.347  23.638  1.00  0.00     0.068 A 
ATOM     25  S   UNL A   1      32.632  17.615  25.131  1.00  0.00    -0.152 S 
ATOM     26  C   UNL A   1      32.974  19.127  25.841  1.00  0.00     0.070 A 
ENDBRANCH  20  21
ENDBRANCH  15  20
ENDBRANCH  12  14
ENDBRANCH   8  12
ENDBRANCH   4   7
ENDBRANCH   2   3
ENDBRANCH   1   2
BRANCH   1  27
ATOM     27  C   UNL A   1      34.821  31.014  27.559  1.00  0.00     0.023 C 
BRANCH  27  28
ATOM     28  C   UNL A   1      35.516  29.898  28.338  1.00  0.00     0.116 C 
BRANCH  28  29
ATOM     29  N   UNL A   1      35.561  30.138  29.772  1.00  0.00    -0.352 N 
ATOM     30  C   UNL A   1      36.587  29.889  30.652  1.00  0.00     0.251 C 
ATOM     31  H   UNL A   1      34.748  30.530  30.165  1.00  0.00     0.163 HD
ATOM     32  O   UNL A   1      36.419  30.054  31.857  1.00  0.00    -0.269 OA
BRANCH  30  33
ATOM     33  C   UNL A   1      37.880  29.383  30.143  1.00  0.00     0.039 A 
ATOM     34  C   UNL A   1      38.189  29.574  28.794  1.00  0.00     0.014 A 
ATOM     35  C   UNL A   1      38.791  28.754  30.994  1.00  0.00     0.014 A 
ATOM     36  C   UNL A   1      39.445  29.196  28.315  1.00  0.00     0.010 A 
ATOM     37  C   UNL A   1      40.066  28.438  30.529  1.00  0.00     0.010 A 
ATOM     38  C   UNL A   1      40.408  28.661  29.187  1.00  0.00    -0.014 A 
BRANCH  38  39
ATOM     39  C   UNL A   1      41.784  28.367  28.713  1.00  0.00     0.031 A 
ATOM     40  C   UNL A   1      42.816  29.457  28.632  1.00  0.00     0.074 A 
ATOM     41  C   UNL A   1      42.086  27.119  28.301  1.00  0.00     0.049 A 
ATOM     42  N   UNL A   1      44.062  29.382  28.238  1.00  0.00    -0.248 NA
ATOM     43  C   UNL A   1      42.389  30.810  29.022  1.00  0.00     0.031 C 
ATOM     44  C   UNL A   1      41.156  25.987  28.276  1.00  0.00     0.029 A 
ATOM     45  N   UNL A   1      43.260  26.594  27.822  1.00  0.00    -0.354 N 
ATOM     46  C   UNL A   1      44.563  30.676  28.320  1.00  0.00     0.074 A 
ATOM     47  C   UNL A   1      43.474  31.523  28.754  1.00  0.00     0.031 C 
ATOM     48  C   UNL A   1      41.805  24.896  27.839  1.00  0.00     0.029 A 
ATOM     49  C   UNL A   1      43.182  25.255  27.519  1.00  0.00     0.049 A 
ATOM     50  H   UNL A   1      44.081  27.125  27.707  1.00  0.00     0.167 HD
ATOM     51  C   UNL A   1      45.822  31.117  28.075  1.00  0.00     0.031 A 
ATOM     52  C   UNL A   1      44.113  24.409  27.038  1.00  0.00     0.031 A 
ATOM     53  C   UNL A   1      46.905  30.270  27.647  1.00  0.00     0.049 A 
ATOM     54  C   UNL A   1      45.504  24.918  26.779  1.00  0.00     0.074 A 
ATOM     55  C   UNL A   1      48.230  30.608  27.436  1.00  0.00     0.029 A 
ATOM     56  N   UNL A   1      46.787  28.918  27.358  1.00  0.00    -0.354 N 
ATOM     57  N   UNL A   1      45.980  26.129  26.942  1.00  0.00    -0.248 NA
ATOM     58  C   UNL A   1      46.485  23.943  26.284  1.00  0.00     0.031 C 
ATOM     59  C   UNL A   1      48.903  29.474  26.969  1.00  0.00     0.029 A 
ATOM     60  C   UNL A   1      48.009  28.414  26.944  1.00  0.00     0.049 A 
ATOM     61  H   UNL A   1      45.958  28.394  27.436  1.00  0.00     0.167 HD
ATOM     62  C   UNL A   1      47.322  26.058  26.588  1.00  0.00     0.074 A 
ATOM     63  C   UNL A   1      47.585  24.680  26.222  1.00  0.00     0.031 C 
ATOM     64  C   UNL A   1      48.253  27.044  26.568  1.00  0.00     0.031 A 
BRANCH  51  65
ATOM     65  C   UNL A   1      46.089  32.587  28.259  1.00  0.00    -0.014 A 
ATOM     66  C   UNL A   1      46.516  33.099  29.499  1.00  0.00     0.010 A 
ATOM     67  C   UNL A   1      45.940  33.467  27.172  1.00  0.00     0.010 A 
ATOM     68  C   UNL A   1      46.740  34.469  29.661  1.00  0.00     0.020 A 
ATOM     69  C   UNL A   1      46.191  34.835  27.322  1.00  0.00     0.020 A 
ATOM     70  C   UNL A   1      46.571  35.329  28.573  1.00  0.00     0.054 A 
BRANCH  70  71
ATOM     71  S   UNL A   1      46.877  37.101  28.808  1.00  0.00     0.124 S 
ATOM     72  O   UNL A   1      48.323  37.184  28.620  1.00  0.00    -0.237 OA
ATOM     73  O   UNL A   1      46.072  37.709  27.751  1.00  0.00    -0.237 OA
ATOM     74  O   UNL A   1      46.410  37.357  30.167  1.00  0.00    -0.744 OA
ENDBRANCH  70  71
ENDBRANCH  51  65
BRANCH  52  75
ATOM     75  C   UNL A   1      43.761  22.983  26.797  1.00  0.00    -0.014 A 
ATOM     76  C   UNL A   1      42.897  22.303  27.673  1.00  0.00     0.010 A 
ATOM     77  C   UNL A   1      44.266  22.305  25.673  1.00  0.00     0.010 A 
ATOM     78  C   UNL A   1      42.553  20.969  27.435  1.00  0.00     0.020 A 
ATOM     79  C   UNL A   1      43.904  20.980  25.416  1.00  0.00     0.020 A 
ATOM     80  C   UNL A   1      43.055  20.317  26.305  1.00  0.00     0.054 A 
BRANCH  80  81
ATOM     81  S   UNL A   1      42.543  18.607  25.981  1.00  0.00     0.124 S 
ATOM     82  O   UNL A   1      41.122  18.766  25.690  1.00  0.00    -0.237 OA
ATOM     83  O   UNL A   1      43.385  18.235  24.846  1.00  0.00    -0.237 OA
ATOM     84  O   UNL A   1      42.854  17.915  27.229  1.00  0.00    -0.744 OA
ENDBRANCH  80  81
ENDBRANCH  52  75
BRANCH  64  85
ATOM     85  C   UNL A   1      49.648  26.664  26.148  1.00  0.00    -0.014 A 
ATOM     86  C   UNL A   1      50.150  27.017  24.883  1.00  0.00     0.010 A 
ATOM     87  C   UNL A   1      50.482  25.975  27.048  1.00  0.00     0.010 A 
ATOM     88  C   UNL A   1      51.448  26.656  24.512  1.00  0.00     0.020 A 
ATOM     89  C   UNL A   1      51.790  25.637  26.691  1.00  0.00     0.020 A 
ATOM     90  C   UNL A   1      52.258  25.965  25.417  1.00  0.00     0.054 A 
BRANCH  90  91
ATOM     91  S   UNL A   1      53.949  25.532  24.923  1.00  0.00     0.124 S 
ATOM     92  O   UNL A   1      53.975  24.091  25.157  1.00  0.00    -0.237 OA
ATOM     93  O   UNL A   1      53.990  25.942  23.521  1.00  0.00    -0.237 OA
ATOM     94  O   UNL A   1      54.786  26.325  25.821  1.00  0.00    -0.744 OA
ENDBRANCH  90  91
ENDBRANCH  64  85
ENDBRANCH  38  39
ENDBRANCH  30  33
ENDBRANCH  28  29
ENDBRANCH  27  28
ENDBRANCH   1  27
TORSDOF 18
ENDMDL
MODEL 3
REMARK VINA RESULT:     -10.4      3.555      9.654
REMARK SMILES Cc1cscc1CNC(=O)N[C@@H](C)c1nc(C(=O)NCCCCNC(=O)c2ccc(-c3c4nc(c(-c5ccc(S(=O)(=O)[O-])cc5)c5ccc([nH]5)c(-c5ccc(S(=O)(=O)[O-])cc5)c5nc(c(-c6ccc(S(=O)(=O)[O-])cc6)c6ccc3[nH]6)C=C5)C=C4)cc2)cs1
REMARK SMILES IDX 21 1 20 2 19 3 17 4 18 5 16 7 14 8 15 9 88 10 87 11 12 12
REMARK SMILES IDX 13 13 11 14 8 15 9 16 10 18 7 20 6 21 1 22 2 23 3 24 4 25
REMARK SMILES IDX 5 26 22 27 23 28 24 29 25 30 26 32 27 33 28 34 86 35 29 36
REMARK SMILES IDX 85 37 30 38 31 39 32 40 79 41 33 42 84 43 78 44 80 45 34 46
REMARK SMILES IDX 83 47 77 48 76 49 35 51 65 52 46 53 64 54 47 55 50 56 63 57
REMARK SMILES IDX 81 58 48 59 49 60 62 62 82 63 51 64 36 65 37 66 45 67 38 68
REMARK SMILES IDX 44 69 39 70 40 71 41 72 42 73 43 74 66 75 67 76 75 77 68 78
REMARK SMILES IDX 74 79 69 80 70 81 71 82 72 83 73 84 52 85 53 86 61 87 54 88
REMARK SMILES IDX 60 89 55 90 56 91 57 92 58 93 59 94
REMARK H PARENT 19 6 8 17 11 19 24 31 80 50 50 61
REMARK Flexibility Score: inf
ROOT
ATOM      1  C   UNL A   1      37.696  21.441  24.901  1.00  0.00     0.023 C 
ENDROOT
BRANCH   1   2
ATOM      2  C   UNL A   1      36.270  21.467  25.446  1.00  0.00     0.116 C 
BRANCH   2   3
ATOM      3  N   UNL A   1      35.588  20.208  25.207  1.00  0.00    -0.351 N 
ATOM      4  C   UNL A   1      34.291  19.946  24.827  1.00  0.00     0.270 C 
ATOM      5  O   UNL A   1      33.967  18.771  24.673  1.00  0.00    -0.267 OA
ATOM      6  H   UNL A   1      36.147  19.408  25.341  1.00  0.00     0.163 HD
BRANCH   4   7
ATOM      7  C   UNL A   1      33.347  21.043  24.570  1.00  0.00     0.139 A 
ATOM      8  C   UNL A   1      31.893  22.665  25.050  1.00  0.00     0.116 A 
ATOM      9  N   UNL A   1      32.550  21.637  25.543  1.00  0.00    -0.234 NA
ATOM     10  S   UNL A   1      32.105  22.927  23.368  1.00  0.00    -0.124 S 
ATOM     11  C   UNL A   1      33.179  21.597  23.310  1.00  0.00     0.101 A 
BRANCH   8  12
ATOM     12  C   UNL A   1      31.032  23.586  25.881  1.00  0.00     0.140 C 
ATOM     13  C   UNL A   1      30.098  22.766  26.772  1.00  0.00     0.039 C 
BRANCH  12  14
ATOM     14  N   UNL A   1      30.238  24.397  24.968  1.00  0.00    -0.329 N 
ATOM     15  N   UNL A   1      30.535  26.670  25.535  1.00  0.00    -0.334 N 
ATOM     16  C   UNL A   1      30.027  25.697  24.779  1.00  0.00     0.315 C 
ATOM     17  H   UNL A   1      30.310  27.566  25.194  1.00  0.00     0.165 HD
ATOM     18  O   UNL A   1      29.320  26.034  23.828  1.00  0.00    -0.249 OA
ATOM     19  H   UNL A   1      29.731  23.845  24.331  1.00  0.00     0.166 HD
BRANCH  15  20
ATOM     20  C   UNL A   1      31.336  26.724  26.733  1.00  0.00     0.154 C 
BRANCH  20  21
ATOM     21  C   UNL A   1      32.247  27.923  26.732  1.00  0.00    -0.015 A 
ATOM     22  C   UNL A   1      34.313  26.671  25.742  1.00  0.00     0.045 C 
ATOM     23  C   UNL A   1      33.625  27.885  26.278  1.00  0.00    -0.035 A 
ATOM     24  C   UNL A   1      34.237  29.118  26.405  1.00  0.00     0.068 A 
ATOM     25  S   UNL A   1      33.199  30.314  27.032  1.00  0.00    -0.152 S 
ATOM     26  C   UNL A   1      31.913  29.201  27.154  1.00  0.00     0.070 A 
ENDBRANCH  20  21
ENDBRANCH  15  20
ENDBRANCH  12  14
ENDBRANCH   8  12
ENDBRANCH   4   7
ENDBRANCH   2   3
ENDBRANCH   1   2
BRANCH   1  27
ATOM     27  C   UNL A   1      38.426  20.112  25.135  1.00  0.00     0.023 C 
BRANCH  27  28
ATOM     28  C   UNL A   1      39.440  20.116  26.278  1.00  0.00     0.116 C 
BRANCH  28  29
ATOM     29  N   UNL A   1      40.637  19.342  25.988  1.00  0.00    -0.352 N 
ATOM     30  C   UNL A   1      41.944  19.766  25.947  1.00  0.00     0.251 C 
ATOM     31  H   UNL A   1      40.492  18.388  25.797  1.00  0.00     0.163 HD
ATOM     32  O   UNL A   1      42.829  18.999  25.580  1.00  0.00    -0.269 OA
BRANCH  30  33
ATOM     33  C   UNL A   1      42.270  21.163  26.307  1.00  0.00     0.039 A 
ATOM     34  C   UNL A   1      42.603  21.453  27.631  1.00  0.00     0.014 A 
ATOM     35  C   UNL A   1      42.277  22.171  25.340  1.00  0.00     0.014 A 
ATOM     36  C   UNL A   1      43.012  22.744  27.972  1.00  0.00     0.010 A 
ATOM     37  C   UNL A   1      42.748  23.440  25.668  1.00  0.00     0.010 A 
ATOM     38  C   UNL A   1      43.126  23.738  26.986  1.00  0.00    -0.014 A 
BRANCH  38  39
ATOM     39  C   UNL A   1      43.673  25.078  27.316  1.00  0.00     0.031 A 
ATOM     40  C   UNL A   1      45.133  25.381  27.116  1.00  0.00     0.074 A 
ATOM     41  C   UNL A   1      42.858  26.009  27.852  1.00  0.00     0.049 A 
ATOM     42  N   UNL A   1      45.782  26.492  27.355  1.00  0.00    -0.248 NA
ATOM     43  C   UNL A   1      45.976  24.290  26.604  1.00  0.00     0.031 C 
ATOM     44  C   UNL A   1      41.436  25.819  28.149  1.00  0.00     0.029 A 
ATOM     45  N   UNL A   1      43.109  27.300  28.244  1.00  0.00    -0.354 N 
ATOM     46  C   UNL A   1      47.109  26.231  27.035  1.00  0.00     0.074 A 
ATOM     47  C   UNL A   1      47.180  24.843  26.633  1.00  0.00     0.031 C 
ATOM     48  C   UNL A   1      40.935  26.962  28.644  1.00  0.00     0.029 A 
ATOM     49  C   UNL A   1      42.002  27.952  28.733  1.00  0.00     0.049 A 
ATOM     50  H   UNL A   1      43.997  27.720  28.180  1.00  0.00     0.167 HD
ATOM     51  C   UNL A   1      48.170  27.074  27.055  1.00  0.00     0.031 A 
ATOM     52  C   UNL A   1      41.859  29.207  29.202  1.00  0.00     0.031 A 
ATOM     53  C   UNL A   1      48.095  28.456  27.452  1.00  0.00     0.049 A 
ATOM     54  C   UNL A   1      43.048  30.127  29.210  1.00  0.00     0.074 A 
ATOM     55  C   UNL A   1      49.098  29.409  27.446  1.00  0.00     0.029 A 
ATOM     56  N   UNL A   1      46.955  29.081  27.935  1.00  0.00    -0.354 N 
ATOM     57  N   UNL A   1      44.278  29.885  28.825  1.00  0.00    -0.248 NA
ATOM     58  C   UNL A   1      42.825  31.493  29.704  1.00  0.00     0.031 C 
ATOM     59  C   UNL A   1      48.579  30.596  27.973  1.00  0.00     0.029 A 
ATOM     60  C   UNL A   1      47.236  30.400  28.254  1.00  0.00     0.049 A 
ATOM     61  H   UNL A   1      46.074  28.652  28.035  1.00  0.00     0.167 HD
ATOM     62  C   UNL A   1      44.973  31.075  29.011  1.00  0.00     0.074 A 
ATOM     63  C   UNL A   1      44.020  32.039  29.525  1.00  0.00     0.031 C 
ATOM     64  C   UNL A   1      46.281  31.344  28.779  1.00  0.00     0.031 A 
BRANCH  51  65
ATOM     65  C   UNL A   1      49.507  26.517  26.641  1.00  0.00    -0.014 A 
ATOM     66  C   UNL A   1      50.370  25.925  27.581  1.00  0.00     0.010 A 
ATOM     67  C   UNL A   1      49.895  26.560  25.290  1.00  0.00     0.010 A 
ATOM     68  C   UNL A   1      51.617  25.431  27.186  1.00  0.00     0.020 A 
ATOM     69  C   UNL A   1      51.129  26.042  24.885  1.00  0.00     0.020 A 
ATOM     70  C   UNL A   1      51.990  25.497  25.841  1.00  0.00     0.054 A 
BRANCH  70  71
ATOM     71  S   UNL A   1      53.610  24.841  25.354  1.00  0.00     0.124 S 
ATOM     72  O   UNL A   1      53.945  25.689  24.212  1.00  0.00    -0.237 OA
ATOM     73  O   UNL A   1      54.417  25.055  26.553  1.00  0.00    -0.237 OA
ATOM     74  O   UNL A   1      53.336  23.443  25.032  1.00  0.00    -0.744 OA
ENDBRANCH  70  71
ENDBRANCH  51  65
BRANCH  52  75
ATOM     75  C   UNL A   1      40.527  29.671  29.677  1.00  0.00    -0.014 A 
ATOM     76  C   UNL A   1      40.223  29.683  31.049  1.00  0.00     0.010 A 
ATOM     77  C   UNL A   1      39.564  30.130  28.760  1.00  0.00     0.010 A 
ATOM     78  C   UNL A   1      38.978  30.135  31.495  1.00  0.00     0.020 A 
ATOM     79  C   UNL A   1      38.328  30.608  29.203  1.00  0.00     0.020 A 
ATOM     80  C   UNL A   1      38.039  30.599  30.569  1.00  0.00     0.054 A 
BRANCH  80  81
ATOM     81  S   UNL A   1      36.455  31.243  31.175  1.00  0.00     0.124 S 
ATOM     82  O   UNL A   1      35.651  31.268  29.957  1.00  0.00    -0.237 OA
ATOM     83  O   UNL A   1      36.068  30.245  32.169  1.00  0.00    -0.237 OA
ATOM     84  O   UNL A   1      36.805  32.551  31.723  1.00  0.00    -0.744 OA
ENDBRANCH  80  81
ENDBRANCH  52  75
BRANCH  64  85
ATOM     85  C   UNL A   1      46.757  32.744  29.065  1.00  0.00    -0.014 A 
ATOM     86  C   UNL A   1      47.447  33.050  30.251  1.00  0.00     0.010 A 
ATOM     87  C   UNL A   1      46.541  33.759  28.115  1.00  0.00     0.010 A 
ATOM     88  C   UNL A   1      47.881  34.356  30.498  1.00  0.00     0.020 A 
ATOM     89  C   UNL A   1      46.998  35.059  28.347  1.00  0.00     0.020 A 
ATOM     90  C   UNL A   1      47.650  35.353  29.546  1.00  0.00     0.054 A 
BRANCH  90  91
ATOM     91  S   UNL A   1      48.248  37.032  29.877  1.00  0.00     0.124 S 
ATOM     92  O   UNL A   1      49.333  36.788  30.823  1.00  0.00    -0.237 OA
ATOM     93  O   UNL A   1      48.660  37.495  28.553  1.00  0.00    -0.237 OA
ATOM     94  O   UNL A   1      47.079  37.713  30.430  1.00  0.00    -0.744 OA
ENDBRANCH  90  91
ENDBRANCH  64  85
ENDBRANCH  38  39
ENDBRANCH  30  33
ENDBRANCH  28  29
ENDBRANCH  27  28
ENDBRANCH   1  27
TORSDOF 18
ENDMDL
