MODEL 1
REMARK VINA RESULT:     -12.7      0.000      0.000
REMARK SMILES Cc1cc(C)c(NS(=O)(=O)c2cccc3cc(C)cnc23)c(C(=O)NCCCCNC(=O)c2ccc(-c3c4nc(c(-c5ccc(S(=O)(=O)[O-])cc5)c5ccc([nH]5)c(-c5ccc(S(=O)(=O)[O-])cc5)c5nc(c(-c6ccc(S(=O)(=O)[O-])cc6)c6ccc3[nH]6)C=C5)C=C4)cc2)c1
REMARK SMILES IDX 27 1 26 2 25 3 23 4 24 5 22 7 1 8 2 9 3 10 93 11 4 12 5 13
REMARK SMILES IDX 6 14 7 15 8 17 9 18 10 19 11 20 12 21 21 22 13 23 15 24
REMARK SMILES IDX 20 25 14 26 16 27 19 28 17 29 18 30 28 31 29 32 30 33 31 34
REMARK SMILES IDX 32 36 33 37 34 38 92 39 35 40 91 41 36 42 37 43 38 44 85 45
REMARK SMILES IDX 39 46 90 47 84 48 86 49 40 50 89 51 83 52 82 53 41 55 71 56
REMARK SMILES IDX 52 57 70 58 53 59 56 60 69 61 87 62 54 63 55 64 68 66 88 67
REMARK SMILES IDX 57 68 42 69 43 70 51 71 44 72 50 73 45 74 46 75 47 76 48 77
REMARK SMILES IDX 49 78 72 79 73 80 81 81 74 82 80 83 75 84 76 85 77 86 78 87
REMARK SMILES IDX 79 88 58 89 59 90 67 91 60 92 66 93 61 94 62 95 63 96 64 97
REMARK SMILES IDX 65 98
REMARK H PARENT 25 6 7 16 30 35 86 54 56 65
REMARK Flexibility Score: inf
ROOT
ATOM      1  C   UNL A   1      38.595  23.603  26.317  1.00  0.00     0.023 C 
ENDROOT
BRANCH   1   2
ATOM      2  C   UNL A   1      37.278  22.947  25.893  1.00  0.00     0.116 C 
BRANCH   2   3
ATOM      3  N   UNL A   1      37.106  23.086  24.457  1.00  0.00    -0.352 N 
ATOM      4  C   UNL A   1      36.040  22.810  23.632  1.00  0.00     0.253 C 
ATOM      5  O   UNL A   1      36.187  22.966  22.420  1.00  0.00    -0.269 OA
ATOM      6  H   UNL A   1      37.896  23.441  23.989  1.00  0.00     0.163 HD
BRANCH   4   7
ATOM      7  C   UNL A   1      34.693  22.449  24.166  1.00  0.00     0.064 A 
ATOM      8  C   UNL A   1      32.931  19.325  25.392  1.00  0.00     0.044 C 
ATOM      9  C   UNL A   1      33.229  20.769  25.126  1.00  0.00    -0.050 A 
ATOM     10  C   UNL A   1      32.453  21.799  25.665  1.00  0.00     0.009 A 
ATOM     11  C   UNL A   1      34.361  21.109  24.389  1.00  0.00     0.019 A 
ATOM     12  C   UNL A   1      32.725  23.158  25.382  1.00  0.00    -0.026 A 
ATOM     13  C   UNL A   1      31.892  24.196  26.079  1.00  0.00     0.046 C 
ATOM     14  C   UNL A   1      33.766  23.474  24.492  1.00  0.00     0.065 A 
BRANCH  14  15
ATOM     15  N   UNL A   1      34.012  24.793  23.967  1.00  0.00    -0.278 N 
ATOM     16  H   UNL A   1      34.832  25.240  24.278  1.00  0.00     0.180 HD
BRANCH  15  17
ATOM     17  S   UNL A   1      33.056  25.656  22.884  1.00  0.00     0.264 S 
ATOM     18  O   UNL A   1      34.017  26.307  22.004  1.00  0.00    -0.201 OA
ATOM     19  O   UNL A   1      32.120  24.712  22.308  1.00  0.00    -0.201 OA
BRANCH  17  20
ATOM     20  C   UNL A   1      32.079  26.973  23.553  1.00  0.00     0.114 A 
ATOM     21  C   UNL A   1      30.921  27.288  22.802  1.00  0.00     0.024 A 
ATOM     22  C   UNL A   1      32.471  27.753  24.636  1.00  0.00     0.091 A 
ATOM     23  C   UNL A   1      30.208  28.450  23.046  1.00  0.00     0.002 A 
ATOM     24  C   UNL A   1      31.803  28.995  24.784  1.00  0.00     0.002 A 
ATOM     25  N   UNL A   1      33.454  27.409  25.496  1.00  0.00    -0.255 NA
ATOM     26  C   UNL A   1      30.680  29.326  24.008  1.00  0.00     0.010 A 
ATOM     27  C   UNL A   1      32.314  29.931  25.688  1.00  0.00     0.015 A 
ATOM     28  C   UNL A   1      33.895  28.325  26.389  1.00  0.00     0.115 A 
ATOM     29  C   UNL A   1      33.420  29.621  26.469  1.00  0.00    -0.032 A 
ATOM     30  C   UNL A   1      34.084  30.662  27.309  1.00  0.00     0.046 C 
ENDBRANCH  17  20
ENDBRANCH  15  17
ENDBRANCH  14  15
ENDBRANCH   4   7
ENDBRANCH   2   3
ENDBRANCH   1   2
BRANCH   1  31
ATOM     31  C   UNL A   1      39.642  22.599  26.805  1.00  0.00     0.023 C 
BRANCH  31  32
ATOM     32  C   UNL A   1      41.004  23.217  27.099  1.00  0.00     0.116 C 
BRANCH  32  33
ATOM     33  N   UNL A   1      41.512  24.025  25.998  1.00  0.00    -0.352 N 
ATOM     34  C   UNL A   1      41.836  25.360  26.010  1.00  0.00     0.251 C 
ATOM     35  H   UNL A   1      41.638  23.556  25.141  1.00  0.00     0.163 HD
ATOM     36  O   UNL A   1      42.162  25.931  24.972  1.00  0.00    -0.269 OA
BRANCH  34  37
ATOM     37  C   UNL A   1      41.736  26.102  27.280  1.00  0.00     0.039 A 
ATOM     38  C   UNL A   1      42.705  27.062  27.577  1.00  0.00     0.014 A 
ATOM     39  C   UNL A   1      40.644  25.903  28.129  1.00  0.00     0.014 A 
ATOM     40  C   UNL A   1      42.537  27.880  28.696  1.00  0.00     0.010 A 
ATOM     41  C   UNL A   1      40.446  26.763  29.205  1.00  0.00     0.010 A 
ATOM     42  C   UNL A   1      41.387  27.763  29.494  1.00  0.00    -0.014 A 
BRANCH  42  43
ATOM     43  C   UNL A   1      41.142  28.691  30.625  1.00  0.00     0.031 A 
ATOM     44  C   UNL A   1      41.973  28.593  31.874  1.00  0.00     0.074 A 
ATOM     45  C   UNL A   1      40.129  29.577  30.552  1.00  0.00     0.049 A 
ATOM     46  N   UNL A   1      41.881  29.284  32.980  1.00  0.00    -0.248 NA
ATOM     47  C   UNL A   1      43.028  27.567  31.892  1.00  0.00     0.031 C 
ATOM     48  C   UNL A   1      39.218  29.733  29.414  1.00  0.00     0.029 A 
ATOM     49  N   UNL A   1      39.690  30.510  31.456  1.00  0.00    -0.354 N 
ATOM     50  C   UNL A   1      42.851  28.769  33.830  1.00  0.00     0.074 A 
ATOM     51  C   UNL A   1      43.490  27.675  33.130  1.00  0.00     0.031 C 
ATOM     52  C   UNL A   1      38.348  30.720  29.679  1.00  0.00     0.029 A 
ATOM     53  C   UNL A   1      38.616  31.247  31.013  1.00  0.00     0.049 A 
ATOM     54  H   UNL A   1      40.106  30.642  32.338  1.00  0.00     0.167 HD
ATOM     55  C   UNL A   1      43.196  29.182  35.073  1.00  0.00     0.031 A 
ATOM     56  C   UNL A   1      37.925  32.234  31.614  1.00  0.00     0.031 A 
ATOM     57  C   UNL A   1      42.571  30.279  35.760  1.00  0.00     0.049 A 
ATOM     58  C   UNL A   1      38.334  32.683  32.990  1.00  0.00     0.074 A 
ATOM     59  C   UNL A   1      42.886  30.811  36.997  1.00  0.00     0.029 A 
ATOM     60  N   UNL A   1      41.502  31.014  35.268  1.00  0.00    -0.354 N 
ATOM     61  N   UNL A   1      39.302  32.229  33.749  1.00  0.00    -0.248 NA
ATOM     62  C   UNL A   1      37.567  33.785  33.584  1.00  0.00     0.031 C 
ATOM     63  C   UNL A   1      41.984  31.844  37.271  1.00  0.00     0.029 A 
ATOM     64  C   UNL A   1      41.137  31.985  36.183  1.00  0.00     0.049 A 
ATOM     65  H   UNL A   1      41.069  30.866  34.396  1.00  0.00     0.167 HD
ATOM     66  C   UNL A   1      39.277  33.009  34.899  1.00  0.00     0.074 A 
ATOM     67  C   UNL A   1      38.207  33.970  34.731  1.00  0.00     0.031 C 
ATOM     68  C   UNL A   1      40.070  32.937  35.997  1.00  0.00     0.031 A 
BRANCH  55  69
ATOM     69  C   UNL A   1      44.307  28.439  35.765  1.00  0.00    -0.014 A 
ATOM     70  C   UNL A   1      45.646  28.846  35.623  1.00  0.00     0.010 A 
ATOM     71  C   UNL A   1      44.007  27.341  36.592  1.00  0.00     0.010 A 
ATOM     72  C   UNL A   1      46.671  28.142  36.260  1.00  0.00     0.020 A 
ATOM     73  C   UNL A   1      45.029  26.650  37.252  1.00  0.00     0.020 A 
ATOM     74  C   UNL A   1      46.355  27.045  37.067  1.00  0.00     0.054 A 
BRANCH  74  75
ATOM     75  S   UNL A   1      47.704  26.160  37.896  1.00  0.00     0.124 S 
ATOM     76  O   UNL A   1      46.995  25.039  38.510  1.00  0.00    -0.237 OA
ATOM     77  O   UNL A   1      48.590  25.811  36.788  1.00  0.00    -0.237 OA
ATOM     78  O   UNL A   1      48.240  27.145  38.832  1.00  0.00    -0.744 OA
ENDBRANCH  74  75
ENDBRANCH  55  69
BRANCH  56  79
ATOM     79  C   UNL A   1      36.789  32.886  30.906  1.00  0.00    -0.014 A 
ATOM     80  C   UNL A   1      35.465  32.626  31.300  1.00  0.00     0.010 A 
ATOM     81  C   UNL A   1      37.027  33.773  29.841  1.00  0.00     0.010 A 
ATOM     82  C   UNL A   1      34.397  33.227  30.628  1.00  0.00     0.020 A 
ATOM     83  C   UNL A   1      35.962  34.394  29.183  1.00  0.00     0.020 A 
ATOM     84  C   UNL A   1      34.651  34.107  29.572  1.00  0.00     0.054 A 
BRANCH  84  85
ATOM     85  S   UNL A   1      33.251  34.913  28.744  1.00  0.00     0.124 S 
ATOM     86  O   UNL A   1      32.746  33.840  27.893  1.00  0.00    -0.237 OA
ATOM     87  O   UNL A   1      32.393  35.288  29.866  1.00  0.00    -0.237 OA
ATOM     88  O   UNL A   1      33.871  36.034  28.042  1.00  0.00    -0.744 OA
ENDBRANCH  84  85
ENDBRANCH  56  79
BRANCH  68  89
ATOM     89  C   UNL A   1      39.836  33.945  37.088  1.00  0.00    -0.014 A 
ATOM     90  C   UNL A   1      39.072  33.624  38.222  1.00  0.00     0.010 A 
ATOM     91  C   UNL A   1      40.439  35.213  37.001  1.00  0.00     0.010 A 
ATOM     92  C   UNL A   1      38.892  34.565  39.241  1.00  0.00     0.020 A 
ATOM     93  C   UNL A   1      40.282  36.146  38.027  1.00  0.00     0.020 A 
ATOM     94  C   UNL A   1      39.498  35.820  39.136  1.00  0.00     0.054 A 
BRANCH  94  95
ATOM     95  S   UNL A   1      39.291  37.008  40.491  1.00  0.00     0.124 S 
ATOM     96  O   UNL A   1      40.676  37.324  40.831  1.00  0.00    -0.237 OA
ATOM     97  O   UNL A   1      38.535  38.087  39.861  1.00  0.00    -0.237 OA
ATOM     98  O   UNL A   1      38.558  36.252  41.504  1.00  0.00    -0.744 OA
ENDBRANCH  94  95
ENDBRANCH  68  89
ENDBRANCH  42  43
ENDBRANCH  34  37
ENDBRANCH  32  33
ENDBRANCH  31  32
ENDBRANCH   1  31
TORSDOF 17
ENDMDL
MODEL 2
REMARK VINA RESULT:     -12.5      6.142     11.721
REMARK SMILES Cc1cc(C)c(NS(=O)(=O)c2cccc3cc(C)cnc23)c(C(=O)NCCCCNC(=O)c2ccc(-c3c4nc(c(-c5ccc(S(=O)(=O)[O-])cc5)c5ccc([nH]5)c(-c5ccc(S(=O)(=O)[O-])cc5)c5nc(c(-c6ccc(S(=O)(=O)[O-])cc6)c6ccc3[nH]6)C=C5)C=C4)cc2)c1
REMARK SMILES IDX 27 1 26 2 25 3 23 4 24 5 22 7 1 8 2 9 3 10 93 11 4 12 5 13
REMARK SMILES IDX 6 14 7 15 8 17 9 18 10 19 11 20 12 21 21 22 13 23 15 24
REMARK SMILES IDX 20 25 14 26 16 27 19 28 17 29 18 30 28 31 29 32 30 33 31 34
REMARK SMILES IDX 32 36 33 37 34 38 92 39 35 40 91 41 36 42 37 43 38 44 85 45
REMARK SMILES IDX 39 46 90 47 84 48 86 49 40 50 89 51 83 52 82 53 41 55 71 56
REMARK SMILES IDX 52 57 70 58 53 59 56 60 69 61 87 62 54 63 55 64 68 66 88 67
REMARK SMILES IDX 57 68 42 69 43 70 51 71 44 72 50 73 45 74 46 75 47 76 48 77
REMARK SMILES IDX 49 78 72 79 73 80 81 81 74 82 80 83 75 84 76 85 77 86 78 87
REMARK SMILES IDX 79 88 58 89 59 90 67 91 60 92 66 93 61 94 62 95 63 96 64 97
REMARK SMILES IDX 65 98
REMARK H PARENT 25 6 7 16 30 35 86 54 56 65
REMARK Flexibility Score: inf
ROOT
ATOM      1  C   UNL A   1      33.443  28.011  26.647  1.00  0.00     0.023 C 
ENDROOT
BRANCH   1   2
ATOM      2  C   UNL A   1      32.055  28.338  27.206  1.00  0.00     0.116 C 
BRANCH   2   3
ATOM      3  N   UNL A   1      31.258  27.124  27.269  1.00  0.00    -0.352 N 
ATOM      4  C   UNL A   1      30.627  26.393  26.291  1.00  0.00     0.253 C 
ATOM      5  O   UNL A   1      29.954  25.420  26.634  1.00  0.00    -0.269 OA
ATOM      6  H   UNL A   1      31.150  26.760  28.177  1.00  0.00     0.163 HD
BRANCH   4   7
ATOM      7  C   UNL A   1      30.829  26.667  24.837  1.00  0.00     0.064 A 
ATOM      8  C   UNL A   1      29.668  29.233  22.300  1.00  0.00     0.044 C 
ATOM      9  C   UNL A   1      30.447  28.119  22.931  1.00  0.00    -0.050 A 
ATOM     10  C   UNL A   1      31.577  27.565  22.323  1.00  0.00     0.009 A 
ATOM     11  C   UNL A   1      30.092  27.670  24.201  1.00  0.00     0.019 A 
ATOM     12  C   UNL A   1      32.286  26.494  22.913  1.00  0.00    -0.026 A 
ATOM     13  C   UNL A   1      33.539  26.027  22.229  1.00  0.00     0.046 C 
ATOM     14  C   UNL A   1      31.806  25.936  24.111  1.00  0.00     0.065 A 
BRANCH  14  15
ATOM     15  N   UNL A   1      32.313  24.724  24.701  1.00  0.00    -0.278 N 
ATOM     16  H   UNL A   1      32.972  24.833  25.425  1.00  0.00     0.180 HD
BRANCH  15  17
ATOM     17  S   UNL A   1      31.908  23.142  24.293  1.00  0.00     0.264 S 
ATOM     18  O   UNL A   1      30.996  22.726  25.349  1.00  0.00    -0.201 OA
ATOM     19  O   UNL A   1      31.419  23.174  22.929  1.00  0.00    -0.201 OA
BRANCH  17  20
ATOM     20  C   UNL A   1      33.217  21.948  24.319  1.00  0.00     0.114 A 
ATOM     21  C   UNL A   1      32.788  20.602  24.235  1.00  0.00     0.024 A 
ATOM     22  C   UNL A   1      34.550  22.268  24.557  1.00  0.00     0.091 A 
ATOM     23  C   UNL A   1      33.658  19.559  24.504  1.00  0.00     0.002 A 
ATOM     24  C   UNL A   1      35.387  21.194  24.952  1.00  0.00     0.002 A 
ATOM     25  N   UNL A   1      35.051  23.519  24.472  1.00  0.00    -0.255 NA
ATOM     26  C   UNL A   1      34.947  19.861  24.911  1.00  0.00     0.010 A 
ATOM     27  C   UNL A   1      36.663  21.482  25.448  1.00  0.00     0.015 A 
ATOM     28  C   UNL A   1      36.307  23.754  24.920  1.00  0.00     0.115 A 
ATOM     29  C   UNL A   1      37.119  22.793  25.492  1.00  0.00    -0.032 A 
ATOM     30  C   UNL A   1      38.401  23.138  26.176  1.00  0.00     0.046 C 
ENDBRANCH  17  20
ENDBRANCH  15  17
ENDBRANCH  14  15
ENDBRANCH   4   7
ENDBRANCH   2   3
ENDBRANCH   1   2
BRANCH   1  31
ATOM     31  C   UNL A   1      34.408  29.198  26.689  1.00  0.00     0.023 C 
BRANCH  31  32
ATOM     32  C   UNL A   1      35.563  29.024  27.668  1.00  0.00     0.116 C 
BRANCH  32  33
ATOM     33  N   UNL A   1      35.345  29.713  28.933  1.00  0.00    -0.352 N 
ATOM     34  C   UNL A   1      36.289  30.161  29.824  1.00  0.00     0.251 C 
ATOM     35  H   UNL A   1      34.406  29.877  29.178  1.00  0.00     0.163 HD
ATOM     36  O   UNL A   1      35.951  30.641  30.903  1.00  0.00    -0.269 OA
BRANCH  34  37
ATOM     37  C   UNL A   1      37.716  30.008  29.482  1.00  0.00     0.039 A 
ATOM     38  C   UNL A   1      38.629  29.739  30.504  1.00  0.00     0.014 A 
ATOM     39  C   UNL A   1      38.129  30.051  28.148  1.00  0.00     0.014 A 
ATOM     40  C   UNL A   1      39.952  29.436  30.176  1.00  0.00     0.010 A 
ATOM     41  C   UNL A   1      39.431  29.685  27.821  1.00  0.00     0.010 A 
ATOM     42  C   UNL A   1      40.352  29.368  28.831  1.00  0.00    -0.014 A 
BRANCH  42  43
ATOM     43  C   UNL A   1      41.726  28.947  28.463  1.00  0.00     0.031 A 
ATOM     44  C   UNL A   1      42.833  29.962  28.399  1.00  0.00     0.074 A 
ATOM     45  C   UNL A   1      41.960  27.665  28.121  1.00  0.00     0.049 A 
ATOM     46  N   UNL A   1      44.084  29.795  28.055  1.00  0.00    -0.248 NA
ATOM     47  C   UNL A   1      42.484  31.351  28.740  1.00  0.00     0.031 C 
ATOM     48  C   UNL A   1      40.956  26.597  28.091  1.00  0.00     0.029 A 
ATOM     49  N   UNL A   1      43.116  27.042  27.726  1.00  0.00    -0.354 N 
ATOM     50  C   UNL A   1      44.666  31.054  28.124  1.00  0.00     0.074 A 
ATOM     51  C   UNL A   1      43.621  31.985  28.495  1.00  0.00     0.031 C 
ATOM     52  C   UNL A   1      41.547  25.448  27.726  1.00  0.00     0.029 A 
ATOM     53  C   UNL A   1      42.960  25.700  27.464  1.00  0.00     0.049 A 
ATOM     54  H   UNL A   1      43.977  27.510  27.638  1.00  0.00     0.167 HD
ATOM     55  C   UNL A   1      45.958  31.403  27.918  1.00  0.00     0.031 A 
ATOM     56  C   UNL A   1      43.854  24.777  27.060  1.00  0.00     0.031 A 
ATOM     57  C   UNL A   1      46.998  30.475  27.565  1.00  0.00     0.049 A 
ATOM     58  C   UNL A   1      45.286  25.187  26.849  1.00  0.00     0.074 A 
ATOM     59  C   UNL A   1      48.348  30.720  27.390  1.00  0.00     0.029 A 
ATOM     60  N   UNL A   1      46.802  29.121  27.333  1.00  0.00    -0.354 N 
ATOM     61  N   UNL A   1      45.831  26.372  26.988  1.00  0.00    -0.248 NA
ATOM     62  C   UNL A   1      46.224  24.134  26.440  1.00  0.00     0.031 C 
ATOM     63  C   UNL A   1      48.965  29.522  27.015  1.00  0.00     0.029 A 
ATOM     64  C   UNL A   1      48.005  28.522  27.003  1.00  0.00     0.049 A 
ATOM     65  H   UNL A   1      45.937  28.656  27.394  1.00  0.00     0.167 HD
ATOM     66  C   UNL A   1      47.182  26.200  26.710  1.00  0.00     0.074 A 
ATOM     67  C   UNL A   1      47.373  24.796  26.407  1.00  0.00     0.031 C 
ATOM     68  C   UNL A   1      48.177  27.121  26.707  1.00  0.00     0.031 A 
BRANCH  55  69
ATOM     69  C   UNL A   1      46.315  32.856  28.076  1.00  0.00    -0.014 A 
ATOM     70  C   UNL A   1      46.754  33.363  29.313  1.00  0.00     0.010 A 
ATOM     71  C   UNL A   1      46.242  33.721  26.968  1.00  0.00     0.010 A 
ATOM     72  C   UNL A   1      47.072  34.716  29.452  1.00  0.00     0.020 A 
ATOM     73  C   UNL A   1      46.583  35.071  27.097  1.00  0.00     0.020 A 
ATOM     74  C   UNL A   1      46.979  35.563  28.342  1.00  0.00     0.054 A 
BRANCH  74  75
ATOM     75  S   UNL A   1      47.414  37.311  28.547  1.00  0.00     0.124 S 
ATOM     76  O   UNL A   1      47.500  37.763  27.159  1.00  0.00    -0.237 OA
ATOM     77  O   UNL A   1      46.285  37.838  29.309  1.00  0.00    -0.237 OA
ATOM     78  O   UNL A   1      48.684  37.271  29.267  1.00  0.00    -0.744 OA
ENDBRANCH  74  75
ENDBRANCH  55  69
BRANCH  56  79
ATOM     79  C   UNL A   1      43.427  23.367  26.853  1.00  0.00    -0.014 A 
ATOM     80  C   UNL A   1      43.227  22.517  27.955  1.00  0.00     0.010 A 
ATOM     81  C   UNL A   1      43.210  22.869  25.555  1.00  0.00     0.010 A 
ATOM     82  C   UNL A   1      42.838  21.189  27.762  1.00  0.00     0.020 A 
ATOM     83  C   UNL A   1      42.798  21.549  25.361  1.00  0.00     0.020 A 
ATOM     84  C   UNL A   1      42.626  20.712  26.466  1.00  0.00     0.054 A 
BRANCH  84  85
ATOM     85  S   UNL A   1      42.075  18.997  26.241  1.00  0.00     0.124 S 
ATOM     86  O   UNL A   1      43.037  18.497  25.263  1.00  0.00    -0.237 OA
ATOM     87  O   UNL A   1      42.198  18.445  27.588  1.00  0.00    -0.237 OA
ATOM     88  O   UNL A   1      40.704  19.141  25.758  1.00  0.00    -0.744 OA
ENDBRANCH  84  85
ENDBRANCH  56  79
BRANCH  68  89
ATOM     89  C   UNL A   1      49.568  26.638  26.401  1.00  0.00    -0.014 A 
ATOM     90  C   UNL A   1      50.355  26.016  27.384  1.00  0.00     0.010 A 
ATOM     91  C   UNL A   1      50.071  26.759  25.092  1.00  0.00     0.010 A 
ATOM     92  C   UNL A   1      51.633  25.545  27.071  1.00  0.00     0.020 A 
ATOM     93  C   UNL A   1      51.337  26.268  24.770  1.00  0.00     0.020 A 
ATOM     94  C   UNL A   1      52.116  25.676  25.765  1.00  0.00     0.054 A 
BRANCH  94  95
ATOM     95  S   UNL A   1      53.758  25.014  25.370  1.00  0.00     0.124 S 
ATOM     96  O   UNL A   1      54.017  25.608  24.061  1.00  0.00    -0.237 OA
ATOM     97  O   UNL A   1      54.582  25.521  26.465  1.00  0.00    -0.237 OA
ATOM     98  O   UNL A   1      53.557  23.567  25.370  1.00  0.00    -0.744 OA
ENDBRANCH  94  95
ENDBRANCH  68  89
ENDBRANCH  42  43
ENDBRANCH  34  37
ENDBRANCH  32  33
ENDBRANCH  31  32
ENDBRANCH   1  31
TORSDOF 17
ENDMDL
MODEL 3
REMARK VINA RESULT:     -12.4      0.802      1.805
REMARK SMILES Cc1cc(C)c(NS(=O)(=O)c2cccc3cc(C)cnc23)c(C(=O)NCCCCNC(=O)c2ccc(-c3c4nc(c(-c5ccc(S(=O)(=O)[O-])cc5)c5ccc([nH]5)c(-c5ccc(S(=O)(=O)[O-])cc5)c5nc(c(-c6ccc(S(=O)(=O)[O-])cc6)c6ccc3[nH]6)C=C5)C=C4)cc2)c1
REMARK SMILES IDX 27 1 26 2 25 3 23 4 24 5 22 7 1 8 2 9 3 10 93 11 4 12 5 13
REMARK SMILES IDX 6 14 7 15 8 17 9 18 10 19 11 20 12 21 21 22 13 23 15 24
REMARK SMILES IDX 20 25 14 26 16 27 19 28 17 29 18 30 28 31 29 32 30 33 31 34
REMARK SMILES IDX 32 36 33 37 34 38 92 39 35 40 91 41 36 42 37 43 38 44 85 45
REMARK SMILES IDX 39 46 90 47 84 48 86 49 40 50 89 51 83 52 82 53 41 55 71 56
REMARK SMILES IDX 52 57 70 58 53 59 56 60 69 61 87 62 54 63 55 64 68 66 88 67
REMARK SMILES IDX 57 68 42 69 43 70 51 71 44 72 50 73 45 74 46 75 47 76 48 77
REMARK SMILES IDX 49 78 72 79 73 80 81 81 74 82 80 83 75 84 76 85 77 86 78 87
REMARK SMILES IDX 79 88 58 89 59 90 67 91 60 92 66 93 61 94 62 95 63 96 64 97
REMARK SMILES IDX 65 98
REMARK H PARENT 25 6 7 16 30 35 86 54 56 65
REMARK Flexibility Score: inf
ROOT
ATOM      1  C   UNL A   1      39.020  21.526  25.788  1.00  0.00     0.023 C 
ENDROOT
BRANCH   1   2
ATOM      2  C   UNL A   1      37.693  22.288  25.768  1.00  0.00     0.116 C 
BRANCH   2   3
ATOM      3  N   UNL A   1      37.403  22.726  24.412  1.00  0.00    -0.352 N 
ATOM      4  C   UNL A   1      36.237  22.736  23.683  1.00  0.00     0.253 C 
ATOM      5  O   UNL A   1      36.286  23.111  22.512  1.00  0.00    -0.269 OA
ATOM      6  H   UNL A   1      38.184  23.077  23.927  1.00  0.00     0.163 HD
BRANCH   4   7
ATOM      7  C   UNL A   1      34.912  22.427  24.299  1.00  0.00     0.064 A 
ATOM      8  C   UNL A   1      33.064  19.356  25.533  1.00  0.00     0.044 C 
ATOM      9  C   UNL A   1      33.424  20.791  25.299  1.00  0.00    -0.050 A 
ATOM     10  C   UNL A   1      32.747  21.840  25.928  1.00  0.00     0.009 A 
ATOM     11  C   UNL A   1      34.520  21.099  24.496  1.00  0.00     0.019 A 
ATOM     12  C   UNL A   1      33.075  23.191  25.676  1.00  0.00    -0.026 A 
ATOM     13  C   UNL A   1      32.352  24.244  26.467  1.00  0.00     0.046 C 
ATOM     14  C   UNL A   1      34.068  23.486  24.726  1.00  0.00     0.065 A 
BRANCH  14  15
ATOM     15  N   UNL A   1      34.352  24.810  24.233  1.00  0.00    -0.278 N 
ATOM     16  H   UNL A   1      35.238  25.177  24.454  1.00  0.00     0.180 HD
BRANCH  15  17
ATOM     17  S   UNL A   1      33.339  25.801  23.324  1.00  0.00     0.264 S 
ATOM     18  O   UNL A   1      34.093  26.054  22.104  1.00  0.00    -0.201 OA
ATOM     19  O   UNL A   1      32.066  25.115  23.222  1.00  0.00    -0.201 OA
BRANCH  17  20
ATOM     20  C   UNL A   1      32.984  27.405  23.987  1.00  0.00     0.114 A 
ATOM     21  C   UNL A   1      33.788  27.777  25.090  1.00  0.00     0.024 A 
ATOM     22  C   UNL A   1      31.910  28.189  23.577  1.00  0.00     0.091 A 
ATOM     23  C   UNL A   1      33.460  28.872  25.873  1.00  0.00     0.002 A 
ATOM     24  C   UNL A   1      31.523  29.225  24.464  1.00  0.00     0.002 A 
ATOM     25  N   UNL A   1      31.221  27.985  22.434  1.00  0.00    -0.255 NA
ATOM     26  C   UNL A   1      32.298  29.567  25.585  1.00  0.00     0.010 A 
ATOM     27  C   UNL A   1      30.309  29.883  24.241  1.00  0.00     0.015 A 
ATOM     28  C   UNL A   1      30.072  28.672  22.230  1.00  0.00     0.115 A 
ATOM     29  C   UNL A   1      29.530  29.565  23.136  1.00  0.00    -0.032 A 
ATOM     30  C   UNL A   1      28.156  30.127  22.975  1.00  0.00     0.046 C 
ENDBRANCH  17  20
ENDBRANCH  15  17
ENDBRANCH  14  15
ENDBRANCH   4   7
ENDBRANCH   2   3
ENDBRANCH   1   2
BRANCH   1  31
ATOM     31  C   UNL A   1      39.941  21.943  26.936  1.00  0.00     0.023 C 
BRANCH  31  32
ATOM     32  C   UNL A   1      39.975  23.446  27.190  1.00  0.00     0.116 C 
BRANCH  32  33
ATOM     33  N   UNL A   1      40.506  24.201  26.063  1.00  0.00    -0.352 N 
ATOM     34  C   UNL A   1      40.930  25.508  26.047  1.00  0.00     0.251 C 
ATOM     35  H   UNL A   1      40.569  23.715  25.209  1.00  0.00     0.163 HD
ATOM     36  O   UNL A   1      41.265  26.042  24.993  1.00  0.00    -0.269 OA
BRANCH  34  37
ATOM     37  C   UNL A   1      40.928  26.269  27.311  1.00  0.00     0.039 A 
ATOM     38  C   UNL A   1      41.955  27.185  27.547  1.00  0.00     0.014 A 
ATOM     39  C   UNL A   1      39.871  26.132  28.214  1.00  0.00     0.014 A 
ATOM     40  C   UNL A   1      41.880  28.023  28.661  1.00  0.00     0.010 A 
ATOM     41  C   UNL A   1      39.766  27.013  29.286  1.00  0.00     0.010 A 
ATOM     42  C   UNL A   1      40.766  27.970  29.515  1.00  0.00    -0.014 A 
BRANCH  42  43
ATOM     43  C   UNL A   1      40.621  28.922  30.644  1.00  0.00     0.031 A 
ATOM     44  C   UNL A   1      41.488  28.782  31.864  1.00  0.00     0.074 A 
ATOM     45  C   UNL A   1      39.664  29.870  30.596  1.00  0.00     0.049 A 
ATOM     46  N   UNL A   1      41.479  29.488  32.965  1.00  0.00    -0.248 NA
ATOM     47  C   UNL A   1      42.476  27.691  31.857  1.00  0.00     0.031 C 
ATOM     48  C   UNL A   1      38.725  30.073  29.489  1.00  0.00     0.029 A 
ATOM     49  N   UNL A   1      39.318  30.837  31.504  1.00  0.00    -0.354 N 
ATOM     50  C   UNL A   1      42.445  28.919  33.786  1.00  0.00     0.074 A 
ATOM     51  C   UNL A   1      42.987  27.781  33.076  1.00  0.00     0.031 C 
ATOM     52  C   UNL A   1      37.929  31.116  29.773  1.00  0.00     0.029 A 
ATOM     53  C   UNL A   1      38.277  31.637  31.092  1.00  0.00     0.049 A 
ATOM     54  H   UNL A   1      39.772  30.950  32.370  1.00  0.00     0.167 HD
ATOM     55  C   UNL A   1      42.859  29.321  35.011  1.00  0.00     0.031 A 
ATOM     56  C   UNL A   1      37.672  32.672  31.705  1.00  0.00     0.031 A 
ATOM     57  C   UNL A   1      42.330  30.462  35.707  1.00  0.00     0.049 A 
ATOM     58  C   UNL A   1      38.158  33.106  33.061  1.00  0.00     0.074 A 
ATOM     59  C   UNL A   1      42.722  30.984  36.927  1.00  0.00     0.029 A 
ATOM     60  N   UNL A   1      41.293  31.259  35.245  1.00  0.00    -0.354 N 
ATOM     61  N   UNL A   1      39.122  32.598  33.791  1.00  0.00    -0.248 NA
ATOM     62  C   UNL A   1      37.483  34.260  33.669  1.00  0.00     0.031 C 
ATOM     63  C   UNL A   1      41.897  32.074  37.221  1.00  0.00     0.029 A 
ATOM     64  C   UNL A   1      41.023  32.260  36.161  1.00  0.00     0.049 A 
ATOM     65  H   UNL A   1      40.820  31.131  34.391  1.00  0.00     0.167 HD
ATOM     66  C   UNL A   1      39.187  33.388  34.932  1.00  0.00     0.074 A 
ATOM     67  C   UNL A   1      38.175  34.414  34.790  1.00  0.00     0.031 C 
ATOM     68  C   UNL A   1      40.013  33.276  36.002  1.00  0.00     0.031 A 
BRANCH  55  69
ATOM     69  C   UNL A   1      43.945  28.515  35.672  1.00  0.00    -0.014 A 
ATOM     70  C   UNL A   1      43.633  27.396  36.466  1.00  0.00     0.010 A 
ATOM     71  C   UNL A   1      45.294  28.861  35.473  1.00  0.00     0.010 A 
ATOM     72  C   UNL A   1      44.648  26.663  37.085  1.00  0.00     0.020 A 
ATOM     73  C   UNL A   1      46.314  28.113  36.071  1.00  0.00     0.020 A 
ATOM     74  C   UNL A   1      45.983  27.029  36.887  1.00  0.00     0.054 A 
BRANCH  74  75
ATOM     75  S   UNL A   1      47.280  26.049  37.688  1.00  0.00     0.124 S 
ATOM     76  O   UNL A   1      47.786  25.251  36.573  1.00  0.00    -0.237 OA
ATOM     77  O   UNL A   1      48.193  27.072  38.192  1.00  0.00    -0.237 OA
ATOM     78  O   UNL A   1      46.563  25.298  38.716  1.00  0.00    -0.744 OA
ENDBRANCH  74  75
ENDBRANCH  55  69
BRANCH  56  79
ATOM     79  C   UNL A   1      36.556  33.388  31.030  1.00  0.00    -0.014 A 
ATOM     80  C   UNL A   1      35.365  33.663  31.726  1.00  0.00     0.010 A 
ATOM     81  C   UNL A   1      36.679  33.804  29.692  1.00  0.00     0.010 A 
ATOM     82  C   UNL A   1      34.311  34.324  31.089  1.00  0.00     0.020 A 
ATOM     83  C   UNL A   1      35.636  34.486  29.061  1.00  0.00     0.020 A 
ATOM     84  C   UNL A   1      34.452  34.731  29.760  1.00  0.00     0.054 A 
BRANCH  84  85
ATOM     85  S   UNL A   1      33.088  35.629  28.968  1.00  0.00     0.124 S 
ATOM     86  O   UNL A   1      32.293  36.046  30.119  1.00  0.00    -0.237 OA
ATOM     87  O   UNL A   1      33.784  36.700  28.259  1.00  0.00    -0.237 OA
ATOM     88  O   UNL A   1      32.471  34.622  28.109  1.00  0.00    -0.744 OA
ENDBRANCH  84  85
ENDBRANCH  56  79
BRANCH  68  89
ATOM     89  C   UNL A   1      39.882  34.306  37.089  1.00  0.00    -0.014 A 
ATOM     90  C   UNL A   1      40.401  35.602  36.929  1.00  0.00     0.010 A 
ATOM     91  C   UNL A   1      39.178  33.988  38.265  1.00  0.00     0.010 A 
ATOM     92  C   UNL A   1      40.242  36.556  37.938  1.00  0.00     0.020 A 
ATOM     93  C   UNL A   1      38.995  34.945  39.264  1.00  0.00     0.020 A 
ATOM     94  C   UNL A   1      39.540  36.220  39.100  1.00  0.00     0.054 A 
BRANCH  94  95
ATOM     95  S   UNL A   1      39.303  37.487  40.376  1.00  0.00     0.124 S 
ATOM     96  O   UNL A   1      38.532  36.764  41.383  1.00  0.00    -0.237 OA
ATOM     97  O   UNL A   1      40.675  37.824  40.754  1.00  0.00    -0.237 OA
ATOM     98  O   UNL A   1      38.580  38.549  39.680  1.00  0.00    -0.744 OA
ENDBRANCH  94  95
ENDBRANCH  68  89
ENDBRANCH  42  43
ENDBRANCH  34  37
ENDBRANCH  32  33
ENDBRANCH  31  32
ENDBRANCH   1  31
TORSDOF 17
ENDMDL
