MODEL 1
REMARK VINA RESULT:     -13.3      0.000      0.000
REMARK SMILES O=C(NCCCCNC(=O)[C@@H](Cc1ccc(F)cc1)NC(=O)c1ccn(C2CCCC2)n1)c1ccc(-c2c3nc(c(-c4ccc(S(=O)(=O)[O-])cc4)c4ccc([nH]4)c(-c4ccc(S(=O)(=O)[O-])cc4)c4nc(c(-c5ccc(S(=O)(=O)[O-])cc5)c5ccc2[nH]5)C=C4)C=C3)cc1
REMARK SMILES IDX 5 1 4 2 3 3 1 4 2 5 33 7 34 8 92 9 35 10 91 11 36 12 37 13
REMARK SMILES IDX 38 14 85 15 39 16 90 17 84 18 86 19 40 20 89 21 83 22 82 23
REMARK SMILES IDX 41 25 71 26 52 27 70 28 53 29 56 30 69 31 87 32 54 33 55 34
REMARK SMILES IDX 68 36 88 37 57 38 42 39 43 40 51 41 44 42 50 43 45 44 46 45
REMARK SMILES IDX 47 46 48 47 49 48 72 49 73 50 81 51 74 52 80 53 75 54 76 55
REMARK SMILES IDX 77 56 78 57 79 58 58 59 59 60 67 61 60 62 66 63 61 64 62 65
REMARK SMILES IDX 63 66 64 67 65 68 6 69 7 70 8 71 9 72 10 74 11 75 12 76
REMARK SMILES IDX 13 77 14 78 19 79 15 80 18 81 16 82 17 83 20 84 21 85 22 87
REMARK SMILES IDX 23 88 24 89 32 90 25 91 26 92 27 93 28 94 31 95 29 96 30 97
REMARK H PARENT 3 6 86 24 56 35 8 73 20 86
REMARK Flexibility Score: inf
ROOT
ATOM      1  C   UNL A   1      31.702  28.867  27.121  1.00  0.00     0.023 C 
ENDROOT
BRANCH   1   2
ATOM      2  C   UNL A   1      32.999  29.638  26.851  1.00  0.00     0.116 C 
BRANCH   2   3
ATOM      3  N   UNL A   1      33.190  30.801  27.693  1.00  0.00    -0.352 N 
ATOM      4  O   UNL A   1      34.085  32.775  28.151  1.00  0.00    -0.269 OA
ATOM      5  C   UNL A   1      34.293  31.583  27.913  1.00  0.00     0.251 C 
ATOM      6  H   UNL A   1      32.389  31.077  28.194  1.00  0.00     0.163 HD
BRANCH   5   7
ATOM      7  C   UNL A   1      35.680  31.051  28.000  1.00  0.00     0.039 A 
ATOM      8  C   UNL A   1      36.045  29.726  27.760  1.00  0.00     0.014 A 
ATOM      9  C   UNL A   1      36.654  31.942  28.492  1.00  0.00     0.014 A 
ATOM     10  C   UNL A   1      37.317  29.277  28.087  1.00  0.00     0.010 A 
ATOM     11  C   UNL A   1      37.929  31.499  28.821  1.00  0.00     0.010 A 
ATOM     12  C   UNL A   1      38.241  30.155  28.654  1.00  0.00    -0.014 A 
BRANCH  12  13
ATOM     13  C   UNL A   1      39.580  29.645  28.917  1.00  0.00     0.031 A 
ATOM     14  C   UNL A   1      39.932  29.598  30.363  1.00  0.00     0.074 A 
ATOM     15  C   UNL A   1      40.392  29.147  27.965  1.00  0.00     0.049 A 
ATOM     16  N   UNL A   1      40.832  30.281  30.990  1.00  0.00    -0.248 NA
ATOM     17  C   UNL A   1      39.068  28.793  31.242  1.00  0.00     0.031 C 
ATOM     18  C   UNL A   1      40.072  28.871  26.563  1.00  0.00     0.029 A 
ATOM     19  N   UNL A   1      41.662  28.667  28.090  1.00  0.00    -0.354 N 
ATOM     20  C   UNL A   1      40.793  29.838  32.311  1.00  0.00     0.074 A 
ATOM     21  C   UNL A   1      39.585  29.065  32.440  1.00  0.00     0.031 C 
ATOM     22  C   UNL A   1      41.020  28.056  26.045  1.00  0.00     0.029 A 
ATOM     23  C   UNL A   1      42.074  27.868  27.029  1.00  0.00     0.049 A 
ATOM     24  H   UNL A   1      42.236  28.868  28.864  1.00  0.00     0.167 HD
ATOM     25  C   UNL A   1      41.877  29.928  33.133  1.00  0.00     0.031 A 
ATOM     26  C   UNL A   1      43.159  27.052  27.002  1.00  0.00     0.031 A 
ATOM     27  C   UNL A   1      42.859  30.848  32.624  1.00  0.00     0.049 A 
ATOM     28  C   UNL A   1      44.086  27.508  28.067  1.00  0.00     0.074 A 
ATOM     29  C   UNL A   1      42.877  32.194  32.319  1.00  0.00     0.029 A 
ATOM     30  N   UNL A   1      43.960  30.305  32.004  1.00  0.00    -0.354 N 
ATOM     31  N   UNL A   1      44.704  28.655  28.036  1.00  0.00    -0.248 NA
ATOM     32  C   UNL A   1      43.979  26.892  29.380  1.00  0.00     0.031 C 
ATOM     33  C   UNL A   1      43.697  32.296  31.157  1.00  0.00     0.029 A 
ATOM     34  C   UNL A   1      44.180  31.020  30.858  1.00  0.00     0.049 A 
ATOM     35  H   UNL A   1      44.493  29.542  32.326  1.00  0.00     0.167 HD
ATOM     36  C   UNL A   1      44.679  29.108  29.348  1.00  0.00     0.074 A 
ATOM     37  C   UNL A   1      44.306  27.938  30.143  1.00  0.00     0.031 C 
ATOM     38  C   UNL A   1      44.693  30.443  29.635  1.00  0.00     0.031 A 
BRANCH  25  39
ATOM     39  C   UNL A   1      42.239  28.862  34.145  1.00  0.00    -0.014 A 
ATOM     40  C   UNL A   1      42.786  27.649  33.677  1.00  0.00     0.010 A 
ATOM     41  C   UNL A   1      41.777  28.879  35.477  1.00  0.00     0.010 A 
ATOM     42  C   UNL A   1      42.752  26.486  34.458  1.00  0.00     0.020 A 
ATOM     43  C   UNL A   1      41.783  27.738  36.281  1.00  0.00     0.020 A 
ATOM     44  C   UNL A   1      42.226  26.536  35.747  1.00  0.00     0.054 A 
BRANCH  44  45
ATOM     45  S   UNL A   1      42.042  25.005  36.691  1.00  0.00     0.124 S 
ATOM     46  O   UNL A   1      40.832  25.273  37.461  1.00  0.00    -0.237 OA
ATOM     47  O   UNL A   1      41.916  24.004  35.635  1.00  0.00    -0.237 OA
ATOM     48  O   UNL A   1      43.279  24.933  37.468  1.00  0.00    -0.744 OA
ENDBRANCH  44  45
ENDBRANCH  25  39
BRANCH  26  49
ATOM     49  C   UNL A   1      43.274  25.715  26.361  1.00  0.00    -0.014 A 
ATOM     50  C   UNL A   1      44.184  25.480  25.311  1.00  0.00     0.010 A 
ATOM     51  C   UNL A   1      42.686  24.590  26.977  1.00  0.00     0.010 A 
ATOM     52  C   UNL A   1      44.533  24.171  24.933  1.00  0.00     0.020 A 
ATOM     53  C   UNL A   1      43.025  23.284  26.602  1.00  0.00     0.020 A 
ATOM     54  C   UNL A   1      43.965  23.080  25.596  1.00  0.00     0.054 A 
BRANCH  54  55
ATOM     55  S   UNL A   1      44.547  21.397  25.227  1.00  0.00     0.124 S 
ATOM     56  O   UNL A   1      45.892  21.401  25.794  1.00  0.00    -0.237 OA
ATOM     57  O   UNL A   1      43.570  20.562  25.920  1.00  0.00    -0.237 OA
ATOM     58  O   UNL A   1      44.491  21.325  23.767  1.00  0.00    -0.744 OA
ENDBRANCH  54  55
ENDBRANCH  26  49
BRANCH  38  59
ATOM     59  C   UNL A   1      45.039  31.416  28.534  1.00  0.00    -0.014 A 
ATOM     60  C   UNL A   1      44.089  31.987  27.663  1.00  0.00     0.010 A 
ATOM     61  C   UNL A   1      46.362  31.890  28.488  1.00  0.00     0.010 A 
ATOM     62  C   UNL A   1      44.464  32.989  26.755  1.00  0.00     0.020 A 
ATOM     63  C   UNL A   1      46.737  32.899  27.600  1.00  0.00     0.020 A 
ATOM     64  C   UNL A   1      45.788  33.439  26.731  1.00  0.00     0.054 A 
BRANCH  64  65
ATOM     65  S   UNL A   1      46.259  34.772  25.594  1.00  0.00     0.124 S 
ATOM     66  O   UNL A   1      47.678  34.514  25.371  1.00  0.00    -0.237 OA
ATOM     67  O   UNL A   1      45.390  34.539  24.442  1.00  0.00    -0.237 OA
ATOM     68  O   UNL A   1      45.963  35.992  26.344  1.00  0.00    -0.744 OA
ENDBRANCH  64  65
ENDBRANCH  38  59
ENDBRANCH  12  13
ENDBRANCH   5   7
ENDBRANCH   2   3
ENDBRANCH   1   2
BRANCH   1  69
ATOM     69  C   UNL A   1      31.797  27.357  26.901  1.00  0.00     0.023 C 
BRANCH  69  70
ATOM     70  C   UNL A   1      30.898  26.810  25.794  1.00  0.00     0.116 C 
BRANCH  70  71
ATOM     71  N   UNL A   1      31.029  25.377  25.667  1.00  0.00    -0.354 N 
ATOM     72  C   UNL A   1      32.006  24.598  25.144  1.00  0.00     0.242 C 
ATOM     73  H   UNL A   1      30.264  24.872  26.028  1.00  0.00     0.163 HD
ATOM     74  O   UNL A   1      31.783  23.381  25.128  1.00  0.00    -0.273 OA
BRANCH  72  75
ATOM     75  C   UNL A   1      33.352  25.133  24.599  1.00  0.00     0.176 C 
BRANCH  75  76
ATOM     76  C   UNL A   1      34.627  24.834  25.422  1.00  0.00     0.070 C 
BRANCH  76  77
ATOM     77  C   UNL A   1      35.470  23.587  25.234  1.00  0.00    -0.045 A 
ATOM     78  C   UNL A   1      34.809  22.344  25.176  1.00  0.00     0.007 A 
ATOM     79  C   UNL A   1      36.873  23.580  25.195  1.00  0.00     0.007 A 
ATOM     80  C   UNL A   1      35.515  21.156  24.962  1.00  0.00     0.039 A 
ATOM     81  C   UNL A   1      37.578  22.399  24.935  1.00  0.00     0.039 A 
ATOM     82  C   UNL A   1      36.892  21.200  24.808  1.00  0.00     0.123 A 
ATOM     83  F   UNL A   1      37.568  20.078  24.538  1.00  0.00    -0.207 F 
ENDBRANCH  76  77
ENDBRANCH  75  76
BRANCH  75  84
ATOM     84  N   UNL A   1      33.507  24.979  23.159  1.00  0.00    -0.339 N 
ATOM     85  C   UNL A   1      33.157  25.807  22.113  1.00  0.00     0.272 C 
ATOM     86  H   UNL A   1      33.935  24.136  22.885  1.00  0.00     0.164 HD
ATOM     87  O   UNL A   1      33.398  25.397  20.987  1.00  0.00    -0.267 OA
BRANCH  85  88
ATOM     88  C   UNL A   1      32.475  27.088  22.369  1.00  0.00     0.150 A 
ATOM     89  C   UNL A   1      32.968  28.320  22.880  1.00  0.00     0.056 A 
ATOM     90  N   UNL A   1      31.166  27.202  22.078  1.00  0.00    -0.167 NA
ATOM     91  C   UNL A   1      31.874  29.151  22.968  1.00  0.00     0.110 A 
ATOM     92  N   UNL A   1      30.825  28.435  22.476  1.00  0.00    -0.269 N 
BRANCH  92  93
ATOM     93  C   UNL A   1      29.453  28.875  22.346  1.00  0.00     0.107 C 
ATOM     94  C   UNL A   1      28.457  28.012  23.120  1.00  0.00     0.027 C 
ATOM     95  C   UNL A   1      29.194  30.277  22.898  1.00  0.00     0.027 C 
ATOM     96  C   UNL A   1      27.205  28.874  23.173  1.00  0.00     0.002 C 
ATOM     97  C   UNL A   1      27.692  30.323  23.170  1.00  0.00     0.002 C 
ENDBRANCH  92  93
ENDBRANCH  85  88
ENDBRANCH  75  84
ENDBRANCH  72  75
ENDBRANCH  70  71
ENDBRANCH  69  70
ENDBRANCH   1  69
TORSDOF 19
ENDMDL
MODEL 2
REMARK VINA RESULT:     -13.0      3.088      9.546
REMARK SMILES O=C(NCCCCNC(=O)[C@@H](Cc1ccc(F)cc1)NC(=O)c1ccn(C2CCCC2)n1)c1ccc(-c2c3nc(c(-c4ccc(S(=O)(=O)[O-])cc4)c4ccc([nH]4)c(-c4ccc(S(=O)(=O)[O-])cc4)c4nc(c(-c5ccc(S(=O)(=O)[O-])cc5)c5ccc2[nH]5)C=C4)C=C3)cc1
REMARK SMILES IDX 5 1 4 2 3 3 1 4 2 5 33 7 34 8 92 9 35 10 91 11 36 12 37 13
REMARK SMILES IDX 38 14 85 15 39 16 90 17 84 18 86 19 40 20 89 21 83 22 82 23
REMARK SMILES IDX 41 25 71 26 52 27 70 28 53 29 56 30 69 31 87 32 54 33 55 34
REMARK SMILES IDX 68 36 88 37 57 38 42 39 43 40 51 41 44 42 50 43 45 44 46 45
REMARK SMILES IDX 47 46 48 47 49 48 72 49 73 50 81 51 74 52 80 53 75 54 76 55
REMARK SMILES IDX 77 56 78 57 79 58 58 59 59 60 67 61 60 62 66 63 61 64 62 65
REMARK SMILES IDX 63 66 64 67 65 68 6 69 7 70 8 71 9 72 10 74 11 75 12 76
REMARK SMILES IDX 13 77 14 78 19 79 15 80 18 81 16 82 17 83 20 84 21 85 22 87
REMARK SMILES IDX 23 88 24 89 32 90 25 91 26 92 27 93 28 94 31 95 29 96 30 97
REMARK H PARENT 3 6 86 24 56 35 8 73 20 86
REMARK Flexibility Score: inf
ROOT
ATOM      1  C   UNL A   1      36.299  22.220  23.830  1.00  0.00     0.023 C 
ENDROOT
BRANCH   1   2
ATOM      2  C   UNL A   1      36.958  22.310  25.211  1.00  0.00     0.116 C 
BRANCH   2   3
ATOM      3  N   UNL A   1      38.301  21.772  25.269  1.00  0.00    -0.352 N 
ATOM      4  O   UNL A   1      40.051  20.957  26.357  1.00  0.00    -0.269 OA
ATOM      5  C   UNL A   1      39.291  21.916  26.206  1.00  0.00     0.251 C 
ATOM      6  H   UNL A   1      38.547  21.205  24.502  1.00  0.00     0.163 HD
BRANCH   5   7
ATOM      7  C   UNL A   1      39.557  23.184  26.939  1.00  0.00     0.039 A 
ATOM      8  C   UNL A   1      38.826  24.362  26.790  1.00  0.00     0.014 A 
ATOM      9  C   UNL A   1      40.720  23.204  27.734  1.00  0.00     0.014 A 
ATOM     10  C   UNL A   1      39.288  25.550  27.341  1.00  0.00     0.010 A 
ATOM     11  C   UNL A   1      41.188  24.389  28.288  1.00  0.00     0.010 A 
ATOM     12  C   UNL A   1      40.488  25.567  28.053  1.00  0.00    -0.014 A 
BRANCH  12  13
ATOM     13  C   UNL A   1      40.891  26.828  28.662  1.00  0.00     0.031 A 
ATOM     14  C   UNL A   1      42.100  27.435  28.042  1.00  0.00     0.074 A 
ATOM     15  C   UNL A   1      40.181  27.458  29.617  1.00  0.00     0.049 A 
ATOM     16  N   UNL A   1      43.265  27.618  28.571  1.00  0.00    -0.248 NA
ATOM     17  C   UNL A   1      42.040  27.741  26.603  1.00  0.00     0.031 C 
ATOM     18  C   UNL A   1      38.844  27.125  30.113  1.00  0.00     0.029 A 
ATOM     19  N   UNL A   1      40.469  28.620  30.269  1.00  0.00    -0.354 N 
ATOM     20  C   UNL A   1      44.029  28.259  27.597  1.00  0.00     0.074 A 
ATOM     21  C   UNL A   1      43.288  28.146  26.367  1.00  0.00     0.031 C 
ATOM     22  C   UNL A   1      38.346  28.186  30.789  1.00  0.00     0.029 A 
ATOM     23  C   UNL A   1      39.374  29.210  30.889  1.00  0.00     0.049 A 
ATOM     24  H   UNL A   1      41.374  29.007  30.298  1.00  0.00     0.167 HD
ATOM     25  C   UNL A   1      45.091  29.049  27.919  1.00  0.00     0.031 A 
ATOM     26  C   UNL A   1      39.300  30.477  31.374  1.00  0.00     0.031 A 
ATOM     27  C   UNL A   1      45.539  28.820  29.267  1.00  0.00     0.049 A 
ATOM     28  C   UNL A   1      40.689  30.956  31.578  1.00  0.00     0.074 A 
ATOM     29  C   UNL A   1      46.030  27.736  29.966  1.00  0.00     0.029 A 
ATOM     30  N   UNL A   1      45.163  29.742  30.215  1.00  0.00    -0.354 N 
ATOM     31  N   UNL A   1      41.497  30.454  32.469  1.00  0.00    -0.248 NA
ATOM     32  C   UNL A   1      41.331  31.685  30.495  1.00  0.00     0.031 C 
ATOM     33  C   UNL A   1      45.482  27.865  31.276  1.00  0.00     0.029 A 
ATOM     34  C   UNL A   1      44.742  29.048  31.318  1.00  0.00     0.049 A 
ATOM     35  H   UNL A   1      45.190  30.721  30.118  1.00  0.00     0.167 HD
ATOM     36  C   UNL A   1      42.737  30.422  31.846  1.00  0.00     0.074 A 
ATOM     37  C   UNL A   1      42.592  31.280  30.671  1.00  0.00     0.031 C 
ATOM     38  C   UNL A   1      43.677  29.491  32.189  1.00  0.00     0.031 A 
BRANCH  25  39
ATOM     39  C   UNL A   1      45.427  30.327  27.179  1.00  0.00    -0.014 A 
ATOM     40  C   UNL A   1      46.785  30.680  27.030  1.00  0.00     0.010 A 
ATOM     41  C   UNL A   1      44.475  31.332  26.912  1.00  0.00     0.010 A 
ATOM     42  C   UNL A   1      47.168  32.000  26.755  1.00  0.00     0.020 A 
ATOM     43  C   UNL A   1      44.845  32.639  26.590  1.00  0.00     0.020 A 
ATOM     44  C   UNL A   1      46.191  32.975  26.562  1.00  0.00     0.054 A 
BRANCH  44  45
ATOM     45  S   UNL A   1      46.688  34.702  26.361  1.00  0.00     0.124 S 
ATOM     46  O   UNL A   1      47.749  34.823  27.356  1.00  0.00    -0.237 OA
ATOM     47  O   UNL A   1      47.117  34.739  24.966  1.00  0.00    -0.237 OA
ATOM     48  O   UNL A   1      45.464  35.446  26.653  1.00  0.00    -0.744 OA
ENDBRANCH  44  45
ENDBRANCH  25  39
BRANCH  26  49
ATOM     49  C   UNL A   1      38.135  31.399  31.332  1.00  0.00    -0.014 A 
ATOM     50  C   UNL A   1      36.816  30.922  31.463  1.00  0.00     0.010 A 
ATOM     51  C   UNL A   1      38.338  32.791  31.446  1.00  0.00     0.010 A 
ATOM     52  C   UNL A   1      35.753  31.797  31.755  1.00  0.00     0.020 A 
ATOM     53  C   UNL A   1      37.284  33.668  31.730  1.00  0.00     0.020 A 
ATOM     54  C   UNL A   1      35.999  33.163  31.906  1.00  0.00     0.054 A 
BRANCH  54  55
ATOM     55  S   UNL A   1      34.659  34.266  32.454  1.00  0.00     0.124 S 
ATOM     56  O   UNL A   1      33.784  34.299  31.286  1.00  0.00    -0.237 OA
ATOM     57  O   UNL A   1      34.129  33.567  33.622  1.00  0.00    -0.237 OA
ATOM     58  O   UNL A   1      35.346  35.522  32.749  1.00  0.00    -0.744 OA
ENDBRANCH  54  55
ENDBRANCH  26  49
BRANCH  38  59
ATOM     59  C   UNL A   1      43.474  28.690  33.452  1.00  0.00    -0.014 A 
ATOM     60  C   UNL A   1      43.796  29.159  34.741  1.00  0.00     0.010 A 
ATOM     61  C   UNL A   1      42.780  27.472  33.335  1.00  0.00     0.010 A 
ATOM     62  C   UNL A   1      43.451  28.415  35.880  1.00  0.00     0.020 A 
ATOM     63  C   UNL A   1      42.418  26.736  34.464  1.00  0.00     0.020 A 
ATOM     64  C   UNL A   1      42.762  27.206  35.732  1.00  0.00     0.054 A 
BRANCH  64  65
ATOM     65  S   UNL A   1      42.270  26.272  37.207  1.00  0.00     0.124 S 
ATOM     66  O   UNL A   1      40.908  26.743  37.442  1.00  0.00    -0.237 OA
ATOM     67  O   UNL A   1      42.388  24.883  36.767  1.00  0.00    -0.237 OA
ATOM     68  O   UNL A   1      43.247  26.675  38.219  1.00  0.00    -0.744 OA
ENDBRANCH  64  65
ENDBRANCH  38  59
ENDBRANCH  12  13
ENDBRANCH   5   7
ENDBRANCH   2   3
ENDBRANCH   1   2
BRANCH   1  69
ATOM     69  C   UNL A   1      35.292  23.331  23.528  1.00  0.00     0.023 C 
BRANCH  69  70
ATOM     70  C   UNL A   1      33.939  22.848  23.009  1.00  0.00     0.116 C 
BRANCH  70  71
ATOM     71  N   UNL A   1      33.052  23.956  22.736  1.00  0.00    -0.354 N 
ATOM     72  C   UNL A   1      32.526  24.915  23.536  1.00  0.00     0.242 C 
ATOM     73  H   UNL A   1      32.779  24.027  21.793  1.00  0.00     0.163 HD
ATOM     74  O   UNL A   1      31.733  25.698  22.998  1.00  0.00    -0.273 OA
BRANCH  72  75
ATOM     75  C   UNL A   1      32.867  25.087  25.035  1.00  0.00     0.176 C 
BRANCH  75  76
ATOM     76  C   UNL A   1      33.666  26.346  25.447  1.00  0.00     0.070 C 
BRANCH  76  77
ATOM     77  C   UNL A   1      33.017  27.679  25.766  1.00  0.00    -0.045 A 
ATOM     78  C   UNL A   1      33.192  28.208  27.060  1.00  0.00     0.007 A 
ATOM     79  C   UNL A   1      32.184  28.385  24.883  1.00  0.00     0.007 A 
ATOM     80  C   UNL A   1      32.660  29.452  27.414  1.00  0.00     0.039 A 
ATOM     81  C   UNL A   1      31.688  29.650  25.219  1.00  0.00     0.039 A 
ATOM     82  C   UNL A   1      31.941  30.177  26.477  1.00  0.00     0.123 A 
ATOM     83  F   UNL A   1      31.484  31.396  26.786  1.00  0.00    -0.207 F 
ENDBRANCH  76  77
ENDBRANCH  75  76
BRANCH  75  84
ATOM     84  N   UNL A   1      31.775  24.738  25.931  1.00  0.00    -0.339 N 
ATOM     85  C   UNL A   1      31.437  23.544  26.533  1.00  0.00     0.272 C 
ATOM     86  H   UNL A   1      31.171  25.486  26.146  1.00  0.00     0.164 HD
ATOM     87  O   UNL A   1      30.434  23.548  27.232  1.00  0.00    -0.267 OA
BRANCH  85  88
ATOM     88  C   UNL A   1      32.229  22.328  26.277  1.00  0.00     0.150 A 
ATOM     89  C   UNL A   1      33.519  21.944  26.735  1.00  0.00     0.056 A 
ATOM     90  N   UNL A   1      31.707  21.357  25.506  1.00  0.00    -0.167 NA
ATOM     91  C   UNL A   1      33.786  20.737  26.128  1.00  0.00     0.110 A 
ATOM     92  N   UNL A   1      32.672  20.432  25.407  1.00  0.00    -0.269 N 
BRANCH  92  93
ATOM     93  C   UNL A   1      32.452  19.253  24.597  1.00  0.00     0.107 C 
ATOM     94  C   UNL A   1      32.213  19.561  23.119  1.00  0.00     0.027 C 
ATOM     95  C   UNL A   1      33.642  18.293  24.559  1.00  0.00     0.027 C 
ATOM     96  C   UNL A   1      32.421  18.218  22.437  1.00  0.00     0.002 C 
ATOM     97  C   UNL A   1      33.442  17.466  23.291  1.00  0.00     0.002 C 
ENDBRANCH  92  93
ENDBRANCH  85  88
ENDBRANCH  75  84
ENDBRANCH  72  75
ENDBRANCH  70  71
ENDBRANCH  69  70
ENDBRANCH   1  69
TORSDOF 19
ENDMDL
MODEL 3
REMARK VINA RESULT:     -12.9      2.193      4.633
REMARK SMILES O=C(NCCCCNC(=O)[C@@H](Cc1ccc(F)cc1)NC(=O)c1ccn(C2CCCC2)n1)c1ccc(-c2c3nc(c(-c4ccc(S(=O)(=O)[O-])cc4)c4ccc([nH]4)c(-c4ccc(S(=O)(=O)[O-])cc4)c4nc(c(-c5ccc(S(=O)(=O)[O-])cc5)c5ccc2[nH]5)C=C4)C=C3)cc1
REMARK SMILES IDX 5 1 4 2 3 3 1 4 2 5 33 7 34 8 92 9 35 10 91 11 36 12 37 13
REMARK SMILES IDX 38 14 85 15 39 16 90 17 84 18 86 19 40 20 89 21 83 22 82 23
REMARK SMILES IDX 41 25 71 26 52 27 70 28 53 29 56 30 69 31 87 32 54 33 55 34
REMARK SMILES IDX 68 36 88 37 57 38 42 39 43 40 51 41 44 42 50 43 45 44 46 45
REMARK SMILES IDX 47 46 48 47 49 48 72 49 73 50 81 51 74 52 80 53 75 54 76 55
REMARK SMILES IDX 77 56 78 57 79 58 58 59 59 60 67 61 60 62 66 63 61 64 62 65
REMARK SMILES IDX 63 66 64 67 65 68 6 69 7 70 8 71 9 72 10 74 11 75 12 76
REMARK SMILES IDX 13 77 14 78 19 79 15 80 18 81 16 82 17 83 20 84 21 85 22 87
REMARK SMILES IDX 23 88 24 89 32 90 25 91 26 92 27 93 28 94 31 95 29 96 30 97
REMARK H PARENT 3 6 86 24 56 35 8 73 20 86
REMARK Flexibility Score: inf
ROOT
ATOM      1  C   UNL A   1      31.717  29.390  25.869  1.00  0.00     0.023 C 
ENDROOT
BRANCH   1   2
ATOM      2  C   UNL A   1      33.093  30.007  26.144  1.00  0.00     0.116 C 
BRANCH   2   3
ATOM      3  N   UNL A   1      33.128  30.912  27.274  1.00  0.00    -0.352 N 
ATOM      4  O   UNL A   1      33.897  32.690  28.351  1.00  0.00    -0.269 OA
ATOM      5  C   UNL A   1      34.167  31.595  27.850  1.00  0.00     0.251 C 
ATOM      6  H   UNL A   1      32.255  31.062  27.703  1.00  0.00     0.163 HD
BRANCH   5   7
ATOM      7  C   UNL A   1      35.538  31.038  28.005  1.00  0.00     0.039 A 
ATOM      8  C   UNL A   1      35.874  29.691  27.870  1.00  0.00     0.014 A 
ATOM      9  C   UNL A   1      36.524  31.940  28.451  1.00  0.00     0.014 A 
ATOM     10  C   UNL A   1      37.128  29.237  28.256  1.00  0.00     0.010 A 
ATOM     11  C   UNL A   1      37.781  31.493  28.839  1.00  0.00     0.010 A 
ATOM     12  C   UNL A   1      38.063  30.133  28.777  1.00  0.00    -0.014 A 
BRANCH  12  13
ATOM     13  C   UNL A   1      39.383  29.612  29.104  1.00  0.00     0.031 A 
ATOM     14  C   UNL A   1      39.680  29.602  30.563  1.00  0.00     0.074 A 
ATOM     15  C   UNL A   1      40.223  29.076  28.198  1.00  0.00     0.049 A 
ATOM     16  N   UNL A   1      40.565  30.290  31.206  1.00  0.00    -0.248 NA
ATOM     17  C   UNL A   1      38.771  28.834  31.431  1.00  0.00     0.031 C 
ATOM     18  C   UNL A   1      39.952  28.765  26.793  1.00  0.00     0.029 A 
ATOM     19  N   UNL A   1      41.480  28.582  28.385  1.00  0.00    -0.354 N 
ATOM     20  C   UNL A   1      40.471  29.885  32.536  1.00  0.00     0.074 A 
ATOM     21  C   UNL A   1      39.247  29.133  32.640  1.00  0.00     0.031 C 
ATOM     22  C   UNL A   1      40.906  27.922  26.335  1.00  0.00     0.029 A 
ATOM     23  C   UNL A   1      41.919  27.748  27.364  1.00  0.00     0.049 A 
ATOM     24  H   UNL A   1      42.027  28.798  29.174  1.00  0.00     0.167 HD
ATOM     25  C   UNL A   1      41.524  29.984  33.395  1.00  0.00     0.031 A 
ATOM     26  C   UNL A   1      42.993  26.917  27.400  1.00  0.00     0.031 A 
ATOM     27  C   UNL A   1      42.538  30.875  32.899  1.00  0.00     0.049 A 
ATOM     28  C   UNL A   1      43.885  27.390  28.486  1.00  0.00     0.074 A 
ATOM     29  C   UNL A   1      42.587  32.211  32.557  1.00  0.00     0.029 A 
ATOM     30  N   UNL A   1      43.653  30.300  32.337  1.00  0.00    -0.354 N 
ATOM     31  N   UNL A   1      44.521  28.527  28.447  1.00  0.00    -0.248 NA
ATOM     32  C   UNL A   1      43.721  26.813  29.812  1.00  0.00     0.031 C 
ATOM     33  C   UNL A   1      43.451  32.269  31.424  1.00  0.00     0.029 A 
ATOM     34  C   UNL A   1      43.927  30.979  31.180  1.00  0.00     0.049 A 
ATOM     35  H   UNL A   1      44.162  29.538  32.700  1.00  0.00     0.167 HD
ATOM     36  C   UNL A   1      44.453  29.017  29.744  1.00  0.00     0.074 A 
ATOM     37  C   UNL A   1      44.034  27.876  30.557  1.00  0.00     0.031 C 
ATOM     38  C   UNL A   1      44.477  30.360  29.994  1.00  0.00     0.031 A 
BRANCH  25  39
ATOM     39  C   UNL A   1      41.832  28.942  34.450  1.00  0.00    -0.014 A 
ATOM     40  C   UNL A   1      42.257  29.380  35.723  1.00  0.00     0.010 A 
ATOM     41  C   UNL A   1      42.025  27.578  34.149  1.00  0.00     0.010 A 
ATOM     42  C   UNL A   1      42.951  28.526  36.591  1.00  0.00     0.020 A 
ATOM     43  C   UNL A   1      42.673  26.708  35.027  1.00  0.00     0.020 A 
ATOM     44  C   UNL A   1      43.176  27.201  36.222  1.00  0.00     0.054 A 
BRANCH  44  45
ATOM     45  S   UNL A   1      44.204  26.150  37.274  1.00  0.00     0.124 S 
ATOM     46  O   UNL A   1      45.535  26.393  36.727  1.00  0.00    -0.237 OA
ATOM     47  O   UNL A   1      43.951  26.701  38.603  1.00  0.00    -0.237 OA
ATOM     48  O   UNL A   1      43.666  24.809  37.047  1.00  0.00    -0.744 OA
ENDBRANCH  44  45
ENDBRANCH  25  39
BRANCH  26  49
ATOM     49  C   UNL A   1      43.112  25.561  26.802  1.00  0.00    -0.014 A 
ATOM     50  C   UNL A   1      43.276  25.383  25.414  1.00  0.00     0.010 A 
ATOM     51  C   UNL A   1      43.350  24.446  27.634  1.00  0.00     0.010 A 
ATOM     52  C   UNL A   1      43.716  24.154  24.887  1.00  0.00     0.020 A 
ATOM     53  C   UNL A   1      43.782  23.219  27.116  1.00  0.00     0.020 A 
ATOM     54  C   UNL A   1      43.985  23.085  25.745  1.00  0.00     0.054 A 
BRANCH  54  55
ATOM     55  S   UNL A   1      44.720  21.559  25.083  1.00  0.00     0.124 S 
ATOM     56  O   UNL A   1      44.659  21.784  23.642  1.00  0.00    -0.237 OA
ATOM     57  O   UNL A   1      46.057  21.568  25.669  1.00  0.00    -0.237 OA
ATOM     58  O   UNL A   1      43.837  20.506  25.583  1.00  0.00    -0.744 OA
ENDBRANCH  54  55
ENDBRANCH  26  49
BRANCH  38  59
ATOM     59  C   UNL A   1      44.878  31.296  28.881  1.00  0.00    -0.014 A 
ATOM     60  C   UNL A   1      43.962  31.925  28.014  1.00  0.00     0.010 A 
ATOM     61  C   UNL A   1      46.230  31.675  28.816  1.00  0.00     0.010 A 
ATOM     62  C   UNL A   1      44.396  32.890  27.092  1.00  0.00     0.020 A 
ATOM     63  C   UNL A   1      46.666  32.647  27.915  1.00  0.00     0.020 A 
ATOM     64  C   UNL A   1      45.748  33.245  27.050  1.00  0.00     0.054 A 
BRANCH  64  65
ATOM     65  S   UNL A   1      46.300  34.532  25.896  1.00  0.00     0.124 S 
ATOM     66  O   UNL A   1      47.698  34.179  25.671  1.00  0.00    -0.237 OA
ATOM     67  O   UNL A   1      45.412  34.343  24.750  1.00  0.00    -0.237 OA
ATOM     68  O   UNL A   1      46.086  35.777  26.632  1.00  0.00    -0.744 OA
ENDBRANCH  64  65
ENDBRANCH  38  59
ENDBRANCH  12  13
ENDBRANCH   5   7
ENDBRANCH   2   3
ENDBRANCH   1   2
BRANCH   1  69
ATOM     69  C   UNL A   1      31.384  28.164  26.720  1.00  0.00     0.023 C 
BRANCH  69  70
ATOM     70  C   UNL A   1      32.059  26.869  26.272  1.00  0.00     0.116 C 
BRANCH  70  71
ATOM     71  N   UNL A   1      31.460  25.715  26.903  1.00  0.00    -0.354 N 
ATOM     72  C   UNL A   1      31.162  24.478  26.437  1.00  0.00     0.242 C 
ATOM     73  H   UNL A   1      31.224  25.854  27.849  1.00  0.00     0.163 HD
ATOM     74  O   UNL A   1      30.582  23.723  27.227  1.00  0.00    -0.273 OA
BRANCH  72  75
ATOM     75  C   UNL A   1      31.514  23.971  25.018  1.00  0.00     0.176 C 
BRANCH  75  76
ATOM     76  C   UNL A   1      30.558  24.354  23.864  1.00  0.00     0.070 C 
BRANCH  76  77
ATOM     77  C   UNL A   1      30.239  25.787  23.484  1.00  0.00    -0.045 A 
ATOM     78  C   UNL A   1      31.203  26.507  22.751  1.00  0.00     0.007 A 
ATOM     79  C   UNL A   1      29.081  26.472  23.882  1.00  0.00     0.007 A 
ATOM     80  C   UNL A   1      30.963  27.818  22.328  1.00  0.00     0.039 A 
ATOM     81  C   UNL A   1      28.818  27.767  23.422  1.00  0.00     0.039 A 
ATOM     82  C   UNL A   1      29.756  28.424  22.639  1.00  0.00     0.123 A 
ATOM     83  F   UNL A   1      29.491  29.654  22.183  1.00  0.00    -0.207 F 
ENDBRANCH  76  77
ENDBRANCH  75  76
BRANCH  75  84
ATOM     84  N   UNL A   1      32.930  24.065  24.693  1.00  0.00    -0.339 N 
ATOM     85  C   UNL A   1      33.810  23.133  24.186  1.00  0.00     0.272 C 
ATOM     86  H   UNL A   1      33.328  24.948  24.866  1.00  0.00     0.164 HD
ATOM     87  O   UNL A   1      34.967  23.500  24.032  1.00  0.00    -0.267 OA
BRANCH  85  88
ATOM     88  C   UNL A   1      33.366  21.755  23.911  1.00  0.00     0.150 A 
ATOM     89  C   UNL A   1      32.370  21.258  23.025  1.00  0.00     0.056 A 
ATOM     90  N   UNL A   1      33.965  20.734  24.549  1.00  0.00    -0.167 NA
ATOM     91  C   UNL A   1      32.336  19.897  23.230  1.00  0.00     0.110 A 
ATOM     92  N   UNL A   1      33.309  19.637  24.147  1.00  0.00    -0.269 N 
BRANCH  92  93
ATOM     93  C   UNL A   1      33.677  18.345  24.686  1.00  0.00     0.107 C 
ATOM     94  C   UNL A   1      32.592  17.712  25.555  1.00  0.00     0.027 C 
ATOM     95  C   UNL A   1      33.932  17.276  23.622  1.00  0.00     0.027 C 
ATOM     96  C   UNL A   1      33.018  16.255  25.652  1.00  0.00     0.002 C 
ATOM     97  C   UNL A   1      33.756  15.946  24.350  1.00  0.00     0.002 C 
ENDBRANCH  92  93
ENDBRANCH  85  88
ENDBRANCH  75  84
ENDBRANCH  72  75
ENDBRANCH  70  71
ENDBRANCH  69  70
ENDBRANCH   1  69
TORSDOF 19
ENDMDL
