MODEL 1
REMARK VINA RESULT:     -11.1      0.000      0.000
REMARK SMILES CC(=O)NCCc1c[nH]c2ccc(C(=O)NCCCCNC(=O)c3ccc(-c4c5nc(c(-c6ccc(S(=O)(=O)[O-])cc6)c6ccc([nH]6)c(-c6ccc(S(=O)(=O)[O-])cc6)c6nc(c(-c7ccc(S(=O)(=O)[O-])cc7)c7ccc4[nH]7)C=C6)C=C5)cc3)cc12
REMARK SMILES IDX 18 1 17 2 16 3 14 4 15 5 13 7 7 8 8 9 85 10 9 11 10 12 84 13
REMARK SMILES IDX 11 15 12 16 6 17 5 18 4 19 1 20 2 21 3 22 19 24 20 25 21 26
REMARK SMILES IDX 22 27 23 29 24 30 25 31 83 32 26 33 82 34 27 35 28 36 29 37
REMARK SMILES IDX 76 38 30 39 81 40 75 41 77 42 31 43 80 44 74 45 73 46 32 48
REMARK SMILES IDX 62 49 43 50 61 51 44 52 47 53 60 54 78 55 45 56 46 57 59 59
REMARK SMILES IDX 79 60 48 61 33 62 34 63 42 64 35 65 41 66 36 67 37 68 38 69
REMARK SMILES IDX 39 70 40 71 63 72 64 73 72 74 65 75 71 76 66 77 67 78 68 79
REMARK SMILES IDX 69 80 70 81 49 82 50 83 58 84 51 85 57 86 52 87 53 88 54 89
REMARK SMILES IDX 55 90 56 91
REMARK H PARENT 16 6 9 14 4 23 21 28 77 47 47 58
REMARK Flexibility Score: inf
ROOT
ATOM      1  C   UNL A   1      32.882  26.583  25.933  1.00  0.00     0.023 C 
ENDROOT
BRANCH   1   2
ATOM      2  C   UNL A   1      31.872  26.007  24.937  1.00  0.00     0.116 C 
BRANCH   2   3
ATOM      3  N   UNL A   1      32.438  25.946  23.607  1.00  0.00    -0.352 N 
ATOM      4  C   UNL A   1      33.382  25.136  23.030  1.00  0.00     0.251 C 
ATOM      5  O   UNL A   1      33.638  25.344  21.842  1.00  0.00    -0.269 OA
ATOM      6  H   UNL A   1      32.070  26.621  22.992  1.00  0.00     0.163 HD
BRANCH   4   7
ATOM      7  C   UNL A   1      34.087  24.018  23.730  1.00  0.00     0.040 A 
ATOM      8  C   UNL A   1      33.684  20.246  24.362  1.00  0.00    -0.021 A 
ATOM      9  C   UNL A   1      34.666  19.626  25.111  1.00  0.00     0.087 A 
ATOM     10  C   UNL A   1      34.034  21.632  24.291  1.00  0.00     0.003 A 
ATOM     11  N   UNL A   1      35.593  20.567  25.470  1.00  0.00    -0.361 N 
ATOM     12  C   UNL A   1      35.250  21.792  24.949  1.00  0.00     0.046 A 
ATOM     13  C   UNL A   1      33.441  22.765  23.697  1.00  0.00     0.024 A 
ATOM     14  H   UNL A   1      36.390  20.392  26.021  1.00  0.00     0.166 HD
ATOM     15  C   UNL A   1      35.926  23.012  24.994  1.00  0.00     0.027 A 
ATOM     16  C   UNL A   1      35.337  24.108  24.346  1.00  0.00     0.016 A 
BRANCH   8  17
ATOM     17  C   UNL A   1      32.506  19.585  23.712  1.00  0.00     0.059 C 
BRANCH  17  18
ATOM     18  C   UNL A   1      32.742  18.113  23.373  1.00  0.00     0.120 C 
BRANCH  18  19
ATOM     19  N   UNL A   1      32.219  17.214  24.388  1.00  0.00    -0.356 N 
ATOM     20  C   UNL A   1      34.354  16.093  24.882  1.00  0.00     0.114 C 
ATOM     21  C   UNL A   1      32.885  16.289  25.135  1.00  0.00     0.216 C 
ATOM     22  O   UNL A   1      32.283  15.653  25.998  1.00  0.00    -0.275 OA
ATOM     23  H   UNL A   1      31.252  17.284  24.562  1.00  0.00     0.163 HD
ENDBRANCH  18  19
ENDBRANCH  17  18
ENDBRANCH   8  17
ENDBRANCH   4   7
ENDBRANCH   2   3
ENDBRANCH   1   2
BRANCH   1  24
ATOM     24  C   UNL A   1      32.643  28.051  26.300  1.00  0.00     0.023 C 
BRANCH  24  25
ATOM     25  C   UNL A   1      33.899  28.915  26.333  1.00  0.00     0.116 C 
BRANCH  25  26
ATOM     26  N   UNL A   1      33.708  30.183  27.023  1.00  0.00    -0.352 N 
ATOM     27  C   UNL A   1      34.556  30.785  27.924  1.00  0.00     0.251 C 
ATOM     28  H   UNL A   1      32.872  30.665  26.824  1.00  0.00     0.163 HD
ATOM     29  O   UNL A   1      34.229  31.811  28.506  1.00  0.00    -0.269 OA
BRANCH  27  30
ATOM     30  C   UNL A   1      35.851  30.135  28.209  1.00  0.00     0.039 A 
ATOM     31  C   UNL A   1      36.851  30.162  27.234  1.00  0.00     0.014 A 
ATOM     32  C   UNL A   1      36.094  29.578  29.467  1.00  0.00     0.014 A 
ATOM     33  C   UNL A   1      38.130  29.698  27.550  1.00  0.00     0.010 A 
ATOM     34  C   UNL A   1      37.379  29.165  29.794  1.00  0.00     0.010 A 
ATOM     35  C   UNL A   1      38.411  29.235  28.844  1.00  0.00    -0.014 A 
BRANCH  35  36
ATOM     36  C   UNL A   1      39.778  28.828  29.251  1.00  0.00     0.031 A 
ATOM     37  C   UNL A   1      40.683  29.829  29.911  1.00  0.00     0.074 A 
ATOM     38  C   UNL A   1      40.239  27.605  28.924  1.00  0.00     0.049 A 
ATOM     39  N   UNL A   1      41.960  29.737  30.175  1.00  0.00    -0.248 NA
ATOM     40  C   UNL A   1      40.075  31.113  30.298  1.00  0.00     0.031 C 
ATOM     41  C   UNL A   1      39.465  26.554  28.259  1.00  0.00     0.029 A 
ATOM     42  N   UNL A   1      41.483  27.048  29.086  1.00  0.00    -0.354 N 
ATOM     43  C   UNL A   1      42.319  30.963  30.724  1.00  0.00     0.074 A 
ATOM     44  C   UNL A   1      41.129  31.788  30.733  1.00  0.00     0.031 C 
ATOM     45  C   UNL A   1      40.250  25.479  28.076  1.00  0.00     0.029 A 
ATOM     46  C   UNL A   1      41.590  25.778  28.569  1.00  0.00     0.049 A 
ATOM     47  H   UNL A   1      42.227  27.513  29.532  1.00  0.00     0.167 HD
ATOM     48  C   UNL A   1      43.528  31.362  31.181  1.00  0.00     0.031 A 
ATOM     49  C   UNL A   1      42.654  24.957  28.479  1.00  0.00     0.031 A 
ATOM     50  C   UNL A   1      44.700  30.531  31.192  1.00  0.00     0.049 A 
ATOM     51  C   UNL A   1      43.985  25.417  29.006  1.00  0.00     0.074 A 
ATOM     52  C   UNL A   1      45.961  30.827  31.678  1.00  0.00     0.029 A 
ATOM     53  N   UNL A   1      44.754  29.236  30.699  1.00  0.00    -0.354 N 
ATOM     54  N   UNL A   1      44.298  26.568  29.552  1.00  0.00    -0.248 NA
ATOM     55  C   UNL A   1      45.105  24.470  28.909  1.00  0.00     0.031 C 
ATOM     56  C   UNL A   1      46.786  29.719  31.455  1.00  0.00     0.029 A 
ATOM     57  C   UNL A   1      46.027  28.721  30.863  1.00  0.00     0.049 A 
ATOM     58  H   UNL A   1      43.997  28.755  30.292  1.00  0.00     0.167 HD
ATOM     59  C   UNL A   1      45.644  26.473  29.886  1.00  0.00     0.074 A 
ATOM     60  C   UNL A   1      46.085  25.153  29.486  1.00  0.00     0.031 C 
ATOM     61  C   UNL A   1      46.441  27.397  30.475  1.00  0.00     0.031 A 
BRANCH  48  62
ATOM     62  C   UNL A   1      43.639  32.770  31.699  1.00  0.00    -0.014 A 
ATOM     63  C   UNL A   1      43.483  33.052  33.067  1.00  0.00     0.010 A 
ATOM     64  C   UNL A   1      43.919  33.820  30.807  1.00  0.00     0.010 A 
ATOM     65  C   UNL A   1      43.557  34.367  33.530  1.00  0.00     0.020 A 
ATOM     66  C   UNL A   1      44.018  35.136  31.270  1.00  0.00     0.020 A 
ATOM     67  C   UNL A   1      43.815  35.403  32.626  1.00  0.00     0.054 A 
BRANCH  67  68
ATOM     68  S   UNL A   1      43.911  37.104  33.250  1.00  0.00     0.124 S 
ATOM     69  O   UNL A   1      45.144  37.065  34.033  1.00  0.00    -0.237 OA
ATOM     70  O   UNL A   1      43.970  37.896  32.025  1.00  0.00    -0.237 OA
ATOM     71  O   UNL A   1      42.683  37.255  34.027  1.00  0.00    -0.744 OA
ENDBRANCH  67  68
ENDBRANCH  48  62
BRANCH  49  72
ATOM     72  C   UNL A   1      42.500  23.608  27.871  1.00  0.00    -0.014 A 
ATOM     73  C   UNL A   1      42.777  23.412  26.507  1.00  0.00     0.010 A 
ATOM     74  C   UNL A   1      42.098  22.512  28.655  1.00  0.00     0.010 A 
ATOM     75  C   UNL A   1      42.643  22.145  25.933  1.00  0.00     0.020 A 
ATOM     76  C   UNL A   1      41.982  21.238  28.088  1.00  0.00     0.020 A 
ATOM     77  C   UNL A   1      42.247  21.065  26.727  1.00  0.00     0.054 A 
BRANCH  77  78
ATOM     78  S   UNL A   1      42.135  19.417  25.976  1.00  0.00     0.124 S 
ATOM     79  O   UNL A   1      42.997  19.557  24.807  1.00  0.00    -0.237 OA
ATOM     80  O   UNL A   1      42.645  18.550  27.037  1.00  0.00    -0.237 OA
ATOM     81  O   UNL A   1      40.710  19.268  25.694  1.00  0.00    -0.744 OA
ENDBRANCH  77  78
ENDBRANCH  49  72
BRANCH  61  82
ATOM     82  C   UNL A   1      47.862  27.008  30.769  1.00  0.00    -0.014 A 
ATOM     83  C   UNL A   1      48.887  27.253  29.840  1.00  0.00     0.010 A 
ATOM     84  C   UNL A   1      48.185  26.484  32.034  1.00  0.00     0.010 A 
ATOM     85  C   UNL A   1      50.216  26.978  30.172  1.00  0.00     0.020 A 
ATOM     86  C   UNL A   1      49.514  26.224  32.375  1.00  0.00     0.020 A 
ATOM     87  C   UNL A   1      50.522  26.469  31.439  1.00  0.00     0.054 A 
BRANCH  87  88
ATOM     88  S   UNL A   1      52.261  26.203  31.881  1.00  0.00     0.124 S 
ATOM     89  O   UNL A   1      52.956  26.982  30.860  1.00  0.00    -0.237 OA
ATOM     90  O   UNL A   1      52.337  26.738  33.238  1.00  0.00    -0.237 OA
ATOM     91  O   UNL A   1      52.426  24.755  31.780  1.00  0.00    -0.744 OA
ENDBRANCH  87  88
ENDBRANCH  61  82
ENDBRANCH  35  36
ENDBRANCH  27  30
ENDBRANCH  25  26
ENDBRANCH  24  25
ENDBRANCH   1  24
TORSDOF 17
ENDMDL
MODEL 2
REMARK VINA RESULT:     -10.9      3.604      7.805
REMARK SMILES CC(=O)NCCc1c[nH]c2ccc(C(=O)NCCCCNC(=O)c3ccc(-c4c5nc(c(-c6ccc(S(=O)(=O)[O-])cc6)c6ccc([nH]6)c(-c6ccc(S(=O)(=O)[O-])cc6)c6nc(c(-c7ccc(S(=O)(=O)[O-])cc7)c7ccc4[nH]7)C=C6)C=C5)cc3)cc12
REMARK SMILES IDX 18 1 17 2 16 3 14 4 15 5 13 7 7 8 8 9 85 10 9 11 10 12 84 13
REMARK SMILES IDX 11 15 12 16 6 17 5 18 4 19 1 20 2 21 3 22 19 24 20 25 21 26
REMARK SMILES IDX 22 27 23 29 24 30 25 31 83 32 26 33 82 34 27 35 28 36 29 37
REMARK SMILES IDX 76 38 30 39 81 40 75 41 77 42 31 43 80 44 74 45 73 46 32 48
REMARK SMILES IDX 62 49 43 50 61 51 44 52 47 53 60 54 78 55 45 56 46 57 59 59
REMARK SMILES IDX 79 60 48 61 33 62 34 63 42 64 35 65 41 66 36 67 37 68 38 69
REMARK SMILES IDX 39 70 40 71 63 72 64 73 72 74 65 75 71 76 66 77 67 78 68 79
REMARK SMILES IDX 69 80 70 81 49 82 50 83 58 84 51 85 57 86 52 87 53 88 54 89
REMARK SMILES IDX 55 90 56 91
REMARK H PARENT 16 6 9 14 4 23 21 28 77 47 47 58
REMARK Flexibility Score: inf
ROOT
ATOM      1  C   UNL A   1      37.201  22.365  24.730  1.00  0.00     0.023 C 
ENDROOT
BRANCH   1   2
ATOM      2  C   UNL A   1      36.726  23.418  25.734  1.00  0.00     0.116 C 
BRANCH   2   3
ATOM      3  N   UNL A   1      35.837  22.831  26.714  1.00  0.00    -0.352 N 
ATOM      4  C   UNL A   1      34.585  22.279  26.628  1.00  0.00     0.251 C 
ATOM      5  O   UNL A   1      34.097  21.849  27.675  1.00  0.00    -0.269 OA
ATOM      6  H   UNL A   1      36.206  22.827  27.627  1.00  0.00     0.163 HD
BRANCH   4   7
ATOM      7  C   UNL A   1      33.801  22.141  25.362  1.00  0.00     0.040 A 
ATOM      8  C   UNL A   1      32.573  19.394  22.966  1.00  0.00    -0.021 A 
ATOM      9  C   UNL A   1      31.834  19.800  21.871  1.00  0.00     0.087 A 
ATOM     10  C   UNL A   1      32.937  20.580  23.680  1.00  0.00     0.003 A 
ATOM     11  N   UNL A   1      31.721  21.164  21.908  1.00  0.00    -0.361 N 
ATOM     12  C   UNL A   1      32.352  21.660  23.024  1.00  0.00     0.046 A 
ATOM     13  C   UNL A   1      33.686  20.833  24.847  1.00  0.00     0.024 A 
ATOM     14  H   UNL A   1      31.254  21.710  21.235  1.00  0.00     0.166 HD
ATOM     15  C   UNL A   1      32.433  22.967  23.507  1.00  0.00     0.027 A 
ATOM     16  C   UNL A   1      33.140  23.178  24.700  1.00  0.00     0.016 A 
BRANCH   8  17
ATOM     17  C   UNL A   1      32.892  17.982  23.355  1.00  0.00     0.059 C 
BRANCH  17  18
ATOM     18  C   UNL A   1      32.455  17.628  24.777  1.00  0.00     0.120 C 
BRANCH  18  19
ATOM     19  N   UNL A   1      32.425  16.194  25.012  1.00  0.00    -0.356 N 
ATOM     20  C   UNL A   1      34.851  15.922  25.332  1.00  0.00     0.114 C 
ATOM     21  C   UNL A   1      33.460  15.353  25.294  1.00  0.00     0.216 C 
ATOM     22  O   UNL A   1      33.237  14.166  25.524  1.00  0.00    -0.275 OA
ATOM     23  H   UNL A   1      31.537  15.772  24.962  1.00  0.00     0.163 HD
ENDBRANCH  18  19
ENDBRANCH  17  18
ENDBRANCH   8  17
ENDBRANCH   4   7
ENDBRANCH   2   3
ENDBRANCH   1   2
BRANCH   1  24
ATOM     24  C   UNL A   1      37.784  21.100  25.367  1.00  0.00     0.023 C 
BRANCH  24  25
ATOM     25  C   UNL A   1      39.219  21.238  25.868  1.00  0.00     0.116 C 
BRANCH  25  26
ATOM     26  N   UNL A   1      39.946  19.977  25.885  1.00  0.00    -0.352 N 
ATOM     27  C   UNL A   1      41.291  19.787  26.109  1.00  0.00     0.251 C 
ATOM     28  H   UNL A   1      39.415  19.166  25.714  1.00  0.00     0.163 HD
ATOM     29  O   UNL A   1      41.795  18.676  26.001  1.00  0.00    -0.269 OA
BRANCH  27  30
ATOM     30  C   UNL A   1      42.121  20.964  26.433  1.00  0.00     0.039 A 
ATOM     31  C   UNL A   1      42.569  21.781  25.393  1.00  0.00     0.014 A 
ATOM     32  C   UNL A   1      42.379  21.295  27.765  1.00  0.00     0.014 A 
ATOM     33  C   UNL A   1      43.214  22.983  25.694  1.00  0.00     0.010 A 
ATOM     34  C   UNL A   1      42.973  22.515  28.062  1.00  0.00     0.010 A 
ATOM     35  C   UNL A   1      43.382  23.376  27.031  1.00  0.00    -0.014 A 
BRANCH  35  36
ATOM     36  C   UNL A   1      43.969  24.689  27.394  1.00  0.00     0.031 A 
ATOM     37  C   UNL A   1      43.070  25.800  27.857  1.00  0.00     0.074 A 
ATOM     38  C   UNL A   1      45.283  24.913  27.198  1.00  0.00     0.049 A 
ATOM     39  N   UNL A   1      43.350  27.062  28.044  1.00  0.00    -0.248 NA
ATOM     40  C   UNL A   1      41.664  25.445  28.115  1.00  0.00     0.031 C 
ATOM     41  C   UNL A   1      46.255  23.923  26.728  1.00  0.00     0.029 A 
ATOM     42  N   UNL A   1      46.024  26.059  27.347  1.00  0.00    -0.354 N 
ATOM     43  C   UNL A   1      42.149  27.663  28.404  1.00  0.00     0.074 A 
ATOM     44  C   UNL A   1      41.135  26.630  28.387  1.00  0.00     0.031 C 
ATOM     45  C   UNL A   1      47.463  24.503  26.633  1.00  0.00     0.029 A 
ATOM     46  C   UNL A   1      47.344  25.912  26.992  1.00  0.00     0.049 A 
ATOM     47  H   UNL A   1      45.646  26.905  27.678  1.00  0.00     0.167 HD
ATOM     48  C   UNL A   1      41.914  28.957  28.724  1.00  0.00     0.031 A 
ATOM     49  C   UNL A   1      48.342  26.816  26.938  1.00  0.00     0.031 A 
ATOM     50  C   UNL A   1      42.928  29.975  28.763  1.00  0.00     0.049 A 
ATOM     51  C   UNL A   1      48.060  28.246  27.310  1.00  0.00     0.074 A 
ATOM     52  C   UNL A   1      42.800  31.305  29.121  1.00  0.00     0.029 A 
ATOM     53  N   UNL A   1      44.262  29.773  28.439  1.00  0.00    -0.354 N 
ATOM     54  N   UNL A   1      46.925  28.789  27.680  1.00  0.00    -0.248 NA
ATOM     55  C   UNL A   1      49.191  29.182  27.261  1.00  0.00     0.031 C 
ATOM     56  C   UNL A   1      44.052  31.915  28.988  1.00  0.00     0.029 A 
ATOM     57  C   UNL A   1      44.966  30.954  28.582  1.00  0.00     0.049 A 
ATOM     58  H   UNL A   1      44.649  28.915  28.150  1.00  0.00     0.167 HD
ATOM     59  C   UNL A   1      47.212  30.125  27.932  1.00  0.00     0.074 A 
ATOM     60  C   UNL A   1      48.626  30.309  27.677  1.00  0.00     0.031 C 
ATOM     61  C   UNL A   1      46.377  31.111  28.342  1.00  0.00     0.031 A 
BRANCH  48  62
ATOM     62  C   UNL A   1      40.497  29.341  29.047  1.00  0.00    -0.014 A 
ATOM     63  C   UNL A   1      40.059  29.440  30.379  1.00  0.00     0.010 A 
ATOM     64  C   UNL A   1      39.596  29.622  28.004  1.00  0.00     0.010 A 
ATOM     65  C   UNL A   1      38.732  29.768  30.664  1.00  0.00     0.020 A 
ATOM     66  C   UNL A   1      38.272  29.973  28.285  1.00  0.00     0.020 A 
ATOM     67  C   UNL A   1      37.843  30.023  29.614  1.00  0.00     0.054 A 
BRANCH  67  68
ATOM     68  S   UNL A   1      36.125  30.449  30.008  1.00  0.00     0.124 S 
ATOM     69  O   UNL A   1      35.998  29.946  31.373  1.00  0.00    -0.237 OA
ATOM     70  O   UNL A   1      36.112  31.903  29.871  1.00  0.00    -0.237 OA
ATOM     71  O   UNL A   1      35.351  29.726  29.002  1.00  0.00    -0.744 OA
ENDBRANCH  67  68
ENDBRANCH  48  62
BRANCH  49  72
ATOM     72  C   UNL A   1      49.705  26.391  26.521  1.00  0.00    -0.014 A 
ATOM     73  C   UNL A   1      50.576  25.799  27.451  1.00  0.00     0.010 A 
ATOM     74  C   UNL A   1      50.130  26.555  25.190  1.00  0.00     0.010 A 
ATOM     75  C   UNL A   1      51.855  25.388  27.063  1.00  0.00     0.020 A 
ATOM     76  C   UNL A   1      51.401  26.127  24.792  1.00  0.00     0.020 A 
ATOM     77  C   UNL A   1      52.259  25.555  25.735  1.00  0.00     0.054 A 
BRANCH  77  78
ATOM     78  S   UNL A   1      53.900  24.962  25.236  1.00  0.00     0.124 S 
ATOM     79  O   UNL A   1      54.738  25.430  26.335  1.00  0.00    -0.237 OA
ATOM     80  O   UNL A   1      53.705  23.515  25.160  1.00  0.00    -0.237 OA
ATOM     81  O   UNL A   1      54.122  25.619  23.951  1.00  0.00    -0.744 OA
ENDBRANCH  77  78
ENDBRANCH  49  72
BRANCH  61  82
ATOM     82  C   UNL A   1      46.969  32.470  28.588  1.00  0.00    -0.014 A 
ATOM     83  C   UNL A   1      47.681  32.746  29.767  1.00  0.00     0.010 A 
ATOM     84  C   UNL A   1      46.898  33.446  27.578  1.00  0.00     0.010 A 
ATOM     85  C   UNL A   1      48.311  33.982  29.934  1.00  0.00     0.020 A 
ATOM     86  C   UNL A   1      47.541  34.676  27.734  1.00  0.00     0.020 A 
ATOM     87  C   UNL A   1      48.240  34.939  28.914  1.00  0.00     0.054 A 
BRANCH  87  88
ATOM     88  S   UNL A   1      49.140  36.501  29.114  1.00  0.00     0.124 S 
ATOM     89  O   UNL A   1      49.266  36.596  30.565  1.00  0.00    -0.237 OA
ATOM     90  O   UNL A   1      50.384  36.253  28.390  1.00  0.00    -0.237 OA
ATOM     91  O   UNL A   1      48.256  37.490  28.499  1.00  0.00    -0.744 OA
ENDBRANCH  87  88
ENDBRANCH  61  82
ENDBRANCH  35  36
ENDBRANCH  27  30
ENDBRANCH  25  26
ENDBRANCH  24  25
ENDBRANCH   1  24
TORSDOF 17
ENDMDL
MODEL 3
REMARK VINA RESULT:     -10.8      3.539      9.002
REMARK SMILES CC(=O)NCCc1c[nH]c2ccc(C(=O)NCCCCNC(=O)c3ccc(-c4c5nc(c(-c6ccc(S(=O)(=O)[O-])cc6)c6ccc([nH]6)c(-c6ccc(S(=O)(=O)[O-])cc6)c6nc(c(-c7ccc(S(=O)(=O)[O-])cc7)c7ccc4[nH]7)C=C6)C=C5)cc3)cc12
REMARK SMILES IDX 18 1 17 2 16 3 14 4 15 5 13 7 7 8 8 9 85 10 9 11 10 12 84 13
REMARK SMILES IDX 11 15 12 16 6 17 5 18 4 19 1 20 2 21 3 22 19 24 20 25 21 26
REMARK SMILES IDX 22 27 23 29 24 30 25 31 83 32 26 33 82 34 27 35 28 36 29 37
REMARK SMILES IDX 76 38 30 39 81 40 75 41 77 42 31 43 80 44 74 45 73 46 32 48
REMARK SMILES IDX 62 49 43 50 61 51 44 52 47 53 60 54 78 55 45 56 46 57 59 59
REMARK SMILES IDX 79 60 48 61 33 62 34 63 42 64 35 65 41 66 36 67 37 68 38 69
REMARK SMILES IDX 39 70 40 71 63 72 64 73 72 74 65 75 71 76 66 77 67 78 68 79
REMARK SMILES IDX 69 80 70 81 49 82 50 83 58 84 51 85 57 86 52 87 53 88 54 89
REMARK SMILES IDX 55 90 56 91
REMARK H PARENT 16 6 9 14 4 23 21 28 77 47 47 58
REMARK Flexibility Score: inf
ROOT
ATOM      1  C   UNL A   1      37.429  21.718  24.625  1.00  0.00     0.023 C 
ENDROOT
BRANCH   1   2
ATOM      2  C   UNL A   1      37.043  22.894  25.526  1.00  0.00     0.116 C 
BRANCH   2   3
ATOM      3  N   UNL A   1      36.114  22.473  26.552  1.00  0.00    -0.352 N 
ATOM      4  C   UNL A   1      34.795  22.099  26.522  1.00  0.00     0.251 C 
ATOM      5  O   UNL A   1      34.285  21.780  27.598  1.00  0.00    -0.269 OA
ATOM      6  H   UNL A   1      36.507  22.451  27.454  1.00  0.00     0.163 HD
BRANCH   4   7
ATOM      7  C   UNL A   1      33.960  22.025  25.283  1.00  0.00     0.040 A 
ATOM      8  C   UNL A   1      32.512  19.391  22.883  1.00  0.00    -0.021 A 
ATOM      9  C   UNL A   1      31.755  19.855  21.824  1.00  0.00     0.087 A 
ATOM     10  C   UNL A   1      32.959  20.544  23.606  1.00  0.00     0.003 A 
ATOM     11  N   UNL A   1      31.710  21.222  21.892  1.00  0.00    -0.361 N 
ATOM     12  C   UNL A   1      32.405  21.663  22.993  1.00  0.00     0.046 A 
ATOM     13  C   UNL A   1      33.762  20.736  24.749  1.00  0.00     0.024 A 
ATOM     14  H   UNL A   1      31.246  21.804  21.248  1.00  0.00     0.166 HD
ATOM     15  C   UNL A   1      32.567  22.955  23.497  1.00  0.00     0.027 A 
ATOM     16  C   UNL A   1      33.326  23.106  24.667  1.00  0.00     0.016 A 
BRANCH   8  17
ATOM     17  C   UNL A   1      32.775  17.958  23.233  1.00  0.00     0.059 C 
BRANCH  17  18
ATOM     18  C   UNL A   1      32.461  17.618  24.691  1.00  0.00     0.120 C 
BRANCH  18  19
ATOM     19  N   UNL A   1      32.443  16.186  24.940  1.00  0.00    -0.356 N 
ATOM     20  C   UNL A   1      34.870  15.940  25.275  1.00  0.00     0.114 C 
ATOM     21  C   UNL A   1      33.485  15.358  25.236  1.00  0.00     0.216 C 
ATOM     22  O   UNL A   1      33.271  14.171  25.476  1.00  0.00    -0.275 OA
ATOM     23  H   UNL A   1      31.559  15.756  24.889  1.00  0.00     0.163 HD
ENDBRANCH  18  19
ENDBRANCH  17  18
ENDBRANCH   8  17
ENDBRANCH   4   7
ENDBRANCH   2   3
ENDBRANCH   1   2
BRANCH   1  24
ATOM     24  C   UNL A   1      38.085  20.545  25.361  1.00  0.00     0.023 C 
BRANCH  24  25
ATOM     25  C   UNL A   1      39.432  20.865  26.003  1.00  0.00     0.116 C 
BRANCH  25  26
ATOM     26  N   UNL A   1      40.287  19.698  26.159  1.00  0.00    -0.352 N 
ATOM     27  C   UNL A   1      41.647  19.674  26.369  1.00  0.00     0.251 C 
ATOM     28  H   UNL A   1      39.841  18.821  26.107  1.00  0.00     0.163 HD
ATOM     29  O   UNL A   1      42.262  18.616  26.388  1.00  0.00    -0.269 OA
BRANCH  27  30
ATOM     30  C   UNL A   1      42.355  20.961  26.518  1.00  0.00     0.039 A 
ATOM     31  C   UNL A   1      42.721  21.668  25.371  1.00  0.00     0.014 A 
ATOM     32  C   UNL A   1      42.575  21.497  27.789  1.00  0.00     0.014 A 
ATOM     33  C   UNL A   1      43.242  22.958  25.497  1.00  0.00     0.010 A 
ATOM     34  C   UNL A   1      43.045  22.799  27.909  1.00  0.00     0.010 A 
ATOM     35  C   UNL A   1      43.368  23.546  26.765  1.00  0.00    -0.014 A 
BRANCH  35  36
ATOM     36  C   UNL A   1      43.820  24.948  26.937  1.00  0.00     0.031 A 
ATOM     37  C   UNL A   1      45.269  25.290  26.738  1.00  0.00     0.074 A 
ATOM     38  C   UNL A   1      42.955  25.882  27.381  1.00  0.00     0.049 A 
ATOM     39  N   UNL A   1      45.899  26.400  27.015  1.00  0.00    -0.248 NA
ATOM     40  C   UNL A   1      46.125  24.229  26.181  1.00  0.00     0.031 C 
ATOM     41  C   UNL A   1      41.528  25.667  27.636  1.00  0.00     0.029 A 
ATOM     42  N   UNL A   1      43.158  27.196  27.722  1.00  0.00    -0.354 N 
ATOM     43  C   UNL A   1      47.233  26.162  26.703  1.00  0.00     0.074 A 
ATOM     44  C   UNL A   1      47.322  24.794  26.237  1.00  0.00     0.031 C 
ATOM     45  C   UNL A   1      40.986  26.811  28.087  1.00  0.00     0.029 A 
ATOM     46  C   UNL A   1      42.030  27.824  28.195  1.00  0.00     0.049 A 
ATOM     47  H   UNL A   1      44.029  27.645  27.635  1.00  0.00     0.167 HD
ATOM     48  C   UNL A   1      48.285  27.008  26.793  1.00  0.00     0.031 A 
ATOM     49  C   UNL A   1      41.861  29.068  28.683  1.00  0.00     0.031 A 
ATOM     50  C   UNL A   1      48.188  28.372  27.233  1.00  0.00     0.049 A 
ATOM     51  C   UNL A   1      43.043  29.995  28.761  1.00  0.00     0.074 A 
ATOM     52  C   UNL A   1      49.188  29.324  27.314  1.00  0.00     0.029 A 
ATOM     53  N   UNL A   1      47.018  28.982  27.661  1.00  0.00    -0.354 N 
ATOM     54  N   UNL A   1      44.291  29.763  28.430  1.00  0.00    -0.248 NA
ATOM     55  C   UNL A   1      42.795  31.349  29.274  1.00  0.00     0.031 C 
ATOM     56  C   UNL A   1      48.628  30.504  27.816  1.00  0.00     0.029 A 
ATOM     57  C   UNL A   1      47.272  30.295  28.013  1.00  0.00     0.049 A 
ATOM     58  H   UNL A   1      46.137  28.544  27.706  1.00  0.00     0.167 HD
ATOM     59  C   UNL A   1      44.971  30.951  28.671  1.00  0.00     0.074 A 
ATOM     60  C   UNL A   1      43.999  31.900  29.171  1.00  0.00     0.031 C 
ATOM     61  C   UNL A   1      46.285  31.229  28.491  1.00  0.00     0.031 A 
BRANCH  48  62
ATOM     62  C   UNL A   1      49.637  26.469  26.414  1.00  0.00    -0.014 A 
ATOM     63  C   UNL A   1      50.443  25.808  27.357  1.00  0.00     0.010 A 
ATOM     64  C   UNL A   1      50.099  26.611  25.093  1.00  0.00     0.010 A 
ATOM     65  C   UNL A   1      51.709  25.340  27.000  1.00  0.00     0.020 A 
ATOM     66  C   UNL A   1      51.357  26.123  24.725  1.00  0.00     0.020 A 
ATOM     67  C   UNL A   1      52.162  25.509  25.687  1.00  0.00     0.054 A 
BRANCH  67  68
ATOM     68  S   UNL A   1      53.809  24.890  25.245  1.00  0.00     0.124 S 
ATOM     69  O   UNL A   1      53.544  23.471  25.021  1.00  0.00    -0.237 OA
ATOM     70  O   UNL A   1      54.136  25.663  24.050  1.00  0.00    -0.237 OA
ATOM     71  O   UNL A   1      54.619  25.195  26.421  1.00  0.00    -0.744 OA
ENDBRANCH  67  68
ENDBRANCH  48  62
BRANCH  49  72
ATOM     72  C   UNL A   1      40.513  29.512  29.128  1.00  0.00    -0.014 A 
ATOM     73  C   UNL A   1      40.285  29.831  30.478  1.00  0.00     0.010 A 
ATOM     74  C   UNL A   1      39.460  29.639  28.205  1.00  0.00     0.010 A 
ATOM     75  C   UNL A   1      39.023  30.258  30.901  1.00  0.00     0.020 A 
ATOM     76  C   UNL A   1      38.201  30.085  28.620  1.00  0.00     0.020 A 
ATOM     77  C   UNL A   1      37.989  30.383  29.969  1.00  0.00     0.054 A 
BRANCH  77  78
ATOM     78  S   UNL A   1      36.374  30.995  30.526  1.00  0.00     0.124 S 
ATOM     79  O   UNL A   1      36.720  32.295  31.091  1.00  0.00    -0.237 OA
ATOM     80  O   UNL A   1      35.602  31.030  29.285  1.00  0.00    -0.237 OA
ATOM     81  O   UNL A   1      35.942  29.985  31.489  1.00  0.00    -0.744 OA
ENDBRANCH  77  78
ENDBRANCH  49  72
BRANCH  61  82
ATOM     82  C   UNL A   1      46.750  32.627  28.788  1.00  0.00    -0.014 A 
ATOM     83  C   UNL A   1      47.275  32.961  30.048  1.00  0.00     0.010 A 
ATOM     84  C   UNL A   1      46.754  33.585  27.760  1.00  0.00     0.010 A 
ATOM     85  C   UNL A   1      47.796  34.238  30.274  1.00  0.00     0.020 A 
ATOM     86  C   UNL A   1      47.290  34.856  27.977  1.00  0.00     0.020 A 
ATOM     87  C   UNL A   1      47.803  35.177  29.236  1.00  0.00     0.054 A 
BRANCH  87  88
ATOM     88  S   UNL A   1      48.566  36.797  29.525  1.00  0.00     0.124 S 
ATOM     89  O   UNL A   1      49.273  37.029  28.269  1.00  0.00    -0.237 OA
ATOM     90  O   UNL A   1      47.412  37.661  29.765  1.00  0.00    -0.237 OA
ATOM     91  O   UNL A   1      49.421  36.574  30.690  1.00  0.00    -0.744 OA
ENDBRANCH  87  88
ENDBRANCH  61  82
ENDBRANCH  35  36
ENDBRANCH  27  30
ENDBRANCH  25  26
ENDBRANCH  24  25
ENDBRANCH   1  24
TORSDOF 17
ENDMDL
