MODEL 1
REMARK VINA RESULT:     -12.4      0.000      0.000
REMARK SMILES Cc1cccc(Nc2nc(C)c(CCO)c(OCC(=O)NCCCCNC(=O)c3ccc(-c4c5nc(c(-c6ccc(S(=O)(=O)[O-])cc6)c6ccc([nH]6)c(-c6ccc(S(=O)(=O)[O-])cc6)c6nc(c(-c7ccc(S(=O)(=O)[O-])cc7)c7ccc4[nH]7)C=C6)C=C5)cc3)n2)c1
REMARK SMILES IDX 22 1 21 2 19 3 20 4 18 6 17 7 16 8 8 9 9 10 89 11 10 12
REMARK SMILES IDX 11 13 12 14 7 15 6 17 1 18 2 19 3 20 90 21 4 22 5 23 13 24
REMARK SMILES IDX 14 25 15 26 23 28 24 29 25 30 26 31 27 32 28 34 29 35 30 36
REMARK SMILES IDX 88 37 31 38 87 39 32 40 33 41 34 42 81 43 35 44 86 45 80 46
REMARK SMILES IDX 82 47 36 48 85 49 79 50 78 51 37 53 67 54 48 55 66 56 49 57
REMARK SMILES IDX 52 58 65 59 83 60 50 61 51 62 64 64 84 65 53 66 38 67 39 68
REMARK SMILES IDX 47 69 40 70 46 71 41 72 42 73 43 74 44 75 45 76 68 77 69 78
REMARK SMILES IDX 77 79 70 80 76 81 71 82 72 83 73 84 74 85 75 86 54 87 55 88
REMARK SMILES IDX 63 89 56 90 62 91 57 92 58 93 59 94 60 95 61 96
REMARK H PARENT 21 5 7 16 15 27 26 33 82 52 52 63
REMARK Flexibility Score: inf
ROOT
ATOM      1  C   UNL A   1      31.709  29.140  25.778  1.00  0.00     0.116 C 
ENDROOT
BRANCH   1   2
ATOM      2  N   UNL A   1      32.582  28.495  24.812  1.00  0.00    -0.353 N 
ATOM      3  C   UNL A   1      33.404  27.424  24.954  1.00  0.00     0.258 C 
ATOM      4  O   UNL A   1      34.093  27.095  23.983  1.00  0.00    -0.271 OA
ATOM      5  H   UNL A   1      32.576  28.897  23.914  1.00  0.00     0.163 HD
BRANCH   3   6
ATOM      6  C   UNL A   1      33.418  26.607  26.260  1.00  0.00     0.331 C 
BRANCH   6   7
ATOM      7  O   UNL A   1      33.142  25.226  26.364  1.00  0.00    -0.467 OA
BRANCH   7   8
ATOM      8  C   UNL A   1      32.393  24.597  25.419  1.00  0.00     0.222 A 
ATOM      9  C   UNL A   1      30.496  24.909  24.150  1.00  0.00     0.230 A 
ATOM     10  N   UNL A   1      30.667  23.744  23.521  1.00  0.00    -0.218 NA
ATOM     11  N   UNL A   1      31.305  25.329  25.123  1.00  0.00    -0.177 NA
ATOM     12  C   UNL A   1      31.815  23.070  23.751  1.00  0.00     0.050 A 
ATOM     13  C   UNL A   1      32.009  21.881  22.853  1.00  0.00     0.067 C 
ATOM     14  C   UNL A   1      32.782  23.507  24.657  1.00  0.00     0.038 A 
BRANCH   9  15
ATOM     15  N   UNL A   1      29.482  25.724  23.645  1.00  0.00    -0.324 N 
ATOM     16  H   UNL A   1      28.588  25.312  23.601  1.00  0.00     0.170 HD
BRANCH  15  17
ATOM     17  C   UNL A   1      29.561  27.054  23.190  1.00  0.00     0.041 A 
ATOM     18  C   UNL A   1      27.390  30.208  23.307  1.00  0.00     0.044 C 
ATOM     19  C   UNL A   1      28.521  29.268  23.009  1.00  0.00    -0.049 A 
ATOM     20  C   UNL A   1      29.613  29.718  22.260  1.00  0.00     0.003 A 
ATOM     21  C   UNL A   1      28.509  27.941  23.473  1.00  0.00     0.029 A 
ATOM     22  C   UNL A   1      30.680  28.864  22.002  1.00  0.00     0.002 A 
ATOM     23  C   UNL A   1      30.658  27.551  22.477  1.00  0.00     0.026 A 
ENDBRANCH  15  17
ENDBRANCH   9  15
BRANCH  14  24
ATOM     24  C   UNL A   1      34.180  22.940  24.646  1.00  0.00     0.071 C 
BRANCH  24  25
ATOM     25  C   UNL A   1      34.484  22.060  25.863  1.00  0.00     0.161 C 
BRANCH  25  26
ATOM     26  O   UNL A   1      35.681  22.431  26.534  1.00  0.00    -0.396 OA
ATOM     27  H   UNL A   1      35.700  23.394  26.652  1.00  0.00     0.210 HD
ENDBRANCH  25  26
ENDBRANCH  24  25
ENDBRANCH  14  24
ENDBRANCH   7   8
ENDBRANCH   6   7
ENDBRANCH   3   6
ENDBRANCH   1   2
BRANCH   1  28
ATOM     28  C   UNL A   1      32.425  30.239  26.569  1.00  0.00     0.023 C 
BRANCH  28  29
ATOM     29  C   UNL A   1      33.431  29.762  27.622  1.00  0.00     0.023 C 
BRANCH  29  30
ATOM     30  C   UNL A   1      34.893  30.026  27.281  1.00  0.00     0.116 C 
BRANCH  30  31
ATOM     31  N   UNL A   1      35.510  31.097  28.048  1.00  0.00    -0.352 N 
ATOM     32  C   UNL A   1      36.608  31.013  28.883  1.00  0.00     0.251 C 
ATOM     33  H   UNL A   1      35.098  31.988  27.960  1.00  0.00     0.163 HD
ATOM     34  O   UNL A   1      36.918  31.912  29.664  1.00  0.00    -0.269 OA
BRANCH  32  35
ATOM     35  C   UNL A   1      37.521  29.867  28.696  1.00  0.00     0.039 A 
ATOM     36  C   UNL A   1      37.694  29.012  29.791  1.00  0.00     0.014 A 
ATOM     37  C   UNL A   1      38.377  29.808  27.600  1.00  0.00     0.014 A 
ATOM     38  C   UNL A   1      38.849  28.243  29.878  1.00  0.00     0.010 A 
ATOM     39  C   UNL A   1      39.573  29.133  27.736  1.00  0.00     0.010 A 
ATOM     40  C   UNL A   1      39.830  28.397  28.897  1.00  0.00    -0.014 A 
BRANCH  40  41
ATOM     41  C   UNL A   1      41.170  27.841  29.029  1.00  0.00     0.031 A 
ATOM     42  C   UNL A   1      41.400  26.439  28.618  1.00  0.00     0.074 A 
ATOM     43  C   UNL A   1      42.177  28.599  29.516  1.00  0.00     0.049 A 
ATOM     44  N   UNL A   1      42.329  25.675  29.081  1.00  0.00    -0.248 NA
ATOM     45  C   UNL A   1      40.518  25.765  27.669  1.00  0.00     0.031 C 
ATOM     46  C   UNL A   1      43.596  28.253  29.551  1.00  0.00     0.029 A 
ATOM     47  N   UNL A   1      42.089  29.747  30.310  1.00  0.00    -0.354 N 
ATOM     48  C   UNL A   1      42.348  24.535  28.306  1.00  0.00     0.074 A 
ATOM     49  C   UNL A   1      41.155  24.606  27.498  1.00  0.00     0.031 C 
ATOM     50  C   UNL A   1      44.171  28.934  30.556  1.00  0.00     0.029 A 
ATOM     51  C   UNL A   1      43.109  29.631  31.267  1.00  0.00     0.049 A 
ATOM     52  H   UNL A   1      41.444  30.484  30.217  1.00  0.00     0.167 HD
ATOM     53  C   UNL A   1      43.442  23.720  28.320  1.00  0.00     0.031 A 
ATOM     54  C   UNL A   1      42.872  29.540  32.608  1.00  0.00     0.031 A 
ATOM     55  C   UNL A   1      44.407  24.143  29.330  1.00  0.00     0.049 A 
ATOM     56  C   UNL A   1      43.396  28.248  33.208  1.00  0.00     0.074 A 
ATOM     57  C   UNL A   1      45.555  24.916  29.274  1.00  0.00     0.029 A 
ATOM     58  N   UNL A   1      44.055  24.060  30.674  1.00  0.00    -0.354 N 
ATOM     59  N   UNL A   1      43.744  27.204  32.503  1.00  0.00    -0.248 NA
ATOM     60  C   UNL A   1      43.547  28.019  34.643  1.00  0.00     0.031 C 
ATOM     61  C   UNL A   1      45.813  25.408  30.582  1.00  0.00     0.029 A 
ATOM     62  C   UNL A   1      44.852  24.894  31.436  1.00  0.00     0.049 A 
ATOM     63  H   UNL A   1      43.339  23.486  31.031  1.00  0.00     0.167 HD
ATOM     64  C   UNL A   1      44.180  26.207  33.335  1.00  0.00     0.074 A 
ATOM     65  C   UNL A   1      44.039  26.767  34.668  1.00  0.00     0.031 C 
ATOM     66  C   UNL A   1      44.629  25.003  32.871  1.00  0.00     0.031 A 
BRANCH  53  67
ATOM     67  C   UNL A   1      43.739  22.762  27.186  1.00  0.00    -0.014 A 
ATOM     68  C   UNL A   1      42.845  21.708  26.907  1.00  0.00     0.010 A 
ATOM     69  C   UNL A   1      44.924  22.787  26.426  1.00  0.00     0.010 A 
ATOM     70  C   UNL A   1      43.172  20.672  26.017  1.00  0.00     0.020 A 
ATOM     71  C   UNL A   1      45.288  21.735  25.570  1.00  0.00     0.020 A 
ATOM     72  C   UNL A   1      44.413  20.671  25.382  1.00  0.00     0.054 A 
BRANCH  72  73
ATOM     73  S   UNL A   1      44.877  19.265  24.337  1.00  0.00     0.124 S 
ATOM     74  O   UNL A   1      46.324  19.193  24.521  1.00  0.00    -0.237 OA
ATOM     75  O   UNL A   1      44.111  18.171  24.926  1.00  0.00    -0.237 OA
ATOM     76  O   UNL A   1      44.449  19.672  22.999  1.00  0.00    -0.744 OA
ENDBRANCH  72  73
ENDBRANCH  53  67
BRANCH  54  77
ATOM     77  C   UNL A   1      41.698  30.319  33.093  1.00  0.00    -0.014 A 
ATOM     78  C   UNL A   1      40.448  29.666  33.099  1.00  0.00     0.010 A 
ATOM     79  C   UNL A   1      41.862  31.463  33.892  1.00  0.00     0.010 A 
ATOM     80  C   UNL A   1      39.445  30.042  33.998  1.00  0.00     0.020 A 
ATOM     81  C   UNL A   1      40.859  31.839  34.801  1.00  0.00     0.020 A 
ATOM     82  C   UNL A   1      39.688  31.081  34.894  1.00  0.00     0.054 A 
BRANCH  82  83
ATOM     83  S   UNL A   1      38.512  31.354  36.255  1.00  0.00     0.124 S 
ATOM     84  O   UNL A   1      39.280  32.172  37.188  1.00  0.00    -0.237 OA
ATOM     85  O   UNL A   1      37.419  32.046  35.572  1.00  0.00    -0.237 OA
ATOM     86  O   UNL A   1      38.213  30.001  36.712  1.00  0.00    -0.744 OA
ENDBRANCH  82  83
ENDBRANCH  54  77
BRANCH  66  87
ATOM     87  C   UNL A   1      44.975  23.809  33.727  1.00  0.00    -0.014 A 
ATOM     88  C   UNL A   1      44.067  22.795  34.061  1.00  0.00     0.010 A 
ATOM     89  C   UNL A   1      46.330  23.611  34.094  1.00  0.00     0.010 A 
ATOM     90  C   UNL A   1      44.480  21.656  34.768  1.00  0.00     0.020 A 
ATOM     91  C   UNL A   1      46.759  22.461  34.761  1.00  0.00     0.020 A 
ATOM     92  C   UNL A   1      45.824  21.495  35.112  1.00  0.00     0.054 A 
BRANCH  92  93
ATOM     93  S   UNL A   1      46.372  19.981  35.941  1.00  0.00     0.124 S 
ATOM     94  O   UNL A   1      47.821  20.166  35.975  1.00  0.00    -0.237 OA
ATOM     95  O   UNL A   1      45.702  20.051  37.237  1.00  0.00    -0.237 OA
ATOM     96  O   UNL A   1      45.894  18.920  35.057  1.00  0.00    -0.744 OA
ENDBRANCH  92  93
ENDBRANCH  66  87
ENDBRANCH  40  41
ENDBRANCH  32  35
ENDBRANCH  30  31
ENDBRANCH  29  30
ENDBRANCH  28  29
ENDBRANCH   1  28
TORSDOF 21
ENDMDL
MODEL 2
REMARK VINA RESULT:     -11.5      3.178      4.831
REMARK SMILES Cc1cccc(Nc2nc(C)c(CCO)c(OCC(=O)NCCCCNC(=O)c3ccc(-c4c5nc(c(-c6ccc(S(=O)(=O)[O-])cc6)c6ccc([nH]6)c(-c6ccc(S(=O)(=O)[O-])cc6)c6nc(c(-c7ccc(S(=O)(=O)[O-])cc7)c7ccc4[nH]7)C=C6)C=C5)cc3)n2)c1
REMARK SMILES IDX 22 1 21 2 19 3 20 4 18 6 17 7 16 8 8 9 9 10 89 11 10 12
REMARK SMILES IDX 11 13 12 14 7 15 6 17 1 18 2 19 3 20 90 21 4 22 5 23 13 24
REMARK SMILES IDX 14 25 15 26 23 28 24 29 25 30 26 31 27 32 28 34 29 35 30 36
REMARK SMILES IDX 88 37 31 38 87 39 32 40 33 41 34 42 81 43 35 44 86 45 80 46
REMARK SMILES IDX 82 47 36 48 85 49 79 50 78 51 37 53 67 54 48 55 66 56 49 57
REMARK SMILES IDX 52 58 65 59 83 60 50 61 51 62 64 64 84 65 53 66 38 67 39 68
REMARK SMILES IDX 47 69 40 70 46 71 41 72 42 73 43 74 44 75 45 76 68 77 69 78
REMARK SMILES IDX 77 79 70 80 76 81 71 82 72 83 73 84 74 85 75 86 54 87 55 88
REMARK SMILES IDX 63 89 56 90 62 91 57 92 58 93 59 94 60 95 61 96
REMARK H PARENT 21 5 7 16 15 27 26 33 82 52 52 63
REMARK Flexibility Score: inf
ROOT
ATOM      1  C   UNL A   1      34.763  30.325  27.316  1.00  0.00     0.116 C 
ENDROOT
BRANCH   1   2
ATOM      2  N   UNL A   1      33.563  29.564  27.619  1.00  0.00    -0.353 N 
ATOM      3  C   UNL A   1      32.323  29.631  27.070  1.00  0.00     0.258 C 
ATOM      4  O   UNL A   1      31.445  28.903  27.544  1.00  0.00    -0.271 OA
ATOM      5  H   UNL A   1      33.665  28.896  28.334  1.00  0.00     0.163 HD
BRANCH   3   6
ATOM      6  C   UNL A   1      32.047  30.532  25.851  1.00  0.00     0.331 C 
BRANCH   6   7
ATOM      7  O   UNL A   1      30.770  30.827  25.326  1.00  0.00    -0.467 OA
BRANCH   7   8
ATOM      8  C   UNL A   1      30.349  30.254  24.167  1.00  0.00     0.222 A 
ATOM      9  C   UNL A   1      30.453  28.255  23.025  1.00  0.00     0.230 A 
ATOM     10  N   UNL A   1      29.686  28.723  22.039  1.00  0.00    -0.218 NA
ATOM     11  N   UNL A   1      30.835  29.004  24.061  1.00  0.00    -0.177 NA
ATOM     12  C   UNL A   1      29.121  29.938  22.206  1.00  0.00     0.050 A 
ATOM     13  C   UNL A   1      28.119  30.292  21.144  1.00  0.00     0.067 C 
ATOM     14  C   UNL A   1      29.359  30.737  23.326  1.00  0.00     0.038 A 
BRANCH   9  15
ATOM     15  N   UNL A   1      30.739  26.891  22.972  1.00  0.00    -0.324 N 
ATOM     16  H   UNL A   1      30.571  26.455  22.105  1.00  0.00     0.170 HD
BRANCH  15  17
ATOM     17  C   UNL A   1      31.236  26.051  23.987  1.00  0.00     0.041 A 
ATOM     18  C   UNL A   1      34.653  24.837  25.222  1.00  0.00     0.044 C 
ATOM     19  C   UNL A   1      33.170  25.022  25.091  1.00  0.00    -0.049 A 
ATOM     20  C   UNL A   1      32.310  24.336  25.954  1.00  0.00     0.003 A 
ATOM     21  C   UNL A   1      32.625  25.880  24.120  1.00  0.00     0.029 A 
ATOM     22  C   UNL A   1      30.934  24.522  25.860  1.00  0.00     0.002 A 
ATOM     23  C   UNL A   1      30.407  25.383  24.896  1.00  0.00     0.026 A 
ENDBRANCH  15  17
ENDBRANCH   9  15
BRANCH  14  24
ATOM     24  C   UNL A   1      28.471  31.911  23.655  1.00  0.00     0.071 C 
BRANCH  24  25
ATOM     25  C   UNL A   1      28.865  33.192  22.913  1.00  0.00     0.161 C 
BRANCH  25  26
ATOM     26  O   UNL A   1      29.970  33.862  23.506  1.00  0.00    -0.396 OA
ATOM     27  H   UNL A   1      30.405  33.269  24.139  1.00  0.00     0.210 HD
ENDBRANCH  25  26
ENDBRANCH  24  25
ENDBRANCH  14  24
ENDBRANCH   7   8
ENDBRANCH   6   7
ENDBRANCH   3   6
ENDBRANCH   1   2
BRANCH   1  28
ATOM     28  C   UNL A   1      34.894  31.580  28.186  1.00  0.00     0.023 C 
BRANCH  28  29
ATOM     29  C   UNL A   1      36.250  32.292  28.138  1.00  0.00     0.023 C 
BRANCH  29  30
ATOM     30  C   UNL A   1      37.320  31.702  29.050  1.00  0.00     0.116 C 
BRANCH  30  31
ATOM     31  N   UNL A   1      36.826  31.223  30.332  1.00  0.00    -0.352 N 
ATOM     32  C   UNL A   1      36.867  29.932  30.823  1.00  0.00     0.251 C 
ATOM     33  H   UNL A   1      36.416  31.899  30.920  1.00  0.00     0.163 HD
ATOM     34  O   UNL A   1      36.224  29.577  31.810  1.00  0.00    -0.269 OA
BRANCH  32  35
ATOM     35  C   UNL A   1      37.851  29.007  30.226  1.00  0.00     0.039 A 
ATOM     36  C   UNL A   1      38.802  28.451  31.092  1.00  0.00     0.014 A 
ATOM     37  C   UNL A   1      38.005  28.921  28.845  1.00  0.00     0.014 A 
ATOM     38  C   UNL A   1      40.008  27.996  30.573  1.00  0.00     0.010 A 
ATOM     39  C   UNL A   1      39.242  28.575  28.341  1.00  0.00     0.010 A 
ATOM     40  C   UNL A   1      40.258  28.164  29.211  1.00  0.00    -0.014 A 
BRANCH  40  41
ATOM     41  C   UNL A   1      41.574  27.962  28.620  1.00  0.00     0.031 A 
ATOM     42  C   UNL A   1      42.053  26.578  28.410  1.00  0.00     0.074 A 
ATOM     43  C   UNL A   1      42.335  29.023  28.271  1.00  0.00     0.049 A 
ATOM     44  N   UNL A   1      43.291  26.223  28.360  1.00  0.00    -0.248 NA
ATOM     45  C   UNL A   1      41.126  25.456  28.307  1.00  0.00     0.031 C 
ATOM     46  C   UNL A   1      43.587  28.994  27.519  1.00  0.00     0.029 A 
ATOM     47  N   UNL A   1      42.254  30.337  28.743  1.00  0.00    -0.354 N 
ATOM     48  C   UNL A   1      43.325  24.909  27.942  1.00  0.00     0.074 A 
ATOM     49  C   UNL A   1      41.956  24.457  28.001  1.00  0.00     0.031 C 
ATOM     50  C   UNL A   1      44.301  30.084  27.847  1.00  0.00     0.029 A 
ATOM     51  C   UNL A   1      43.579  30.767  28.911  1.00  0.00     0.049 A 
ATOM     52  H   UNL A   1      41.436  30.854  28.920  1.00  0.00     0.167 HD
ATOM     53  C   UNL A   1      44.482  24.380  27.451  1.00  0.00     0.031 A 
ATOM     54  C   UNL A   1      44.108  31.112  30.121  1.00  0.00     0.031 A 
ATOM     55  C   UNL A   1      45.596  25.312  27.598  1.00  0.00     0.049 A 
ATOM     56  C   UNL A   1      45.289  30.243  30.512  1.00  0.00     0.074 A 
ATOM     57  C   UNL A   1      46.186  26.221  26.735  1.00  0.00     0.029 A 
ATOM     58  N   UNL A   1      46.033  25.642  28.876  1.00  0.00    -0.354 N 
ATOM     59  N   UNL A   1      45.581  29.106  29.938  1.00  0.00    -0.248 NA
ATOM     60  C   UNL A   1      46.218  30.571  31.590  1.00  0.00     0.031 C 
ATOM     61  C   UNL A   1      46.874  27.185  27.523  1.00  0.00     0.029 A 
ATOM     62  C   UNL A   1      46.741  26.829  28.855  1.00  0.00     0.049 A 
ATOM     63  H   UNL A   1      45.862  25.105  29.683  1.00  0.00     0.167 HD
ATOM     64  C   UNL A   1      46.705  28.572  30.511  1.00  0.00     0.074 A 
ATOM     65  C   UNL A   1      47.068  29.529  31.542  1.00  0.00     0.031 C 
ATOM     66  C   UNL A   1      47.257  27.393  30.095  1.00  0.00     0.031 A 
BRANCH  53  67
ATOM     67  C   UNL A   1      44.485  23.160  26.554  1.00  0.00    -0.014 A 
ATOM     68  C   UNL A   1      43.321  22.375  26.437  1.00  0.00     0.010 A 
ATOM     69  C   UNL A   1      45.626  22.682  25.881  1.00  0.00     0.010 A 
ATOM     70  C   UNL A   1      43.329  21.124  25.796  1.00  0.00     0.020 A 
ATOM     71  C   UNL A   1      45.664  21.414  25.279  1.00  0.00     0.020 A 
ATOM     72  C   UNL A   1      44.515  20.633  25.254  1.00  0.00     0.054 A 
BRANCH  72  73
ATOM     73  S   UNL A   1      44.545  18.965  24.545  1.00  0.00     0.124 S 
ATOM     74  O   UNL A   1      44.353  19.220  23.120  1.00  0.00    -0.237 OA
ATOM     75  O   UNL A   1      45.871  18.486  24.927  1.00  0.00    -0.237 OA
ATOM     76  O   UNL A   1      43.428  18.289  25.202  1.00  0.00    -0.744 OA
ENDBRANCH  72  73
ENDBRANCH  53  67
BRANCH  54  77
ATOM     77  C   UNL A   1      43.154  31.768  31.058  1.00  0.00    -0.014 A 
ATOM     78  C   UNL A   1      43.038  33.173  30.984  1.00  0.00     0.010 A 
ATOM     79  C   UNL A   1      42.121  31.041  31.675  1.00  0.00     0.010 A 
ATOM     80  C   UNL A   1      41.857  33.818  31.363  1.00  0.00     0.020 A 
ATOM     81  C   UNL A   1      40.931  31.686  32.050  1.00  0.00     0.020 A 
ATOM     82  C   UNL A   1      40.784  33.058  31.824  1.00  0.00     0.054 A 
BRANCH  82  83
ATOM     83  S   UNL A   1      39.163  33.862  32.015  1.00  0.00     0.124 S 
ATOM     84  O   UNL A   1      38.914  34.410  30.686  1.00  0.00    -0.237 OA
ATOM     85  O   UNL A   1      38.312  32.734  32.394  1.00  0.00    -0.237 OA
ATOM     86  O   UNL A   1      39.404  34.849  33.062  1.00  0.00    -0.744 OA
ENDBRANCH  82  83
ENDBRANCH  54  77
BRANCH  66  87
ATOM     87  C   UNL A   1      48.393  26.670  30.775  1.00  0.00    -0.014 A 
ATOM     88  C   UNL A   1      48.643  26.725  32.153  1.00  0.00     0.010 A 
ATOM     89  C   UNL A   1      49.168  25.762  30.012  1.00  0.00     0.010 A 
ATOM     90  C   UNL A   1      49.650  25.942  32.738  1.00  0.00     0.020 A 
ATOM     91  C   UNL A   1      50.143  24.948  30.591  1.00  0.00     0.020 A 
ATOM     92  C   UNL A   1      50.392  25.056  31.954  1.00  0.00     0.054 A 
BRANCH  92  93
ATOM     93  S   UNL A   1      51.625  23.978  32.726  1.00  0.00     0.124 S 
ATOM     94  O   UNL A   1      51.236  22.665  32.217  1.00  0.00    -0.237 OA
ATOM     95  O   UNL A   1      52.890  24.499  32.212  1.00  0.00    -0.237 OA
ATOM     96  O   UNL A   1      51.410  24.187  34.156  1.00  0.00    -0.744 OA
ENDBRANCH  92  93
ENDBRANCH  66  87
ENDBRANCH  40  41
ENDBRANCH  32  35
ENDBRANCH  30  31
ENDBRANCH  29  30
ENDBRANCH  28  29
ENDBRANCH   1  28
TORSDOF 21
ENDMDL
MODEL 3
REMARK VINA RESULT:     -11.1      4.300     10.538
REMARK SMILES Cc1cccc(Nc2nc(C)c(CCO)c(OCC(=O)NCCCCNC(=O)c3ccc(-c4c5nc(c(-c6ccc(S(=O)(=O)[O-])cc6)c6ccc([nH]6)c(-c6ccc(S(=O)(=O)[O-])cc6)c6nc(c(-c7ccc(S(=O)(=O)[O-])cc7)c7ccc4[nH]7)C=C6)C=C5)cc3)n2)c1
REMARK SMILES IDX 22 1 21 2 19 3 20 4 18 6 17 7 16 8 8 9 9 10 89 11 10 12
REMARK SMILES IDX 11 13 12 14 7 15 6 17 1 18 2 19 3 20 90 21 4 22 5 23 13 24
REMARK SMILES IDX 14 25 15 26 23 28 24 29 25 30 26 31 27 32 28 34 29 35 30 36
REMARK SMILES IDX 88 37 31 38 87 39 32 40 33 41 34 42 81 43 35 44 86 45 80 46
REMARK SMILES IDX 82 47 36 48 85 49 79 50 78 51 37 53 67 54 48 55 66 56 49 57
REMARK SMILES IDX 52 58 65 59 83 60 50 61 51 62 64 64 84 65 53 66 38 67 39 68
REMARK SMILES IDX 47 69 40 70 46 71 41 72 42 73 43 74 44 75 45 76 68 77 69 78
REMARK SMILES IDX 77 79 70 80 76 81 71 82 72 83 73 84 74 85 75 86 54 87 55 88
REMARK SMILES IDX 63 89 56 90 62 91 57 92 58 93 59 94 60 95 61 96
REMARK H PARENT 21 5 7 16 15 27 26 33 82 52 52 63
REMARK Flexibility Score: inf
ROOT
ATOM      1  C   UNL A   1      38.361  21.397  25.753  1.00  0.00     0.116 C 
ENDROOT
BRANCH   1   2
ATOM      2  N   UNL A   1      37.490  22.520  26.058  1.00  0.00    -0.353 N 
ATOM      3  C   UNL A   1      36.807  23.348  25.227  1.00  0.00     0.258 C 
ATOM      4  O   UNL A   1      36.168  24.274  25.736  1.00  0.00    -0.271 OA
ATOM      5  H   UNL A   1      37.379  22.710  27.017  1.00  0.00     0.163 HD
BRANCH   3   6
ATOM      6  C   UNL A   1      36.775  23.092  23.708  1.00  0.00     0.331 C 
BRANCH   6   7
ATOM      7  O   UNL A   1      35.607  22.954  22.927  1.00  0.00    -0.467 OA
BRANCH   7   8
ATOM      8  C   UNL A   1      34.415  23.432  23.373  1.00  0.00     0.222 A 
ATOM      9  C   UNL A   1      33.014  25.244  23.121  1.00  0.00     0.230 A 
ATOM     10  N   UNL A   1      32.105  24.716  23.943  1.00  0.00    -0.218 NA
ATOM     11  N   UNL A   1      34.182  24.654  22.861  1.00  0.00    -0.177 NA
ATOM     12  C   UNL A   1      32.302  23.449  24.366  1.00  0.00     0.050 A 
ATOM     13  C   UNL A   1      31.136  22.872  25.118  1.00  0.00     0.067 C 
ATOM     14  C   UNL A   1      33.436  22.706  24.032  1.00  0.00     0.038 A 
BRANCH   9  15
ATOM     15  N   UNL A   1      32.620  26.401  22.449  1.00  0.00    -0.324 N 
ATOM     16  H   UNL A   1      32.963  26.497  21.531  1.00  0.00     0.170 HD
BRANCH  15  17
ATOM     17  C   UNL A   1      31.798  27.451  22.902  1.00  0.00     0.041 A 
ATOM     18  C   UNL A   1      31.906  30.141  25.627  1.00  0.00     0.044 C 
ATOM     19  C   UNL A   1      31.437  29.291  24.483  1.00  0.00    -0.049 A 
ATOM     20  C   UNL A   1      30.184  29.534  23.911  1.00  0.00     0.003 A 
ATOM     21  C   UNL A   1      32.236  28.256  23.968  1.00  0.00     0.029 A 
ATOM     22  C   UNL A   1      29.751  28.771  22.831  1.00  0.00     0.002 A 
ATOM     23  C   UNL A   1      30.559  27.751  22.325  1.00  0.00     0.026 A 
ENDBRANCH  15  17
ENDBRANCH   9  15
BRANCH  14  24
ATOM     24  C   UNL A   1      33.476  21.210  24.220  1.00  0.00     0.071 C 
BRANCH  24  25
ATOM     25  C   UNL A   1      34.270  20.778  25.456  1.00  0.00     0.161 C 
BRANCH  25  26
ATOM     26  O   UNL A   1      33.440  20.400  26.548  1.00  0.00    -0.396 OA
ATOM     27  H   UNL A   1      32.888  21.154  26.809  1.00  0.00     0.210 HD
ENDBRANCH  25  26
ENDBRANCH  24  25
ENDBRANCH  14  24
ENDBRANCH   7   8
ENDBRANCH   6   7
ENDBRANCH   3   6
ENDBRANCH   1   2
BRANCH   1  28
ATOM     28  C   UNL A   1      39.839  21.724  25.985  1.00  0.00     0.023 C 
BRANCH  28  29
ATOM     29  C   UNL A   1      40.170  22.450  27.293  1.00  0.00     0.023 C 
BRANCH  29  30
ATOM     30  C   UNL A   1      40.113  23.972  27.218  1.00  0.00     0.116 C 
BRANCH  30  31
ATOM     31  N   UNL A   1      41.091  24.571  26.322  1.00  0.00    -0.352 N 
ATOM     32  C   UNL A   1      41.150  25.884  25.895  1.00  0.00     0.251 C 
ATOM     33  H   UNL A   1      41.794  23.970  25.982  1.00  0.00     0.163 HD
ATOM     34  O   UNL A   1      41.869  26.246  24.964  1.00  0.00    -0.269 OA
BRANCH  32  35
ATOM     35  C   UNL A   1      40.445  26.897  26.705  1.00  0.00     0.039 A 
ATOM     36  C   UNL A   1      40.849  28.229  26.542  1.00  0.00     0.014 A 
ATOM     37  C   UNL A   1      39.636  26.521  27.774  1.00  0.00     0.014 A 
ATOM     38  C   UNL A   1      40.613  29.140  27.565  1.00  0.00     0.010 A 
ATOM     39  C   UNL A   1      39.500  27.392  28.835  1.00  0.00     0.010 A 
ATOM     40  C   UNL A   1      40.036  28.682  28.750  1.00  0.00    -0.014 A 
BRANCH  40  41
ATOM     41  C   UNL A   1      39.984  29.486  29.964  1.00  0.00     0.031 A 
ATOM     42  C   UNL A   1      39.096  30.668  29.994  1.00  0.00     0.074 A 
ATOM     43  C   UNL A   1      40.733  29.150  31.037  1.00  0.00     0.049 A 
ATOM     44  N   UNL A   1      39.268  31.705  30.741  1.00  0.00    -0.248 NA
ATOM     45  C   UNL A   1      37.949  30.787  29.098  1.00  0.00     0.031 C 
ATOM     46  C   UNL A   1      40.669  29.742  32.371  1.00  0.00     0.029 A 
ATOM     47  N   UNL A   1      41.889  28.363  31.072  1.00  0.00    -0.354 N 
ATOM     48  C   UNL A   1      38.132  32.479  30.638  1.00  0.00     0.074 A 
ATOM     49  C   UNL A   1      37.381  31.908  29.547  1.00  0.00     0.031 C 
ATOM     50  C   UNL A   1      41.864  29.579  32.962  1.00  0.00     0.029 A 
ATOM     51  C   UNL A   1      42.759  28.996  31.973  1.00  0.00     0.049 A 
ATOM     52  H   UNL A   1      42.057  27.534  30.568  1.00  0.00     0.167 HD
ATOM     53  C   UNL A   1      37.871  33.434  31.576  1.00  0.00     0.031 A 
ATOM     54  C   UNL A   1      43.970  29.511  31.610  1.00  0.00     0.031 A 
ATOM     55  C   UNL A   1      38.985  33.581  32.508  1.00  0.00     0.049 A 
ATOM     56  C   UNL A   1      44.068  31.004  31.859  1.00  0.00     0.074 A 
ATOM     57  C   UNL A   1      39.236  33.066  33.768  1.00  0.00     0.029 A 
ATOM     58  N   UNL A   1      40.198  34.069  32.033  1.00  0.00    -0.354 N 
ATOM     59  N   UNL A   1      43.040  31.776  32.090  1.00  0.00    -0.248 NA
ATOM     60  C   UNL A   1      45.325  31.750  31.847  1.00  0.00     0.031 C 
ATOM     61  C   UNL A   1      40.640  33.125  33.991  1.00  0.00     0.029 A 
ATOM     62  C   UNL A   1      41.228  33.721  32.888  1.00  0.00     0.049 A 
ATOM     63  H   UNL A   1      40.308  34.589  31.204  1.00  0.00     0.167 HD
ATOM     64  C   UNL A   1      43.461  33.066  32.282  1.00  0.00     0.074 A 
ATOM     65  C   UNL A   1      44.903  32.998  32.121  1.00  0.00     0.031 C 
ATOM     66  C   UNL A   1      42.600  34.089  32.564  1.00  0.00     0.031 A 
BRANCH  53  67
ATOM     67  C   UNL A   1      36.472  33.965  31.808  1.00  0.00    -0.014 A 
ATOM     68  C   UNL A   1      35.496  33.830  30.800  1.00  0.00     0.010 A 
ATOM     69  C   UNL A   1      36.086  34.691  32.951  1.00  0.00     0.010 A 
ATOM     70  C   UNL A   1      34.257  34.487  30.872  1.00  0.00     0.020 A 
ATOM     71  C   UNL A   1      34.872  35.394  33.017  1.00  0.00     0.020 A 
ATOM     72  C   UNL A   1      33.968  35.300  31.966  1.00  0.00     0.054 A 
BRANCH  72  73
ATOM     73  S   UNL A   1      32.421  36.245  31.989  1.00  0.00     0.124 S 
ATOM     74  O   UNL A   1      32.726  37.335  32.912  1.00  0.00    -0.237 OA
ATOM     75  O   UNL A   1      32.268  36.628  30.588  1.00  0.00    -0.237 OA
ATOM     76  O   UNL A   1      31.435  35.284  32.481  1.00  0.00    -0.744 OA
ENDBRANCH  72  73
ENDBRANCH  53  67
BRANCH  54  77
ATOM     77  C   UNL A   1      44.680  28.751  30.544  1.00  0.00    -0.014 A 
ATOM     78  C   UNL A   1      45.566  27.734  30.956  1.00  0.00     0.010 A 
ATOM     79  C   UNL A   1      44.202  28.730  29.222  1.00  0.00     0.010 A 
ATOM     80  C   UNL A   1      45.838  26.638  30.130  1.00  0.00     0.020 A 
ATOM     81  C   UNL A   1      44.468  27.627  28.393  1.00  0.00     0.020 A 
ATOM     82  C   UNL A   1      45.225  26.558  28.881  1.00  0.00     0.054 A 
BRANCH  82  83
ATOM     83  S   UNL A   1      45.334  24.997  27.953  1.00  0.00     0.124 S 
ATOM     84  O   UNL A   1      45.320  23.990  29.010  1.00  0.00    -0.237 OA
ATOM     85  O   UNL A   1      44.127  25.054  27.129  1.00  0.00    -0.237 OA
ATOM     86  O   UNL A   1      46.596  25.127  27.233  1.00  0.00    -0.744 OA
ENDBRANCH  82  83
ENDBRANCH  54  77
BRANCH  66  87
ATOM     87  C   UNL A   1      42.969  35.550  32.634  1.00  0.00    -0.014 A 
ATOM     88  C   UNL A   1      42.804  36.346  33.776  1.00  0.00     0.010 A 
ATOM     89  C   UNL A   1      43.663  36.124  31.539  1.00  0.00     0.010 A 
ATOM     90  C   UNL A   1      43.269  37.669  33.810  1.00  0.00     0.020 A 
ATOM     91  C   UNL A   1      44.166  37.426  31.579  1.00  0.00     0.020 A 
ATOM     92  C   UNL A   1      43.949  38.201  32.712  1.00  0.00     0.054 A 
BRANCH  92  93
ATOM     93  S   UNL A   1      44.632  39.876  32.793  1.00  0.00     0.124 S 
ATOM     94  O   UNL A   1      44.994  40.120  31.399  1.00  0.00    -0.237 OA
ATOM     95  O   UNL A   1      43.511  40.667  33.296  1.00  0.00    -0.237 OA
ATOM     96  O   UNL A   1      45.753  39.740  33.719  1.00  0.00    -0.744 OA
ENDBRANCH  92  93
ENDBRANCH  66  87
ENDBRANCH  40  41
ENDBRANCH  32  35
ENDBRANCH  30  31
ENDBRANCH  29  30
ENDBRANCH  28  29
ENDBRANCH   1  28
TORSDOF 21
ENDMDL
