MODEL 1
REMARK VINA RESULT:      -8.9      0.000      0.000
REMARK SMILES O=C(NCCCCNC(=O)c1[nH]ncc1C[NH+]1CCC([N@H+]2CCC[C@@H](C(=O)N3CCCC3)C2)CC1)c1ccc(-c2c3nc(c(-c4ccc(S(=O)(=O)[O-])cc4)c4ccc([nH]4)c(-c4ccc(S(=O)(=O)[O-])cc4)c4nc(c(-c5ccc(S(=O)(=O)[O-])cc5)c5ccc2[nH]5)C=C4)C=C3)cc1
REMARK SMILES IDX 6 1 5 2 4 3 3 4 1 5 2 6 36 8 37 9 95 10 38 11 94 12 39 13
REMARK SMILES IDX 40 14 41 15 88 16 42 17 93 18 87 19 89 20 43 21 92 22 86 23
REMARK SMILES IDX 85 24 44 26 74 27 55 28 73 29 56 30 59 31 72 32 90 33 57 34
REMARK SMILES IDX 58 35 71 37 91 38 60 39 45 40 46 41 54 42 47 43 53 44 48 45
REMARK SMILES IDX 49 46 50 47 51 48 52 49 75 50 76 51 84 52 77 53 83 54 78 55
REMARK SMILES IDX 79 56 80 57 81 58 82 59 61 60 62 61 70 62 63 63 69 64 64 65
REMARK SMILES IDX 65 66 66 67 67 68 68 69 7 70 8 71 9 72 10 74 11 75 12 76
REMARK SMILES IDX 15 77 13 78 14 80 16 81 17 82 18 83 35 84 19 86 34 87 20 88
REMARK SMILES IDX 21 89 22 90 33 91 23 93 25 94 24 95 26 96 27 97 28 98 29 99
REMARK SMILES IDX 32 100 30 101 31 102
REMARK H PARENT 3 7 89 25 59 36 8 73 12 79 17 85 21 92
REMARK Flexibility Score: inf
ROOT
ATOM      1  C   UNL A   1      34.770  32.922  30.685  1.00  0.00     0.023 C 
ENDROOT
BRANCH   1   2
ATOM      2  C   UNL A   1      34.433  33.634  29.380  1.00  0.00     0.023 C 
BRANCH   2   3
ATOM      3  C   UNL A   1      34.761  32.852  28.114  1.00  0.00     0.116 C 
BRANCH   3   4
ATOM      4  N   UNL A   1      33.925  31.673  27.937  1.00  0.00    -0.352 N 
ATOM      5  O   UNL A   1      33.466  29.490  27.590  1.00  0.00    -0.269 OA
ATOM      6  C   UNL A   1      34.290  30.348  27.887  1.00  0.00     0.251 C 
ATOM      7  H   UNL A   1      32.961  31.850  27.840  1.00  0.00     0.163 HD
BRANCH   6   8
ATOM      8  C   UNL A   1      35.694  29.975  28.163  1.00  0.00     0.039 A 
ATOM      9  C   UNL A   1      36.077  29.585  29.448  1.00  0.00     0.014 A 
ATOM     10  C   UNL A   1      36.639  30.052  27.137  1.00  0.00     0.014 A 
ATOM     11  C   UNL A   1      37.425  29.443  29.748  1.00  0.00     0.010 A 
ATOM     12  C   UNL A   1      37.986  29.807  27.420  1.00  0.00     0.010 A 
ATOM     13  C   UNL A   1      38.395  29.535  28.735  1.00  0.00    -0.014 A 
BRANCH  13  14
ATOM     14  C   UNL A   1      39.817  29.272  29.072  1.00  0.00     0.031 A 
ATOM     15  C   UNL A   1      40.668  30.308  29.753  1.00  0.00     0.074 A 
ATOM     16  C   UNL A   1      40.326  28.058  28.782  1.00  0.00     0.049 A 
ATOM     17  N   UNL A   1      41.919  30.219  30.134  1.00  0.00    -0.248 NA
ATOM     18  C   UNL A   1      40.047  31.610  30.041  1.00  0.00     0.031 C 
ATOM     19  C   UNL A   1      39.594  26.975  28.118  1.00  0.00     0.029 A 
ATOM     20  N   UNL A   1      41.564  27.520  29.024  1.00  0.00    -0.354 N 
ATOM     21  C   UNL A   1      42.241  31.455  30.684  1.00  0.00     0.074 A 
ATOM     22  C   UNL A   1      41.061  32.284  30.570  1.00  0.00     0.031 C 
ATOM     23  C   UNL A   1      40.376  25.888  28.056  1.00  0.00     0.029 A 
ATOM     24  C   UNL A   1      41.685  26.217  28.605  1.00  0.00     0.049 A 
ATOM     25  H   UNL A   1      42.294  28.019  29.455  1.00  0.00     0.167 HD
ATOM     26  C   UNL A   1      43.413  31.857  31.234  1.00  0.00     0.031 A 
ATOM     27  C   UNL A   1      42.737  25.380  28.635  1.00  0.00     0.031 A 
ATOM     28  C   UNL A   1      44.583  31.022  31.342  1.00  0.00     0.049 A 
ATOM     29  C   UNL A   1      44.032  25.862  29.221  1.00  0.00     0.074 A 
ATOM     30  C   UNL A   1      45.809  31.329  31.908  1.00  0.00     0.029 A 
ATOM     31  N   UNL A   1      44.678  29.722  30.869  1.00  0.00    -0.354 N 
ATOM     32  N   UNL A   1      44.305  27.025  29.760  1.00  0.00    -0.248 NA
ATOM     33  C   UNL A   1      45.156  24.920  29.202  1.00  0.00     0.031 C 
ATOM     34  C   UNL A   1      46.661  30.233  31.730  1.00  0.00     0.029 A 
ATOM     35  C   UNL A   1      45.948  29.222  31.106  1.00  0.00     0.049 A 
ATOM     36  H   UNL A   1      43.950  29.226  30.429  1.00  0.00     0.167 HD
ATOM     37  C   UNL A   1      45.634  26.950  30.159  1.00  0.00     0.074 A 
ATOM     38  C   UNL A   1      46.099  25.621  29.819  1.00  0.00     0.031 C 
ATOM     39  C   UNL A   1      46.399  27.899  30.753  1.00  0.00     0.031 A 
BRANCH  26  40
ATOM     40  C   UNL A   1      43.503  33.274  31.739  1.00  0.00    -0.014 A 
ATOM     41  C   UNL A   1      43.950  34.319  30.912  1.00  0.00     0.010 A 
ATOM     42  C   UNL A   1      43.078  33.575  33.047  1.00  0.00     0.010 A 
ATOM     43  C   UNL A   1      44.006  35.632  31.394  1.00  0.00     0.020 A 
ATOM     44  C   UNL A   1      43.108  34.889  33.526  1.00  0.00     0.020 A 
ATOM     45  C   UNL A   1      43.588  35.907  32.700  1.00  0.00     0.054 A 
BRANCH  45  46
ATOM     46  S   UNL A   1      43.654  37.620  33.294  1.00  0.00     0.124 S 
ATOM     47  O   UNL A   1      44.928  37.641  34.010  1.00  0.00    -0.237 OA
ATOM     48  O   UNL A   1      43.620  38.391  32.053  1.00  0.00    -0.237 OA
ATOM     49  O   UNL A   1      42.466  37.744  34.134  1.00  0.00    -0.744 OA
ENDBRANCH  45  46
ENDBRANCH  26  40
BRANCH  27  50
ATOM     50  C   UNL A   1      42.603  24.010  28.072  1.00  0.00    -0.014 A 
ATOM     51  C   UNL A   1      42.278  22.922  28.899  1.00  0.00     0.010 A 
ATOM     52  C   UNL A   1      42.762  23.797  26.689  1.00  0.00     0.010 A 
ATOM     53  C   UNL A   1      42.128  21.643  28.355  1.00  0.00     0.020 A 
ATOM     54  C   UNL A   1      42.581  22.527  26.138  1.00  0.00     0.020 A 
ATOM     55  C   UNL A   1      42.277  21.455  26.977  1.00  0.00     0.054 A 
BRANCH  55  56
ATOM     56  S   UNL A   1      42.020  19.798  26.286  1.00  0.00     0.124 S 
ATOM     57  O   UNL A   1      42.941  19.798  25.153  1.00  0.00    -0.237 OA
ATOM     58  O   UNL A   1      42.386  18.929  27.400  1.00  0.00    -0.237 OA
ATOM     59  O   UNL A   1      40.600  19.790  25.939  1.00  0.00    -0.744 OA
ENDBRANCH  55  56
ENDBRANCH  27  50
BRANCH  39  60
ATOM     60  C   UNL A   1      47.814  27.521  31.094  1.00  0.00    -0.014 A 
ATOM     61  C   UNL A   1      48.135  26.945  32.337  1.00  0.00     0.010 A 
ATOM     62  C   UNL A   1      48.832  27.712  30.142  1.00  0.00     0.010 A 
ATOM     63  C   UNL A   1      49.455  26.599  32.633  1.00  0.00     0.020 A 
ATOM     64  C   UNL A   1      50.148  27.341  30.425  1.00  0.00     0.020 A 
ATOM     65  C   UNL A   1      50.454  26.800  31.676  1.00  0.00     0.054 A 
BRANCH  65  66
ATOM     66  S   UNL A   1      52.154  26.307  32.070  1.00  0.00     0.124 S 
ATOM     67  O   UNL A   1      52.418  27.071  33.287  1.00  0.00    -0.237 OA
ATOM     68  O   UNL A   1      52.036  24.862  32.248  1.00  0.00    -0.237 OA
ATOM     69  O   UNL A   1      52.917  26.723  30.896  1.00  0.00    -0.744 OA
ENDBRANCH  65  66
ENDBRANCH  39  60
ENDBRANCH  13  14
ENDBRANCH   6   8
ENDBRANCH   3   4
ENDBRANCH   2   3
ENDBRANCH   1   2
BRANCH   1  70
ATOM     70  C   UNL A   1      35.417  33.799  31.749  1.00  0.00     0.116 C 
BRANCH  70  71
ATOM     71  N   UNL A   1      36.787  34.172  31.431  1.00  0.00    -0.351 N 
ATOM     72  C   UNL A   1      37.890  34.144  32.240  1.00  0.00     0.269 C 
ATOM     73  H   UNL A   1      36.941  34.485  30.511  1.00  0.00     0.163 HD
ATOM     74  O   UNL A   1      38.930  34.682  31.846  1.00  0.00    -0.268 OA
BRANCH  72  75
ATOM     75  C   UNL A   1      37.784  33.564  33.545  1.00  0.00     0.131 A 
ATOM     76  N   UNL A   1      37.528  34.329  34.649  1.00  0.00    -0.272 N 
ATOM     77  C   UNL A   1      37.927  32.263  34.018  1.00  0.00     0.057 A 
ATOM     78  N   UNL A   1      37.299  33.616  35.762  1.00  0.00    -0.183 NA
ATOM     79  H   UNL A   1      37.514  35.314  34.629  1.00  0.00     0.190 HD
ATOM     80  C   UNL A   1      37.538  32.362  35.376  1.00  0.00     0.145 A 
BRANCH  77  81
ATOM     81  C   UNL A   1      38.317  31.038  33.258  1.00  0.00     0.303 C 
BRANCH  81  82
ATOM     82  N   UNL A   1      39.694  30.597  33.469  1.00  0.00    -0.331 N 
ATOM     83  C   UNL A   1      40.280  31.067  34.724  1.00  0.00     0.268 C 
ATOM     84  C   UNL A   1      39.923  29.174  33.240  1.00  0.00     0.268 C 
ATOM     85  H   UNL A   1      40.209  31.067  32.724  1.00  0.00     0.348 HD
ATOM     86  C   UNL A   1      41.791  30.837  34.721  1.00  0.00     0.126 C 
ATOM     87  C   UNL A   1      41.422  28.893  33.154  1.00  0.00     0.126 C 
ATOM     88  C   UNL A   1      42.136  29.361  34.434  1.00  0.00     0.195 C 
BRANCH  88  89
ATOM     89  N   UNL A   1      43.583  29.023  34.410  1.00  0.00    -0.331 N 
ATOM     90  C   UNL A   1      44.437  29.965  35.150  1.00  0.00     0.262 C 
ATOM     91  C   UNL A   1      43.798  27.647  34.892  1.00  0.00     0.275 C 
ATOM     92  H   UNL A   1      43.869  29.098  33.434  1.00  0.00     0.348 HD
ATOM     93  C   UNL A   1      45.918  29.590  35.023  1.00  0.00     0.062 C 
ATOM     94  C   UNL A   1      45.264  27.195  34.786  1.00  0.00     0.134 C 
ATOM     95  C   UNL A   1      46.178  28.171  35.519  1.00  0.00     0.025 C 
BRANCH  94  96
ATOM     96  C   UNL A   1      45.284  25.798  35.390  1.00  0.00     0.231 C 
ATOM     97  O   UNL A   1      45.396  25.628  36.605  1.00  0.00    -0.274 OA
ATOM     98  N   UNL A   1      44.944  24.761  34.551  1.00  0.00    -0.342 N 
ATOM     99  C   UNL A   1      45.293  24.588  33.155  1.00  0.00     0.119 C 
ATOM    100  C   UNL A   1      44.230  23.606  35.060  1.00  0.00     0.119 C 
ATOM    101  C   UNL A   1      44.223  23.645  32.643  1.00  0.00     0.023 C 
ATOM    102  C   UNL A   1      43.956  22.734  33.839  1.00  0.00     0.023 C 
ENDBRANCH  94  96
ENDBRANCH  88  89
ENDBRANCH  81  82
ENDBRANCH  77  81
ENDBRANCH  72  75
ENDBRANCH  70  71
ENDBRANCH   1  70
TORSDOF 18
ENDMDL
MODEL 2
REMARK VINA RESULT:      -8.7      0.695      7.815
REMARK SMILES O=C(NCCCCNC(=O)c1[nH]ncc1C[NH+]1CCC([N@H+]2CCC[C@@H](C(=O)N3CCCC3)C2)CC1)c1ccc(-c2c3nc(c(-c4ccc(S(=O)(=O)[O-])cc4)c4ccc([nH]4)c(-c4ccc(S(=O)(=O)[O-])cc4)c4nc(c(-c5ccc(S(=O)(=O)[O-])cc5)c5ccc2[nH]5)C=C4)C=C3)cc1
REMARK SMILES IDX 6 1 5 2 4 3 3 4 1 5 2 6 36 8 37 9 95 10 38 11 94 12 39 13
REMARK SMILES IDX 40 14 41 15 88 16 42 17 93 18 87 19 89 20 43 21 92 22 86 23
REMARK SMILES IDX 85 24 44 26 74 27 55 28 73 29 56 30 59 31 72 32 90 33 57 34
REMARK SMILES IDX 58 35 71 37 91 38 60 39 45 40 46 41 54 42 47 43 53 44 48 45
REMARK SMILES IDX 49 46 50 47 51 48 52 49 75 50 76 51 84 52 77 53 83 54 78 55
REMARK SMILES IDX 79 56 80 57 81 58 82 59 61 60 62 61 70 62 63 63 69 64 64 65
REMARK SMILES IDX 65 66 66 67 67 68 68 69 7 70 8 71 9 72 10 74 11 75 12 76
REMARK SMILES IDX 15 77 13 78 14 80 16 81 17 82 18 83 35 84 19 86 34 87 20 88
REMARK SMILES IDX 21 89 22 90 33 91 23 93 25 94 24 95 26 96 27 97 28 98 29 99
REMARK SMILES IDX 32 100 30 101 31 102
REMARK H PARENT 3 7 89 25 59 36 8 73 12 79 17 85 21 92
REMARK Flexibility Score: inf
ROOT
ATOM      1  C   UNL A   1      34.538  32.463  31.165  1.00  0.00     0.023 C 
ENDROOT
BRANCH   1   2
ATOM      2  C   UNL A   1      34.736  33.474  30.042  1.00  0.00     0.023 C 
BRANCH   2   3
ATOM      3  C   UNL A   1      35.037  32.872  28.676  1.00  0.00     0.116 C 
BRANCH   3   4
ATOM      4  N   UNL A   1      34.174  31.747  28.343  1.00  0.00    -0.352 N 
ATOM      5  O   UNL A   1      33.665  29.643  27.702  1.00  0.00    -0.269 OA
ATOM      6  C   UNL A   1      34.510  30.434  28.109  1.00  0.00     0.251 C 
ATOM      7  H   UNL A   1      33.213  31.956  28.278  1.00  0.00     0.163 HD
BRANCH   6   8
ATOM      8  C   UNL A   1      35.905  29.996  28.322  1.00  0.00     0.039 A 
ATOM      9  C   UNL A   1      36.321  29.564  29.583  1.00  0.00     0.014 A 
ATOM     10  C   UNL A   1      36.813  30.055  27.261  1.00  0.00     0.014 A 
ATOM     11  C   UNL A   1      37.672  29.358  29.826  1.00  0.00     0.010 A 
ATOM     12  C   UNL A   1      38.157  29.747  27.485  1.00  0.00     0.010 A 
ATOM     13  C   UNL A   1      38.605  29.431  28.777  1.00  0.00    -0.014 A 
BRANCH  13  14
ATOM     14  C   UNL A   1      40.027  29.100  29.053  1.00  0.00     0.031 A 
ATOM     15  C   UNL A   1      40.607  27.761  28.689  1.00  0.00     0.074 A 
ATOM     16  C   UNL A   1      40.804  30.048  29.612  1.00  0.00     0.049 A 
ATOM     17  N   UNL A   1      41.835  27.331  28.843  1.00  0.00    -0.248 NA
ATOM     18  C   UNL A   1      39.701  26.774  28.080  1.00  0.00     0.031 C 
ATOM     19  C   UNL A   1      40.348  31.383  30.011  1.00  0.00     0.029 A 
ATOM     20  N   UNL A   1      42.139  30.049  29.923  1.00  0.00    -0.354 N 
ATOM     21  C   UNL A   1      41.845  26.022  28.374  1.00  0.00     0.074 A 
ATOM     22  C   UNL A   1      40.496  25.720  27.948  1.00  0.00     0.031 C 
ATOM     23  C   UNL A   1      41.395  32.090  30.460  1.00  0.00     0.029 A 
ATOM     24  C   UNL A   1      42.577  31.239  30.453  1.00  0.00     0.049 A 
ATOM     25  H   UNL A   1      42.727  29.272  29.780  1.00  0.00     0.167 HD
ATOM     26  C   UNL A   1      42.885  25.156  28.305  1.00  0.00     0.031 A 
ATOM     27  C   UNL A   1      43.790  31.604  30.906  1.00  0.00     0.031 A 
ATOM     28  C   UNL A   1      44.226  25.467  28.734  1.00  0.00     0.049 A 
ATOM     29  C   UNL A   1      44.915  30.614  30.847  1.00  0.00     0.074 A 
ATOM     30  C   UNL A   1      45.354  24.666  28.679  1.00  0.00     0.029 A 
ATOM     31  N   UNL A   1      44.619  26.669  29.303  1.00  0.00    -0.354 N 
ATOM     32  N   UNL A   1      44.908  29.392  30.374  1.00  0.00    -0.248 NA
ATOM     33  C   UNL A   1      46.209  31.053  31.382  1.00  0.00     0.031 C 
ATOM     34  C   UNL A   1      46.417  25.365  29.263  1.00  0.00     0.029 A 
ATOM     35  C   UNL A   1      45.965  26.623  29.627  1.00  0.00     0.049 A 
ATOM     36  H   UNL A   1      44.029  27.443  29.454  1.00  0.00     0.167 HD
ATOM     37  C   UNL A   1      46.204  28.917  30.541  1.00  0.00     0.074 A 
ATOM     38  C   UNL A   1      46.969  29.994  31.138  1.00  0.00     0.031 C 
ATOM     39  C   UNL A   1      46.711  27.699  30.230  1.00  0.00     0.031 A 
BRANCH  26  40
ATOM     40  C   UNL A   1      42.614  23.772  27.771  1.00  0.00    -0.014 A 
ATOM     41  C   UNL A   1      42.546  23.522  26.389  1.00  0.00     0.010 A 
ATOM     42  C   UNL A   1      42.480  22.695  28.667  1.00  0.00     0.010 A 
ATOM     43  C   UNL A   1      42.313  22.226  25.914  1.00  0.00     0.020 A 
ATOM     44  C   UNL A   1      42.273  21.394  28.196  1.00  0.00     0.020 A 
ATOM     45  C   UNL A   1      42.174  21.171  26.821  1.00  0.00     0.054 A 
BRANCH  45  46
ATOM     46  S   UNL A   1      41.891  19.499  26.177  1.00  0.00     0.124 S 
ATOM     47  O   UNL A   1      42.310  18.668  27.304  1.00  0.00    -0.237 OA
ATOM     48  O   UNL A   1      40.457  19.501  25.899  1.00  0.00    -0.237 OA
ATOM     49  O   UNL A   1      42.751  19.430  24.999  1.00  0.00    -0.744 OA
ENDBRANCH  45  46
ENDBRANCH  26  40
BRANCH  27  50
ATOM     50  C   UNL A   1      43.982  32.966  31.472  1.00  0.00    -0.014 A 
ATOM     51  C   UNL A   1      43.835  33.199  32.850  1.00  0.00     0.010 A 
ATOM     52  C   UNL A   1      44.356  34.033  30.632  1.00  0.00     0.010 A 
ATOM     53  C   UNL A   1      44.044  34.477  33.375  1.00  0.00     0.020 A 
ATOM     54  C   UNL A   1      44.596  35.303  31.158  1.00  0.00     0.020 A 
ATOM     55  C   UNL A   1      44.426  35.520  32.526  1.00  0.00     0.054 A 
BRANCH  55  56
ATOM     56  S   UNL A   1      44.749  37.156  33.238  1.00  0.00     0.124 S 
ATOM     57  O   UNL A   1      46.116  37.009  33.727  1.00  0.00    -0.237 OA
ATOM     58  O   UNL A   1      44.579  38.041  32.089  1.00  0.00    -0.237 OA
ATOM     59  O   UNL A   1      43.724  37.287  34.271  1.00  0.00    -0.744 OA
ENDBRANCH  55  56
ENDBRANCH  27  50
BRANCH  39  60
ATOM     60  C   UNL A   1      48.173  27.476  30.508  1.00  0.00    -0.014 A 
ATOM     61  C   UNL A   1      48.607  26.934  31.732  1.00  0.00     0.010 A 
ATOM     62  C   UNL A   1      49.122  27.781  29.516  1.00  0.00     0.010 A 
ATOM     63  C   UNL A   1      49.968  26.732  31.969  1.00  0.00     0.020 A 
ATOM     64  C   UNL A   1      50.481  27.555  29.740  1.00  0.00     0.020 A 
ATOM     65  C   UNL A   1      50.897  27.046  30.972  1.00  0.00     0.054 A 
BRANCH  65  66
ATOM     66  S   UNL A   1      52.656  26.739  31.290  1.00  0.00     0.124 S 
ATOM     67  O   UNL A   1      52.610  25.544  32.128  1.00  0.00    -0.237 OA
ATOM     68  O   UNL A   1      53.196  26.544  29.947  1.00  0.00    -0.237 OA
ATOM     69  O   UNL A   1      53.103  27.956  31.964  1.00  0.00    -0.744 OA
ENDBRANCH  65  66
ENDBRANCH  39  60
ENDBRANCH  13  14
ENDBRANCH   6   8
ENDBRANCH   3   4
ENDBRANCH   2   3
ENDBRANCH   1   2
BRANCH   1  70
ATOM     70  C   UNL A   1      35.518  32.586  32.323  1.00  0.00     0.116 C 
BRANCH  70  71
ATOM     71  N   UNL A   1      36.792  33.172  31.938  1.00  0.00    -0.351 N 
ATOM     72  C   UNL A   1      37.899  33.399  32.711  1.00  0.00     0.269 C 
ATOM     73  H   UNL A   1      36.870  33.441  30.994  1.00  0.00     0.163 HD
ATOM     74  O   UNL A   1      38.817  34.084  32.248  1.00  0.00    -0.268 OA
BRANCH  72  75
ATOM     75  C   UNL A   1      37.925  32.903  34.054  1.00  0.00     0.131 A 
ATOM     76  N   UNL A   1      37.774  33.738  35.126  1.00  0.00    -0.272 N 
ATOM     77  C   UNL A   1      38.121  31.636  34.593  1.00  0.00     0.057 A 
ATOM     78  N   UNL A   1      37.659  33.098  36.300  1.00  0.00    -0.183 NA
ATOM     79  H   UNL A   1      37.752  34.719  35.045  1.00  0.00     0.190 HD
ATOM     80  C   UNL A   1      37.866  31.822  35.973  1.00  0.00     0.145 A 
BRANCH  77  81
ATOM     81  C   UNL A   1      38.443  30.364  33.878  1.00  0.00     0.303 C 
BRANCH  81  82
ATOM     82  N   UNL A   1      39.849  29.972  33.925  1.00  0.00    -0.331 N 
ATOM     83  C   UNL A   1      40.205  28.932  32.961  1.00  0.00     0.268 C 
ATOM     84  C   UNL A   1      40.795  31.084  33.927  1.00  0.00     0.268 C 
ATOM     85  H   UNL A   1      39.945  29.546  34.847  1.00  0.00     0.348 HD
ATOM     86  C   UNL A   1      41.587  28.362  33.283  1.00  0.00     0.126 C 
ATOM     87  C   UNL A   1      42.185  30.586  34.316  1.00  0.00     0.126 C 
ATOM     88  C   UNL A   1      42.652  29.476  33.359  1.00  0.00     0.195 C 
BRANCH  88  89
ATOM     89  N   UNL A   1      44.037  29.034  33.665  1.00  0.00    -0.331 N 
ATOM     90  C   UNL A   1      44.765  29.918  34.589  1.00  0.00     0.262 C 
ATOM     91  C   UNL A   1      44.035  27.650  34.172  1.00  0.00     0.275 C 
ATOM     92  H   UNL A   1      44.545  29.080  32.782  1.00  0.00     0.348 HD
ATOM     93  C   UNL A   1      46.204  29.436  34.803  1.00  0.00     0.062 C 
ATOM     94  C   UNL A   1      45.450  27.093  34.402  1.00  0.00     0.134 C 
ATOM     95  C   UNL A   1      46.239  28.006  35.334  1.00  0.00     0.025 C 
BRANCH  94  96
ATOM     96  C   UNL A   1      45.229  25.703  34.983  1.00  0.00     0.231 C 
ATOM     97  O   UNL A   1      45.200  25.516  36.201  1.00  0.00    -0.274 OA
ATOM     98  N   UNL A   1      44.840  24.722  34.099  1.00  0.00    -0.342 N 
ATOM     99  C   UNL A   1      45.297  24.510  32.740  1.00  0.00     0.119 C 
ATOM    100  C   UNL A   1      43.935  23.669  34.519  1.00  0.00     0.119 C 
ATOM    101  C   UNL A   1      44.168  23.717  32.113  1.00  0.00     0.023 C 
ATOM    102  C   UNL A   1      43.670  22.844  33.263  1.00  0.00     0.023 C 
ENDBRANCH  94  96
ENDBRANCH  88  89
ENDBRANCH  81  82
ENDBRANCH  77  81
ENDBRANCH  72  75
ENDBRANCH  70  71
ENDBRANCH   1  70
TORSDOF 18
ENDMDL
MODEL 3
REMARK VINA RESULT:      -8.5      4.010     11.265
REMARK SMILES O=C(NCCCCNC(=O)c1[nH]ncc1C[NH+]1CCC([N@H+]2CCC[C@@H](C(=O)N3CCCC3)C2)CC1)c1ccc(-c2c3nc(c(-c4ccc(S(=O)(=O)[O-])cc4)c4ccc([nH]4)c(-c4ccc(S(=O)(=O)[O-])cc4)c4nc(c(-c5ccc(S(=O)(=O)[O-])cc5)c5ccc2[nH]5)C=C4)C=C3)cc1
REMARK SMILES IDX 6 1 5 2 4 3 3 4 1 5 2 6 36 8 37 9 95 10 38 11 94 12 39 13
REMARK SMILES IDX 40 14 41 15 88 16 42 17 93 18 87 19 89 20 43 21 92 22 86 23
REMARK SMILES IDX 85 24 44 26 74 27 55 28 73 29 56 30 59 31 72 32 90 33 57 34
REMARK SMILES IDX 58 35 71 37 91 38 60 39 45 40 46 41 54 42 47 43 53 44 48 45
REMARK SMILES IDX 49 46 50 47 51 48 52 49 75 50 76 51 84 52 77 53 83 54 78 55
REMARK SMILES IDX 79 56 80 57 81 58 82 59 61 60 62 61 70 62 63 63 69 64 64 65
REMARK SMILES IDX 65 66 66 67 67 68 68 69 7 70 8 71 9 72 10 74 11 75 12 76
REMARK SMILES IDX 15 77 13 78 14 80 16 81 17 82 18 83 35 84 19 86 34 87 20 88
REMARK SMILES IDX 21 89 22 90 33 91 23 93 25 94 24 95 26 96 27 97 28 98 29 99
REMARK SMILES IDX 32 100 30 101 31 102
REMARK H PARENT 3 7 89 25 59 36 8 73 12 79 17 85 21 92
REMARK Flexibility Score: inf
ROOT
ATOM      1  C   UNL A   1      42.745  22.236  28.724  1.00  0.00     0.023 C 
ENDROOT
BRANCH   1   2
ATOM      2  C   UNL A   1      42.000  23.563  28.626  1.00  0.00     0.023 C 
BRANCH   2   3
ATOM      3  C   UNL A   1      40.808  23.567  27.678  1.00  0.00     0.116 C 
BRANCH   3   4
ATOM      4  N   UNL A   1      41.072  24.272  26.431  1.00  0.00    -0.352 N 
ATOM      5  O   UNL A   1      41.145  26.033  25.021  1.00  0.00    -0.269 OA
ATOM      6  C   UNL A   1      41.030  25.622  26.170  1.00  0.00     0.251 C 
ATOM      7  H   UNL A   1      41.315  23.701  25.666  1.00  0.00     0.163 HD
BRANCH   6   8
ATOM      8  C   UNL A   1      40.813  26.566  27.286  1.00  0.00     0.039 A 
ATOM      9  C   UNL A   1      41.718  27.605  27.514  1.00  0.00     0.014 A 
ATOM     10  C   UNL A   1      39.716  26.388  28.133  1.00  0.00     0.014 A 
ATOM     11  C   UNL A   1      41.625  28.352  28.680  1.00  0.00     0.010 A 
ATOM     12  C   UNL A   1      39.567  27.211  29.253  1.00  0.00     0.010 A 
ATOM     13  C   UNL A   1      40.540  28.176  29.556  1.00  0.00    -0.014 A 
BRANCH  13  14
ATOM     14  C   UNL A   1      40.416  29.066  30.738  1.00  0.00     0.031 A 
ATOM     15  C   UNL A   1      39.354  30.129  30.814  1.00  0.00     0.074 A 
ATOM     16  C   UNL A   1      41.263  28.879  31.768  1.00  0.00     0.049 A 
ATOM     17  N   UNL A   1      39.103  30.968  31.788  1.00  0.00    -0.248 NA
ATOM     18  C   UNL A   1      38.462  30.278  29.653  1.00  0.00     0.031 C 
ATOM     19  C   UNL A   1      42.336  27.880  31.805  1.00  0.00     0.029 A 
ATOM     20  N   UNL A   1      41.347  29.497  32.989  1.00  0.00    -0.354 N 
ATOM     21  C   UNL A   1      38.044  31.757  31.352  1.00  0.00     0.074 A 
ATOM     22  C   UNL A   1      37.712  31.310  30.016  1.00  0.00     0.031 C 
ATOM     23  C   UNL A   1      42.932  27.917  33.004  1.00  0.00     0.029 A 
ATOM     24  C   UNL A   1      42.338  28.987  33.794  1.00  0.00     0.049 A 
ATOM     25  H   UNL A   1      40.755  30.235  33.262  1.00  0.00     0.167 HD
ATOM     26  C   UNL A   1      37.409  32.759  32.008  1.00  0.00     0.031 A 
ATOM     27  C   UNL A   1      42.743  29.351  35.024  1.00  0.00     0.031 A 
ATOM     28  C   UNL A   1      37.749  33.197  33.338  1.00  0.00     0.049 A 
ATOM     29  C   UNL A   1      42.043  30.484  35.713  1.00  0.00     0.074 A 
ATOM     30  C   UNL A   1      37.146  34.185  34.099  1.00  0.00     0.029 A 
ATOM     31  N   UNL A   1      38.785  32.682  34.104  1.00  0.00    -0.354 N 
ATOM     32  N   UNL A   1      41.026  31.197  35.293  1.00  0.00    -0.248 NA
ATOM     33  C   UNL A   1      42.544  30.861  37.040  1.00  0.00     0.031 C 
ATOM     34  C   UNL A   1      37.851  34.303  35.302  1.00  0.00     0.029 A 
ATOM     35  C   UNL A   1      38.856  33.348  35.317  1.00  0.00     0.049 A 
ATOM     36  H   UNL A   1      39.382  31.950  33.827  1.00  0.00     0.167 HD
ATOM     37  C   UNL A   1      40.755  32.101  36.313  1.00  0.00     0.074 A 
ATOM     38  C   UNL A   1      41.701  31.828  37.376  1.00  0.00     0.031 C 
ATOM     39  C   UNL A   1      39.809  33.071  36.362  1.00  0.00     0.031 A 
BRANCH  26  40
ATOM     40  C   UNL A   1      36.295  33.476  31.287  1.00  0.00    -0.014 A 
ATOM     41  C   UNL A   1      35.111  33.841  31.950  1.00  0.00     0.010 A 
ATOM     42  C   UNL A   1      36.462  33.840  29.938  1.00  0.00     0.010 A 
ATOM     43  C   UNL A   1      34.098  34.524  31.268  1.00  0.00     0.020 A 
ATOM     44  C   UNL A   1      35.462  34.545  29.259  1.00  0.00     0.020 A 
ATOM     45  C   UNL A   1      34.279  34.868  29.925  1.00  0.00     0.054 A 
BRANCH  45  46
ATOM     46  S   UNL A   1      32.957  35.769  29.069  1.00  0.00     0.124 S 
ATOM     47  O   UNL A   1      32.457  34.759  28.140  1.00  0.00    -0.237 OA
ATOM     48  O   UNL A   1      32.050  36.120  30.160  1.00  0.00    -0.237 OA
ATOM     49  O   UNL A   1      33.649  36.897  28.450  1.00  0.00    -0.744 OA
ENDBRANCH  45  46
ENDBRANCH  26  40
BRANCH  27  50
ATOM     50  C   UNL A   1      43.884  28.641  35.661  1.00  0.00    -0.014 A 
ATOM     51  C   UNL A   1      43.666  27.512  36.469  1.00  0.00     0.010 A 
ATOM     52  C   UNL A   1      45.204  29.072  35.426  1.00  0.00     0.010 A 
ATOM     53  C   UNL A   1      44.747  26.836  37.042  1.00  0.00     0.020 A 
ATOM     54  C   UNL A   1      46.287  28.379  35.971  1.00  0.00     0.020 A 
ATOM     55  C   UNL A   1      46.050  27.272  36.787  1.00  0.00     0.054 A 
BRANCH  55  56
ATOM     56  S   UNL A   1      47.440  26.345  37.492  1.00  0.00     0.124 S 
ATOM     57  O   UNL A   1      47.563  26.947  38.816  1.00  0.00    -0.237 OA
ATOM     58  O   UNL A   1      46.950  24.969  37.464  1.00  0.00    -0.237 OA
ATOM     59  O   UNL A   1      48.539  26.625  36.571  1.00  0.00    -0.744 OA
ENDBRANCH  55  56
ENDBRANCH  27  50
BRANCH  39  60
ATOM     60  C   UNL A   1      39.735  33.892  37.620  1.00  0.00    -0.014 A 
ATOM     61  C   UNL A   1      38.969  33.468  38.722  1.00  0.00     0.010 A 
ATOM     62  C   UNL A   1      40.472  35.086  37.714  1.00  0.00     0.010 A 
ATOM     63  C   UNL A   1      38.917  34.244  39.882  1.00  0.00     0.020 A 
ATOM     64  C   UNL A   1      40.444  35.849  38.883  1.00  0.00     0.020 A 
ATOM     65  C   UNL A   1      39.653  35.430  39.955  1.00  0.00     0.054 A 
BRANCH  65  66
ATOM     66  S   UNL A   1      39.599  36.400  41.486  1.00  0.00     0.124 S 
ATOM     67  O   UNL A   1      40.914  36.134  42.062  1.00  0.00    -0.237 OA
ATOM     68  O   UNL A   1      39.390  37.761  40.997  1.00  0.00    -0.237 OA
ATOM     69  O   UNL A   1      38.471  35.829  42.218  1.00  0.00    -0.744 OA
ENDBRANCH  65  66
ENDBRANCH  39  60
ENDBRANCH  13  14
ENDBRANCH   6   8
ENDBRANCH   3   4
ENDBRANCH   2   3
ENDBRANCH   1   2
BRANCH   1  70
ATOM     70  C   UNL A   1      43.318  21.721  27.411  1.00  0.00     0.116 C 
BRANCH  70  71
ATOM     71  N   UNL A   1      42.497  20.692  26.791  1.00  0.00    -0.351 N 
ATOM     72  C   UNL A   1      42.839  19.802  25.809  1.00  0.00     0.269 C 
ATOM     73  H   UNL A   1      41.573  20.627  27.122  1.00  0.00     0.163 HD
ATOM     74  O   UNL A   1      41.947  19.134  25.276  1.00  0.00    -0.268 OA
BRANCH  72  75
ATOM     75  C   UNL A   1      44.202  19.729  25.377  1.00  0.00     0.131 A 
ATOM     76  N   UNL A   1      45.012  18.690  25.741  1.00  0.00    -0.272 N 
ATOM     77  C   UNL A   1      45.001  20.575  24.614  1.00  0.00     0.057 A 
ATOM     78  N   UNL A   1      46.203  18.688  25.123  1.00  0.00    -0.183 NA
ATOM     79  H   UNL A   1      44.746  18.006  26.398  1.00  0.00     0.190 HD
ATOM     80  C   UNL A   1      46.192  19.831  24.436  1.00  0.00     0.145 A 
BRANCH  77  81
ATOM     81  C   UNL A   1      44.657  21.914  24.047  1.00  0.00     0.303 C 
BRANCH  81  82
ATOM     82  N   UNL A   1      45.164  23.052  24.809  1.00  0.00    -0.331 N 
ATOM     83  C   UNL A   1      46.514  23.465  24.428  1.00  0.00     0.268 C 
ATOM     84  C   UNL A   1      44.241  24.178  24.914  1.00  0.00     0.268 C 
ATOM     85  H   UNL A   1      45.239  22.686  25.758  1.00  0.00     0.348 HD
ATOM     86  C   UNL A   1      47.084  24.434  25.464  1.00  0.00     0.126 C 
ATOM     87  C   UNL A   1      44.721  25.148  25.992  1.00  0.00     0.126 C 
ATOM     88  C   UNL A   1      46.146  25.639  25.684  1.00  0.00     0.195 C 
BRANCH  88  89
ATOM     89  N   UNL A   1      46.604  26.649  26.673  1.00  0.00    -0.331 N 
ATOM     90  C   UNL A   1      47.999  27.082  26.495  1.00  0.00     0.262 C 
ATOM     91  C   UNL A   1      45.701  27.814  26.675  1.00  0.00     0.275 C 
ATOM     92  H   UNL A   1      46.573  26.184  27.580  1.00  0.00     0.348 HD
ATOM     93  C   UNL A   1      48.419  28.069  27.589  1.00  0.00     0.062 C 
ATOM     94  C   UNL A   1      46.055  28.847  27.758  1.00  0.00     0.134 C 
ATOM     95  C   UNL A   1      47.507  29.292  27.616  1.00  0.00     0.025 C 
BRANCH  94  96
ATOM     96  C   UNL A   1      45.064  29.984  27.548  1.00  0.00     0.231 C 
ATOM     97  O   UNL A   1      44.555  30.193  26.446  1.00  0.00    -0.274 OA
ATOM     98  N   UNL A   1      44.598  30.609  28.682  1.00  0.00    -0.342 N 
ATOM     99  C   UNL A   1      45.334  30.948  29.884  1.00  0.00     0.119 C 
ATOM    100  C   UNL A   1      43.239  31.113  28.739  1.00  0.00     0.119 C 
ATOM    101  C   UNL A   1      44.249  31.065  30.935  1.00  0.00     0.023 C 
ATOM    102  C   UNL A   1      43.068  31.643  30.159  1.00  0.00     0.023 C 
ENDBRANCH  94  96
ENDBRANCH  88  89
ENDBRANCH  81  82
ENDBRANCH  77  81
ENDBRANCH  72  75
ENDBRANCH  70  71
ENDBRANCH   1  70
TORSDOF 18
ENDMDL
