MODEL 1
REMARK VINA RESULT:      -9.0      0.000      0.000
REMARK SMILES CC(=O)Cc1cccc(C(=O)NCCCCNC(=O)c2ccc(-c3c4nc(c(-c5ccc(S(=O)(=O)[O-])cc5)c5ccc([nH]5)c(-c5ccc(S(=O)(=O)[O-])cc5)c5nc(c(-c6ccc(S(=O)(=O)[O-])cc6)c6ccc3[nH]6)C=C5)C=C4)cc2)c1
REMARK SMILES IDX 15 1 14 2 13 3 12 4 10 5 11 6 9 8 5 9 6 10 80 11 7 12 8 13
REMARK SMILES IDX 4 14 2 15 1 16 3 17 16 18 17 19 18 20 19 22 20 23 21 24
REMARK SMILES IDX 79 25 22 26 78 27 23 28 24 29 25 30 72 31 26 32 77 33 71 34
REMARK SMILES IDX 73 35 27 36 76 37 70 38 69 39 28 41 58 42 39 43 57 44 40 45
REMARK SMILES IDX 43 46 56 47 74 48 41 49 42 50 55 52 75 53 44 54 29 55 30 56
REMARK SMILES IDX 38 57 31 58 37 59 32 60 33 61 34 62 35 63 36 64 59 65 60 66
REMARK SMILES IDX 68 67 61 68 67 69 62 70 63 71 64 72 65 73 66 74 45 75 46 76
REMARK SMILES IDX 54 77 47 78 53 79 48 80 49 81 50 82 51 83 52 84
REMARK H PARENT 12 7 17 21 73 40 43 51
REMARK Flexibility Score: inf
ROOT
ATOM      1  C   UNL A   1      35.861  33.585  28.992  1.00  0.00     0.023 C 
ENDROOT
BRANCH   1   2
ATOM      2  C   UNL A   1      37.305  33.215  29.301  1.00  0.00     0.023 C 
BRANCH   2   3
ATOM      3  C   UNL A   1      38.039  34.104  30.295  1.00  0.00     0.116 C 
BRANCH   3   4
ATOM      4  N   UNL A   1      37.212  34.753  31.297  1.00  0.00    -0.352 N 
ATOM      5  C   UNL A   1      36.860  34.317  32.561  1.00  0.00     0.251 C 
ATOM      6  O   UNL A   1      36.151  35.029  33.269  1.00  0.00    -0.269 OA
ATOM      7  H   UNL A   1      36.850  35.630  31.039  1.00  0.00     0.163 HD
BRANCH   5   8
ATOM      8  C   UNL A   1      37.255  32.965  33.047  1.00  0.00     0.040 A 
ATOM      9  C   UNL A   1      38.907  31.475  34.040  1.00  0.00    -0.040 A 
ATOM     10  C   UNL A   1      38.159  30.382  33.575  1.00  0.00     0.004 A 
ATOM     11  C   UNL A   1      38.384  32.759  33.848  1.00  0.00     0.018 A 
ATOM     12  C   UNL A   1      36.945  30.573  32.910  1.00  0.00     0.001 A 
ATOM     13  C   UNL A   1      36.506  31.864  32.622  1.00  0.00     0.014 A 
BRANCH   9  14
ATOM     14  C   UNL A   1      40.304  31.231  34.566  1.00  0.00     0.110 C 
BRANCH  14  15
ATOM     15  C   UNL A   1      40.657  29.810  34.955  1.00  0.00     0.134 C 
ATOM     16  C   UNL A   1      41.415  28.962  33.959  1.00  0.00     0.088 C 
ATOM     17  O   UNL A   1      40.350  29.353  36.058  1.00  0.00    -0.300 OA
ENDBRANCH  14  15
ENDBRANCH   9  14
ENDBRANCH   5   8
ENDBRANCH   3   4
ENDBRANCH   2   3
ENDBRANCH   1   2
BRANCH   1  18
ATOM     18  C   UNL A   1      34.793  32.641  29.532  1.00  0.00     0.116 C 
BRANCH  18  19
ATOM     19  N   UNL A   1      34.101  31.878  28.503  1.00  0.00    -0.352 N 
ATOM     20  C   UNL A   1      34.486  30.739  27.824  1.00  0.00     0.251 C 
ATOM     21  H   UNL A   1      33.217  32.231  28.249  1.00  0.00     0.163 HD
ATOM     22  O   UNL A   1      33.779  30.300  26.930  1.00  0.00    -0.269 OA
BRANCH  20  23
ATOM     23  C   UNL A   1      35.776  30.083  28.145  1.00  0.00     0.039 A 
ATOM     24  C   UNL A   1      36.814  30.144  27.210  1.00  0.00     0.014 A 
ATOM     25  C   UNL A   1      35.981  29.445  29.369  1.00  0.00     0.014 A 
ATOM     26  C   UNL A   1      38.084  29.668  27.549  1.00  0.00     0.010 A 
ATOM     27  C   UNL A   1      37.265  29.054  29.739  1.00  0.00     0.010 A 
ATOM     28  C   UNL A   1      38.335  29.175  28.840  1.00  0.00    -0.014 A 
BRANCH  28  29
ATOM     29  C   UNL A   1      39.708  28.811  29.284  1.00  0.00     0.031 A 
ATOM     30  C   UNL A   1      40.559  29.811  30.019  1.00  0.00     0.074 A 
ATOM     31  C   UNL A   1      40.225  27.612  28.943  1.00  0.00     0.049 A 
ATOM     32  N   UNL A   1      41.811  29.714  30.390  1.00  0.00    -0.248 NA
ATOM     33  C   UNL A   1      39.932  31.100  30.355  1.00  0.00     0.031 C 
ATOM     34  C   UNL A   1      39.528  26.569  28.185  1.00  0.00     0.029 A 
ATOM     35  N   UNL A   1      41.467  27.072  29.177  1.00  0.00    -0.354 N 
ATOM     36  C   UNL A   1      42.128  30.935  30.974  1.00  0.00     0.074 A 
ATOM     37  C   UNL A   1      40.951  31.771  30.869  1.00  0.00     0.031 C 
ATOM     38  C   UNL A   1      40.341  25.510  28.041  1.00  0.00     0.029 A 
ATOM     39  C   UNL A   1      41.629  25.810  28.656  1.00  0.00     0.049 A 
ATOM     40  H   UNL A   1      42.174  27.546  29.672  1.00  0.00     0.167 HD
ATOM     41  C   UNL A   1      43.286  31.322  31.560  1.00  0.00     0.031 A 
ATOM     42  C   UNL A   1      42.696  24.985  28.663  1.00  0.00     0.031 A 
ATOM     43  C   UNL A   1      44.448  30.483  31.688  1.00  0.00     0.049 A 
ATOM     44  C   UNL A   1      43.964  25.428  29.339  1.00  0.00     0.074 A 
ATOM     45  C   UNL A   1      45.646  30.764  32.322  1.00  0.00     0.029 A 
ATOM     46  N   UNL A   1      44.556  29.198  31.181  1.00  0.00    -0.354 N 
ATOM     47  N   UNL A   1      44.223  26.567  29.937  1.00  0.00    -0.248 NA
ATOM     48  C   UNL A   1      45.080  24.471  29.351  1.00  0.00     0.031 C 
ATOM     49  C   UNL A   1      46.492  29.662  32.165  1.00  0.00     0.029 A 
ATOM     50  C   UNL A   1      45.803  28.677  31.475  1.00  0.00     0.049 A 
ATOM     51  H   UNL A   1      43.849  28.725  30.684  1.00  0.00     0.167 HD
ATOM     52  C   UNL A   1      45.520  26.451  30.422  1.00  0.00     0.074 A 
ATOM     53  C   UNL A   1      45.990  25.131  30.056  1.00  0.00     0.031 C 
ATOM     54  C   UNL A   1      46.254  27.357  31.112  1.00  0.00     0.031 A 
BRANCH  41  55
ATOM     55  C   UNL A   1      43.350  32.721  32.113  1.00  0.00    -0.014 A 
ATOM     56  C   UNL A   1      43.848  33.784  31.338  1.00  0.00     0.010 A 
ATOM     57  C   UNL A   1      42.878  32.983  33.412  1.00  0.00     0.010 A 
ATOM     58  C   UNL A   1      43.917  35.075  31.869  1.00  0.00     0.020 A 
ATOM     59  C   UNL A   1      42.919  34.278  33.936  1.00  0.00     0.020 A 
ATOM     60  C   UNL A   1      43.457  35.312  33.167  1.00  0.00     0.054 A 
BRANCH  60  61
ATOM     61  S   UNL A   1      43.545  37.000  33.826  1.00  0.00     0.124 S 
ATOM     62  O   UNL A   1      42.339  37.064  34.647  1.00  0.00    -0.237 OA
ATOM     63  O   UNL A   1      44.806  36.993  34.564  1.00  0.00    -0.237 OA
ATOM     64  O   UNL A   1      43.532  37.839  32.631  1.00  0.00    -0.744 OA
ENDBRANCH  60  61
ENDBRANCH  41  55
BRANCH  42  65
ATOM     65  C   UNL A   1      42.601  23.643  28.028  1.00  0.00    -0.014 A 
ATOM     66  C   UNL A   1      41.805  22.639  28.608  1.00  0.00     0.010 A 
ATOM     67  C   UNL A   1      43.291  23.366  26.835  1.00  0.00     0.010 A 
ATOM     68  C   UNL A   1      41.714  21.376  28.014  1.00  0.00     0.020 A 
ATOM     69  C   UNL A   1      43.182  22.111  26.225  1.00  0.00     0.020 A 
ATOM     70  C   UNL A   1      42.402  21.121  26.825  1.00  0.00     0.054 A 
BRANCH  70  71
ATOM     71  S   UNL A   1      42.224  19.494  26.041  1.00  0.00     0.124 S 
ATOM     72  O   UNL A   1      42.692  18.598  27.093  1.00  0.00    -0.237 OA
ATOM     73  O   UNL A   1      40.793  19.437  25.751  1.00  0.00    -0.237 OA
ATOM     74  O   UNL A   1      43.086  19.587  24.865  1.00  0.00    -0.744 OA
ENDBRANCH  70  71
ENDBRANCH  42  65
BRANCH  54  75
ATOM     75  C   UNL A   1      47.630  26.943  31.559  1.00  0.00    -0.014 A 
ATOM     76  C   UNL A   1      47.838  26.331  32.807  1.00  0.00     0.010 A 
ATOM     77  C   UNL A   1      48.720  27.110  30.684  1.00  0.00     0.010 A 
ATOM     78  C   UNL A   1      49.118  25.913  33.182  1.00  0.00     0.020 A 
ATOM     79  C   UNL A   1      49.996  26.673  31.047  1.00  0.00     0.020 A 
ATOM     80  C   UNL A   1      50.189  26.088  32.299  1.00  0.00     0.054 A 
BRANCH  80  81
ATOM     81  S   UNL A   1      51.831  25.490  32.786  1.00  0.00     0.124 S 
ATOM     82  O   UNL A   1      52.690  26.600  32.385  1.00  0.00    -0.237 OA
ATOM     83  O   UNL A   1      51.689  25.293  34.227  1.00  0.00    -0.237 OA
ATOM     84  O   UNL A   1      51.996  24.263  32.010  1.00  0.00    -0.744 OA
ENDBRANCH  80  81
ENDBRANCH  54  75
ENDBRANCH  28  29
ENDBRANCH  20  23
ENDBRANCH  18  19
ENDBRANCH   1  18
TORSDOF 16
ENDMDL
MODEL 2
REMARK VINA RESULT:      -8.9      3.264      6.386
REMARK SMILES CC(=O)Cc1cccc(C(=O)NCCCCNC(=O)c2ccc(-c3c4nc(c(-c5ccc(S(=O)(=O)[O-])cc5)c5ccc([nH]5)c(-c5ccc(S(=O)(=O)[O-])cc5)c5nc(c(-c6ccc(S(=O)(=O)[O-])cc6)c6ccc3[nH]6)C=C5)C=C4)cc2)c1
REMARK SMILES IDX 15 1 14 2 13 3 12 4 10 5 11 6 9 8 5 9 6 10 80 11 7 12 8 13
REMARK SMILES IDX 4 14 2 15 1 16 3 17 16 18 17 19 18 20 19 22 20 23 21 24
REMARK SMILES IDX 79 25 22 26 78 27 23 28 24 29 25 30 72 31 26 32 77 33 71 34
REMARK SMILES IDX 73 35 27 36 76 37 70 38 69 39 28 41 58 42 39 43 57 44 40 45
REMARK SMILES IDX 43 46 56 47 74 48 41 49 42 50 55 52 75 53 44 54 29 55 30 56
REMARK SMILES IDX 38 57 31 58 37 59 32 60 33 61 34 62 35 63 36 64 59 65 60 66
REMARK SMILES IDX 68 67 61 68 67 69 62 70 63 71 64 72 65 73 66 74 45 75 46 76
REMARK SMILES IDX 54 77 47 78 53 79 48 80 49 81 50 82 51 83 52 84
REMARK H PARENT 12 7 17 21 73 40 43 51
REMARK Flexibility Score: inf
ROOT
ATOM      1  C   UNL A   1      32.848  28.309  25.873  1.00  0.00     0.023 C 
ENDROOT
BRANCH   1   2
ATOM      2  C   UNL A   1      33.964  27.871  24.934  1.00  0.00     0.023 C 
BRANCH   2   3
ATOM      3  C   UNL A   1      33.940  26.420  24.476  1.00  0.00     0.116 C 
BRANCH   3   4
ATOM      4  N   UNL A   1      33.950  26.207  23.040  1.00  0.00    -0.352 N 
ATOM      5  C   UNL A   1      32.925  26.345  22.124  1.00  0.00     0.251 C 
ATOM      6  O   UNL A   1      33.143  26.126  20.935  1.00  0.00    -0.269 OA
ATOM      7  H   UNL A   1      34.814  25.923  22.663  1.00  0.00     0.163 HD
BRANCH   5   8
ATOM      8  C   UNL A   1      31.539  26.673  22.564  1.00  0.00     0.040 A 
ATOM      9  C   UNL A   1      29.865  28.314  23.226  1.00  0.00    -0.040 A 
ATOM     10  C   UNL A   1      29.101  27.271  23.775  1.00  0.00     0.004 A 
ATOM     11  C   UNL A   1      31.036  27.979  22.538  1.00  0.00     0.018 A 
ATOM     12  C   UNL A   1      29.518  25.943  23.668  1.00  0.00     0.001 A 
ATOM     13  C   UNL A   1      30.750  25.645  23.086  1.00  0.00     0.014 A 
BRANCH   9  14
ATOM     14  C   UNL A   1      29.483  29.743  23.546  1.00  0.00     0.110 C 
BRANCH  14  15
ATOM     15  C   UNL A   1      28.254  30.300  22.857  1.00  0.00     0.134 C 
ATOM     16  C   UNL A   1      28.121  30.107  21.364  1.00  0.00     0.088 C 
ATOM     17  O   UNL A   1      27.375  30.886  23.492  1.00  0.00    -0.300 OA
ENDBRANCH  14  15
ENDBRANCH   9  14
ENDBRANCH   5   8
ENDBRANCH   3   4
ENDBRANCH   2   3
ENDBRANCH   1   2
BRANCH   1  18
ATOM     18  C   UNL A   1      33.251  28.585  27.317  1.00  0.00     0.116 C 
BRANCH  18  19
ATOM     19  N   UNL A   1      33.325  30.000  27.652  1.00  0.00    -0.352 N 
ATOM     20  C   UNL A   1      34.376  30.748  28.143  1.00  0.00     0.251 C 
ATOM     21  H   UNL A   1      32.492  30.504  27.505  1.00  0.00     0.163 HD
ATOM     22  O   UNL A   1      34.198  31.921  28.433  1.00  0.00    -0.269 OA
BRANCH  20  23
ATOM     23  C   UNL A   1      35.699  30.116  28.366  1.00  0.00     0.039 A 
ATOM     24  C   UNL A   1      36.628  30.114  27.321  1.00  0.00     0.014 A 
ATOM     25  C   UNL A   1      36.039  29.563  29.601  1.00  0.00     0.014 A 
ATOM     26  C   UNL A   1      37.931  29.663  27.552  1.00  0.00     0.010 A 
ATOM     27  C   UNL A   1      37.359  29.199  29.855  1.00  0.00     0.010 A 
ATOM     28  C   UNL A   1      38.324  29.259  28.839  1.00  0.00    -0.014 A 
BRANCH  28  29
ATOM     29  C   UNL A   1      39.740  28.926  29.155  1.00  0.00     0.031 A 
ATOM     30  C   UNL A   1      40.647  29.963  29.761  1.00  0.00     0.074 A 
ATOM     31  C   UNL A   1      40.237  27.721  28.809  1.00  0.00     0.049 A 
ATOM     32  N   UNL A   1      41.931  29.894  30.007  1.00  0.00    -0.248 NA
ATOM     33  C   UNL A   1      40.039  31.257  30.109  1.00  0.00     0.031 C 
ATOM     34  C   UNL A   1      39.482  26.641  28.166  1.00  0.00     0.029 A 
ATOM     35  N   UNL A   1      41.504  27.203  28.936  1.00  0.00    -0.354 N 
ATOM     36  C   UNL A   1      42.288  31.140  30.509  1.00  0.00     0.074 A 
ATOM     37  C   UNL A   1      41.095  31.959  30.492  1.00  0.00     0.031 C 
ATOM     38  C   UNL A   1      40.290  25.586  27.980  1.00  0.00     0.029 A 
ATOM     39  C   UNL A   1      41.630  25.922  28.450  1.00  0.00     0.049 A 
ATOM     40  H   UNL A   1      42.250  27.703  29.338  1.00  0.00     0.167 HD
ATOM     41  C   UNL A   1      43.494  31.561  30.959  1.00  0.00     0.031 A 
ATOM     42  C   UNL A   1      42.703  25.110  28.380  1.00  0.00     0.031 A 
ATOM     43  C   UNL A   1      44.674  30.740  31.001  1.00  0.00     0.049 A 
ATOM     44  C   UNL A   1      44.027  25.592  28.906  1.00  0.00     0.074 A 
ATOM     45  C   UNL A   1      45.926  31.058  31.498  1.00  0.00     0.029 A 
ATOM     46  N   UNL A   1      44.749  29.437  30.534  1.00  0.00    -0.354 N 
ATOM     47  N   UNL A   1      44.329  26.756  29.431  1.00  0.00    -0.248 NA
ATOM     48  C   UNL A   1      45.152  24.648  28.842  1.00  0.00     0.031 C 
ATOM     49  C   UNL A   1      46.768  29.959  31.298  1.00  0.00     0.029 A 
ATOM     50  C   UNL A   1      46.027  28.941  30.720  1.00  0.00     0.049 A 
ATOM     51  H   UNL A   1      44.002  28.938  30.130  1.00  0.00     0.167 HD
ATOM     52  C   UNL A   1      45.670  26.672  29.787  1.00  0.00     0.074 A 
ATOM     53  C   UNL A   1      46.119  25.343  29.425  1.00  0.00     0.031 C 
ATOM     54  C   UNL A   1      46.457  27.612  30.364  1.00  0.00     0.031 A 
BRANCH  41  55
ATOM     55  C   UNL A   1      43.593  32.982  31.449  1.00  0.00    -0.014 A 
ATOM     56  C   UNL A   1      43.355  33.301  32.798  1.00  0.00     0.010 A 
ATOM     57  C   UNL A   1      43.959  34.006  30.557  1.00  0.00     0.010 A 
ATOM     58  C   UNL A   1      43.434  34.626  33.235  1.00  0.00     0.020 A 
ATOM     59  C   UNL A   1      44.066  35.328  30.997  1.00  0.00     0.020 A 
ATOM     60  C   UNL A   1      43.783  35.631  32.330  1.00  0.00     0.054 A 
BRANCH  60  61
ATOM     61  S   UNL A   1      43.893  37.341  32.928  1.00  0.00     0.124 S 
ATOM     62  O   UNL A   1      45.218  37.359  33.540  1.00  0.00    -0.237 OA
ATOM     63  O   UNL A   1      43.758  38.121  31.701  1.00  0.00    -0.237 OA
ATOM     64  O   UNL A   1      42.773  37.454  33.860  1.00  0.00    -0.744 OA
ENDBRANCH  60  61
ENDBRANCH  41  55
BRANCH  42  65
ATOM     65  C   UNL A   1      42.564  23.742  27.809  1.00  0.00    -0.014 A 
ATOM     66  C   UNL A   1      42.258  22.654  28.645  1.00  0.00     0.010 A 
ATOM     67  C   UNL A   1      42.720  23.524  26.429  1.00  0.00     0.010 A 
ATOM     68  C   UNL A   1      42.126  21.367  28.112  1.00  0.00     0.020 A 
ATOM     69  C   UNL A   1      42.565  22.243  25.890  1.00  0.00     0.020 A 
ATOM     70  C   UNL A   1      42.279  21.171  26.737  1.00  0.00     0.054 A 
BRANCH  70  71
ATOM     71  S   UNL A   1      42.047  19.503  26.059  1.00  0.00     0.124 S 
ATOM     72  O   UNL A   1      40.608  19.471  25.822  1.00  0.00    -0.237 OA
ATOM     73  O   UNL A   1      42.886  19.527  24.864  1.00  0.00    -0.237 OA
ATOM     74  O   UNL A   1      42.527  18.632  27.130  1.00  0.00    -0.744 OA
ENDBRANCH  70  71
ENDBRANCH  42  65
BRANCH  54  75
ATOM     75  C   UNL A   1      47.877  27.229  30.684  1.00  0.00    -0.014 A 
ATOM     76  C   UNL A   1      48.195  26.526  31.858  1.00  0.00     0.010 A 
ATOM     77  C   UNL A   1      48.896  27.522  29.759  1.00  0.00     0.010 A 
ATOM     78  C   UNL A   1      49.515  26.142  32.114  1.00  0.00     0.020 A 
ATOM     79  C   UNL A   1      50.212  27.120  30.001  1.00  0.00     0.020 A 
ATOM     80  C   UNL A   1      50.515  26.442  31.183  1.00  0.00     0.054 A 
BRANCH  80  81
ATOM     81  S   UNL A   1      52.210  25.886  31.510  1.00  0.00     0.124 S 
ATOM     82  O   UNL A   1      51.992  24.539  32.029  1.00  0.00    -0.237 OA
ATOM     83  O   UNL A   1      52.834  25.958  30.189  1.00  0.00    -0.237 OA
ATOM     84  O   UNL A   1      52.712  26.855  32.481  1.00  0.00    -0.744 OA
ENDBRANCH  80  81
ENDBRANCH  54  75
ENDBRANCH  28  29
ENDBRANCH  20  23
ENDBRANCH  18  19
ENDBRANCH   1  18
TORSDOF 16
ENDMDL
MODEL 3
REMARK VINA RESULT:      -8.9      3.543      6.198
REMARK SMILES CC(=O)Cc1cccc(C(=O)NCCCCNC(=O)c2ccc(-c3c4nc(c(-c5ccc(S(=O)(=O)[O-])cc5)c5ccc([nH]5)c(-c5ccc(S(=O)(=O)[O-])cc5)c5nc(c(-c6ccc(S(=O)(=O)[O-])cc6)c6ccc3[nH]6)C=C5)C=C4)cc2)c1
REMARK SMILES IDX 15 1 14 2 13 3 12 4 10 5 11 6 9 8 5 9 6 10 80 11 7 12 8 13
REMARK SMILES IDX 4 14 2 15 1 16 3 17 16 18 17 19 18 20 19 22 20 23 21 24
REMARK SMILES IDX 79 25 22 26 78 27 23 28 24 29 25 30 72 31 26 32 77 33 71 34
REMARK SMILES IDX 73 35 27 36 76 37 70 38 69 39 28 41 58 42 39 43 57 44 40 45
REMARK SMILES IDX 43 46 56 47 74 48 41 49 42 50 55 52 75 53 44 54 29 55 30 56
REMARK SMILES IDX 38 57 31 58 37 59 32 60 33 61 34 62 35 63 36 64 59 65 60 66
REMARK SMILES IDX 68 67 61 68 67 69 62 70 63 71 64 72 65 73 66 74 45 75 46 76
REMARK SMILES IDX 54 77 47 78 53 79 48 80 49 81 50 82 51 83 52 84
REMARK H PARENT 12 7 17 21 73 40 43 51
REMARK Flexibility Score: inf
ROOT
ATOM      1  C   UNL A   1      33.744  28.163  25.957  1.00  0.00     0.023 C 
ENDROOT
BRANCH   1   2
ATOM      2  C   UNL A   1      33.563  26.696  25.594  1.00  0.00     0.023 C 
BRANCH   2   3
ATOM      3  C   UNL A   1      32.135  26.222  25.364  1.00  0.00     0.116 C 
BRANCH   3   4
ATOM      4  N   UNL A   1      31.576  25.366  26.395  1.00  0.00    -0.352 N 
ATOM      5  C   UNL A   1      31.857  24.045  26.686  1.00  0.00     0.251 C 
ATOM      6  O   UNL A   1      31.276  23.495  27.619  1.00  0.00    -0.269 OA
ATOM      7  H   UNL A   1      30.899  25.788  26.970  1.00  0.00     0.163 HD
BRANCH   5   8
ATOM      8  C   UNL A   1      32.788  23.250  25.836  1.00  0.00     0.040 A 
ATOM      9  C   UNL A   1      33.196  21.391  24.315  1.00  0.00    -0.040 A 
ATOM     10  C   UNL A   1      34.569  21.513  24.580  1.00  0.00     0.004 A 
ATOM     11  C   UNL A   1      32.331  22.334  24.881  1.00  0.00     0.018 A 
ATOM     12  C   UNL A   1      35.053  22.527  25.411  1.00  0.00     0.001 A 
ATOM     13  C   UNL A   1      34.161  23.379  26.060  1.00  0.00     0.014 A 
BRANCH   9  14
ATOM     14  C   UNL A   1      32.701  20.162  23.584  1.00  0.00     0.110 C 
BRANCH  14  15
ATOM     15  C   UNL A   1      32.771  18.842  24.325  1.00  0.00     0.134 C 
ATOM     16  C   UNL A   1      33.868  17.871  23.954  1.00  0.00     0.088 C 
ATOM     17  O   UNL A   1      31.966  18.565  25.216  1.00  0.00    -0.300 OA
ENDBRANCH  14  15
ENDBRANCH   9  14
ENDBRANCH   5   8
ENDBRANCH   3   4
ENDBRANCH   2   3
ENDBRANCH   1   2
BRANCH   1  18
ATOM     18  C   UNL A   1      33.203  28.594  27.316  1.00  0.00     0.116 C 
BRANCH  18  19
ATOM     19  N   UNL A   1      33.312  30.023  27.572  1.00  0.00    -0.352 N 
ATOM     20  C   UNL A   1      34.383  30.772  28.019  1.00  0.00     0.251 C 
ATOM     21  H   UNL A   1      32.492  30.539  27.398  1.00  0.00     0.163 HD
ATOM     22  O   UNL A   1      34.235  31.963  28.244  1.00  0.00    -0.269 OA
BRANCH  20  23
ATOM     23  C   UNL A   1      35.690  30.120  28.274  1.00  0.00     0.039 A 
ATOM     24  C   UNL A   1      36.636  30.085  27.245  1.00  0.00     0.014 A 
ATOM     25  C   UNL A   1      36.001  29.583  29.523  1.00  0.00     0.014 A 
ATOM     26  C   UNL A   1      37.928  29.615  27.504  1.00  0.00     0.010 A 
ATOM     27  C   UNL A   1      37.310  29.200  29.805  1.00  0.00     0.010 A 
ATOM     28  C   UNL A   1      38.293  29.226  28.804  1.00  0.00    -0.014 A 
BRANCH  28  29
ATOM     29  C   UNL A   1      39.697  28.875  29.149  1.00  0.00     0.031 A 
ATOM     30  C   UNL A   1      40.603  29.896  29.782  1.00  0.00     0.074 A 
ATOM     31  C   UNL A   1      40.187  27.665  28.805  1.00  0.00     0.049 A 
ATOM     32  N   UNL A   1      41.880  29.810  30.055  1.00  0.00    -0.248 NA
ATOM     33  C   UNL A   1      40.003  31.195  30.126  1.00  0.00     0.031 C 
ATOM     34  C   UNL A   1      39.434  26.599  28.139  1.00  0.00     0.029 A 
ATOM     35  N   UNL A   1      41.444  27.131  28.957  1.00  0.00    -0.354 N 
ATOM     36  C   UNL A   1      42.241  31.048  30.574  1.00  0.00     0.074 A 
ATOM     37  C   UNL A   1      41.058  31.882  30.537  1.00  0.00     0.031 C 
ATOM     38  C   UNL A   1      40.233  25.535  27.964  1.00  0.00     0.029 A 
ATOM     39  C   UNL A   1      41.566  25.853  28.465  1.00  0.00     0.049 A 
ATOM     40  H   UNL A   1      42.188  27.619  29.379  1.00  0.00     0.167 HD
ATOM     41  C   UNL A   1      43.441  31.452  31.054  1.00  0.00     0.031 A 
ATOM     42  C   UNL A   1      42.631  25.028  28.413  1.00  0.00     0.031 A 
ATOM     43  C   UNL A   1      44.611  30.616  31.115  1.00  0.00     0.049 A 
ATOM     44  C   UNL A   1      43.949  25.490  28.972  1.00  0.00     0.074 A 
ATOM     45  C   UNL A   1      45.855  30.915  31.642  1.00  0.00     0.029 A 
ATOM     46  N   UNL A   1      44.680  29.315  30.641  1.00  0.00    -0.354 N 
ATOM     47  N   UNL A   1      44.253  26.647  29.511  1.00  0.00    -0.248 NA
ATOM     48  C   UNL A   1      45.063  24.533  28.925  1.00  0.00     0.031 C 
ATOM     49  C   UNL A   1      46.688  29.808  31.453  1.00  0.00     0.029 A 
ATOM     50  C   UNL A   1      45.947  28.803  30.852  1.00  0.00     0.049 A 
ATOM     51  H   UNL A   1      43.936  28.828  30.217  1.00  0.00     0.167 HD
ATOM     52  C   UNL A   1      45.584  26.544  29.895  1.00  0.00     0.074 A 
ATOM     53  C   UNL A   1      46.025  25.213  29.534  1.00  0.00     0.031 C 
ATOM     54  C   UNL A   1      46.370  27.471  30.496  1.00  0.00     0.031 A 
BRANCH  41  55
ATOM     55  C   UNL A   1      43.547  32.867  31.555  1.00  0.00    -0.014 A 
ATOM     56  C   UNL A   1      43.923  33.915  30.695  1.00  0.00     0.010 A 
ATOM     57  C   UNL A   1      43.236  33.161  32.896  1.00  0.00     0.010 A 
ATOM     58  C   UNL A   1      44.033  35.221  31.177  1.00  0.00     0.020 A 
ATOM     59  C   UNL A   1      43.318  34.471  33.375  1.00  0.00     0.020 A 
ATOM     60  C   UNL A   1      43.736  35.489  32.516  1.00  0.00     0.054 A 
BRANCH  60  61
ATOM     61  S   UNL A   1      43.873  37.197  33.112  1.00  0.00     0.124 S 
ATOM     62  O   UNL A   1      45.169  37.176  33.785  1.00  0.00    -0.237 OA
ATOM     63  O   UNL A   1      43.821  37.975  31.877  1.00  0.00    -0.237 OA
ATOM     64  O   UNL A   1      42.717  37.352  33.991  1.00  0.00    -0.744 OA
ENDBRANCH  60  61
ENDBRANCH  41  55
BRANCH  42  65
ATOM     65  C   UNL A   1      42.488  23.666  27.830  1.00  0.00    -0.014 A 
ATOM     66  C   UNL A   1      42.852  23.425  26.494  1.00  0.00     0.010 A 
ATOM     67  C   UNL A   1      42.004  22.601  28.611  1.00  0.00     0.010 A 
ATOM     68  C   UNL A   1      42.719  22.146  25.943  1.00  0.00     0.020 A 
ATOM     69  C   UNL A   1      41.893  21.316  28.070  1.00  0.00     0.020 A 
ATOM     70  C   UNL A   1      42.241  21.099  26.736  1.00  0.00     0.054 A 
BRANCH  70  71
ATOM     71  S   UNL A   1      42.131  19.436  26.018  1.00  0.00     0.124 S 
ATOM     72  O   UNL A   1      43.003  19.551  24.854  1.00  0.00    -0.237 OA
ATOM     73  O   UNL A   1      42.627  18.590  27.101  1.00  0.00    -0.237 OA
ATOM     74  O   UNL A   1      40.707  19.287  25.724  1.00  0.00    -0.744 OA
ENDBRANCH  70  71
ENDBRANCH  42  65
BRANCH  54  75
ATOM     75  C   UNL A   1      47.777  27.069  30.845  1.00  0.00    -0.014 A 
ATOM     76  C   UNL A   1      48.075  26.441  32.066  1.00  0.00     0.010 A 
ATOM     77  C   UNL A   1      48.805  27.265  29.903  1.00  0.00     0.010 A 
ATOM     78  C   UNL A   1      49.382  26.036  32.350  1.00  0.00     0.020 A 
ATOM     79  C   UNL A   1      50.108  26.841  30.175  1.00  0.00     0.020 A 
ATOM     80  C   UNL A   1      50.390  26.240  31.402  1.00  0.00     0.054 A 
BRANCH  80  81
ATOM     81  S   UNL A   1      52.068  25.657  31.770  1.00  0.00     0.124 S 
ATOM     82  O   UNL A   1      52.426  26.474  32.926  1.00  0.00    -0.237 OA
ATOM     83  O   UNL A   1      51.864  24.236  32.043  1.00  0.00    -0.237 OA
ATOM     84  O   UNL A   1      52.812  25.948  30.547  1.00  0.00    -0.744 OA
ENDBRANCH  80  81
ENDBRANCH  54  75
ENDBRANCH  28  29
ENDBRANCH  20  23
ENDBRANCH  18  19
ENDBRANCH   1  18
TORSDOF 16
ENDMDL
