MODEL 1
REMARK VINA RESULT:     -10.6      0.000      0.000
REMARK SMILES C[C@@H](CS(=O)(=O)[C@@H]1CCC[C@H](S(C)(=O)=O)C1)C(=O)NCCCCNC(=O)c1ccc(-c2c3nc(c(-c4ccc(S(=O)(=O)[O-])cc4)c4ccc([nH]4)c(-c4ccc(S(=O)(=O)[O-])cc4)c4nc(c(-c5ccc(S(=O)(=O)[O-])cc5)c5ccc2[nH]5)C=C4)C=C3)cc1
REMARK SMILES IDX 21 1 20 2 19 3 17 4 18 5 2 7 1 8 3 9 4 10 5 11 6 12 7 13
REMARK SMILES IDX 8 14 16 15 9 16 11 17 10 18 12 19 13 20 14 21 15 22 22 23
REMARK SMILES IDX 23 24 24 25 25 26 26 28 27 29 28 30 86 31 29 32 85 33 30 34
REMARK SMILES IDX 31 35 32 36 79 37 33 38 84 39 78 40 80 41 34 42 83 43 77 44
REMARK SMILES IDX 76 45 35 47 65 48 46 49 64 50 47 51 50 52 63 53 81 54 48 55
REMARK SMILES IDX 49 56 62 58 82 59 51 60 36 61 37 62 45 63 38 64 44 65 39 66
REMARK SMILES IDX 40 67 41 68 42 69 43 70 66 71 67 72 75 73 68 74 74 75 69 76
REMARK SMILES IDX 70 77 71 78 72 79 73 80 52 81 53 82 61 83 54 84 60 85 55 86
REMARK SMILES IDX 56 87 57 88 58 89 59 90
REMARK H PARENT 19 6 24 27 80 46 50 57
REMARK Flexibility Score: inf
ROOT
ATOM      1  C   UNL A   1      37.032  23.383  25.601  1.00  0.00     0.023 C 
ENDROOT
BRANCH   1   2
ATOM      2  C   UNL A   1      35.898  23.647  24.626  1.00  0.00     0.116 C 
BRANCH   2   3
ATOM      3  N   UNL A   1      35.017  22.548  24.347  1.00  0.00    -0.356 N 
ATOM      4  C   UNL A   1      33.725  22.392  24.748  1.00  0.00     0.223 C 
ATOM      5  O   UNL A   1      33.009  21.654  24.062  1.00  0.00    -0.275 OA
ATOM      6  H   UNL A   1      35.392  21.821  23.800  1.00  0.00     0.163 HD
BRANCH   4   7
ATOM      7  C   UNL A   1      33.175  22.948  26.071  1.00  0.00     0.090 C 
ATOM      8  C   UNL A   1      33.822  22.277  27.281  1.00  0.00     0.019 C 
BRANCH   7   9
ATOM      9  C   UNL A   1      32.684  24.392  26.241  1.00  0.00     0.150 C 
BRANCH   9  10
ATOM     10  S   UNL A   1      31.274  25.160  25.478  1.00  0.00     0.153 S 
ATOM     11  O   UNL A   1      30.841  24.309  24.387  1.00  0.00    -0.229 OA
ATOM     12  O   UNL A   1      30.340  25.379  26.574  1.00  0.00    -0.229 OA
BRANCH  10  13
ATOM     13  C   UNL A   1      31.621  26.849  24.839  1.00  0.00     0.110 C 
ATOM     14  C   UNL A   1      31.950  27.786  26.011  1.00  0.00     0.020 C 
ATOM     15  C   UNL A   1      30.560  27.437  23.927  1.00  0.00     0.039 C 
ATOM     16  C   UNL A   1      32.251  29.208  25.548  1.00  0.00     0.003 C 
ATOM     17  C   UNL A   1      30.752  28.915  23.537  1.00  0.00     0.109 C 
ATOM     18  C   UNL A   1      31.096  29.790  24.743  1.00  0.00     0.020 C 
BRANCH  17  19
ATOM     19  S   UNL A   1      29.234  29.481  22.714  1.00  0.00     0.150 S 
ATOM     20  C   UNL A   1      28.810  31.022  23.488  1.00  0.00     0.158 C 
ATOM     21  O   UNL A   1      29.586  29.772  21.336  1.00  0.00    -0.229 OA
ATOM     22  O   UNL A   1      28.179  28.534  23.012  1.00  0.00    -0.229 OA
ENDBRANCH  17  19
ENDBRANCH  10  13
ENDBRANCH   9  10
ENDBRANCH   7   9
ENDBRANCH   4   7
ENDBRANCH   2   3
ENDBRANCH   1   2
BRANCH   1  23
ATOM     23  C   UNL A   1      37.818  22.099  25.383  1.00  0.00     0.023 C 
BRANCH  23  24
ATOM     24  C   UNL A   1      39.137  21.971  26.140  1.00  0.00     0.116 C 
BRANCH  24  25
ATOM     25  N   UNL A   1      39.780  20.663  26.063  1.00  0.00    -0.352 N 
ATOM     26  C   UNL A   1      41.122  20.368  26.202  1.00  0.00     0.251 C 
ATOM     27  H   UNL A   1      39.185  19.898  25.894  1.00  0.00     0.163 HD
ATOM     28  O   UNL A   1      41.526  19.216  26.082  1.00  0.00    -0.269 OA
BRANCH  26  29
ATOM     29  C   UNL A   1      42.068  21.484  26.426  1.00  0.00     0.039 A 
ATOM     30  C   UNL A   1      42.473  22.258  25.336  1.00  0.00     0.014 A 
ATOM     31  C   UNL A   1      42.421  21.851  27.726  1.00  0.00     0.014 A 
ATOM     32  C   UNL A   1      43.120  23.475  25.563  1.00  0.00     0.010 A 
ATOM     33  C   UNL A   1      42.979  23.105  27.952  1.00  0.00     0.010 A 
ATOM     34  C   UNL A   1      43.311  23.942  26.875  1.00  0.00    -0.014 A 
BRANCH  34  35
ATOM     35  C   UNL A   1      43.808  25.316  27.150  1.00  0.00     0.031 A 
ATOM     36  C   UNL A   1      45.256  25.655  26.922  1.00  0.00     0.074 A 
ATOM     37  C   UNL A   1      42.983  26.229  27.705  1.00  0.00     0.049 A 
ATOM     38  N   UNL A   1      45.901  26.757  27.212  1.00  0.00    -0.248 NA
ATOM     39  C   UNL A   1      46.098  24.604  26.329  1.00  0.00     0.031 C 
ATOM     40  C   UNL A   1      41.575  26.010  28.046  1.00  0.00     0.029 A 
ATOM     41  N   UNL A   1      43.216  27.525  28.096  1.00  0.00    -0.354 N 
ATOM     42  C   UNL A   1      47.225  26.519  26.867  1.00  0.00     0.074 A 
ATOM     43  C   UNL A   1      47.301  25.154  26.392  1.00  0.00     0.031 C 
ATOM     44  C   UNL A   1      41.063  27.139  28.563  1.00  0.00     0.029 A 
ATOM     45  C   UNL A   1      42.112  28.151  28.627  1.00  0.00     0.049 A 
ATOM     46  H   UNL A   1      44.092  27.966  28.003  1.00  0.00     0.167 HD
ATOM     47  C   UNL A   1      48.283  27.364  26.920  1.00  0.00     0.031 A 
ATOM     48  C   UNL A   1      41.959  29.397  29.115  1.00  0.00     0.031 A 
ATOM     49  C   UNL A   1      48.203  28.730  27.358  1.00  0.00     0.049 A 
ATOM     50  C   UNL A   1      43.133  30.336  29.115  1.00  0.00     0.074 A 
ATOM     51  C   UNL A   1      49.204  29.685  27.388  1.00  0.00     0.029 A 
ATOM     52  N   UNL A   1      47.053  29.340  27.834  1.00  0.00    -0.354 N 
ATOM     53  N   UNL A   1      44.367  30.109  28.729  1.00  0.00    -0.248 NA
ATOM     54  C   UNL A   1      42.894  31.701  29.603  1.00  0.00     0.031 C 
ATOM     55  C   UNL A   1      48.664  30.868  27.905  1.00  0.00     0.029 A 
ATOM     56  C   UNL A   1      47.319  30.659  28.162  1.00  0.00     0.049 A 
ATOM     57  H   UNL A   1      46.177  28.901  27.924  1.00  0.00     0.167 HD
ATOM     58  C   UNL A   1      45.045  31.309  28.908  1.00  0.00     0.074 A 
ATOM     59  C   UNL A   1      44.083  32.261  29.425  1.00  0.00     0.031 C 
ATOM     60  C   UNL A   1      46.347  31.595  28.668  1.00  0.00     0.031 A 
BRANCH  47  61
ATOM     61  C   UNL A   1      49.615  26.823  26.478  1.00  0.00    -0.014 A 
ATOM     62  C   UNL A   1      50.075  27.024  25.164  1.00  0.00     0.010 A 
ATOM     63  C   UNL A   1      50.419  26.109  27.385  1.00  0.00     0.010 A 
ATOM     64  C   UNL A   1      51.289  26.474  24.748  1.00  0.00     0.020 A 
ATOM     65  C   UNL A   1      51.648  25.580  26.980  1.00  0.00     0.020 A 
ATOM     66  C   UNL A   1      52.064  25.747  25.657  1.00  0.00     0.054 A 
BRANCH  66  67
ATOM     67  S   UNL A   1      53.638  25.044  25.093  1.00  0.00     0.124 S 
ATOM     68  O   UNL A   1      53.406  23.612  25.268  1.00  0.00    -0.237 OA
ATOM     69  O   UNL A   1      53.720  25.500  23.707  1.00  0.00    -0.237 OA
ATOM     70  O   UNL A   1      54.623  25.632  25.998  1.00  0.00    -0.744 OA
ENDBRANCH  66  67
ENDBRANCH  47  61
BRANCH  48  71
ATOM     71  C   UNL A   1      40.630  29.842  29.615  1.00  0.00    -0.014 A 
ATOM     72  C   UNL A   1      39.584  30.098  28.711  1.00  0.00     0.010 A 
ATOM     73  C   UNL A   1      40.396  29.992  30.993  1.00  0.00     0.010 A 
ATOM     74  C   UNL A   1      38.332  30.511  29.174  1.00  0.00     0.020 A 
ATOM     75  C   UNL A   1      39.138  30.384  31.462  1.00  0.00     0.020 A 
ATOM     76  C   UNL A   1      38.115  30.651  30.548  1.00  0.00     0.054 A 
BRANCH  76  77
ATOM     77  S   UNL A   1      36.464  31.126  31.133  1.00  0.00     0.124 S 
ATOM     78  O   UNL A   1      35.757  31.367  29.879  1.00  0.00    -0.237 OA
ATOM     79  O   UNL A   1      36.040  29.946  31.882  1.00  0.00    -0.237 OA
ATOM     80  O   UNL A   1      36.721  32.311  31.948  1.00  0.00    -0.744 OA
ENDBRANCH  76  77
ENDBRANCH  48  71
BRANCH  60  81
ATOM     81  C   UNL A   1      46.805  33.002  28.929  1.00  0.00    -0.014 A 
ATOM     82  C   UNL A   1      47.353  33.368  30.170  1.00  0.00     0.010 A 
ATOM     83  C   UNL A   1      46.739  33.956  27.896  1.00  0.00     0.010 A 
ATOM     84  C   UNL A   1      47.808  34.672  30.382  1.00  0.00     0.020 A 
ATOM     85  C   UNL A   1      47.211  35.254  28.098  1.00  0.00     0.020 A 
ATOM     86  C   UNL A   1      47.731  35.608  29.345  1.00  0.00     0.054 A 
BRANCH  86  87
ATOM     87  S   UNL A   1      48.374  37.281  29.624  1.00  0.00     0.124 S 
ATOM     88  O   UNL A   1      48.118  37.470  31.049  1.00  0.00    -0.237 OA
ATOM     89  O   UNL A   1      49.781  37.155  29.250  1.00  0.00    -0.237 OA
ATOM     90  O   UNL A   1      47.572  38.113  28.730  1.00  0.00    -0.744 OA
ENDBRANCH  86  87
ENDBRANCH  60  81
ENDBRANCH  34  35
ENDBRANCH  26  29
ENDBRANCH  24  25
ENDBRANCH  23  24
ENDBRANCH   1  23
TORSDOF 18
ENDMDL
MODEL 2
REMARK VINA RESULT:     -10.6      4.669      8.639
REMARK SMILES C[C@@H](CS(=O)(=O)[C@@H]1CCC[C@H](S(C)(=O)=O)C1)C(=O)NCCCCNC(=O)c1ccc(-c2c3nc(c(-c4ccc(S(=O)(=O)[O-])cc4)c4ccc([nH]4)c(-c4ccc(S(=O)(=O)[O-])cc4)c4nc(c(-c5ccc(S(=O)(=O)[O-])cc5)c5ccc2[nH]5)C=C4)C=C3)cc1
REMARK SMILES IDX 21 1 20 2 19 3 17 4 18 5 2 7 1 8 3 9 4 10 5 11 6 12 7 13
REMARK SMILES IDX 8 14 16 15 9 16 11 17 10 18 12 19 13 20 14 21 15 22 22 23
REMARK SMILES IDX 23 24 24 25 25 26 26 28 27 29 28 30 86 31 29 32 85 33 30 34
REMARK SMILES IDX 31 35 32 36 79 37 33 38 84 39 78 40 80 41 34 42 83 43 77 44
REMARK SMILES IDX 76 45 35 47 65 48 46 49 64 50 47 51 50 52 63 53 81 54 48 55
REMARK SMILES IDX 49 56 62 58 82 59 51 60 36 61 37 62 45 63 38 64 44 65 39 66
REMARK SMILES IDX 40 67 41 68 42 69 43 70 66 71 67 72 75 73 68 74 74 75 69 76
REMARK SMILES IDX 70 77 71 78 72 79 73 80 52 81 53 82 61 83 54 84 60 85 55 86
REMARK SMILES IDX 56 87 57 88 58 89 59 90
REMARK H PARENT 19 6 24 27 80 46 50 57
REMARK Flexibility Score: inf
ROOT
ATOM      1  C   UNL A   1      42.759  22.514  25.323  1.00  0.00     0.023 C 
ENDROOT
BRANCH   1   2
ATOM      2  C   UNL A   1      43.545  23.753  24.934  1.00  0.00     0.116 C 
BRANCH   2   3
ATOM      3  N   UNL A   1      44.970  23.607  24.831  1.00  0.00    -0.356 N 
ATOM      4  C   UNL A   1      45.899  23.757  25.816  1.00  0.00     0.223 C 
ATOM      5  O   UNL A   1      46.973  23.165  25.670  1.00  0.00    -0.275 OA
ATOM      6  H   UNL A   1      45.317  23.369  23.941  1.00  0.00     0.163 HD
BRANCH   4   7
ATOM      7  C   UNL A   1      45.736  24.734  26.991  1.00  0.00     0.090 C 
ATOM      8  C   UNL A   1      45.664  24.005  28.330  1.00  0.00     0.019 C 
BRANCH   7   9
ATOM      9  C   UNL A   1      46.310  26.158  26.990  1.00  0.00     0.150 C 
BRANCH   9  10
ATOM     10  S   UNL A   1      47.305  26.931  25.736  1.00  0.00     0.153 S 
ATOM     11  O   UNL A   1      48.628  26.343  25.793  1.00  0.00    -0.229 OA
ATOM     12  O   UNL A   1      46.543  26.758  24.507  1.00  0.00    -0.229 OA
BRANCH  10  13
ATOM     13  C   UNL A   1      47.434  28.755  25.930  1.00  0.00     0.110 C 
ATOM     14  C   UNL A   1      48.431  29.086  27.051  1.00  0.00     0.020 C 
ATOM     15  C   UNL A   1      46.119  29.491  26.111  1.00  0.00     0.039 C 
ATOM     16  C   UNL A   1      48.587  30.588  27.263  1.00  0.00     0.003 C 
ATOM     17  C   UNL A   1      46.228  30.988  26.458  1.00  0.00     0.109 C 
ATOM     18  C   UNL A   1      47.249  31.251  27.564  1.00  0.00     0.020 C 
BRANCH  17  19
ATOM     19  S   UNL A   1      44.573  31.579  26.923  1.00  0.00     0.150 S 
ATOM     20  C   UNL A   1      43.527  30.143  26.915  1.00  0.00     0.158 C 
ATOM     21  O   UNL A   1      44.662  32.041  28.296  1.00  0.00    -0.229 OA
ATOM     22  O   UNL A   1      44.104  32.471  25.883  1.00  0.00    -0.229 OA
ENDBRANCH  17  19
ENDBRANCH  10  13
ENDBRANCH   9  10
ENDBRANCH   7   9
ENDBRANCH   4   7
ENDBRANCH   2   3
ENDBRANCH   1   2
BRANCH   1  23
ATOM     23  C   UNL A   1      42.845  22.095  26.783  1.00  0.00     0.023 C 
BRANCH  23  24
ATOM     24  C   UNL A   1      41.538  22.097  27.570  1.00  0.00     0.116 C 
BRANCH  24  25
ATOM     25  N   UNL A   1      40.343  21.759  26.803  1.00  0.00    -0.352 N 
ATOM     26  C   UNL A   1      39.306  22.594  26.436  1.00  0.00     0.251 C 
ATOM     27  H   UNL A   1      40.267  20.823  26.510  1.00  0.00     0.163 HD
ATOM     28  O   UNL A   1      38.344  22.161  25.811  1.00  0.00    -0.269 OA
BRANCH  26  29
ATOM     29  C   UNL A   1      39.350  24.007  26.876  1.00  0.00     0.039 A 
ATOM     30  C   UNL A   1      38.856  24.337  28.140  1.00  0.00     0.014 A 
ATOM     31  C   UNL A   1      40.019  24.959  26.104  1.00  0.00     0.014 A 
ATOM     32  C   UNL A   1      39.152  25.589  28.684  1.00  0.00     0.010 A 
ATOM     33  C   UNL A   1      40.391  26.166  26.686  1.00  0.00     0.010 A 
ATOM     34  C   UNL A   1      39.984  26.485  27.991  1.00  0.00    -0.014 A 
BRANCH  34  35
ATOM     35  C   UNL A   1      40.485  27.734  28.623  1.00  0.00     0.031 A 
ATOM     36  C   UNL A   1      41.881  27.792  29.180  1.00  0.00     0.074 A 
ATOM     37  C   UNL A   1      39.650  28.781  28.792  1.00  0.00     0.049 A 
ATOM     38  N   UNL A   1      42.456  28.745  29.868  1.00  0.00    -0.248 NA
ATOM     39  C   UNL A   1      42.728  26.606  28.972  1.00  0.00     0.031 C 
ATOM     40  C   UNL A   1      38.249  28.833  28.364  1.00  0.00     0.029 A 
ATOM     41  N   UNL A   1      39.856  30.004  29.384  1.00  0.00    -0.354 N 
ATOM     42  C   UNL A   1      43.715  28.261  30.201  1.00  0.00     0.074 A 
ATOM     43  C   UNL A   1      43.803  26.913  29.681  1.00  0.00     0.031 C 
ATOM     44  C   UNL A   1      37.734  30.033  28.679  1.00  0.00     0.029 A 
ATOM     45  C   UNL A   1      38.751  30.823  29.364  1.00  0.00     0.049 A 
ATOM     46  H   UNL A   1      40.715  30.269  29.785  1.00  0.00     0.167 HD
ATOM     47  C   UNL A   1      44.719  28.887  30.862  1.00  0.00     0.031 A 
ATOM     48  C   UNL A   1      38.573  32.069  29.844  1.00  0.00     0.031 A 
ATOM     49  C   UNL A   1      44.647  30.237  31.348  1.00  0.00     0.049 A 
ATOM     50  C   UNL A   1      39.717  32.764  30.526  1.00  0.00     0.074 A 
ATOM     51  C   UNL A   1      45.633  30.981  31.973  1.00  0.00     0.029 A 
ATOM     52  N   UNL A   1      43.529  31.050  31.255  1.00  0.00    -0.354 N 
ATOM     53  N   UNL A   1      40.922  32.310  30.780  1.00  0.00    -0.248 NA
ATOM     54  C   UNL A   1      39.485  34.143  30.977  1.00  0.00     0.031 C 
ATOM     55  C   UNL A   1      45.101  32.239  32.279  1.00  0.00     0.029 A 
ATOM     56  C   UNL A   1      43.798  32.289  31.812  1.00  0.00     0.049 A 
ATOM     57  H   UNL A   1      42.671  30.787  30.851  1.00  0.00     0.167 HD
ATOM     58  C   UNL A   1      41.597  33.355  31.400  1.00  0.00     0.074 A 
ATOM     59  C   UNL A   1      40.672  34.467  31.472  1.00  0.00     0.031 C 
ATOM     60  C   UNL A   1      42.868  33.388  31.868  1.00  0.00     0.031 A 
BRANCH  47  61
ATOM     61  C   UNL A   1      45.986  28.105  31.082  1.00  0.00    -0.014 A 
ATOM     62  C   UNL A   1      46.961  28.013  30.072  1.00  0.00     0.010 A 
ATOM     63  C   UNL A   1      46.207  27.458  32.311  1.00  0.00     0.010 A 
ATOM     64  C   UNL A   1      48.110  27.244  30.267  1.00  0.00     0.020 A 
ATOM     65  C   UNL A   1      47.369  26.709  32.519  1.00  0.00     0.020 A 
ATOM     66  C   UNL A   1      48.302  26.588  31.486  1.00  0.00     0.054 A 
BRANCH  66  67
ATOM     67  S   UNL A   1      49.802  25.595  31.715  1.00  0.00     0.124 S 
ATOM     68  O   UNL A   1      49.367  24.622  32.714  1.00  0.00    -0.237 OA
ATOM     69  O   UNL A   1      50.042  25.056  30.378  1.00  0.00    -0.237 OA
ATOM     70  O   UNL A   1      50.791  26.566  32.178  1.00  0.00    -0.744 OA
ENDBRANCH  66  67
ENDBRANCH  47  61
BRANCH  48  71
ATOM     71  C   UNL A   1      37.265  32.755  29.665  1.00  0.00    -0.014 A 
ATOM     72  C   UNL A   1      36.318  32.756  30.705  1.00  0.00     0.010 A 
ATOM     73  C   UNL A   1      36.965  33.427  28.467  1.00  0.00     0.010 A 
ATOM     74  C   UNL A   1      35.090  33.402  30.545  1.00  0.00     0.020 A 
ATOM     75  C   UNL A   1      35.746  34.094  28.312  1.00  0.00     0.020 A 
ATOM     76  C   UNL A   1      34.811  34.070  29.349  1.00  0.00     0.054 A 
BRANCH  76  77
ATOM     77  S   UNL A   1      33.237  34.958  29.185  1.00  0.00     0.124 S 
ATOM     78  O   UNL A   1      32.726  34.923  30.552  1.00  0.00    -0.237 OA
ATOM     79  O   UNL A   1      33.660  36.270  28.701  1.00  0.00    -0.237 OA
ATOM     80  O   UNL A   1      32.494  34.156  28.216  1.00  0.00    -0.744 OA
ENDBRANCH  76  77
ENDBRANCH  48  71
BRANCH  60  81
ATOM     81  C   UNL A   1      43.348  34.677  32.473  1.00  0.00    -0.014 A 
ATOM     82  C   UNL A   1      43.911  35.687  31.674  1.00  0.00     0.010 A 
ATOM     83  C   UNL A   1      43.177  34.902  33.852  1.00  0.00     0.010 A 
ATOM     84  C   UNL A   1      44.318  36.894  32.249  1.00  0.00     0.020 A 
ATOM     85  C   UNL A   1      43.564  36.115  34.425  1.00  0.00     0.020 A 
ATOM     86  C   UNL A   1      44.143  37.100  33.622  1.00  0.00     0.054 A 
BRANCH  86  87
ATOM     87  S   UNL A   1      44.630  38.693  34.339  1.00  0.00     0.124 S 
ATOM     88  O   UNL A   1      44.174  38.557  35.719  1.00  0.00    -0.237 OA
ATOM     89  O   UNL A   1      46.080  38.702  34.155  1.00  0.00    -0.237 OA
ATOM     90  O   UNL A   1      43.902  39.671  33.533  1.00  0.00    -0.744 OA
ENDBRANCH  86  87
ENDBRANCH  60  81
ENDBRANCH  34  35
ENDBRANCH  26  29
ENDBRANCH  24  25
ENDBRANCH  23  24
ENDBRANCH   1  23
TORSDOF 18
ENDMDL
MODEL 3
REMARK VINA RESULT:     -10.4      0.716      8.213
REMARK SMILES C[C@@H](CS(=O)(=O)[C@@H]1CCC[C@H](S(C)(=O)=O)C1)C(=O)NCCCCNC(=O)c1ccc(-c2c3nc(c(-c4ccc(S(=O)(=O)[O-])cc4)c4ccc([nH]4)c(-c4ccc(S(=O)(=O)[O-])cc4)c4nc(c(-c5ccc(S(=O)(=O)[O-])cc5)c5ccc2[nH]5)C=C4)C=C3)cc1
REMARK SMILES IDX 21 1 20 2 19 3 17 4 18 5 2 7 1 8 3 9 4 10 5 11 6 12 7 13
REMARK SMILES IDX 8 14 16 15 9 16 11 17 10 18 12 19 13 20 14 21 15 22 22 23
REMARK SMILES IDX 23 24 24 25 25 26 26 28 27 29 28 30 86 31 29 32 85 33 30 34
REMARK SMILES IDX 31 35 32 36 79 37 33 38 84 39 78 40 80 41 34 42 83 43 77 44
REMARK SMILES IDX 76 45 35 47 65 48 46 49 64 50 47 51 50 52 63 53 81 54 48 55
REMARK SMILES IDX 49 56 62 58 82 59 51 60 36 61 37 62 45 63 38 64 44 65 39 66
REMARK SMILES IDX 40 67 41 68 42 69 43 70 66 71 67 72 75 73 68 74 74 75 69 76
REMARK SMILES IDX 70 77 71 78 72 79 73 80 52 81 53 82 61 83 54 84 60 85 55 86
REMARK SMILES IDX 56 87 57 88 58 89 59 90
REMARK H PARENT 19 6 24 27 80 46 50 57
REMARK Flexibility Score: inf
ROOT
ATOM      1  C   UNL A   1      37.095  23.616  25.853  1.00  0.00     0.023 C 
ENDROOT
BRANCH   1   2
ATOM      2  C   UNL A   1      35.858  23.962  25.044  1.00  0.00     0.116 C 
BRANCH   2   3
ATOM      3  N   UNL A   1      35.043  22.862  24.609  1.00  0.00    -0.356 N 
ATOM      4  C   UNL A   1      33.709  22.680  24.812  1.00  0.00     0.223 C 
ATOM      5  O   UNL A   1      33.111  21.955  24.008  1.00  0.00    -0.275 OA
ATOM      6  H   UNL A   1      35.504  22.155  24.103  1.00  0.00     0.163 HD
BRANCH   4   7
ATOM      7  C   UNL A   1      32.964  23.191  26.056  1.00  0.00     0.090 C 
ATOM      8  C   UNL A   1      33.411  22.467  27.323  1.00  0.00     0.019 C 
BRANCH   7   9
ATOM      9  C   UNL A   1      32.459  24.633  26.205  1.00  0.00     0.150 C 
BRANCH   9  10
ATOM     10  S   UNL A   1      31.020  25.365  25.461  1.00  0.00     0.153 S 
ATOM     11  O   UNL A   1      30.569  24.484  24.403  1.00  0.00    -0.229 OA
ATOM     12  O   UNL A   1      30.112  25.599  26.577  1.00  0.00    -0.229 OA
BRANCH  10  13
ATOM     13  C   UNL A   1      31.329  27.043  24.775  1.00  0.00     0.110 C 
ATOM     14  C   UNL A   1      31.676  28.012  25.916  1.00  0.00     0.020 C 
ATOM     15  C   UNL A   1      30.238  27.597  23.877  1.00  0.00     0.039 C 
ATOM     16  C   UNL A   1      31.947  29.426  25.412  1.00  0.00     0.003 C 
ATOM     17  C   UNL A   1      30.401  29.067  23.448  1.00  0.00     0.109 C 
ATOM     18  C   UNL A   1      30.764  29.974  24.624  1.00  0.00     0.020 C 
BRANCH  17  19
ATOM     19  S   UNL A   1      28.855  29.595  22.651  1.00  0.00     0.150 S 
ATOM     20  C   UNL A   1      28.410  31.129  23.428  1.00  0.00     0.158 C 
ATOM     21  O   UNL A   1      29.175  29.889  21.266  1.00  0.00    -0.229 OA
ATOM     22  O   UNL A   1      27.829  28.624  22.971  1.00  0.00    -0.229 OA
ENDBRANCH  17  19
ENDBRANCH  10  13
ENDBRANCH   9  10
ENDBRANCH   7   9
ENDBRANCH   4   7
ENDBRANCH   2   3
ENDBRANCH   1   2
BRANCH   1  23
ATOM     23  C   UNL A   1      37.776  22.300  25.508  1.00  0.00     0.023 C 
BRANCH  23  24
ATOM     24  C   UNL A   1      39.095  22.009  26.218  1.00  0.00     0.116 C 
BRANCH  24  25
ATOM     25  N   UNL A   1      39.615  20.656  26.046  1.00  0.00    -0.352 N 
ATOM     26  C   UNL A   1      40.924  20.229  26.162  1.00  0.00     0.251 C 
ATOM     27  H   UNL A   1      38.953  19.964  25.821  1.00  0.00     0.163 HD
ATOM     28  O   UNL A   1      41.220  19.056  25.958  1.00  0.00    -0.269 OA
BRANCH  26  29
ATOM     29  C   UNL A   1      41.968  21.233  26.466  1.00  0.00     0.039 A 
ATOM     30  C   UNL A   1      42.416  22.074  25.444  1.00  0.00     0.014 A 
ATOM     31  C   UNL A   1      42.377  21.438  27.785  1.00  0.00     0.014 A 
ATOM     32  C   UNL A   1      43.171  23.203  25.771  1.00  0.00     0.010 A 
ATOM     33  C   UNL A   1      43.047  22.611  28.115  1.00  0.00     0.010 A 
ATOM     34  C   UNL A   1      43.428  23.520  27.115  1.00  0.00    -0.014 A 
BRANCH  34  35
ATOM     35  C   UNL A   1      44.048  24.814  27.508  1.00  0.00     0.031 A 
ATOM     36  C   UNL A   1      43.210  25.892  28.138  1.00  0.00     0.074 A 
ATOM     37  C   UNL A   1      45.339  25.059  27.202  1.00  0.00     0.049 A 
ATOM     38  N   UNL A   1      43.538  27.122  28.441  1.00  0.00    -0.248 NA
ATOM     39  C   UNL A   1      41.806  25.557  28.427  1.00  0.00     0.031 C 
ATOM     40  C   UNL A   1      46.248  24.128  26.526  1.00  0.00     0.029 A 
ATOM     41  N   UNL A   1      46.111  26.177  27.407  1.00  0.00    -0.354 N 
ATOM     42  C   UNL A   1      42.379  27.714  28.924  1.00  0.00     0.074 A 
ATOM     43  C   UNL A   1      41.327  26.724  28.830  1.00  0.00     0.031 C 
ATOM     44  C   UNL A   1      47.456  24.700  26.402  1.00  0.00     0.029 A 
ATOM     45  C   UNL A   1      47.403  26.049  26.953  1.00  0.00     0.049 A 
ATOM     46  H   UNL A   1      45.771  26.993  27.840  1.00  0.00     0.167 HD
ATOM     47  C   UNL A   1      42.204  28.962  29.422  1.00  0.00     0.031 A 
ATOM     48  C   UNL A   1      48.431  26.920  26.973  1.00  0.00     0.031 A 
ATOM     49  C   UNL A   1      43.255  29.935  29.548  1.00  0.00     0.049 A 
ATOM     50  C   UNL A   1      48.230  28.281  27.578  1.00  0.00     0.074 A 
ATOM     51  C   UNL A   1      43.192  31.203  30.098  1.00  0.00     0.029 A 
ATOM     52  N   UNL A   1      44.562  29.743  29.129  1.00  0.00    -0.354 N 
ATOM     53  N   UNL A   1      47.137  28.801  28.085  1.00  0.00    -0.248 NA
ATOM     54  C   UNL A   1      49.400  29.167  27.628  1.00  0.00     0.031 C 
ATOM     55  C   UNL A   1      44.458  31.788  29.989  1.00  0.00     0.029 A 
ATOM     56  C   UNL A   1      45.316  30.870  29.405  1.00  0.00     0.049 A 
ATOM     57  H   UNL A   1      44.903  28.926  28.699  1.00  0.00     0.167 HD
ATOM     58  C   UNL A   1      47.494  30.068  28.532  1.00  0.00     0.074 A 
ATOM     59  C   UNL A   1      48.906  30.230  28.248  1.00  0.00     0.031 C 
ATOM     60  C   UNL A   1      46.722  31.012  29.123  1.00  0.00     0.031 A 
BRANCH  47  61
ATOM     61  C   UNL A   1      40.818  29.331  29.874  1.00  0.00    -0.014 A 
ATOM     62  C   UNL A   1      40.462  29.268  31.234  1.00  0.00     0.010 A 
ATOM     63  C   UNL A   1      39.860  29.750  28.934  1.00  0.00     0.010 A 
ATOM     64  C   UNL A   1      39.159  29.563  31.639  1.00  0.00     0.020 A 
ATOM     65  C   UNL A   1      38.561  30.073  29.339  1.00  0.00     0.020 A 
ATOM     66  C   UNL A   1      38.214  29.955  30.687  1.00  0.00     0.054 A 
BRANCH  66  67
ATOM     67  S   UNL A   1      36.528  30.334  31.238  1.00  0.00     0.124 S 
ATOM     68  O   UNL A   1      35.724  29.563  30.292  1.00  0.00    -0.237 OA
ATOM     69  O   UNL A   1      36.518  29.844  32.615  1.00  0.00    -0.237 OA
ATOM     70  O   UNL A   1      36.437  31.785  31.096  1.00  0.00    -0.744 OA
ENDBRANCH  66  67
ENDBRANCH  47  61
BRANCH  48  71
ATOM     71  C   UNL A   1      49.757  26.518  26.431  1.00  0.00    -0.014 A 
ATOM     72  C   UNL A   1      50.125  26.877  25.122  1.00  0.00     0.010 A 
ATOM     73  C   UNL A   1      50.666  25.796  27.223  1.00  0.00     0.010 A 
ATOM     74  C   UNL A   1      51.371  26.507  24.609  1.00  0.00     0.020 A 
ATOM     75  C   UNL A   1      51.923  25.443  26.721  1.00  0.00     0.020 A 
ATOM     76  C   UNL A   1      52.264  25.793  25.412  1.00  0.00     0.054 A 
BRANCH  76  77
ATOM     77  S   UNL A   1      53.902  25.378  24.750  1.00  0.00     0.124 S 
ATOM     78  O   UNL A   1      53.812  25.882  23.383  1.00  0.00    -0.237 OA
ATOM     79  O   UNL A   1      54.801  26.112  25.638  1.00  0.00    -0.237 OA
ATOM     80  O   UNL A   1      53.962  23.924  24.880  1.00  0.00    -0.744 OA
ENDBRANCH  76  77
ENDBRANCH  48  71
BRANCH  60  81
ATOM     81  C   UNL A   1      47.390  32.294  29.533  1.00  0.00    -0.014 A 
ATOM     82  C   UNL A   1      47.460  33.388  28.655  1.00  0.00     0.010 A 
ATOM     83  C   UNL A   1      47.903  32.421  30.838  1.00  0.00     0.010 A 
ATOM     84  C   UNL A   1      48.052  34.585  29.068  1.00  0.00     0.020 A 
ATOM     85  C   UNL A   1      48.477  33.622  31.259  1.00  0.00     0.020 A 
ATOM     86  C   UNL A   1      48.560  34.693  30.367  1.00  0.00     0.054 A 
BRANCH  86  87
ATOM     87  S   UNL A   1      49.278  36.271  30.899  1.00  0.00     0.124 S 
ATOM     88  O   UNL A   1      48.141  36.920  31.544  1.00  0.00    -0.237 OA
ATOM     89  O   UNL A   1      50.354  35.852  31.794  1.00  0.00    -0.237 OA
ATOM     90  O   UNL A   1      49.722  36.887  29.650  1.00  0.00    -0.744 OA
ENDBRANCH  86  87
ENDBRANCH  60  81
ENDBRANCH  34  35
ENDBRANCH  26  29
ENDBRANCH  24  25
ENDBRANCH  23  24
ENDBRANCH   1  23
TORSDOF 18
ENDMDL
