MODEL 1
REMARK VINA RESULT:     -11.1      0.000      0.000
REMARK SMILES O=C(N[C@@H]1C=C[C@@H](C(=O)NCCCCNC(=O)c2ccc(-c3c4nc(c(-c5ccc(S(=O)(=O)[O-])cc5)c5ccc([nH]5)c(-c5ccc(S(=O)(=O)[O-])cc5)c5nc(c(-c6ccc(S(=O)(=O)[O-])cc6)c6ccc3[nH]6)C=C5)C=C4)cc2)C1)Oc1ccccc1
REMARK SMILES IDX 12 1 11 2 10 3 8 4 9 5 7 7 4 8 5 9 78 10 6 11 3 12 1 13 2 14
REMARK SMILES IDX 79 16 80 17 81 18 85 19 82 20 84 21 83 22 13 23 14 24 15 25
REMARK SMILES IDX 16 26 17 28 18 29 19 30 77 31 20 32 76 33 21 34 22 35 23 36
REMARK SMILES IDX 70 37 24 38 75 39 69 40 71 41 25 42 74 43 68 44 67 45 26 47
REMARK SMILES IDX 56 48 37 49 55 50 38 51 41 52 54 53 72 54 39 55 40 56 53 58
REMARK SMILES IDX 73 59 42 60 27 61 28 62 36 63 29 64 35 65 30 66 31 67 32 68
REMARK SMILES IDX 33 69 34 70 57 71 58 72 66 73 59 74 65 75 60 76 61 77 62 78
REMARK SMILES IDX 63 79 64 80 43 81 44 82 52 83 45 84 51 85 46 86 47 87 48 88
REMARK SMILES IDX 49 89 50 90
REMARK H PARENT 10 6 3 15 15 27 71 46 41 57
REMARK Flexibility Score: inf
ROOT
ATOM      1  C   UNL A   1      35.418  21.979  26.157  1.00  0.00     0.023 C 
ENDROOT
BRANCH   1   2
ATOM      2  C   UNL A   1      35.113  21.127  24.931  1.00  0.00     0.116 C 
BRANCH   2   3
ATOM      3  N   UNL A   1      34.291  19.983  25.263  1.00  0.00    -0.356 N 
ATOM      4  C   UNL A   1      32.946  19.791  25.189  1.00  0.00     0.227 C 
ATOM      5  O   UNL A   1      32.520  18.684  25.534  1.00  0.00    -0.274 OA
ATOM      6  H   UNL A   1      34.793  19.207  25.603  1.00  0.00     0.163 HD
BRANCH   4   7
ATOM      7  C   UNL A   1      31.961  20.865  24.708  1.00  0.00     0.103 C 
ATOM      8  C   UNL A   1      31.941  23.309  25.026  1.00  0.00     0.109 C 
ATOM      9  C   UNL A   1      32.335  22.920  23.635  1.00  0.00    -0.006 C 
ATOM     10  C   UNL A   1      31.649  21.972  25.721  1.00  0.00     0.047 C 
ATOM     11  C   UNL A   1      32.378  21.594  23.469  1.00  0.00    -0.016 C 
BRANCH   8  12
ATOM     12  N   UNL A   1      30.799  24.184  24.938  1.00  0.00    -0.315 N 
ATOM     13  O   UNL A   1      29.359  25.814  25.460  1.00  0.00    -0.224 OA
ATOM     14  C   UNL A   1      30.465  25.304  25.644  1.00  0.00     0.413 C 
ATOM     15  H   UNL A   1      30.146  23.929  24.247  1.00  0.00     0.167 HD
BRANCH  14  16
ATOM     16  O   UNL A   1      31.327  25.825  26.621  1.00  0.00    -0.410 OA
BRANCH  16  17
ATOM     17  C   UNL A   1      32.060  27.035  26.681  1.00  0.00     0.132 A 
ATOM     18  C   UNL A   1      33.383  26.992  26.245  1.00  0.00     0.047 A 
ATOM     19  C   UNL A   1      31.510  28.188  27.236  1.00  0.00     0.047 A 
ATOM     20  C   UNL A   1      34.155  28.148  26.309  1.00  0.00     0.004 A 
ATOM     21  C   UNL A   1      32.285  29.347  27.281  1.00  0.00     0.004 A 
ATOM     22  C   UNL A   1      33.605  29.327  26.820  1.00  0.00     0.000 A 
ENDBRANCH  16  17
ENDBRANCH  14  16
ENDBRANCH   8  12
ENDBRANCH   4   7
ENDBRANCH   2   3
ENDBRANCH   1   2
BRANCH   1  23
ATOM     23  C   UNL A   1      35.777  23.434  25.866  1.00  0.00     0.023 C 
BRANCH  23  24
ATOM     24  C   UNL A   1      37.037  23.626  25.031  1.00  0.00     0.116 C 
BRANCH  24  25
ATOM     25  N   UNL A   1      38.119  22.715  25.387  1.00  0.00    -0.352 N 
ATOM     26  C   UNL A   1      39.237  22.955  26.154  1.00  0.00     0.251 C 
ATOM     27  H   UNL A   1      38.039  21.802  25.029  1.00  0.00     0.163 HD
ATOM     28  O   UNL A   1      40.100  22.090  26.264  1.00  0.00    -0.269 OA
BRANCH  26  29
ATOM     29  C   UNL A   1      39.409  24.274  26.802  1.00  0.00     0.039 A 
ATOM     30  C   UNL A   1      38.917  24.468  28.095  1.00  0.00     0.014 A 
ATOM     31  C   UNL A   1      40.113  25.294  26.159  1.00  0.00     0.014 A 
ATOM     32  C   UNL A   1      39.219  25.650  28.777  1.00  0.00     0.010 A 
ATOM     33  C   UNL A   1      40.500  26.420  26.875  1.00  0.00     0.010 A 
ATOM     34  C   UNL A   1      40.059  26.612  28.193  1.00  0.00    -0.014 A 
BRANCH  34  35
ATOM     35  C   UNL A   1      40.502  27.823  28.935  1.00  0.00     0.031 A 
ATOM     36  C   UNL A   1      41.859  27.853  29.585  1.00  0.00     0.074 A 
ATOM     37  C   UNL A   1      39.651  28.856  29.100  1.00  0.00     0.049 A 
ATOM     38  N   UNL A   1      42.393  28.779  30.340  1.00  0.00    -0.248 NA
ATOM     39  C   UNL A   1      42.718  26.673  29.389  1.00  0.00     0.031 C 
ATOM     40  C   UNL A   1      38.290  28.934  28.561  1.00  0.00     0.029 A 
ATOM     41  N   UNL A   1      39.804  30.044  29.774  1.00  0.00    -0.354 N 
ATOM     42  C   UNL A   1      43.631  28.280  30.732  1.00  0.00     0.074 A 
ATOM     43  C   UNL A   1      43.743  26.948  30.180  1.00  0.00     0.031 C 
ATOM     44  C   UNL A   1      37.753  30.120  28.886  1.00  0.00     0.029 A 
ATOM     45  C   UNL A   1      38.706  30.869  29.699  1.00  0.00     0.049 A 
ATOM     46  H   UNL A   1      40.624  30.281  30.264  1.00  0.00     0.167 HD
ATOM     47  C   UNL A   1      44.598  28.882  31.465  1.00  0.00     0.031 A 
ATOM     48  C   UNL A   1      38.488  32.089  30.228  1.00  0.00     0.031 A 
ATOM     49  C   UNL A   1      44.488  30.214  31.995  1.00  0.00     0.049 A 
ATOM     50  C   UNL A   1      39.571  32.734  31.050  1.00  0.00     0.074 A 
ATOM     51  C   UNL A   1      45.437  30.944  32.690  1.00  0.00     0.029 A 
ATOM     52  N   UNL A   1      43.361  31.015  31.896  1.00  0.00    -0.354 N 
ATOM     53  N   UNL A   1      40.765  32.276  31.344  1.00  0.00    -0.248 NA
ATOM     54  C   UNL A   1      39.280  34.063  31.603  1.00  0.00     0.031 C 
ATOM     55  C   UNL A   1      44.860  32.161  33.065  1.00  0.00     0.029 A 
ATOM     56  C   UNL A   1      43.577  32.220  32.543  1.00  0.00     0.049 A 
ATOM     57  H   UNL A   1      42.528  30.765  31.433  1.00  0.00     0.167 HD
ATOM     58  C   UNL A   1      41.381  33.278  32.088  1.00  0.00     0.074 A 
ATOM     59  C   UNL A   1      40.431  34.367  32.187  1.00  0.00     0.031 C 
ATOM     60  C   UNL A   1      42.621  33.295  32.635  1.00  0.00     0.031 A 
BRANCH  47  61
ATOM     61  C   UNL A   1      45.852  28.093  31.744  1.00  0.00    -0.014 A 
ATOM     62  C   UNL A   1      46.930  28.086  30.838  1.00  0.00     0.010 A 
ATOM     63  C   UNL A   1      45.962  27.359  32.939  1.00  0.00     0.010 A 
ATOM     64  C   UNL A   1      48.066  27.313  31.095  1.00  0.00     0.020 A 
ATOM     65  C   UNL A   1      47.111  26.613  33.216  1.00  0.00     0.020 A 
ATOM     66  C   UNL A   1      48.147  26.576  32.280  1.00  0.00     0.054 A 
BRANCH  66  67
ATOM     67  S   UNL A   1      49.633  25.584  32.585  1.00  0.00     0.124 S 
ATOM     68  O   UNL A   1      50.491  26.537  33.287  1.00  0.00    -0.237 OA
ATOM     69  O   UNL A   1      49.121  24.484  33.398  1.00  0.00    -0.237 OA
ATOM     70  O   UNL A   1      50.083  25.211  31.246  1.00  0.00    -0.744 OA
ENDBRANCH  66  67
ENDBRANCH  47  61
BRANCH  48  71
ATOM     71  C   UNL A   1      37.204  32.799  29.967  1.00  0.00    -0.014 A 
ATOM     72  C   UNL A   1      37.048  33.574  28.803  1.00  0.00     0.010 A 
ATOM     73  C   UNL A   1      36.128  32.697  30.867  1.00  0.00     0.010 A 
ATOM     74  C   UNL A   1      35.848  34.247  28.554  1.00  0.00     0.020 A 
ATOM     75  C   UNL A   1      34.917  33.345  30.606  1.00  0.00     0.020 A 
ATOM     76  C   UNL A   1      34.789  34.124  29.456  1.00  0.00     0.054 A 
BRANCH  76  77
ATOM     77  S   UNL A   1      33.224  34.965  29.081  1.00  0.00     0.124 S 
ATOM     78  O   UNL A   1      33.685  36.261  28.593  1.00  0.00    -0.237 OA
ATOM     79  O   UNL A   1      32.627  34.086  28.080  1.00  0.00    -0.237 OA
ATOM     80  O   UNL A   1      32.533  34.989  30.368  1.00  0.00    -0.744 OA
ENDBRANCH  76  77
ENDBRANCH  48  71
BRANCH  60  81
ATOM     81  C   UNL A   1      43.044  34.546  33.358  1.00  0.00    -0.014 A 
ATOM     82  C   UNL A   1      42.852  34.695  34.742  1.00  0.00     0.010 A 
ATOM     83  C   UNL A   1      43.699  35.568  32.644  1.00  0.00     0.010 A 
ATOM     84  C   UNL A   1      43.278  35.856  35.394  1.00  0.00     0.020 A 
ATOM     85  C   UNL A   1      44.155  36.715  33.298  1.00  0.00     0.020 A 
ATOM     86  C   UNL A   1      43.929  36.857  34.667  1.00  0.00     0.054 A 
BRANCH  86  87
ATOM     87  S   UNL A   1      44.514  38.331  35.545  1.00  0.00     0.124 S 
ATOM     88  O   UNL A   1      43.874  39.408  34.794  1.00  0.00    -0.237 OA
ATOM     89  O   UNL A   1      44.005  38.120  36.898  1.00  0.00    -0.237 OA
ATOM     90  O   UNL A   1      45.968  38.259  35.416  1.00  0.00    -0.744 OA
ENDBRANCH  86  87
ENDBRANCH  60  81
ENDBRANCH  34  35
ENDBRANCH  26  29
ENDBRANCH  24  25
ENDBRANCH  23  24
ENDBRANCH   1  23
TORSDOF 17
ENDMDL
MODEL 2
REMARK VINA RESULT:     -10.6      1.773      2.432
REMARK SMILES O=C(N[C@@H]1C=C[C@@H](C(=O)NCCCCNC(=O)c2ccc(-c3c4nc(c(-c5ccc(S(=O)(=O)[O-])cc5)c5ccc([nH]5)c(-c5ccc(S(=O)(=O)[O-])cc5)c5nc(c(-c6ccc(S(=O)(=O)[O-])cc6)c6ccc3[nH]6)C=C5)C=C4)cc2)C1)Oc1ccccc1
REMARK SMILES IDX 12 1 11 2 10 3 8 4 9 5 7 7 4 8 5 9 78 10 6 11 3 12 1 13 2 14
REMARK SMILES IDX 79 16 80 17 81 18 85 19 82 20 84 21 83 22 13 23 14 24 15 25
REMARK SMILES IDX 16 26 17 28 18 29 19 30 77 31 20 32 76 33 21 34 22 35 23 36
REMARK SMILES IDX 70 37 24 38 75 39 69 40 71 41 25 42 74 43 68 44 67 45 26 47
REMARK SMILES IDX 56 48 37 49 55 50 38 51 41 52 54 53 72 54 39 55 40 56 53 58
REMARK SMILES IDX 73 59 42 60 27 61 28 62 36 63 29 64 35 65 30 66 31 67 32 68
REMARK SMILES IDX 33 69 34 70 57 71 58 72 66 73 59 74 65 75 60 76 61 77 62 78
REMARK SMILES IDX 63 79 64 80 43 81 44 82 52 83 45 84 51 85 46 86 47 87 48 88
REMARK SMILES IDX 49 89 50 90
REMARK H PARENT 10 6 3 15 15 27 71 46 41 57
REMARK Flexibility Score: inf
ROOT
ATOM      1  C   UNL A   1      35.215  21.951  25.971  1.00  0.00     0.023 C 
ENDROOT
BRANCH   1   2
ATOM      2  C   UNL A   1      33.885  21.832  26.706  1.00  0.00     0.116 C 
BRANCH   2   3
ATOM      3  N   UNL A   1      32.763  21.849  25.793  1.00  0.00    -0.356 N 
ATOM      4  C   UNL A   1      31.939  22.858  25.400  1.00  0.00     0.227 C 
ATOM      5  O   UNL A   1      31.058  22.574  24.581  1.00  0.00    -0.274 OA
ATOM      6  H   UNL A   1      32.560  20.977  25.383  1.00  0.00     0.163 HD
BRANCH   4   7
ATOM      7  C   UNL A   1      32.053  24.297  25.920  1.00  0.00     0.103 C 
ATOM      8  C   UNL A   1      31.816  26.464  24.769  1.00  0.00     0.109 C 
ATOM      9  C   UNL A   1      30.637  26.149  25.636  1.00  0.00    -0.006 C 
ATOM     10  C   UNL A   1      32.768  25.279  24.985  1.00  0.00     0.047 C 
ATOM     11  C   UNL A   1      30.748  24.959  26.237  1.00  0.00    -0.016 C 
BRANCH   8  12
ATOM     12  N   UNL A   1      32.355  27.732  25.192  1.00  0.00    -0.315 N 
ATOM     13  O   UNL A   1      32.880  29.906  25.156  1.00  0.00    -0.224 OA
ATOM     14  C   UNL A   1      32.209  28.989  24.679  1.00  0.00     0.413 C 
ATOM     15  H   UNL A   1      32.929  27.682  25.990  1.00  0.00     0.167 HD
BRANCH  14  16
ATOM     16  O   UNL A   1      31.373  29.227  23.579  1.00  0.00    -0.410 OA
BRANCH  16  17
ATOM     17  C   UNL A   1      30.018  29.631  23.496  1.00  0.00     0.132 A 
ATOM     18  C   UNL A   1      29.114  28.701  22.985  1.00  0.00     0.047 A 
ATOM     19  C   UNL A   1      29.627  30.927  23.822  1.00  0.00     0.047 A 
ATOM     20  C   UNL A   1      27.774  29.058  22.857  1.00  0.00     0.004 A 
ATOM     21  C   UNL A   1      28.280  31.272  23.706  1.00  0.00     0.004 A 
ATOM     22  C   UNL A   1      27.356  30.339  23.224  1.00  0.00     0.000 A 
ENDBRANCH  16  17
ENDBRANCH  14  16
ENDBRANCH   8  12
ENDBRANCH   4   7
ENDBRANCH   2   3
ENDBRANCH   1   2
BRANCH   1  23
ATOM     23  C   UNL A   1      35.848  23.339  25.990  1.00  0.00     0.023 C 
BRANCH  23  24
ATOM     24  C   UNL A   1      37.055  23.502  25.075  1.00  0.00     0.116 C 
BRANCH  24  25
ATOM     25  N   UNL A   1      38.163  22.614  25.405  1.00  0.00    -0.352 N 
ATOM     26  C   UNL A   1      39.310  22.884  26.118  1.00  0.00     0.251 C 
ATOM     27  H   UNL A   1      38.080  21.691  25.069  1.00  0.00     0.163 HD
ATOM     28  O   UNL A   1      40.188  22.033  26.210  1.00  0.00    -0.269 OA
BRANCH  26  29
ATOM     29  C   UNL A   1      39.491  24.220  26.729  1.00  0.00     0.039 A 
ATOM     30  C   UNL A   1      39.043  24.439  28.035  1.00  0.00     0.014 A 
ATOM     31  C   UNL A   1      40.162  25.231  26.039  1.00  0.00     0.014 A 
ATOM     32  C   UNL A   1      39.356  25.639  28.678  1.00  0.00     0.010 A 
ATOM     33  C   UNL A   1      40.563  26.376  26.716  1.00  0.00     0.010 A 
ATOM     34  C   UNL A   1      40.167  26.595  28.044  1.00  0.00    -0.014 A 
BRANCH  34  35
ATOM     35  C   UNL A   1      40.623  27.826  28.742  1.00  0.00     0.031 A 
ATOM     36  C   UNL A   1      42.004  27.886  29.337  1.00  0.00     0.074 A 
ATOM     37  C   UNL A   1      39.766  28.853  28.919  1.00  0.00     0.049 A 
ATOM     38  N   UNL A   1      42.556  28.833  30.051  1.00  0.00    -0.248 NA
ATOM     39  C   UNL A   1      42.869  26.711  29.132  1.00  0.00     0.031 C 
ATOM     40  C   UNL A   1      38.385  28.903  28.432  1.00  0.00     0.029 A 
ATOM     41  N   UNL A   1      39.930  30.056  29.561  1.00  0.00    -0.354 N 
ATOM     42  C   UNL A   1      43.814  28.358  30.404  1.00  0.00     0.074 A 
ATOM     43  C   UNL A   1      43.921  27.016  29.876  1.00  0.00     0.031 C 
ATOM     44  C   UNL A   1      37.845  30.090  28.754  1.00  0.00     0.029 A 
ATOM     45  C   UNL A   1      38.820  30.867  29.512  1.00  0.00     0.049 A 
ATOM     46  H   UNL A   1      40.766  30.313  30.014  1.00  0.00     0.167 HD
ATOM     47  C   UNL A   1      44.802  28.987  31.085  1.00  0.00     0.031 A 
ATOM     48  C   UNL A   1      38.608  32.095  30.023  1.00  0.00     0.031 A 
ATOM     49  C   UNL A   1      44.696  30.328  31.592  1.00  0.00     0.049 A 
ATOM     50  C   UNL A   1      39.714  32.770  30.789  1.00  0.00     0.074 A 
ATOM     51  C   UNL A   1      45.662  31.083  32.232  1.00  0.00     0.029 A 
ATOM     52  N   UNL A   1      43.555  31.114  31.520  1.00  0.00    -0.354 N 
ATOM     53  N   UNL A   1      40.925  32.333  31.045  1.00  0.00    -0.248 NA
ATOM     54  C   UNL A   1      39.429  34.107  31.324  1.00  0.00     0.031 C 
ATOM     55  C   UNL A   1      45.085  32.302  32.605  1.00  0.00     0.029 A 
ATOM     56  C   UNL A   1      43.783  32.334  32.133  1.00  0.00     0.049 A 
ATOM     57  H   UNL A   1      42.709  30.844  31.096  1.00  0.00     0.167 HD
ATOM     58  C   UNL A   1      41.556  33.357  31.743  1.00  0.00     0.074 A 
ATOM     59  C   UNL A   1      40.598  34.437  31.857  1.00  0.00     0.031 C 
ATOM     60  C   UNL A   1      42.817  33.401  32.240  1.00  0.00     0.031 A 
BRANCH  47  61
ATOM     61  C   UNL A   1      46.075  28.218  31.331  1.00  0.00    -0.014 A 
ATOM     62  C   UNL A   1      47.142  28.257  30.414  1.00  0.00     0.010 A 
ATOM     63  C   UNL A   1      46.214  27.458  32.506  1.00  0.00     0.010 A 
ATOM     64  C   UNL A   1      48.298  27.503  30.639  1.00  0.00     0.020 A 
ATOM     65  C   UNL A   1      47.382  26.730  32.752  1.00  0.00     0.020 A 
ATOM     66  C   UNL A   1      48.408  26.739  31.804  1.00  0.00     0.054 A 
BRANCH  66  67
ATOM     67  S   UNL A   1      49.918  25.773  32.069  1.00  0.00     0.124 S 
ATOM     68  O   UNL A   1      50.854  26.797  32.526  1.00  0.00    -0.237 OA
ATOM     69  O   UNL A   1      49.505  24.803  33.080  1.00  0.00    -0.237 OA
ATOM     70  O   UNL A   1      50.207  25.211  30.751  1.00  0.00    -0.744 OA
ENDBRANCH  66  67
ENDBRANCH  47  61
BRANCH  48  71
ATOM     71  C   UNL A   1      37.306  32.784  29.799  1.00  0.00    -0.014 A 
ATOM     72  C   UNL A   1      36.333  32.805  30.814  1.00  0.00     0.010 A 
ATOM     73  C   UNL A   1      37.034  33.432  28.580  1.00  0.00     0.010 A 
ATOM     74  C   UNL A   1      35.106  33.445  30.609  1.00  0.00     0.020 A 
ATOM     75  C   UNL A   1      35.821  34.098  28.382  1.00  0.00     0.020 A 
ATOM     76  C   UNL A   1      34.861  34.091  29.395  1.00  0.00     0.054 A 
BRANCH  76  77
ATOM     77  S   UNL A   1      33.282  34.959  29.175  1.00  0.00     0.124 S 
ATOM     78  O   UNL A   1      32.612  34.126  28.182  1.00  0.00    -0.237 OA
ATOM     79  O   UNL A   1      32.714  34.925  30.520  1.00  0.00    -0.237 OA
ATOM     80  O   UNL A   1      33.684  36.286  28.712  1.00  0.00    -0.744 OA
ENDBRANCH  76  77
ENDBRANCH  48  71
BRANCH  60  81
ATOM     81  C   UNL A   1      43.253  34.672  32.919  1.00  0.00    -0.014 A 
ATOM     82  C   UNL A   1      43.871  35.711  32.204  1.00  0.00     0.010 A 
ATOM     83  C   UNL A   1      42.984  34.848  34.290  1.00  0.00     0.010 A 
ATOM     84  C   UNL A   1      44.242  36.892  32.854  1.00  0.00     0.020 A 
ATOM     85  C   UNL A   1      43.323  36.040  34.935  1.00  0.00     0.020 A 
ATOM     86  C   UNL A   1      43.963  37.049  34.215  1.00  0.00     0.054 A 
BRANCH  86  87
ATOM     87  S   UNL A   1      44.411  38.610  35.023  1.00  0.00     0.124 S 
ATOM     88  O   UNL A   1      45.806  38.771  34.622  1.00  0.00    -0.237 OA
ATOM     89  O   UNL A   1      43.472  39.558  34.428  1.00  0.00    -0.237 OA
ATOM     90  O   UNL A   1      44.197  38.340  36.443  1.00  0.00    -0.744 OA
ENDBRANCH  86  87
ENDBRANCH  60  81
ENDBRANCH  34  35
ENDBRANCH  26  29
ENDBRANCH  24  25
ENDBRANCH  23  24
ENDBRANCH   1  23
TORSDOF 17
ENDMDL
MODEL 3
REMARK VINA RESULT:     -10.5      0.535      8.258
REMARK SMILES O=C(N[C@@H]1C=C[C@@H](C(=O)NCCCCNC(=O)c2ccc(-c3c4nc(c(-c5ccc(S(=O)(=O)[O-])cc5)c5ccc([nH]5)c(-c5ccc(S(=O)(=O)[O-])cc5)c5nc(c(-c6ccc(S(=O)(=O)[O-])cc6)c6ccc3[nH]6)C=C5)C=C4)cc2)C1)Oc1ccccc1
REMARK SMILES IDX 12 1 11 2 10 3 8 4 9 5 7 7 4 8 5 9 78 10 6 11 3 12 1 13 2 14
REMARK SMILES IDX 79 16 80 17 81 18 85 19 82 20 84 21 83 22 13 23 14 24 15 25
REMARK SMILES IDX 16 26 17 28 18 29 19 30 77 31 20 32 76 33 21 34 22 35 23 36
REMARK SMILES IDX 70 37 24 38 75 39 69 40 71 41 25 42 74 43 68 44 67 45 26 47
REMARK SMILES IDX 56 48 37 49 55 50 38 51 41 52 54 53 72 54 39 55 40 56 53 58
REMARK SMILES IDX 73 59 42 60 27 61 28 62 36 63 29 64 35 65 30 66 31 67 32 68
REMARK SMILES IDX 33 69 34 70 57 71 58 72 66 73 59 74 65 75 60 76 61 77 62 78
REMARK SMILES IDX 63 79 64 80 43 81 44 82 52 83 45 84 51 85 46 86 47 87 48 88
REMARK SMILES IDX 49 89 50 90
REMARK H PARENT 10 6 3 15 15 27 71 46 41 57
REMARK Flexibility Score: inf
ROOT
ATOM      1  C   UNL A   1      35.414  21.996  26.247  1.00  0.00     0.023 C 
ENDROOT
BRANCH   1   2
ATOM      2  C   UNL A   1      35.036  21.201  25.004  1.00  0.00     0.116 C 
BRANCH   2   3
ATOM      3  N   UNL A   1      34.228  20.046  25.329  1.00  0.00    -0.356 N 
ATOM      4  C   UNL A   1      32.889  19.828  25.228  1.00  0.00     0.227 C 
ATOM      5  O   UNL A   1      32.475  18.717  25.574  1.00  0.00    -0.274 OA
ATOM      6  H   UNL A   1      34.736  19.282  25.686  1.00  0.00     0.163 HD
BRANCH   4   7
ATOM      7  C   UNL A   1      31.895  20.880  24.715  1.00  0.00     0.103 C 
ATOM      8  C   UNL A   1      31.868  23.335  24.941  1.00  0.00     0.109 C 
ATOM      9  C   UNL A   1      32.251  22.895  23.562  1.00  0.00    -0.006 C 
ATOM     10  C   UNL A   1      31.588  22.024  25.690  1.00  0.00     0.047 C 
ATOM     11  C   UNL A   1      32.297  21.563  23.446  1.00  0.00    -0.016 C 
BRANCH   8  12
ATOM     12  N   UNL A   1      30.723  24.202  24.831  1.00  0.00    -0.315 N 
ATOM     13  O   UNL A   1      29.243  25.800  25.341  1.00  0.00    -0.224 OA
ATOM     14  C   UNL A   1      30.346  25.294  25.558  1.00  0.00     0.413 C 
ATOM     15  H   UNL A   1      30.103  23.963  24.104  1.00  0.00     0.167 HD
BRANCH  14  16
ATOM     16  O   UNL A   1      31.158  25.791  26.588  1.00  0.00    -0.410 OA
BRANCH  16  17
ATOM     17  C   UNL A   1      31.983  26.939  26.665  1.00  0.00     0.132 A 
ATOM     18  C   UNL A   1      33.268  26.827  26.138  1.00  0.00     0.047 A 
ATOM     19  C   UNL A   1      31.560  28.092  27.321  1.00  0.00     0.047 A 
ATOM     20  C   UNL A   1      34.130  27.918  26.213  1.00  0.00     0.004 A 
ATOM     21  C   UNL A   1      32.423  29.187  27.378  1.00  0.00     0.004 A 
ATOM     22  C   UNL A   1      33.705  29.100  26.826  1.00  0.00     0.000 A 
ENDBRANCH  16  17
ENDBRANCH  14  16
ENDBRANCH   8  12
ENDBRANCH   4   7
ENDBRANCH   2   3
ENDBRANCH   1   2
BRANCH   1  23
ATOM     23  C   UNL A   1      35.679  23.481  26.017  1.00  0.00     0.023 C 
BRANCH  23  24
ATOM     24  C   UNL A   1      36.926  23.787  25.196  1.00  0.00     0.116 C 
BRANCH  24  25
ATOM     25  N   UNL A   1      38.012  22.838  25.407  1.00  0.00    -0.352 N 
ATOM     26  C   UNL A   1      39.197  23.012  26.088  1.00  0.00     0.251 C 
ATOM     27  H   UNL A   1      37.881  21.948  25.005  1.00  0.00     0.163 HD
ATOM     28  O   UNL A   1      40.045  22.126  26.075  1.00  0.00    -0.269 OA
BRANCH  26  29
ATOM     29  C   UNL A   1      39.452  24.288  26.792  1.00  0.00     0.039 A 
ATOM     30  C   UNL A   1      38.995  24.447  28.103  1.00  0.00     0.014 A 
ATOM     31  C   UNL A   1      40.201  25.296  26.183  1.00  0.00     0.014 A 
ATOM     32  C   UNL A   1      39.373  25.577  28.833  1.00  0.00     0.010 A 
ATOM     33  C   UNL A   1      40.663  26.364  26.943  1.00  0.00     0.010 A 
ATOM     34  C   UNL A   1      40.256  26.518  28.277  1.00  0.00    -0.014 A 
BRANCH  34  35
ATOM     35  C   UNL A   1      40.778  27.666  29.065  1.00  0.00     0.031 A 
ATOM     36  C   UNL A   1      39.918  28.882  29.285  1.00  0.00     0.074 A 
ATOM     37  C   UNL A   1      42.054  27.654  29.504  1.00  0.00     0.049 A 
ATOM     38  N   UNL A   1      40.219  30.011  29.872  1.00  0.00    -0.248 NA
ATOM     39  C   UNL A   1      38.548  28.834  28.746  1.00  0.00     0.031 C 
ATOM     40  C   UNL A   1      43.008  26.557  29.317  1.00  0.00     0.029 A 
ATOM     41  N   UNL A   1      42.772  28.596  30.199  1.00  0.00    -0.354 N 
ATOM     42  C   UNL A   1      39.091  30.816  29.744  1.00  0.00     0.074 A 
ATOM     43  C   UNL A   1      38.123  30.067  28.974  1.00  0.00     0.031 C 
ATOM     44  C   UNL A   1      44.166  26.871  29.919  1.00  0.00     0.029 A 
ATOM     45  C   UNL A   1      44.059  28.209  30.491  1.00  0.00     0.049 A 
ATOM     46  H   UNL A   1      42.398  29.469  30.462  1.00  0.00     0.167 HD
ATOM     47  C   UNL A   1      38.870  32.057  30.241  1.00  0.00     0.031 A 
ATOM     48  C   UNL A   1      45.043  28.858  31.144  1.00  0.00     0.031 A 
ATOM     49  C   UNL A   1      39.830  32.789  31.022  1.00  0.00     0.049 A 
ATOM     50  C   UNL A   1      44.780  30.241  31.675  1.00  0.00     0.074 A 
ATOM     51  C   UNL A   1      39.680  34.022  31.632  1.00  0.00     0.029 A 
ATOM     52  N   UNL A   1      41.120  32.361  31.296  1.00  0.00    -0.354 N 
ATOM     53  N   UNL A   1      43.680  30.954  31.610  1.00  0.00    -0.248 NA
ATOM     54  C   UNL A   1      45.888  30.903  32.376  1.00  0.00     0.031 C 
ATOM     55  C   UNL A   1      40.901  34.366  32.221  1.00  0.00     0.029 A 
ATOM     56  C   UNL A   1      41.789  33.318  32.040  1.00  0.00     0.049 A 
ATOM     57  H   UNL A   1      41.504  31.502  31.004  1.00  0.00     0.167 HD
ATOM     58  C   UNL A   1      43.954  32.135  32.293  1.00  0.00     0.074 A 
ATOM     59  C   UNL A   1      45.318  32.033  32.771  1.00  0.00     0.031 C 
ATOM     60  C   UNL A   1      43.148  33.203  32.508  1.00  0.00     0.031 A 
BRANCH  47  61
ATOM     61  C   UNL A   1      37.541  32.700  29.938  1.00  0.00    -0.014 A 
ATOM     62  C   UNL A   1      37.366  33.525  28.811  1.00  0.00     0.010 A 
ATOM     63  C   UNL A   1      36.443  32.462  30.785  1.00  0.00     0.010 A 
ATOM     64  C   UNL A   1      36.137  34.146  28.571  1.00  0.00     0.020 A 
ATOM     65  C   UNL A   1      35.203  33.053  30.529  1.00  0.00     0.020 A 
ATOM     66  C   UNL A   1      35.064  33.911  29.436  1.00  0.00     0.054 A 
BRANCH  66  67
ATOM     67  S   UNL A   1      33.483  34.730  29.098  1.00  0.00     0.124 S 
ATOM     68  O   UNL A   1      33.918  35.989  28.498  1.00  0.00    -0.237 OA
ATOM     69  O   UNL A   1      32.826  33.795  28.189  1.00  0.00    -0.237 OA
ATOM     70  O   UNL A   1      32.866  34.851  30.417  1.00  0.00    -0.744 OA
ENDBRANCH  66  67
ENDBRANCH  47  61
BRANCH  48  71
ATOM     71  C   UNL A   1      46.359  28.194  31.362  1.00  0.00    -0.014 A 
ATOM     72  C   UNL A   1      46.572  27.406  32.508  1.00  0.00     0.010 A 
ATOM     73  C   UNL A   1      47.402  28.334  30.427  1.00  0.00     0.010 A 
ATOM     74  C   UNL A   1      47.806  26.784  32.723  1.00  0.00     0.020 A 
ATOM     75  C   UNL A   1      48.626  27.690  30.625  1.00  0.00     0.020 A 
ATOM     76  C   UNL A   1      48.824  26.927  31.777  1.00  0.00     0.054 A 
BRANCH  76  77
ATOM     77  S   UNL A   1      50.397  26.066  32.054  1.00  0.00     0.124 S 
ATOM     78  O   UNL A   1      50.287  24.931  31.145  1.00  0.00    -0.237 OA
ATOM     79  O   UNL A   1      51.381  27.081  31.686  1.00  0.00    -0.237 OA
ATOM     80  O   UNL A   1      50.358  25.736  33.478  1.00  0.00    -0.744 OA
ENDBRANCH  76  77
ENDBRANCH  48  71
BRANCH  60  81
ATOM     81  C   UNL A   1      43.702  34.337  33.330  1.00  0.00    -0.014 A 
ATOM     82  C   UNL A   1      44.319  35.446  32.728  1.00  0.00     0.010 A 
ATOM     83  C   UNL A   1      43.547  34.314  34.729  1.00  0.00     0.010 A 
ATOM     84  C   UNL A   1      44.802  36.498  33.513  1.00  0.00     0.020 A 
ATOM     85  C   UNL A   1      43.998  35.378  35.514  1.00  0.00     0.020 A 
ATOM     86  C   UNL A   1      44.635  36.458  34.901  1.00  0.00     0.054 A 
BRANCH  86  87
ATOM     87  S   UNL A   1      45.226  37.857  35.891  1.00  0.00     0.124 S 
ATOM     88  O   UNL A   1      43.980  38.537  36.232  1.00  0.00    -0.237 OA
ATOM     89  O   UNL A   1      45.907  37.197  37.002  1.00  0.00    -0.237 OA
ATOM     90  O   UNL A   1      46.103  38.584  34.976  1.00  0.00    -0.744 OA
ENDBRANCH  86  87
ENDBRANCH  60  81
ENDBRANCH  34  35
ENDBRANCH  26  29
ENDBRANCH  24  25
ENDBRANCH  23  24
ENDBRANCH   1  23
TORSDOF 17
ENDMDL
