MODEL 1
REMARK VINA RESULT:     -12.9      0.000      0.000
REMARK SMILES O=C(NCCCCNC(=O)c1ccc(-c2c3nc(c(-c4ccc(S(=O)(=O)[O-])cc4)c4ccc([nH]4)c(-c4ccc(S(=O)(=O)[O-])cc4)c4nc(c(-c5ccc(S(=O)(=O)[O-])cc5)c5ccc2[nH]5)C=C4)C=C3)cc1)C1=Cc2cc(S(F)(F)(F)(F)F)cc(Br)c2O[C@@H]1C(F)(F)F
REMARK SMILES IDX 6 1 5 2 4 3 3 4 1 5 2 6 71 8 72 9 87 10 73 11 86 12 74 13
REMARK SMILES IDX 85 14 75 15 83 16 82 17 84 18 88 19 89 20 90 21 91 22 76 23
REMARK SMILES IDX 77 24 78 25 79 26 80 27 81 28 7 29 8 30 9 31 10 33 11 34
REMARK SMILES IDX 12 35 70 36 13 37 69 38 14 39 15 40 16 41 63 42 17 43 68 44
REMARK SMILES IDX 62 45 64 46 18 47 67 48 61 49 60 50 19 52 49 53 30 54 48 55
REMARK SMILES IDX 31 56 34 57 47 58 65 59 32 60 33 61 46 63 66 64 35 65 20 66
REMARK SMILES IDX 21 67 29 68 22 69 28 70 23 71 24 72 25 73 26 74 27 75 50 76
REMARK SMILES IDX 51 77 59 78 52 79 58 80 53 81 54 82 55 83 56 84 57 85 36 86
REMARK SMILES IDX 37 87 45 88 38 89 44 90 39 91 40 92 41 93 42 94 43 95
REMARK H PARENT 3 7 8 32 64 51 34 62
REMARK Flexibility Score: inf
ROOT
ATOM      1  C   UNL A   1      32.880  27.595  26.205  1.00  0.00     0.023 C 
ENDROOT
BRANCH   1   2
ATOM      2  C   UNL A   1      33.428  26.851  24.998  1.00  0.00     0.023 C 
BRANCH   2   3
ATOM      3  C   UNL A   1      33.653  25.392  25.360  1.00  0.00     0.116 C 
BRANCH   3   4
ATOM      4  N   UNL A   1      33.983  24.630  24.147  1.00  0.00    -0.352 N 
ATOM      5  O   UNL A   1      33.438  22.825  22.702  1.00  0.00    -0.270 OA
ATOM      6  C   UNL A   1      33.153  23.484  23.751  1.00  0.00     0.251 C 
ATOM      7  H   UNL A   1      34.759  24.888  23.599  1.00  0.00     0.163 HD
BRANCH   6   8
ATOM      8  C   UNL A   1      31.954  23.085  24.596  1.00  0.00     0.067 C 
ATOM      9  C   UNL A   1      31.885  21.837  25.134  1.00  0.00     0.025 C 
ATOM     10  C   UNL A   1      30.832  24.081  24.842  1.00  0.00     0.314 C 
ATOM     11  C   UNL A   1      33.007  20.841  24.888  1.00  0.00     0.020 A 
ATOM     12  O   UNL A   1      34.529  22.627  25.260  1.00  0.00    -0.474 OA
ATOM     13  C   UNL A   1      32.713  19.547  24.491  1.00  0.00     0.036 A 
ATOM     14  C   UNL A   1      34.263  21.255  25.009  1.00  0.00     0.142 A 
ATOM     15  C   UNL A   1      33.823  18.672  24.522  1.00  0.00     0.109 A 
ATOM     16  C   UNL A   1      35.306  20.369  24.893  1.00  0.00     0.062 A 
ATOM     17  C   UNL A   1      35.084  19.062  24.560  1.00  0.00     0.044 A 
ATOM     18  Br  UNL A   1      37.138  20.988  25.208  1.00  0.00    -0.047 Br
BRANCH  10  19
ATOM     19  C   UNL A   1      30.694  24.331  26.335  1.00  0.00     0.429 C 
ATOM     20  F   UNL A   1      30.414  25.614  26.545  1.00  0.00    -0.167 F 
ATOM     21  F   UNL A   1      29.712  23.578  26.822  1.00  0.00    -0.167 F 
ATOM     22  F   UNL A   1      31.835  24.021  26.944  1.00  0.00    -0.167 F 
ENDBRANCH  10  19
BRANCH  15  23
ATOM     23  S   UNL A   1      33.492  16.892  24.508  1.00  0.00     0.310 S 
ATOM     24  F   UNL A   1      35.004  16.540  24.832  1.00  0.00    -0.094 F 
ATOM     25  F   UNL A   1      33.881  16.852  22.981  1.00  0.00    -0.094 F 
ATOM     26  F   UNL A   1      33.202  15.365  24.503  1.00  0.00    -0.094 F 
ATOM     27  F   UNL A   1      33.243  16.926  26.067  1.00  0.00    -0.094 F 
ATOM     28  F   UNL A   1      33.893  18.421  24.554  1.00  0.00    -0.094 F 
ENDBRANCH  15  23
ENDBRANCH   6   8
ENDBRANCH   3   4
ENDBRANCH   2   3
ENDBRANCH   1   2
BRANCH   1  29
ATOM     29  C   UNL A   1      34.015  28.322  26.908  1.00  0.00     0.116 C 
BRANCH  29  30
ATOM     30  N   UNL A   1      33.545  29.639  27.364  1.00  0.00    -0.352 N 
ATOM     31  C   UNL A   1      34.463  30.540  28.076  1.00  0.00     0.251 C 
ATOM     32  H   UNL A   1      32.617  29.916  27.192  1.00  0.00     0.163 HD
ATOM     33  O   UNL A   1      34.057  31.679  28.470  1.00  0.00    -0.269 OA
BRANCH  31  34
ATOM     34  C   UNL A   1      35.897  30.112  28.340  1.00  0.00     0.039 A 
ATOM     35  C   UNL A   1      36.838  30.311  27.344  1.00  0.00     0.014 A 
ATOM     36  C   UNL A   1      36.239  29.613  29.522  1.00  0.00     0.014 A 
ATOM     37  C   UNL A   1      38.079  29.675  27.592  1.00  0.00     0.010 A 
ATOM     38  C   UNL A   1      37.509  29.134  29.737  1.00  0.00     0.010 A 
ATOM     39  C   UNL A   1      38.475  29.243  28.775  1.00  0.00    -0.014 A 
BRANCH  39  40
ATOM     40  C   UNL A   1      39.926  28.885  29.053  1.00  0.00     0.031 A 
ATOM     41  C   UNL A   1      40.368  27.604  28.722  1.00  0.00     0.074 A 
ATOM     42  C   UNL A   1      40.718  29.846  29.659  1.00  0.00     0.049 A 
ATOM     43  N   UNL A   1      41.591  27.097  28.888  1.00  0.00    -0.248 NA
ATOM     44  C   UNL A   1      39.519  26.571  28.109  1.00  0.00     0.031 C 
ATOM     45  C   UNL A   1      40.281  31.144  29.989  1.00  0.00     0.029 A 
ATOM     46  N   UNL A   1      42.034  29.733  30.048  1.00  0.00    -0.354 N 
ATOM     47  C   UNL A   1      41.636  25.843  28.433  1.00  0.00     0.074 A 
ATOM     48  C   UNL A   1      40.303  25.485  27.930  1.00  0.00     0.031 C 
ATOM     49  C   UNL A   1      41.315  31.800  30.577  1.00  0.00     0.029 A 
ATOM     50  C   UNL A   1      42.416  30.924  30.625  1.00  0.00     0.049 A 
ATOM     51  H   UNL A   1      42.604  28.939  29.933  1.00  0.00     0.167 HD
ATOM     52  C   UNL A   1      42.737  24.986  28.414  1.00  0.00     0.031 A 
ATOM     53  C   UNL A   1      43.648  31.246  31.170  1.00  0.00     0.031 A 
ATOM     54  C   UNL A   1      43.982  25.324  28.920  1.00  0.00     0.049 A 
ATOM     55  C   UNL A   1      44.734  30.367  31.205  1.00  0.00     0.074 A 
ATOM     56  C   UNL A   1      45.105  24.474  28.902  1.00  0.00     0.029 A 
ATOM     57  N   UNL A   1      44.358  26.506  29.519  1.00  0.00    -0.354 N 
ATOM     58  N   UNL A   1      44.791  29.129  30.713  1.00  0.00    -0.248 NA
ATOM     59  C   UNL A   1      46.035  30.686  31.808  1.00  0.00     0.031 C 
ATOM     60  C   UNL A   1      46.140  25.131  29.492  1.00  0.00     0.029 A 
ATOM     61  C   UNL A   1      45.681  26.401  29.887  1.00  0.00     0.049 A 
ATOM     62  H   UNL A   1      43.779  27.290  29.661  1.00  0.00     0.167 HD
ATOM     63  C   UNL A   1      46.002  28.608  30.918  1.00  0.00     0.074 A 
ATOM     64  C   UNL A   1      46.818  29.600  31.632  1.00  0.00     0.031 C 
ATOM     65  C   UNL A   1      46.462  27.347  30.534  1.00  0.00     0.031 A 
BRANCH  52  66
ATOM     66  C   UNL A   1      42.561  23.605  27.806  1.00  0.00    -0.014 A 
ATOM     67  C   UNL A   1      42.059  22.579  28.590  1.00  0.00     0.010 A 
ATOM     68  C   UNL A   1      42.886  23.403  26.534  1.00  0.00     0.010 A 
ATOM     69  C   UNL A   1      42.207  21.293  28.017  1.00  0.00     0.020 A 
ATOM     70  C   UNL A   1      42.878  22.136  26.002  1.00  0.00     0.020 A 
ATOM     71  C   UNL A   1      42.450  21.067  26.739  1.00  0.00     0.054 A 
BRANCH  71  72
ATOM     72  S   UNL A   1      42.228  19.429  26.002  1.00  0.00     0.124 S 
ATOM     73  O   UNL A   1      40.742  19.196  25.716  1.00  0.00    -0.237 OA
ATOM     74  O   UNL A   1      43.018  19.346  24.694  1.00  0.00    -0.237 OA
ATOM     75  O   UNL A   1      42.794  18.234  27.087  1.00  0.00    -0.744 OA
ENDBRANCH  71  72
ENDBRANCH  52  66
BRANCH  53  76
ATOM     76  C   UNL A   1      43.829  32.633  31.764  1.00  0.00    -0.014 A 
ATOM     77  C   UNL A   1      43.530  32.841  33.101  1.00  0.00     0.010 A 
ATOM     78  C   UNL A   1      44.270  33.621  30.995  1.00  0.00     0.010 A 
ATOM     79  C   UNL A   1      43.455  34.206  33.466  1.00  0.00     0.020 A 
ATOM     80  C   UNL A   1      44.296  34.913  31.463  1.00  0.00     0.020 A 
ATOM     81  C   UNL A   1      43.958  35.200  32.756  1.00  0.00     0.054 A 
BRANCH  81  82
ATOM     82  S   UNL A   1      44.186  36.852  33.458  1.00  0.00     0.124 S 
ATOM     83  O   UNL A   1      45.458  36.874  34.310  1.00  0.00    -0.237 OA
ATOM     84  O   UNL A   1      44.315  37.875  32.325  1.00  0.00    -0.237 OA
ATOM     85  O   UNL A   1      42.839  37.249  34.433  1.00  0.00    -0.744 OA
ENDBRANCH  81  82
ENDBRANCH  53  76
BRANCH  65  86
ATOM     86  C   UNL A   1      47.906  26.988  30.844  1.00  0.00    -0.014 A 
ATOM     87  C   UNL A   1      48.198  26.373  32.050  1.00  0.00     0.010 A 
ATOM     88  C   UNL A   1      48.855  27.235  29.949  1.00  0.00     0.010 A 
ATOM     89  C   UNL A   1      49.580  26.314  32.344  1.00  0.00     0.020 A 
ATOM     90  C   UNL A   1      50.178  27.027  30.257  1.00  0.00     0.020 A 
ATOM     91  C   UNL A   1      50.542  26.476  31.454  1.00  0.00     0.054 A 
BRANCH  91  92
ATOM     92  S   UNL A   1      52.253  25.994  31.801  1.00  0.00     0.124 S 
ATOM     93  O   UNL A   1      52.293  24.524  32.223  1.00  0.00    -0.237 OA
ATOM     94  O   UNL A   1      53.102  26.188  30.543  1.00  0.00    -0.237 OA
ATOM     95  O   UNL A   1      52.874  26.967  33.063  1.00  0.00    -0.744 OA
ENDBRANCH  91  92
ENDBRANCH  65  86
ENDBRANCH  39  40
ENDBRANCH  31  34
ENDBRANCH  29  30
ENDBRANCH   1  29
TORSDOF 16
ENDMDL
MODEL 2
REMARK VINA RESULT:     -12.7      2.262      2.842
REMARK SMILES O=C(NCCCCNC(=O)c1ccc(-c2c3nc(c(-c4ccc(S(=O)(=O)[O-])cc4)c4ccc([nH]4)c(-c4ccc(S(=O)(=O)[O-])cc4)c4nc(c(-c5ccc(S(=O)(=O)[O-])cc5)c5ccc2[nH]5)C=C4)C=C3)cc1)C1=Cc2cc(S(F)(F)(F)(F)F)cc(Br)c2O[C@@H]1C(F)(F)F
REMARK SMILES IDX 6 1 5 2 4 3 3 4 1 5 2 6 71 8 72 9 87 10 73 11 86 12 74 13
REMARK SMILES IDX 85 14 75 15 83 16 82 17 84 18 88 19 89 20 90 21 91 22 76 23
REMARK SMILES IDX 77 24 78 25 79 26 80 27 81 28 7 29 8 30 9 31 10 33 11 34
REMARK SMILES IDX 12 35 70 36 13 37 69 38 14 39 15 40 16 41 63 42 17 43 68 44
REMARK SMILES IDX 62 45 64 46 18 47 67 48 61 49 60 50 19 52 49 53 30 54 48 55
REMARK SMILES IDX 31 56 34 57 47 58 65 59 32 60 33 61 46 63 66 64 35 65 20 66
REMARK SMILES IDX 21 67 29 68 22 69 28 70 23 71 24 72 25 73 26 74 27 75 50 76
REMARK SMILES IDX 51 77 59 78 52 79 58 80 53 81 54 82 55 83 56 84 57 85 36 86
REMARK SMILES IDX 37 87 45 88 38 89 44 90 39 91 40 92 41 93 42 94 43 95
REMARK H PARENT 3 7 8 32 64 51 34 62
REMARK Flexibility Score: inf
ROOT
ATOM      1  C   UNL A   1      33.086  27.808  25.817  1.00  0.00     0.023 C 
ENDROOT
BRANCH   1   2
ATOM      2  C   UNL A   1      32.134  26.748  26.349  1.00  0.00     0.023 C 
BRANCH   2   3
ATOM      3  C   UNL A   1      32.801  25.385  26.275  1.00  0.00     0.116 C 
BRANCH   3   4
ATOM      4  N   UNL A   1      31.857  24.407  25.714  1.00  0.00    -0.352 N 
ATOM      5  O   UNL A   1      30.995  23.333  23.779  1.00  0.00    -0.270 OA
ATOM      6  C   UNL A   1      31.811  24.178  24.263  1.00  0.00     0.251 C 
ATOM      7  H   UNL A   1      31.256  23.906  26.311  1.00  0.00     0.163 HD
BRANCH   6   8
ATOM      8  C   UNL A   1      32.740  24.952  23.342  1.00  0.00     0.067 C 
ATOM      9  C   UNL A   1      34.066  24.650  23.302  1.00  0.00     0.025 C 
ATOM     10  C   UNL A   1      32.187  26.065  22.466  1.00  0.00     0.314 C 
ATOM     11  C   UNL A   1      34.619  23.538  24.178  1.00  0.00     0.020 A 
ATOM     12  O   UNL A   1      32.701  22.266  23.587  1.00  0.00    -0.474 OA
ATOM     13  C   UNL A   1      35.762  23.750  24.931  1.00  0.00     0.036 A 
ATOM     14  C   UNL A   1      33.953  22.391  24.245  1.00  0.00     0.142 A 
ATOM     15  C   UNL A   1      36.290  22.574  25.513  1.00  0.00     0.109 A 
ATOM     16  C   UNL A   1      34.464  21.326  24.946  1.00  0.00     0.062 A 
ATOM     17  C   UNL A   1      35.620  21.447  25.664  1.00  0.00     0.044 A 
ATOM     18  Br  UNL A   1      33.521  19.608  24.915  1.00  0.00    -0.047 Br
BRANCH  10  19
ATOM     19  C   UNL A   1      32.444  25.734  21.005  1.00  0.00     0.429 C 
ATOM     20  F   UNL A   1      33.437  26.491  20.547  1.00  0.00    -0.167 F 
ATOM     21  F   UNL A   1      32.776  24.451  20.891  1.00  0.00    -0.167 F 
ATOM     22  F   UNL A   1      31.343  25.971  20.296  1.00  0.00    -0.167 F 
ENDBRANCH  10  19
BRANCH  15  23
ATOM     23  S   UNL A   1      38.005  22.619  26.092  1.00  0.00     0.310 S 
ATOM     24  F   UNL A   1      38.356  23.857  25.166  1.00  0.00    -0.094 F 
ATOM     25  F   UNL A   1      38.415  21.688  24.888  1.00  0.00    -0.094 F 
ATOM     26  F   UNL A   1      39.475  22.659  26.597  1.00  0.00    -0.094 F 
ATOM     27  F   UNL A   1      37.602  23.661  27.208  1.00  0.00    -0.094 F 
ATOM     28  F   UNL A   1      36.531  22.678  25.524  1.00  0.00    -0.094 F 
ENDBRANCH  15  23
ENDBRANCH   6   8
ENDBRANCH   3   4
ENDBRANCH   2   3
ENDBRANCH   1   2
BRANCH   1  29
ATOM     29  C   UNL A   1      33.961  28.317  26.951  1.00  0.00     0.116 C 
BRANCH  29  30
ATOM     30  N   UNL A   1      33.505  29.653  27.361  1.00  0.00    -0.352 N 
ATOM     31  C   UNL A   1      34.432  30.568  28.044  1.00  0.00     0.251 C 
ATOM     32  H   UNL A   1      32.580  29.934  27.178  1.00  0.00     0.163 HD
ATOM     33  O   UNL A   1      34.037  31.723  28.398  1.00  0.00    -0.269 OA
BRANCH  31  34
ATOM     34  C   UNL A   1      35.861  30.133  28.325  1.00  0.00     0.039 A 
ATOM     35  C   UNL A   1      36.814  30.325  27.339  1.00  0.00     0.014 A 
ATOM     36  C   UNL A   1      36.187  29.635  29.512  1.00  0.00     0.014 A 
ATOM     37  C   UNL A   1      38.048  29.684  27.602  1.00  0.00     0.010 A 
ATOM     38  C   UNL A   1      37.452  29.151  29.743  1.00  0.00     0.010 A 
ATOM     39  C   UNL A   1      38.429  29.252  28.791  1.00  0.00    -0.014 A 
BRANCH  39  40
ATOM     40  C   UNL A   1      39.875  28.888  29.086  1.00  0.00     0.031 A 
ATOM     41  C   UNL A   1      40.318  27.608  28.751  1.00  0.00     0.074 A 
ATOM     42  C   UNL A   1      40.661  29.841  29.710  1.00  0.00     0.049 A 
ATOM     43  N   UNL A   1      41.537  27.096  28.930  1.00  0.00    -0.248 NA
ATOM     44  C   UNL A   1      39.475  26.582  28.118  1.00  0.00     0.031 C 
ATOM     45  C   UNL A   1      40.224  31.138  30.044  1.00  0.00     0.029 A 
ATOM     46  N   UNL A   1      41.972  29.721  30.117  1.00  0.00    -0.354 N 
ATOM     47  C   UNL A   1      41.585  25.845  28.465  1.00  0.00     0.074 A 
ATOM     48  C   UNL A   1      40.258  25.496  27.941  1.00  0.00     0.031 C 
ATOM     49  C   UNL A   1      41.251  31.786  30.652  1.00  0.00     0.029 A 
ATOM     50  C   UNL A   1      42.349  30.906  30.709  1.00  0.00     0.049 A 
ATOM     51  H   UNL A   1      42.541  28.926  30.003  1.00  0.00     0.167 HD
ATOM     52  C   UNL A   1      42.684  24.985  28.455  1.00  0.00     0.031 A 
ATOM     53  C   UNL A   1      43.575  31.220  31.272  1.00  0.00     0.031 A 
ATOM     54  C   UNL A   1      43.923  25.315  28.981  1.00  0.00     0.049 A 
ATOM     55  C   UNL A   1      44.658  30.338  31.316  1.00  0.00     0.074 A 
ATOM     56  C   UNL A   1      45.043  24.462  28.972  1.00  0.00     0.029 A 
ATOM     57  N   UNL A   1      44.293  26.491  29.594  1.00  0.00    -0.354 N 
ATOM     58  N   UNL A   1      44.717  29.103  30.815  1.00  0.00    -0.248 NA
ATOM     59  C   UNL A   1      45.951  30.648  31.939  1.00  0.00     0.031 C 
ATOM     60  C   UNL A   1      46.072  25.111  29.580  1.00  0.00     0.029 A 
ATOM     61  C   UNL A   1      45.611  26.380  29.980  1.00  0.00     0.049 A 
ATOM     62  H   UNL A   1      43.715  27.276  29.735  1.00  0.00     0.167 HD
ATOM     63  C   UNL A   1      45.924  28.577  31.032  1.00  0.00     0.074 A 
ATOM     64  C   UNL A   1      46.733  29.561  31.765  1.00  0.00     0.031 C 
ATOM     65  C   UNL A   1      46.385  27.318  30.644  1.00  0.00     0.031 A 
BRANCH  52  66
ATOM     66  C   UNL A   1      42.512  23.610  27.833  1.00  0.00    -0.014 A 
ATOM     67  C   UNL A   1      42.121  22.549  28.634  1.00  0.00     0.010 A 
ATOM     68  C   UNL A   1      42.734  23.446  26.534  1.00  0.00     0.010 A 
ATOM     69  C   UNL A   1      42.271  21.282  28.023  1.00  0.00     0.020 A 
ATOM     70  C   UNL A   1      42.732  22.189  25.977  1.00  0.00     0.020 A 
ATOM     71  C   UNL A   1      42.413  21.090  26.723  1.00  0.00     0.054 A 
BRANCH  71  72
ATOM     72  S   UNL A   1      42.194  19.458  25.972  1.00  0.00     0.124 S 
ATOM     73  O   UNL A   1      40.709  19.225  25.681  1.00  0.00    -0.237 OA
ATOM     74  O   UNL A   1      42.988  19.387  24.665  1.00  0.00    -0.237 OA
ATOM     75  O   UNL A   1      42.759  18.254  27.048  1.00  0.00    -0.744 OA
ENDBRANCH  71  72
ENDBRANCH  52  66
BRANCH  53  76
ATOM     76  C   UNL A   1      43.751  32.602  31.880  1.00  0.00    -0.014 A 
ATOM     77  C   UNL A   1      44.223  33.636  31.087  1.00  0.00     0.010 A 
ATOM     78  C   UNL A   1      43.452  32.797  33.159  1.00  0.00     0.010 A 
ATOM     79  C   UNL A   1      44.620  34.782  31.815  1.00  0.00     0.020 A 
ATOM     80  C   UNL A   1      43.745  33.991  33.772  1.00  0.00     0.020 A 
ATOM     81  C   UNL A   1      44.266  35.037  33.062  1.00  0.00     0.054 A 
BRANCH  81  82
ATOM     82  S   UNL A   1      44.463  36.681  33.792  1.00  0.00     0.124 S 
ATOM     83  O   UNL A   1      43.863  36.690  35.200  1.00  0.00    -0.237 OA
ATOM     84  O   UNL A   1      45.951  37.030  33.870  1.00  0.00    -0.237 OA
ATOM     85  O   UNL A   1      43.657  37.836  32.822  1.00  0.00    -0.744 OA
ENDBRANCH  81  82
ENDBRANCH  53  76
BRANCH  65  86
ATOM     86  C   UNL A   1      47.824  26.952  30.971  1.00  0.00    -0.014 A 
ATOM     87  C   UNL A   1      48.813  27.234  30.043  1.00  0.00     0.010 A 
ATOM     88  C   UNL A   1      48.117  26.404  32.145  1.00  0.00     0.010 A 
ATOM     89  C   UNL A   1      50.060  26.632  30.333  1.00  0.00     0.020 A 
ATOM     90  C   UNL A   1      49.389  25.960  32.411  1.00  0.00     0.020 A 
ATOM     91  C   UNL A   1      50.403  26.153  31.514  1.00  0.00     0.054 A 
BRANCH  91  92
ATOM     92  S   UNL A   1      52.125  25.772  31.926  1.00  0.00     0.124 S 
ATOM     93  O   UNL A   1      52.256  24.281  32.242  1.00  0.00    -0.237 OA
ATOM     94  O   UNL A   1      53.023  26.123  30.737  1.00  0.00    -0.237 OA
ATOM     95  O   UNL A   1      52.601  26.689  33.289  1.00  0.00    -0.744 OA
ENDBRANCH  91  92
ENDBRANCH  65  86
ENDBRANCH  39  40
ENDBRANCH  31  34
ENDBRANCH  29  30
ENDBRANCH   1  29
TORSDOF 16
ENDMDL
MODEL 3
REMARK VINA RESULT:     -12.7      0.283      7.969
REMARK SMILES O=C(NCCCCNC(=O)c1ccc(-c2c3nc(c(-c4ccc(S(=O)(=O)[O-])cc4)c4ccc([nH]4)c(-c4ccc(S(=O)(=O)[O-])cc4)c4nc(c(-c5ccc(S(=O)(=O)[O-])cc5)c5ccc2[nH]5)C=C4)C=C3)cc1)C1=Cc2cc(S(F)(F)(F)(F)F)cc(Br)c2O[C@@H]1C(F)(F)F
REMARK SMILES IDX 6 1 5 2 4 3 3 4 1 5 2 6 71 8 72 9 87 10 73 11 86 12 74 13
REMARK SMILES IDX 85 14 75 15 83 16 82 17 84 18 88 19 89 20 90 21 91 22 76 23
REMARK SMILES IDX 77 24 78 25 79 26 80 27 81 28 7 29 8 30 9 31 10 33 11 34
REMARK SMILES IDX 12 35 70 36 13 37 69 38 14 39 15 40 16 41 63 42 17 43 68 44
REMARK SMILES IDX 62 45 64 46 18 47 67 48 61 49 60 50 19 52 49 53 30 54 48 55
REMARK SMILES IDX 31 56 34 57 47 58 65 59 32 60 33 61 46 63 66 64 35 65 20 66
REMARK SMILES IDX 21 67 29 68 22 69 28 70 23 71 24 72 25 73 26 74 27 75 50 76
REMARK SMILES IDX 51 77 59 78 52 79 58 80 53 81 54 82 55 83 56 84 57 85 36 86
REMARK SMILES IDX 37 87 45 88 38 89 44 90 39 91 40 92 41 93 42 94 43 95
REMARK H PARENT 3 7 8 32 64 51 34 62
REMARK Flexibility Score: inf
ROOT
ATOM      1  C   UNL A   1      33.117  27.472  26.108  1.00  0.00     0.023 C 
ENDROOT
BRANCH   1   2
ATOM      2  C   UNL A   1      33.591  26.695  24.890  1.00  0.00     0.023 C 
BRANCH   2   3
ATOM      3  C   UNL A   1      33.788  25.235  25.265  1.00  0.00     0.116 C 
BRANCH   3   4
ATOM      4  N   UNL A   1      34.055  24.449  24.052  1.00  0.00    -0.352 N 
ATOM      5  O   UNL A   1      33.401  22.656  22.639  1.00  0.00    -0.270 OA
ATOM      6  C   UNL A   1      33.170  23.335  23.688  1.00  0.00     0.251 C 
ATOM      7  H   UNL A   1      34.828  24.670  23.484  1.00  0.00     0.163 HD
BRANCH   6   8
ATOM      8  C   UNL A   1      31.976  22.995  24.566  1.00  0.00     0.067 C 
ATOM      9  C   UNL A   1      31.880  21.762  25.135  1.00  0.00     0.025 C 
ATOM     10  C   UNL A   1      30.890  24.031  24.807  1.00  0.00     0.314 C 
ATOM     11  C   UNL A   1      32.966  20.727  24.894  1.00  0.00     0.020 A 
ATOM     12  O   UNL A   1      34.549  22.474  25.192  1.00  0.00    -0.474 OA
ATOM     13  C   UNL A   1      32.624  19.433  24.535  1.00  0.00     0.036 A 
ATOM     14  C   UNL A   1      34.236  21.105  24.980  1.00  0.00     0.142 A 
ATOM     15  C   UNL A   1      33.708  18.525  24.567  1.00  0.00     0.109 A 
ATOM     16  C   UNL A   1      35.249  20.184  24.866  1.00  0.00     0.062 A 
ATOM     17  C   UNL A   1      34.981  18.877  24.571  1.00  0.00     0.044 A 
ATOM     18  Br  UNL A   1      37.105  20.754  25.131  1.00  0.00    -0.047 Br
BRANCH  10  19
ATOM     19  C   UNL A   1      30.789  24.321  26.296  1.00  0.00     0.429 C 
ATOM     20  F   UNL A   1      31.948  24.036  26.883  1.00  0.00    -0.167 F 
ATOM     21  F   UNL A   1      30.505  25.608  26.478  1.00  0.00    -0.167 F 
ATOM     22  F   UNL A   1      29.826  23.574  26.829  1.00  0.00    -0.167 F 
ENDBRANCH  10  19
BRANCH  15  23
ATOM     23  S   UNL A   1      33.323  16.756  24.604  1.00  0.00     0.310 S 
ATOM     24  F   UNL A   1      34.796  16.376  25.052  1.00  0.00    -0.094 F 
ATOM     25  F   UNL A   1      33.819  16.637  23.113  1.00  0.00    -0.094 F 
ATOM     26  F   UNL A   1      32.986  15.239  24.642  1.00  0.00    -0.094 F 
ATOM     27  F   UNL A   1      32.963  16.867  26.138  1.00  0.00    -0.094 F 
ATOM     28  F   UNL A   1      33.768  18.273  24.614  1.00  0.00    -0.094 F 
ENDBRANCH  15  23
ENDBRANCH   6   8
ENDBRANCH   3   4
ENDBRANCH   2   3
ENDBRANCH   1   2
BRANCH   1  29
ATOM     29  C   UNL A   1      34.256  28.330  26.635  1.00  0.00     0.116 C 
BRANCH  29  30
ATOM     30  N   UNL A   1      33.722  29.611  27.120  1.00  0.00    -0.352 N 
ATOM     31  C   UNL A   1      34.566  30.499  27.933  1.00  0.00     0.251 C 
ATOM     32  H   UNL A   1      32.799  29.873  26.901  1.00  0.00     0.163 HD
ATOM     33  O   UNL A   1      34.104  31.606  28.352  1.00  0.00    -0.269 OA
BRANCH  31  34
ATOM     34  C   UNL A   1      35.992  30.094  28.270  1.00  0.00     0.039 A 
ATOM     35  C   UNL A   1      36.976  30.287  27.315  1.00  0.00     0.014 A 
ATOM     36  C   UNL A   1      36.285  29.620  29.475  1.00  0.00     0.014 A 
ATOM     37  C   UNL A   1      38.211  29.672  27.631  1.00  0.00     0.010 A 
ATOM     38  C   UNL A   1      37.549  29.162  29.758  1.00  0.00     0.010 A 
ATOM     39  C   UNL A   1      38.557  29.266  28.839  1.00  0.00    -0.014 A 
BRANCH  39  40
ATOM     40  C   UNL A   1      39.998  28.931  29.190  1.00  0.00     0.031 A 
ATOM     41  C   UNL A   1      40.778  29.915  29.797  1.00  0.00     0.074 A 
ATOM     42  C   UNL A   1      40.465  27.674  28.846  1.00  0.00     0.049 A 
ATOM     43  N   UNL A   1      42.055  29.823  30.175  1.00  0.00    -0.248 NA
ATOM     44  C   UNL A   1      40.294  31.263  30.132  1.00  0.00     0.031 C 
ATOM     45  C   UNL A   1      39.680  26.673  28.240  1.00  0.00     0.029 A 
ATOM     46  N   UNL A   1      41.734  27.169  29.017  1.00  0.00    -0.354 N 
ATOM     47  C   UNL A   1      42.453  30.966  30.738  1.00  0.00     0.074 A 
ATOM     48  C   UNL A   1      41.328  31.910  30.714  1.00  0.00     0.031 C 
ATOM     49  C   UNL A   1      40.468  25.584  28.039  1.00  0.00     0.029 A 
ATOM     50  C   UNL A   1      41.758  25.886  28.516  1.00  0.00     0.049 A 
ATOM     51  H   UNL A   1      42.494  27.642  29.427  1.00  0.00     0.167 HD
ATOM     52  C   UNL A   1      43.708  31.256  31.274  1.00  0.00     0.031 A 
ATOM     53  C   UNL A   1      42.834  25.014  28.467  1.00  0.00     0.031 A 
ATOM     54  C   UNL A   1      44.772  30.368  31.263  1.00  0.00     0.049 A 
ATOM     55  C   UNL A   1      44.107  25.325  28.949  1.00  0.00     0.074 A 
ATOM     56  C   UNL A   1      46.042  30.642  31.806  1.00  0.00     0.029 A 
ATOM     57  N   UNL A   1      44.803  29.094  30.741  1.00  0.00    -0.354 N 
ATOM     58  N   UNL A   1      44.493  26.453  29.548  1.00  0.00    -0.248 NA
ATOM     59  C   UNL A   1      45.263  24.422  28.873  1.00  0.00     0.031 C 
ATOM     60  C   UNL A   1      46.831  29.552  31.604  1.00  0.00     0.029 A 
ATOM     61  C   UNL A   1      46.066  28.580  30.932  1.00  0.00     0.049 A 
ATOM     62  H   UNL A   1      44.051  28.631  30.304  1.00  0.00     0.167 HD
ATOM     63  C   UNL A   1      45.782  26.375  29.888  1.00  0.00     0.074 A 
ATOM     64  C   UNL A   1      46.297  25.069  29.453  1.00  0.00     0.031 C 
ATOM     65  C   UNL A   1      46.547  27.337  30.549  1.00  0.00     0.031 A 
BRANCH  52  66
ATOM     66  C   UNL A   1      43.921  32.622  31.904  1.00  0.00    -0.014 A 
ATOM     67  C   UNL A   1      43.641  32.798  33.249  1.00  0.00     0.010 A 
ATOM     68  C   UNL A   1      44.376  33.623  31.159  1.00  0.00     0.010 A 
ATOM     69  C   UNL A   1      43.599  34.153  33.654  1.00  0.00     0.020 A 
ATOM     70  C   UNL A   1      44.435  34.900  31.663  1.00  0.00     0.020 A 
ATOM     71  C   UNL A   1      44.116  35.156  32.967  1.00  0.00     0.054 A 
BRANCH  71  72
ATOM     72  S   UNL A   1      44.387  36.783  33.714  1.00  0.00     0.124 S 
ATOM     73  O   UNL A   1      44.021  36.730  35.199  1.00  0.00    -0.237 OA
ATOM     74  O   UNL A   1      45.860  37.173  33.565  1.00  0.00    -0.237 OA
ATOM     75  O   UNL A   1      43.408  37.942  32.926  1.00  0.00    -0.744 OA
ENDBRANCH  71  72
ENDBRANCH  52  66
BRANCH  53  76
ATOM     76  C   UNL A   1      42.616  23.642  27.851  1.00  0.00    -0.014 A 
ATOM     77  C   UNL A   1      42.150  22.608  28.647  1.00  0.00     0.010 A 
ATOM     78  C   UNL A   1      42.876  23.454  26.562  1.00  0.00     0.010 A 
ATOM     79  C   UNL A   1      42.263  21.329  28.052  1.00  0.00     0.020 A 
ATOM     80  C   UNL A   1      42.835  22.195  26.016  1.00  0.00     0.020 A 
ATOM     81  C   UNL A   1      42.440  21.118  26.760  1.00  0.00     0.054 A 
BRANCH  81  82
ATOM     82  S   UNL A   1      42.174  19.490  26.016  1.00  0.00     0.124 S 
ATOM     83  O   UNL A   1      42.616  18.401  26.997  1.00  0.00    -0.237 OA
ATOM     84  O   UNL A   1      40.687  19.312  25.694  1.00  0.00    -0.237 OA
ATOM     85  O   UNL A   1      43.087  19.365  24.576  1.00  0.00    -0.744 OA
ENDBRANCH  81  82
ENDBRANCH  53  76
BRANCH  65  86
ATOM     86  C   UNL A   1      47.995  27.003  30.867  1.00  0.00    -0.014 A 
ATOM     87  C   UNL A   1      48.983  27.404  29.983  1.00  0.00     0.010 A 
ATOM     88  C   UNL A   1      48.295  26.369  31.994  1.00  0.00     0.010 A 
ATOM     89  C   UNL A   1      50.250  26.830  30.241  1.00  0.00     0.020 A 
ATOM     90  C   UNL A   1      49.582  25.955  32.243  1.00  0.00     0.020 A 
ATOM     91  C   UNL A   1      50.598  26.266  31.382  1.00  0.00     0.054 A 
BRANCH  91  92
ATOM     92  S   UNL A   1      52.329  25.921  31.788  1.00  0.00     0.124 S 
ATOM     93  O   UNL A   1      53.180  26.025  30.521  1.00  0.00    -0.237 OA
ATOM     94  O   UNL A   1      52.823  26.938  32.820  1.00  0.00    -0.237 OA
ATOM     95  O   UNL A   1      52.459  24.343  32.435  1.00  0.00    -0.744 OA
ENDBRANCH  91  92
ENDBRANCH  65  86
ENDBRANCH  39  40
ENDBRANCH  31  34
ENDBRANCH  29  30
ENDBRANCH   1  29
TORSDOF 16
ENDMDL
