MODEL 1
REMARK VINA RESULT:     -12.4      0.000      0.000
REMARK SMILES Cc1nsc(NC(=O)c2ccc(N)cc2)c1C(=O)NCCCCNC(=O)c1ccc(-c2c3nc(c(-c4ccc(S(=O)(=O)[O-])cc4)c4ccc([nH]4)c(-c4ccc(S(=O)(=O)[O-])cc4)c4nc(c(-c5ccc(S(=O)(=O)[O-])cc5)c5ccc2[nH]5)C=C4)C=C3)cc1
REMARK SMILES IDX 21 1 20 2 19 3 17 4 18 5 16 7 1 8 2 9 3 10 4 11 5 12 6 13
REMARK SMILES IDX 7 14 8 16 9 17 10 18 15 19 11 20 14 21 12 22 13 23 22 26
REMARK SMILES IDX 23 27 24 28 25 29 26 31 27 32 28 33 86 34 29 35 85 36 30 37
REMARK SMILES IDX 31 38 32 39 79 40 33 41 84 42 78 43 80 44 34 45 83 46 77 47
REMARK SMILES IDX 76 48 35 50 65 51 46 52 64 53 47 54 50 55 63 56 81 57 48 58
REMARK SMILES IDX 49 59 62 61 82 62 51 63 36 64 37 65 45 66 38 67 44 68 39 69
REMARK SMILES IDX 40 70 41 71 42 72 43 73 66 74 67 75 75 76 68 77 74 78 69 79
REMARK SMILES IDX 70 80 71 81 72 82 73 83 52 84 53 85 61 86 54 87 60 88 55 89
REMARK SMILES IDX 56 90 57 91 58 92 59 93
REMARK H PARENT 19 6 6 15 13 24 13 25 24 30 80 49 50 60
REMARK Flexibility Score: inf
ROOT
ATOM      1  C   UNL A   1      34.712  23.477  26.545  1.00  0.00     0.023 C 
ENDROOT
BRANCH   1   2
ATOM      2  C   UNL A   1      33.887  22.337  27.140  1.00  0.00     0.116 C 
BRANCH   2   3
ATOM      3  N   UNL A   1      32.452  22.519  27.221  1.00  0.00    -0.352 N 
ATOM      4  C   UNL A   1      31.495  22.531  26.223  1.00  0.00     0.256 C 
ATOM      5  O   UNL A   1      30.323  22.666  26.575  1.00  0.00    -0.269 OA
ATOM      6  H   UNL A   1      32.103  22.656  28.131  1.00  0.00     0.163 HD
BRANCH   4   7
ATOM      7  C   UNL A   1      31.857  22.542  24.804  1.00  0.00     0.097 A 
ATOM      8  C   UNL A   1      33.001  20.195  24.293  1.00  0.00     0.069 C 
ATOM      9  C   UNL A   1      32.615  21.604  23.992  1.00  0.00     0.066 A 
ATOM     10  N   UNL A   1      33.027  22.064  22.808  1.00  0.00    -0.195 NA
ATOM     11  S   UNL A   1      32.358  23.547  22.567  1.00  0.00    -0.017 S 
ATOM     12  C   UNL A   1      31.337  23.501  23.929  1.00  0.00     0.129 A 
BRANCH  12  13
ATOM     13  N   UNL A   1      30.284  24.382  24.128  1.00  0.00    -0.312 N 
ATOM     14  C   UNL A   1      30.247  25.657  24.662  1.00  0.00     0.256 C 
ATOM     15  H   UNL A   1      29.408  24.040  23.837  1.00  0.00     0.171 HD
ATOM     16  O   UNL A   1      29.168  26.193  24.917  1.00  0.00    -0.269 OA
BRANCH  14  17
ATOM     17  C   UNL A   1      31.472  26.433  24.943  1.00  0.00     0.040 A 
ATOM     18  C   UNL A   1      32.160  26.305  26.153  1.00  0.00     0.016 A 
ATOM     19  C   UNL A   1      31.905  27.352  23.984  1.00  0.00     0.016 A 
ATOM     20  C   UNL A   1      33.179  27.213  26.463  1.00  0.00     0.026 A 
ATOM     21  C   UNL A   1      32.940  28.237  24.295  1.00  0.00     0.026 A 
ATOM     22  C   UNL A   1      33.552  28.206  25.551  1.00  0.00     0.031 A 
BRANCH  22  23
ATOM     23  N   UNL A   1      34.495  29.156  25.895  1.00  0.00    -0.399 N 
ATOM     24  H   UNL A   1      34.223  29.966  26.384  1.00  0.00     0.156 HD
ATOM     25  H   UNL A   1      35.440  29.023  25.650  1.00  0.00     0.156 HD
ENDBRANCH  22  23
ENDBRANCH  14  17
ENDBRANCH  12  13
ENDBRANCH   4   7
ENDBRANCH   2   3
ENDBRANCH   1   2
BRANCH   1  26
ATOM     26  C   UNL A   1      35.588  23.198  25.325  1.00  0.00     0.023 C 
BRANCH  26  27
ATOM     27  C   UNL A   1      37.071  23.476  25.507  1.00  0.00     0.116 C 
BRANCH  27  28
ATOM     28  N   UNL A   1      37.911  22.281  25.613  1.00  0.00    -0.352 N 
ATOM     29  C   UNL A   1      39.203  22.206  26.130  1.00  0.00     0.251 C 
ATOM     30  H   UNL A   1      37.521  21.438  25.283  1.00  0.00     0.163 HD
ATOM     31  O   UNL A   1      39.937  21.273  25.865  1.00  0.00    -0.269 OA
BRANCH  29  32
ATOM     32  C   UNL A   1      39.648  23.294  27.029  1.00  0.00     0.039 A 
ATOM     33  C   UNL A   1      40.890  23.290  27.672  1.00  0.00     0.014 A 
ATOM     34  C   UNL A   1      38.784  24.373  27.166  1.00  0.00     0.014 A 
ATOM     35  C   UNL A   1      41.281  24.428  28.380  1.00  0.00     0.010 A 
ATOM     36  C   UNL A   1      39.251  25.553  27.672  1.00  0.00     0.010 A 
ATOM     37  C   UNL A   1      40.458  25.565  28.357  1.00  0.00    -0.014 A 
BRANCH  37  38
ATOM     38  C   UNL A   1      40.866  26.845  28.925  1.00  0.00     0.031 A 
ATOM     39  C   UNL A   1      42.021  27.461  28.223  1.00  0.00     0.074 A 
ATOM     40  C   UNL A   1      40.085  27.523  29.799  1.00  0.00     0.049 A 
ATOM     41  N   UNL A   1      43.239  27.548  28.642  1.00  0.00    -0.248 NA
ATOM     42  C   UNL A   1      41.853  27.850  26.810  1.00  0.00     0.031 C 
ATOM     43  C   UNL A   1      38.753  27.135  30.294  1.00  0.00     0.029 A 
ATOM     44  N   UNL A   1      40.240  28.766  30.333  1.00  0.00    -0.354 N 
ATOM     45  C   UNL A   1      43.915  28.267  27.661  1.00  0.00     0.074 A 
ATOM     46  C   UNL A   1      43.101  28.185  26.477  1.00  0.00     0.031 C 
ATOM     47  C   UNL A   1      38.132  28.208  30.836  1.00  0.00     0.029 A 
ATOM     48  C   UNL A   1      39.081  29.302  30.898  1.00  0.00     0.049 A 
ATOM     49  H   UNL A   1      41.098  29.247  30.321  1.00  0.00     0.167 HD
ATOM     50  C   UNL A   1      44.892  29.157  27.997  1.00  0.00     0.031 A 
ATOM     51  C   UNL A   1      38.908  30.559  31.382  1.00  0.00     0.031 A 
ATOM     52  C   UNL A   1      45.241  29.027  29.392  1.00  0.00     0.049 A 
ATOM     53  C   UNL A   1      40.257  31.087  31.675  1.00  0.00     0.074 A 
ATOM     54  C   UNL A   1      45.829  28.068  30.187  1.00  0.00     0.029 A 
ATOM     55  N   UNL A   1      44.554  29.881  30.220  1.00  0.00    -0.354 N 
ATOM     56  N   UNL A   1      41.039  30.573  32.584  1.00  0.00    -0.248 NA
ATOM     57  C   UNL A   1      40.921  31.918  30.682  1.00  0.00     0.031 C 
ATOM     58  C   UNL A   1      45.209  28.204  31.464  1.00  0.00     0.029 A 
ATOM     59  C   UNL A   1      44.325  29.284  31.429  1.00  0.00     0.049 A 
ATOM     60  H   UNL A   1      44.268  30.792  29.979  1.00  0.00     0.167 HD
ATOM     61  C   UNL A   1      42.305  30.633  32.028  1.00  0.00     0.074 A 
ATOM     62  C   UNL A   1      42.194  31.608  30.946  1.00  0.00     0.031 C 
ATOM     63  C   UNL A   1      43.231  29.667  32.303  1.00  0.00     0.031 A 
BRANCH  50  64
ATOM     64  C   UNL A   1      45.148  30.463  27.267  1.00  0.00    -0.014 A 
ATOM     65  C   UNL A   1      46.484  30.813  26.972  1.00  0.00     0.010 A 
ATOM     66  C   UNL A   1      44.183  31.481  27.125  1.00  0.00     0.010 A 
ATOM     67  C   UNL A   1      46.840  32.126  26.634  1.00  0.00     0.020 A 
ATOM     68  C   UNL A   1      44.521  32.783  26.751  1.00  0.00     0.020 A 
ATOM     69  C   UNL A   1      45.854  33.106  26.539  1.00  0.00     0.054 A 
BRANCH  69  70
ATOM     70  S   UNL A   1      46.329  34.817  26.192  1.00  0.00     0.124 S 
ATOM     71  O   UNL A   1      45.044  35.422  25.855  1.00  0.00    -0.237 OA
ATOM     72  O   UNL A   1      46.917  35.235  27.462  1.00  0.00    -0.237 OA
ATOM     73  O   UNL A   1      47.273  34.691  25.085  1.00  0.00    -0.744 OA
ENDBRANCH  69  70
ENDBRANCH  50  64
BRANCH  51  74
ATOM     74  C   UNL A   1      37.694  31.416  31.373  1.00  0.00    -0.014 A 
ATOM     75  C   UNL A   1      36.632  31.207  32.275  1.00  0.00     0.010 A 
ATOM     76  C   UNL A   1      37.712  32.634  30.662  1.00  0.00     0.010 A 
ATOM     77  C   UNL A   1      35.657  32.199  32.497  1.00  0.00     0.020 A 
ATOM     78  C   UNL A   1      36.746  33.627  30.879  1.00  0.00     0.020 A 
ATOM     79  C   UNL A   1      35.732  33.413  31.810  1.00  0.00     0.054 A 
BRANCH  79  80
ATOM     80  S   UNL A   1      34.567  34.751  32.218  1.00  0.00     0.124 S 
ATOM     81  O   UNL A   1      34.170  35.233  30.898  1.00  0.00    -0.237 OA
ATOM     82  O   UNL A   1      33.530  34.054  32.973  1.00  0.00    -0.237 OA
ATOM     83  O   UNL A   1      35.376  35.686  32.999  1.00  0.00    -0.744 OA
ENDBRANCH  79  80
ENDBRANCH  51  74
BRANCH  63  84
ATOM     84  C   UNL A   1      43.025  28.824  33.537  1.00  0.00    -0.014 A 
ATOM     85  C   UNL A   1      43.514  29.143  34.820  1.00  0.00     0.010 A 
ATOM     86  C   UNL A   1      42.192  27.701  33.395  1.00  0.00     0.010 A 
ATOM     87  C   UNL A   1      43.190  28.339  35.926  1.00  0.00     0.020 A 
ATOM     88  C   UNL A   1      41.851  26.910  34.492  1.00  0.00     0.020 A 
ATOM     89  C   UNL A   1      42.361  27.225  35.751  1.00  0.00     0.054 A 
BRANCH  89  90
ATOM     90  S   UNL A   1      41.916  26.201  37.182  1.00  0.00     0.124 S 
ATOM     91  O   UNL A   1      40.607  26.730  37.556  1.00  0.00    -0.237 OA
ATOM     92  O   UNL A   1      41.914  24.850  36.626  1.00  0.00    -0.237 OA
ATOM     93  O   UNL A   1      42.986  26.463  38.144  1.00  0.00    -0.744 OA
ENDBRANCH  89  90
ENDBRANCH  63  84
ENDBRANCH  37  38
ENDBRANCH  29  32
ENDBRANCH  27  28
ENDBRANCH  26  27
ENDBRANCH   1  26
TORSDOF 17
ENDMDL
MODEL 2
REMARK VINA RESULT:     -12.2      2.647      9.271
REMARK SMILES Cc1nsc(NC(=O)c2ccc(N)cc2)c1C(=O)NCCCCNC(=O)c1ccc(-c2c3nc(c(-c4ccc(S(=O)(=O)[O-])cc4)c4ccc([nH]4)c(-c4ccc(S(=O)(=O)[O-])cc4)c4nc(c(-c5ccc(S(=O)(=O)[O-])cc5)c5ccc2[nH]5)C=C4)C=C3)cc1
REMARK SMILES IDX 21 1 20 2 19 3 17 4 18 5 16 7 1 8 2 9 3 10 4 11 5 12 6 13
REMARK SMILES IDX 7 14 8 16 9 17 10 18 15 19 11 20 14 21 12 22 13 23 22 26
REMARK SMILES IDX 23 27 24 28 25 29 26 31 27 32 28 33 86 34 29 35 85 36 30 37
REMARK SMILES IDX 31 38 32 39 79 40 33 41 84 42 78 43 80 44 34 45 83 46 77 47
REMARK SMILES IDX 76 48 35 50 65 51 46 52 64 53 47 54 50 55 63 56 81 57 48 58
REMARK SMILES IDX 49 59 62 61 82 62 51 63 36 64 37 65 45 66 38 67 44 68 39 69
REMARK SMILES IDX 40 70 41 71 42 72 43 73 66 74 67 75 75 76 68 77 74 78 69 79
REMARK SMILES IDX 70 80 71 81 72 82 73 83 52 84 53 85 61 86 54 87 60 88 55 89
REMARK SMILES IDX 56 90 57 91 58 92 59 93
REMARK H PARENT 19 6 6 15 13 24 13 25 24 30 80 49 50 60
REMARK Flexibility Score: inf
ROOT
ATOM      1  C   UNL A   1      31.591  29.743  25.540  1.00  0.00     0.023 C 
ENDROOT
BRANCH   1   2
ATOM      2  C   UNL A   1      30.987  28.526  24.841  1.00  0.00     0.116 C 
BRANCH   2   3
ATOM      3  N   UNL A   1      31.221  27.227  25.437  1.00  0.00    -0.352 N 
ATOM      4  C   UNL A   1      31.991  26.167  24.994  1.00  0.00     0.256 C 
ATOM      5  O   UNL A   1      32.052  25.177  25.724  1.00  0.00    -0.269 OA
ATOM      6  H   UNL A   1      30.759  27.074  26.293  1.00  0.00     0.163 HD
BRANCH   4   7
ATOM      7  C   UNL A   1      32.582  26.146  23.654  1.00  0.00     0.097 A 
ATOM      8  C   UNL A   1      34.212  28.245  23.510  1.00  0.00     0.069 C 
ATOM      9  C   UNL A   1      33.435  27.097  22.959  1.00  0.00     0.066 A 
ATOM     10  N   UNL A   1      33.541  26.922  21.639  1.00  0.00    -0.195 NA
ATOM     11  S   UNL A   1      32.783  25.518  21.240  1.00  0.00    -0.017 S 
ATOM     12  C   UNL A   1      32.499  25.012  22.840  1.00  0.00     0.129 A 
BRANCH  12  13
ATOM     13  N   UNL A   1      32.120  23.722  23.181  1.00  0.00    -0.312 N 
ATOM     14  C   UNL A   1      32.857  22.641  23.630  1.00  0.00     0.256 C 
ATOM     15  H   UNL A   1      31.157  23.544  23.088  1.00  0.00     0.171 HD
ATOM     16  O   UNL A   1      32.343  21.524  23.698  1.00  0.00    -0.269 OA
BRANCH  14  17
ATOM     17  C   UNL A   1      34.266  22.766  24.053  1.00  0.00     0.040 A 
ATOM     18  C   UNL A   1      35.275  23.113  23.148  1.00  0.00     0.016 A 
ATOM     19  C   UNL A   1      34.587  22.471  25.380  1.00  0.00     0.016 A 
ATOM     20  C   UNL A   1      36.614  23.003  23.539  1.00  0.00     0.026 A 
ATOM     21  C   UNL A   1      35.927  22.388  25.764  1.00  0.00     0.026 A 
ATOM     22  C   UNL A   1      36.950  22.606  24.838  1.00  0.00     0.031 A 
BRANCH  22  23
ATOM     23  N   UNL A   1      38.271  22.412  25.193  1.00  0.00    -0.399 N 
ATOM     24  H   UNL A   1      38.617  22.793  26.032  1.00  0.00     0.156 HD
ATOM     25  H   UNL A   1      38.867  21.891  24.606  1.00  0.00     0.156 HD
ENDBRANCH  22  23
ENDBRANCH  14  17
ENDBRANCH  12  13
ENDBRANCH   4   7
ENDBRANCH   2   3
ENDBRANCH   1   2
BRANCH   1  26
ATOM     26  C   UNL A   1      32.017  29.620  27.002  1.00  0.00     0.023 C 
BRANCH  26  27
ATOM     27  C   UNL A   1      33.456  30.009  27.300  1.00  0.00     0.116 C 
BRANCH  27  28
ATOM     28  N   UNL A   1      33.773  31.419  27.062  1.00  0.00    -0.352 N 
ATOM     29  C   UNL A   1      34.839  32.141  27.595  1.00  0.00     0.251 C 
ATOM     30  H   UNL A   1      33.168  31.910  26.460  1.00  0.00     0.163 HD
ATOM     31  O   UNL A   1      34.827  33.357  27.624  1.00  0.00    -0.269 OA
BRANCH  29  32
ATOM     32  C   UNL A   1      35.997  31.378  28.110  1.00  0.00     0.039 A 
ATOM     33  C   UNL A   1      36.209  30.026  27.819  1.00  0.00     0.014 A 
ATOM     34  C   UNL A   1      36.919  32.092  28.866  1.00  0.00     0.014 A 
ATOM     35  C   UNL A   1      37.405  29.433  28.227  1.00  0.00     0.010 A 
ATOM     36  C   UNL A   1      38.166  31.575  29.074  1.00  0.00     0.010 A 
ATOM     37  C   UNL A   1      38.389  30.226  28.840  1.00  0.00    -0.014 A 
BRANCH  37  38
ATOM     38  C   UNL A   1      39.727  29.729  29.143  1.00  0.00     0.031 A 
ATOM     39  C   UNL A   1      40.008  29.645  30.599  1.00  0.00     0.074 A 
ATOM     40  C   UNL A   1      40.501  29.134  28.205  1.00  0.00     0.049 A 
ATOM     41  N   UNL A   1      40.769  30.419  31.297  1.00  0.00    -0.248 NA
ATOM     42  C   UNL A   1      39.200  28.719  31.415  1.00  0.00     0.031 C 
ATOM     43  C   UNL A   1      40.156  28.873  26.796  1.00  0.00     0.029 A 
ATOM     44  N   UNL A   1      41.705  28.512  28.327  1.00  0.00    -0.354 N 
ATOM     45  C   UNL A   1      40.758  29.886  32.582  1.00  0.00     0.074 A 
ATOM     46  C   UNL A   1      39.598  29.036  32.649  1.00  0.00     0.031 C 
ATOM     47  C   UNL A   1      40.997  27.948  26.280  1.00  0.00     0.029 A 
ATOM     48  C   UNL A   1      42.046  27.693  27.249  1.00  0.00     0.049 A 
ATOM     49  H   UNL A   1      42.288  28.630  29.110  1.00  0.00     0.167 HD
ATOM     50  C   UNL A   1      41.881  29.902  33.355  1.00  0.00     0.031 A 
ATOM     51  C   UNL A   1      43.113  26.858  27.155  1.00  0.00     0.031 A 
ATOM     52  C   UNL A   1      42.899  30.731  32.756  1.00  0.00     0.049 A 
ATOM     53  C   UNL A   1      44.106  27.332  28.143  1.00  0.00     0.074 A 
ATOM     54  C   UNL A   1      43.058  32.071  32.480  1.00  0.00     0.029 A 
ATOM     55  N   UNL A   1      43.783  30.042  31.962  1.00  0.00    -0.354 N 
ATOM     56  N   UNL A   1      44.689  28.496  28.061  1.00  0.00    -0.248 NA
ATOM     57  C   UNL A   1      44.151  26.704  29.454  1.00  0.00     0.031 C 
ATOM     58  C   UNL A   1      43.832  32.122  31.283  1.00  0.00     0.029 A 
ATOM     59  C   UNL A   1      44.183  30.822  30.912  1.00  0.00     0.049 A 
ATOM     60  H   UNL A   1      44.086  29.119  32.125  1.00  0.00     0.167 HD
ATOM     61  C   UNL A   1      44.763  28.939  29.370  1.00  0.00     0.074 A 
ATOM     62  C   UNL A   1      44.574  27.741  30.184  1.00  0.00     0.031 C 
ATOM     63  C   UNL A   1      44.667  30.271  29.660  1.00  0.00     0.031 A 
BRANCH  50  64
ATOM     64  C   UNL A   1      42.270  28.800  34.324  1.00  0.00    -0.014 A 
ATOM     65  C   UNL A   1      42.898  27.646  33.807  1.00  0.00     0.010 A 
ATOM     66  C   UNL A   1      41.786  28.716  35.646  1.00  0.00     0.010 A 
ATOM     67  C   UNL A   1      42.967  26.456  34.544  1.00  0.00     0.020 A 
ATOM     68  C   UNL A   1      41.884  27.547  36.404  1.00  0.00     0.020 A 
ATOM     69  C   UNL A   1      42.446  26.412  35.835  1.00  0.00     0.054 A 
BRANCH  69  70
ATOM     70  S   UNL A   1      42.455  24.850  36.747  1.00  0.00     0.124 S 
ATOM     71  O   UNL A   1      42.664  23.880  35.677  1.00  0.00    -0.237 OA
ATOM     72  O   UNL A   1      43.575  25.038  37.665  1.00  0.00    -0.237 OA
ATOM     73  O   UNL A   1      41.137  24.815  37.377  1.00  0.00    -0.744 OA
ENDBRANCH  69  70
ENDBRANCH  50  64
BRANCH  51  74
ATOM     74  C   UNL A   1      43.232  25.550  26.460  1.00  0.00    -0.014 A 
ATOM     75  C   UNL A   1      43.841  25.435  25.195  1.00  0.00     0.010 A 
ATOM     76  C   UNL A   1      43.001  24.361  27.182  1.00  0.00     0.010 A 
ATOM     77  C   UNL A   1      44.255  24.185  24.696  1.00  0.00     0.020 A 
ATOM     78  C   UNL A   1      43.412  23.112  26.691  1.00  0.00     0.020 A 
ATOM     79  C   UNL A   1      44.055  23.031  25.458  1.00  0.00     0.054 A 
BRANCH  79  80
ATOM     80  S   UNL A   1      44.735  21.443  24.883  1.00  0.00     0.124 S 
ATOM     81  O   UNL A   1      45.993  21.357  25.619  1.00  0.00    -0.237 OA
ATOM     82  O   UNL A   1      43.703  20.490  25.283  1.00  0.00    -0.237 OA
ATOM     83  O   UNL A   1      44.874  21.631  23.440  1.00  0.00    -0.744 OA
ENDBRANCH  79  80
ENDBRANCH  51  74
BRANCH  63  84
ATOM     84  C   UNL A   1      44.939  31.255  28.549  1.00  0.00    -0.014 A 
ATOM     85  C   UNL A   1      43.993  31.668  27.590  1.00  0.00     0.010 A 
ATOM     86  C   UNL A   1      46.203  31.871  28.556  1.00  0.00     0.010 A 
ATOM     87  C   UNL A   1      44.319  32.660  26.649  1.00  0.00     0.020 A 
ATOM     88  C   UNL A   1      46.525  32.871  27.638  1.00  0.00     0.020 A 
ATOM     89  C   UNL A   1      45.586  33.252  26.680  1.00  0.00     0.054 A 
BRANCH  89  90
ATOM     90  S   UNL A   1      46.001  34.555  25.486  1.00  0.00     0.124 S 
ATOM     91  O   UNL A   1      45.164  34.212  24.339  1.00  0.00    -0.237 OA
ATOM     92  O   UNL A   1      45.627  35.777  26.195  1.00  0.00    -0.237 OA
ATOM     93  O   UNL A   1      47.438  34.388  25.274  1.00  0.00    -0.744 OA
ENDBRANCH  89  90
ENDBRANCH  63  84
ENDBRANCH  37  38
ENDBRANCH  29  32
ENDBRANCH  27  28
ENDBRANCH  26  27
ENDBRANCH   1  26
TORSDOF 17
ENDMDL
MODEL 3
REMARK VINA RESULT:     -12.2      2.914      9.268
REMARK SMILES Cc1nsc(NC(=O)c2ccc(N)cc2)c1C(=O)NCCCCNC(=O)c1ccc(-c2c3nc(c(-c4ccc(S(=O)(=O)[O-])cc4)c4ccc([nH]4)c(-c4ccc(S(=O)(=O)[O-])cc4)c4nc(c(-c5ccc(S(=O)(=O)[O-])cc5)c5ccc2[nH]5)C=C4)C=C3)cc1
REMARK SMILES IDX 21 1 20 2 19 3 17 4 18 5 16 7 1 8 2 9 3 10 4 11 5 12 6 13
REMARK SMILES IDX 7 14 8 16 9 17 10 18 15 19 11 20 14 21 12 22 13 23 22 26
REMARK SMILES IDX 23 27 24 28 25 29 26 31 27 32 28 33 86 34 29 35 85 36 30 37
REMARK SMILES IDX 31 38 32 39 79 40 33 41 84 42 78 43 80 44 34 45 83 46 77 47
REMARK SMILES IDX 76 48 35 50 65 51 46 52 64 53 47 54 50 55 63 56 81 57 48 58
REMARK SMILES IDX 49 59 62 61 82 62 51 63 36 64 37 65 45 66 38 67 44 68 39 69
REMARK SMILES IDX 40 70 41 71 42 72 43 73 66 74 67 75 75 76 68 77 74 78 69 79
REMARK SMILES IDX 70 80 71 81 72 82 73 83 52 84 53 85 61 86 54 87 60 88 55 89
REMARK SMILES IDX 56 90 57 91 58 92 59 93
REMARK H PARENT 19 6 6 15 13 24 13 25 24 30 80 49 50 60
REMARK Flexibility Score: inf
ROOT
ATOM      1  C   UNL A   1      31.560  29.607  25.762  1.00  0.00     0.023 C 
ENDROOT
BRANCH   1   2
ATOM      2  C   UNL A   1      32.207  29.261  24.422  1.00  0.00     0.116 C 
BRANCH   2   3
ATOM      3  N   UNL A   1      31.527  29.693  23.218  1.00  0.00    -0.352 N 
ATOM      4  C   UNL A   1      30.419  29.167  22.580  1.00  0.00     0.256 C 
ATOM      5  O   UNL A   1      30.016  29.763  21.580  1.00  0.00    -0.269 OA
ATOM      6  H   UNL A   1      31.916  30.488  22.787  1.00  0.00     0.163 HD
BRANCH   4   7
ATOM      7  C   UNL A   1      29.839  27.880  22.969  1.00  0.00     0.097 A 
ATOM      8  C   UNL A   1      27.268  28.330  23.486  1.00  0.00     0.069 C 
ATOM      9  C   UNL A   1      28.526  27.527  23.483  1.00  0.00     0.066 A 
ATOM     10  N   UNL A   1      28.425  26.313  24.030  1.00  0.00    -0.195 NA
ATOM     11  S   UNL A   1      29.835  25.510  23.771  1.00  0.00    -0.017 S 
ATOM     12  C   UNL A   1      30.515  26.678  22.736  1.00  0.00     0.129 A 
BRANCH  12  13
ATOM     13  N   UNL A   1      31.627  26.445  21.939  1.00  0.00    -0.312 N 
ATOM     14  C   UNL A   1      32.863  25.899  22.232  1.00  0.00     0.256 C 
ATOM     15  H   UNL A   1      31.515  26.714  20.999  1.00  0.00     0.171 HD
ATOM     16  O   UNL A   1      33.777  25.954  21.408  1.00  0.00    -0.269 OA
BRANCH  14  17
ATOM     17  C   UNL A   1      33.147  25.229  23.517  1.00  0.00     0.040 A 
ATOM     18  C   UNL A   1      33.526  25.950  24.653  1.00  0.00     0.016 A 
ATOM     19  C   UNL A   1      33.085  23.834  23.561  1.00  0.00     0.016 A 
ATOM     20  C   UNL A   1      33.998  25.263  25.777  1.00  0.00     0.026 A 
ATOM     21  C   UNL A   1      33.535  23.159  24.698  1.00  0.00     0.026 A 
ATOM     22  C   UNL A   1      34.038  23.864  25.794  1.00  0.00     0.031 A 
BRANCH  22  23
ATOM     23  N   UNL A   1      34.587  23.192  26.869  1.00  0.00    -0.399 N 
ATOM     24  H   UNL A   1      34.509  22.212  26.930  1.00  0.00     0.156 HD
ATOM     25  H   UNL A   1      35.057  23.693  27.576  1.00  0.00     0.156 HD
ENDBRANCH  22  23
ENDBRANCH  14  17
ENDBRANCH  12  13
ENDBRANCH   4   7
ENDBRANCH   2   3
ENDBRANCH   1   2
BRANCH   1  26
ATOM     26  C   UNL A   1      32.234  29.139  27.051  1.00  0.00     0.023 C 
BRANCH  26  27
ATOM     27  C   UNL A   1      33.696  29.527  27.204  1.00  0.00     0.116 C 
BRANCH  27  28
ATOM     28  N   UNL A   1      33.971  30.957  27.044  1.00  0.00    -0.352 N 
ATOM     29  C   UNL A   1      35.016  31.679  27.617  1.00  0.00     0.251 C 
ATOM     30  H   UNL A   1      33.351  31.463  26.470  1.00  0.00     0.163 HD
ATOM     31  O   UNL A   1      34.968  32.891  27.714  1.00  0.00    -0.269 OA
BRANCH  29  32
ATOM     32  C   UNL A   1      36.197  30.923  28.090  1.00  0.00     0.039 A 
ATOM     33  C   UNL A   1      36.465  29.608  27.698  1.00  0.00     0.014 A 
ATOM     34  C   UNL A   1      37.079  31.610  28.915  1.00  0.00     0.014 A 
ATOM     35  C   UNL A   1      37.679  29.032  28.078  1.00  0.00     0.010 A 
ATOM     36  C   UNL A   1      38.343  31.128  29.102  1.00  0.00     0.010 A 
ATOM     37  C   UNL A   1      38.622  29.811  28.766  1.00  0.00    -0.014 A 
BRANCH  37  38
ATOM     38  C   UNL A   1      39.974  29.343  29.052  1.00  0.00     0.031 A 
ATOM     39  C   UNL A   1      40.251  29.189  30.503  1.00  0.00     0.074 A 
ATOM     40  C   UNL A   1      40.773  28.827  28.088  1.00  0.00     0.049 A 
ATOM     41  N   UNL A   1      40.982  29.950  31.247  1.00  0.00    -0.248 NA
ATOM     42  C   UNL A   1      39.471  28.194  31.262  1.00  0.00     0.031 C 
ATOM     43  C   UNL A   1      40.445  28.631  26.665  1.00  0.00     0.029 A 
ATOM     44  N   UNL A   1      41.997  28.240  28.185  1.00  0.00    -0.354 N 
ATOM     45  C   UNL A   1      40.982  29.347  32.502  1.00  0.00     0.074 A 
ATOM     46  C   UNL A   1      39.851  28.456  32.514  1.00  0.00     0.031 C 
ATOM     47  C   UNL A   1      41.320  27.764  26.106  1.00  0.00     0.029 A 
ATOM     48  C   UNL A   1      42.372  27.493  27.066  1.00  0.00     0.049 A 
ATOM     49  H   UNL A   1      42.572  28.334  28.977  1.00  0.00     0.167 HD
ATOM     50  C   UNL A   1      42.100  29.359  33.282  1.00  0.00     0.031 A 
ATOM     51  C   UNL A   1      43.466  26.701  26.934  1.00  0.00     0.031 A 
ATOM     52  C   UNL A   1      43.092  30.253  32.736  1.00  0.00     0.049 A 
ATOM     53  C   UNL A   1      44.438  27.153  27.954  1.00  0.00     0.074 A 
ATOM     54  C   UNL A   1      43.207  31.611  32.534  1.00  0.00     0.029 A 
ATOM     55  N   UNL A   1      44.003  29.638  31.912  1.00  0.00    -0.354 N 
ATOM     56  N   UNL A   1      44.982  28.339  27.939  1.00  0.00    -0.248 NA
ATOM     57  C   UNL A   1      44.498  26.456  29.229  1.00  0.00     0.031 C 
ATOM     58  C   UNL A   1      43.985  31.753  31.347  1.00  0.00     0.029 A 
ATOM     59  C   UNL A   1      44.382  30.487  30.909  1.00  0.00     0.049 A 
ATOM     60  H   UNL A   1      44.337  28.719  32.026  1.00  0.00     0.167 HD
ATOM     61  C   UNL A   1      45.034  28.712  29.271  1.00  0.00     0.074 A 
ATOM     62  C   UNL A   1      44.881  27.466  30.017  1.00  0.00     0.031 C 
ATOM     63  C   UNL A   1      44.891  30.022  29.631  1.00  0.00     0.031 A 
BRANCH  50  64
ATOM     64  C   UNL A   1      42.521  28.219  34.193  1.00  0.00    -0.014 A 
ATOM     65  C   UNL A   1      42.540  28.449  35.586  1.00  0.00     0.010 A 
ATOM     66  C   UNL A   1      43.170  27.054  33.736  1.00  0.00     0.010 A 
ATOM     67  C   UNL A   1      43.238  27.603  36.459  1.00  0.00     0.020 A 
ATOM     68  C   UNL A   1      43.836  26.183  34.601  1.00  0.00     0.020 A 
ATOM     69  C   UNL A   1      43.893  26.481  35.956  1.00  0.00     0.054 A 
BRANCH  69  70
ATOM     70  S   UNL A   1      44.866  25.443  37.073  1.00  0.00     0.124 S 
ATOM     71  O   UNL A   1      46.230  25.740  36.645  1.00  0.00    -0.237 OA
ATOM     72  O   UNL A   1      44.483  25.960  38.384  1.00  0.00    -0.237 OA
ATOM     73  O   UNL A   1      44.397  24.092  36.779  1.00  0.00    -0.744 OA
ENDBRANCH  69  70
ENDBRANCH  50  64
BRANCH  51  74
ATOM     74  C   UNL A   1      43.633  25.437  26.171  1.00  0.00    -0.014 A 
ATOM     75  C   UNL A   1      44.818  25.149  25.464  1.00  0.00     0.010 A 
ATOM     76  C   UNL A   1      42.727  24.377  26.381  1.00  0.00     0.010 A 
ATOM     77  C   UNL A   1      45.110  23.840  25.033  1.00  0.00     0.020 A 
ATOM     78  C   UNL A   1      43.012  23.071  25.956  1.00  0.00     0.020 A 
ATOM     79  C   UNL A   1      44.211  22.804  25.301  1.00  0.00     0.054 A 
BRANCH  79  80
ATOM     80  S   UNL A   1      44.665  21.090  24.886  1.00  0.00     0.124 S 
ATOM     81  O   UNL A   1      44.568  21.084  23.430  1.00  0.00    -0.237 OA
ATOM     82  O   UNL A   1      46.016  20.977  25.429  1.00  0.00    -0.237 OA
ATOM     83  O   UNL A   1      43.655  20.290  25.577  1.00  0.00    -0.744 OA
ENDBRANCH  79  80
ENDBRANCH  51  74
BRANCH  63  84
ATOM     84  C   UNL A   1      45.135  31.074  28.577  1.00  0.00    -0.014 A 
ATOM     85  C   UNL A   1      44.172  31.526  27.654  1.00  0.00     0.010 A 
ATOM     86  C   UNL A   1      46.389  31.710  28.609  1.00  0.00     0.010 A 
ATOM     87  C   UNL A   1      44.472  32.576  26.769  1.00  0.00     0.020 A 
ATOM     88  C   UNL A   1      46.684  32.766  27.748  1.00  0.00     0.020 A 
ATOM     89  C   UNL A   1      45.729  33.188  26.823  1.00  0.00     0.054 A 
BRANCH  89  90
ATOM     90  S   UNL A   1      46.110  34.565  25.703  1.00  0.00     0.124 S 
ATOM     91  O   UNL A   1      47.524  34.350  25.406  1.00  0.00    -0.237 OA
ATOM     92  O   UNL A   1      45.191  34.342  24.590  1.00  0.00    -0.237 OA
ATOM     93  O   UNL A   1      45.822  35.754  26.504  1.00  0.00    -0.744 OA
ENDBRANCH  89  90
ENDBRANCH  63  84
ENDBRANCH  37  38
ENDBRANCH  29  32
ENDBRANCH  27  28
ENDBRANCH  26  27
ENDBRANCH   1  26
TORSDOF 17
ENDMDL
