MODEL 1
REMARK VINA RESULT:     -10.2      0.000      0.000
REMARK SMILES CC[C@]1(C(=O)NCCCCNC(=O)c2ccc(-c3c4nc(c(-c5ccc(S(=O)(=O)[O-])cc5)c5ccc([nH]5)c(-c5ccc(S(=O)(=O)[O-])cc5)c5nc(c(-c6ccc(S(=O)(=O)[O-])cc6)c6ccc3[nH]6)C=C5)C=C4)cc2)CCC[N@@H+](Cc2cc(OC)ccc2F)C1
REMARK SMILES IDX 8 1 7 2 6 3 4 4 5 5 3 7 74 8 88 9 75 10 77 11 76 12 2 14
REMARK SMILES IDX 1 15 78 16 79 17 80 18 86 19 81 20 85 21 87 22 84 23 82 24
REMARK SMILES IDX 83 25 9 26 10 27 11 28 12 29 13 31 14 32 15 33 73 34 16 35
REMARK SMILES IDX 72 36 17 37 18 38 19 39 66 40 20 41 71 42 65 43 67 44 21 45
REMARK SMILES IDX 70 46 64 47 63 48 22 50 52 51 33 52 51 53 34 54 37 55 50 56
REMARK SMILES IDX 68 57 35 58 36 59 49 61 69 62 38 63 23 64 24 65 32 66 25 67
REMARK SMILES IDX 31 68 26 69 27 70 28 71 29 72 30 73 53 74 54 75 62 76 55 77
REMARK SMILES IDX 61 78 56 79 57 80 58 81 59 82 60 83 39 84 40 85 48 86 41 87
REMARK SMILES IDX 47 88 42 89 43 90 44 91 45 92 46 93
REMARK H PARENT 6 6 77 13 11 30 67 49 37 60
REMARK Flexibility Score: inf
ROOT
ATOM      1  C   UNL A   1      32.724  26.896  25.551  1.00  0.00     0.023 C 
ENDROOT
BRANCH   1   2
ATOM      2  C   UNL A   1      32.108  25.582  26.012  1.00  0.00     0.116 C 
BRANCH   2   3
ATOM      3  N   UNL A   1      31.564  24.799  24.912  1.00  0.00    -0.355 N 
ATOM      4  C   UNL A   1      31.621  23.464  24.623  1.00  0.00     0.231 C 
ATOM      5  O   UNL A   1      30.865  23.083  23.725  1.00  0.00    -0.274 OA
ATOM      6  H   UNL A   1      31.064  25.330  24.252  1.00  0.00     0.163 HD
BRANCH   4   7
ATOM      7  C   UNL A   1      32.532  22.481  25.403  1.00  0.00     0.098 C 
ATOM      8  C   UNL A   1      32.081  21.014  25.187  1.00  0.00     0.028 C 
ATOM      9  C   UNL A   1      33.978  22.742  24.881  1.00  0.00     0.279 C 
ATOM     10  C   UNL A   1      33.200  20.004  25.436  1.00  0.00     0.063 C 
ATOM     11  N   UNL A   1      34.971  21.673  25.065  1.00  0.00    -0.330 N 
ATOM     12  C   UNL A   1      34.468  20.359  24.666  1.00  0.00     0.262 C 
ATOM     13  H   UNL A   1      35.145  21.604  26.067  1.00  0.00     0.348 HD
BRANCH   7  14
ATOM     14  C   UNL A   1      32.520  22.798  26.939  1.00  0.00     0.019 C 
ATOM     15  C   UNL A   1      33.831  22.586  27.700  1.00  0.00     0.005 C 
ENDBRANCH   7  14
BRANCH  11  16
ATOM     16  C   UNL A   1      36.267  22.012  24.426  1.00  0.00     0.302 C 
BRANCH  16  17
ATOM     17  C   UNL A   1      37.399  22.450  25.340  1.00  0.00     0.046 A 
ATOM     18  C   UNL A   1      38.451  21.577  25.661  1.00  0.00     0.059 A 
ATOM     19  C   UNL A   1      37.432  23.736  25.889  1.00  0.00     0.132 A 
ATOM     20  C   UNL A   1      39.515  21.994  26.476  1.00  0.00     0.119 A 
ATOM     21  C   UNL A   1      38.516  24.182  26.640  1.00  0.00     0.043 A 
ATOM     22  F   UNL A   1      36.422  24.589  25.669  1.00  0.00    -0.206 F 
ATOM     23  C   UNL A   1      39.568  23.314  26.925  1.00  0.00     0.049 A 
BRANCH  20  24
ATOM     24  O   UNL A   1      40.444  21.029  26.757  1.00  0.00    -0.497 OA
ATOM     25  C   UNL A   1      40.281  19.790  26.070  1.00  0.00     0.278 C 
ENDBRANCH  20  24
ENDBRANCH  16  17
ENDBRANCH  11  16
ENDBRANCH   4   7
ENDBRANCH   2   3
ENDBRANCH   1   2
BRANCH   1  26
ATOM     26  C   UNL A   1      33.328  27.744  26.670  1.00  0.00     0.023 C 
BRANCH  26  27
ATOM     27  C   UNL A   1      34.232  28.886  26.211  1.00  0.00     0.116 C 
BRANCH  27  28
ATOM     28  N   UNL A   1      33.831  30.184  26.740  1.00  0.00    -0.352 N 
ATOM     29  C   UNL A   1      34.458  30.962  27.685  1.00  0.00     0.251 C 
ATOM     30  H   UNL A   1      32.997  30.555  26.369  1.00  0.00     0.163 HD
ATOM     31  O   UNL A   1      33.925  31.991  28.091  1.00  0.00    -0.269 OA
BRANCH  29  32
ATOM     32  C   UNL A   1      35.766  30.533  28.226  1.00  0.00     0.039 A 
ATOM     33  C   UNL A   1      36.928  31.168  27.782  1.00  0.00     0.014 A 
ATOM     34  C   UNL A   1      35.833  29.538  29.204  1.00  0.00     0.014 A 
ATOM     35  C   UNL A   1      38.153  30.864  28.384  1.00  0.00     0.010 A 
ATOM     36  C   UNL A   1      37.042  29.283  29.845  1.00  0.00     0.010 A 
ATOM     37  C   UNL A   1      38.212  29.952  29.451  1.00  0.00    -0.014 A 
BRANCH  37  38
ATOM     38  C   UNL A   1      39.474  29.700  30.193  1.00  0.00     0.031 A 
ATOM     39  C   UNL A   1      40.408  28.609  29.745  1.00  0.00     0.074 A 
ATOM     40  C   UNL A   1      39.736  30.389  31.321  1.00  0.00     0.049 A 
ATOM     41  N   UNL A   1      41.491  28.160  30.327  1.00  0.00    -0.248 NA
ATOM     42  C   UNL A   1      40.068  27.919  28.491  1.00  0.00     0.031 C 
ATOM     43  C   UNL A   1      38.898  31.453  31.882  1.00  0.00     0.029 A 
ATOM     44  N   UNL A   1      40.778  30.288  32.210  1.00  0.00    -0.354 N 
ATOM     45  C   UNL A   1      41.951  27.125  29.523  1.00  0.00     0.074 A 
ATOM     46  C   UNL A   1      41.008  26.986  28.433  1.00  0.00     0.031 C 
ATOM     47  C   UNL A   1      39.466  31.914  33.008  1.00  0.00     0.029 A 
ATOM     48  C   UNL A   1      40.682  31.153  33.275  1.00  0.00     0.049 A 
ATOM     49  H   UNL A   1      41.524  29.655  32.096  1.00  0.00     0.167 HD
ATOM     50  C   UNL A   1      43.064  26.367  29.668  1.00  0.00     0.031 A 
ATOM     51  C   UNL A   1      41.474  31.307  34.355  1.00  0.00     0.031 A 
ATOM     52  C   UNL A   1      44.006  26.511  30.746  1.00  0.00     0.049 A 
ATOM     53  C   UNL A   1      42.689  30.433  34.510  1.00  0.00     0.074 A 
ATOM     54  C   UNL A   1      45.190  25.823  30.950  1.00  0.00     0.029 A 
ATOM     55  N   UNL A   1      43.873  27.400  31.800  1.00  0.00    -0.354 N 
ATOM     56  N   UNL A   1      43.133  29.494  33.711  1.00  0.00    -0.248 NA
ATOM     57  C   UNL A   1      43.510  30.645  35.710  1.00  0.00     0.031 C 
ATOM     58  C   UNL A   1      45.751  26.267  32.153  1.00  0.00     0.029 A 
ATOM     59  C   UNL A   1      44.942  27.265  32.671  1.00  0.00     0.049 A 
ATOM     60  H   UNL A   1      43.130  28.035  31.913  1.00  0.00     0.167 HD
ATOM     61  C   UNL A   1      44.296  29.014  34.303  1.00  0.00     0.074 A 
ATOM     62  C   UNL A   1      44.495  29.779  35.518  1.00  0.00     0.031 C 
ATOM     63  C   UNL A   1      45.125  28.030  33.877  1.00  0.00     0.031 A 
BRANCH  50  64
ATOM     64  C   UNL A   1      43.321  25.306  28.631  1.00  0.00    -0.014 A 
ATOM     65  C   UNL A   1      42.884  23.984  28.827  1.00  0.00     0.010 A 
ATOM     66  C   UNL A   1      43.973  25.642  27.431  1.00  0.00     0.010 A 
ATOM     67  C   UNL A   1      43.133  23.006  27.861  1.00  0.00     0.020 A 
ATOM     68  C   UNL A   1      44.201  24.672  26.450  1.00  0.00     0.020 A 
ATOM     69  C   UNL A   1      43.796  23.356  26.681  1.00  0.00     0.054 A 
BRANCH  69  70
ATOM     70  S   UNL A   1      44.092  22.069  25.437  1.00  0.00     0.124 S 
ATOM     71  O   UNL A   1      43.552  20.884  26.099  1.00  0.00    -0.237 OA
ATOM     72  O   UNL A   1      43.328  22.549  24.289  1.00  0.00    -0.237 OA
ATOM     73  O   UNL A   1      45.542  22.080  25.266  1.00  0.00    -0.744 OA
ENDBRANCH  69  70
ENDBRANCH  50  64
BRANCH  51  74
ATOM     74  C   UNL A   1      41.142  32.333  35.381  1.00  0.00    -0.014 A 
ATOM     75  C   UNL A   1      41.681  33.628  35.290  1.00  0.00     0.010 A 
ATOM     76  C   UNL A   1      40.282  32.022  36.451  1.00  0.00     0.010 A 
ATOM     77  C   UNL A   1      41.381  34.589  36.259  1.00  0.00     0.020 A 
ATOM     78  C   UNL A   1      39.960  32.989  37.408  1.00  0.00     0.020 A 
ATOM     79  C   UNL A   1      40.521  34.264  37.311  1.00  0.00     0.054 A 
BRANCH  79  80
ATOM     80  S   UNL A   1      40.103  35.543  38.529  1.00  0.00     0.124 S 
ATOM     81  O   UNL A   1      39.072  34.880  39.323  1.00  0.00    -0.237 OA
ATOM     82  O   UNL A   1      41.379  35.765  39.207  1.00  0.00    -0.237 OA
ATOM     83  O   UNL A   1      39.642  36.659  37.706  1.00  0.00    -0.744 OA
ENDBRANCH  79  80
ENDBRANCH  51  74
BRANCH  63  84
ATOM     84  C   UNL A   1      46.339  27.735  34.717  1.00  0.00    -0.014 A 
ATOM     85  C   UNL A   1      46.301  26.755  35.724  1.00  0.00     0.010 A 
ATOM     86  C   UNL A   1      47.547  28.403  34.452  1.00  0.00     0.010 A 
ATOM     87  C   UNL A   1      47.449  26.464  36.468  1.00  0.00     0.020 A 
ATOM     88  C   UNL A   1      48.702  28.098  35.176  1.00  0.00     0.020 A 
ATOM     89  C   UNL A   1      48.642  27.137  36.188  1.00  0.00     0.054 A 
BRANCH  89  90
ATOM     90  S   UNL A   1      50.132  26.703  37.128  1.00  0.00     0.124 S 
ATOM     91  O   UNL A   1      49.575  25.959  38.254  1.00  0.00    -0.237 OA
ATOM     92  O   UNL A   1      50.898  25.911  36.169  1.00  0.00    -0.237 OA
ATOM     93  O   UNL A   1      50.718  27.998  37.464  1.00  0.00    -0.744 OA
ENDBRANCH  89  90
ENDBRANCH  63  84
ENDBRANCH  37  38
ENDBRANCH  29  32
ENDBRANCH  27  28
ENDBRANCH  26  27
ENDBRANCH   1  26
TORSDOF 18
ENDMDL
MODEL 2
REMARK VINA RESULT:     -10.1      5.122      9.579
REMARK SMILES CC[C@]1(C(=O)NCCCCNC(=O)c2ccc(-c3c4nc(c(-c5ccc(S(=O)(=O)[O-])cc5)c5ccc([nH]5)c(-c5ccc(S(=O)(=O)[O-])cc5)c5nc(c(-c6ccc(S(=O)(=O)[O-])cc6)c6ccc3[nH]6)C=C5)C=C4)cc2)CCC[N@@H+](Cc2cc(OC)ccc2F)C1
REMARK SMILES IDX 8 1 7 2 6 3 4 4 5 5 3 7 74 8 88 9 75 10 77 11 76 12 2 14
REMARK SMILES IDX 1 15 78 16 79 17 80 18 86 19 81 20 85 21 87 22 84 23 82 24
REMARK SMILES IDX 83 25 9 26 10 27 11 28 12 29 13 31 14 32 15 33 73 34 16 35
REMARK SMILES IDX 72 36 17 37 18 38 19 39 66 40 20 41 71 42 65 43 67 44 21 45
REMARK SMILES IDX 70 46 64 47 63 48 22 50 52 51 33 52 51 53 34 54 37 55 50 56
REMARK SMILES IDX 68 57 35 58 36 59 49 61 69 62 38 63 23 64 24 65 32 66 25 67
REMARK SMILES IDX 31 68 26 69 27 70 28 71 29 72 30 73 53 74 54 75 62 76 55 77
REMARK SMILES IDX 61 78 56 79 57 80 58 81 59 82 60 83 39 84 40 85 48 86 41 87
REMARK SMILES IDX 47 88 42 89 43 90 44 91 45 92 46 93
REMARK H PARENT 6 6 77 13 11 30 67 49 37 60
REMARK Flexibility Score: inf
ROOT
ATOM      1  C   UNL A   1      33.283  30.436  26.933  1.00  0.00     0.023 C 
ENDROOT
BRANCH   1   2
ATOM      2  C   UNL A   1      32.194  29.965  25.978  1.00  0.00     0.116 C 
BRANCH   2   3
ATOM      3  N   UNL A   1      32.701  29.685  24.642  1.00  0.00    -0.355 N 
ATOM      4  C   UNL A   1      32.567  28.600  23.822  1.00  0.00     0.231 C 
ATOM      5  O   UNL A   1      32.937  28.768  22.656  1.00  0.00    -0.274 OA
ATOM      6  H   UNL A   1      33.241  30.413  24.259  1.00  0.00     0.163 HD
BRANCH   4   7
ATOM      7  C   UNL A   1      31.945  27.263  24.303  1.00  0.00     0.098 C 
ATOM      8  C   UNL A   1      30.449  27.173  23.909  1.00  0.00     0.028 C 
ATOM      9  C   UNL A   1      32.803  26.138  23.646  1.00  0.00     0.279 C 
ATOM     10  C   UNL A   1      29.938  25.735  23.839  1.00  0.00     0.063 C 
ATOM     11  N   UNL A   1      32.194  24.806  23.520  1.00  0.00    -0.330 N 
ATOM     12  C   UNL A   1      30.837  24.852  22.979  1.00  0.00     0.262 C 
ATOM     13  H   UNL A   1      32.097  24.437  24.466  1.00  0.00     0.348 HD
BRANCH   7  14
ATOM     14  C   UNL A   1      32.073  27.108  25.858  1.00  0.00     0.019 C 
ATOM     15  C   UNL A   1      32.469  25.728  26.387  1.00  0.00     0.005 C 
ENDBRANCH   7  14
BRANCH  11  16
ATOM     16  C   UNL A   1      33.077  23.867  22.783  1.00  0.00     0.302 C 
BRANCH  16  17
ATOM     17  C   UNL A   1      33.317  22.504  23.406  1.00  0.00     0.046 A 
ATOM     18  C   UNL A   1      34.398  22.285  24.276  1.00  0.00     0.059 A 
ATOM     19  C   UNL A   1      32.471  21.423  23.138  1.00  0.00     0.132 A 
ATOM     20  C   UNL A   1      34.599  21.034  24.880  1.00  0.00     0.119 A 
ATOM     21  C   UNL A   1      32.620  20.200  23.784  1.00  0.00     0.043 A 
ATOM     22  F   UNL A   1      31.463  21.557  22.265  1.00  0.00    -0.206 F 
ATOM     23  C   UNL A   1      33.679  20.007  24.670  1.00  0.00     0.049 A 
BRANCH  20  24
ATOM     24  O   UNL A   1      35.720  20.940  25.661  1.00  0.00    -0.497 OA
ATOM     25  C   UNL A   1      36.964  21.102  24.984  1.00  0.00     0.278 C 
ENDBRANCH  20  24
ENDBRANCH  16  17
ENDBRANCH  11  16
ENDBRANCH   4   7
ENDBRANCH   2   3
ENDBRANCH   1   2
BRANCH   1  26
ATOM     26  C   UNL A   1      34.337  29.380  27.267  1.00  0.00     0.023 C 
BRANCH  26  27
ATOM     27  C   UNL A   1      35.609  29.910  27.925  1.00  0.00     0.116 C 
BRANCH  27  28
ATOM     28  N   UNL A   1      35.400  30.376  29.289  1.00  0.00    -0.352 N 
ATOM     29  C   UNL A   1      36.325  30.561  30.290  1.00  0.00     0.251 C 
ATOM     30  H   UNL A   1      34.468  30.590  29.527  1.00  0.00     0.163 HD
ATOM     31  O   UNL A   1      35.958  30.867  31.422  1.00  0.00    -0.269 OA
BRANCH  29  32
ATOM     32  C   UNL A   1      37.760  30.361  29.997  1.00  0.00     0.039 A 
ATOM     33  C   UNL A   1      38.636  30.069  31.046  1.00  0.00     0.014 A 
ATOM     34  C   UNL A   1      38.225  30.413  28.681  1.00  0.00     0.014 A 
ATOM     35  C   UNL A   1      39.966  29.746  30.764  1.00  0.00     0.010 A 
ATOM     36  C   UNL A   1      39.533  30.030  28.397  1.00  0.00     0.010 A 
ATOM     37  C   UNL A   1      40.413  29.680  29.433  1.00  0.00    -0.014 A 
BRANCH  37  38
ATOM     38  C   UNL A   1      41.784  29.219  29.093  1.00  0.00     0.031 A 
ATOM     39  C   UNL A   1      42.927  30.198  29.075  1.00  0.00     0.074 A 
ATOM     40  C   UNL A   1      41.986  27.942  28.712  1.00  0.00     0.049 A 
ATOM     41  N   UNL A   1      44.164  30.014  28.690  1.00  0.00    -0.248 NA
ATOM     42  C   UNL A   1      42.634  31.566  29.529  1.00  0.00     0.031 C 
ATOM     43  C   UNL A   1      40.958  26.899  28.656  1.00  0.00     0.029 A 
ATOM     44  N   UNL A   1      43.125  27.305  28.283  1.00  0.00    -0.354 N 
ATOM     45  C   UNL A   1      44.792  31.244  28.836  1.00  0.00     0.074 A 
ATOM     46  C   UNL A   1      43.790  32.177  29.308  1.00  0.00     0.031 C 
ATOM     47  C   UNL A   1      41.516  25.752  28.235  1.00  0.00     0.029 A 
ATOM     48  C   UNL A   1      42.928  25.986  27.947  1.00  0.00     0.049 A 
ATOM     49  H   UNL A   1      44.000  27.752  28.222  1.00  0.00     0.167 HD
ATOM     50  C   UNL A   1      46.088  31.568  28.613  1.00  0.00     0.031 A 
ATOM     51  C   UNL A   1      43.781  25.070  27.447  1.00  0.00     0.031 A 
ATOM     52  C   UNL A   1      47.087  30.640  28.154  1.00  0.00     0.049 A 
ATOM     53  C   UNL A   1      45.209  25.461  27.180  1.00  0.00     0.074 A 
ATOM     54  C   UNL A   1      48.437  30.863  27.946  1.00  0.00     0.029 A 
ATOM     55  N   UNL A   1      46.846  29.314  27.829  1.00  0.00    -0.354 N 
ATOM     56  N   UNL A   1      45.794  26.618  27.373  1.00  0.00    -0.248 NA
ATOM     57  C   UNL A   1      46.089  24.421  26.631  1.00  0.00     0.031 C 
ATOM     58  C   UNL A   1      49.004  29.682  27.454  1.00  0.00     0.029 A 
ATOM     59  C   UNL A   1      48.017  28.711  27.401  1.00  0.00     0.049 A 
ATOM     60  H   UNL A   1      45.971  28.867  27.892  1.00  0.00     0.167 HD
ATOM     61  C   UNL A   1      47.118  26.440  26.986  1.00  0.00     0.074 A 
ATOM     62  C   UNL A   1      47.250  25.060  26.564  1.00  0.00     0.031 C 
ATOM     63  C   UNL A   1      48.132  27.338  26.982  1.00  0.00     0.031 A 
BRANCH  50  64
ATOM     64  C   UNL A   1      46.499  32.995  28.862  1.00  0.00    -0.014 A 
ATOM     65  C   UNL A   1      46.384  33.966  27.851  1.00  0.00     0.010 A 
ATOM     66  C   UNL A   1      46.971  33.378  30.130  1.00  0.00     0.010 A 
ATOM     67  C   UNL A   1      46.774  35.285  28.091  1.00  0.00     0.020 A 
ATOM     68  C   UNL A   1      47.338  34.703  30.382  1.00  0.00     0.020 A 
ATOM     69  C   UNL A   1      47.254  35.644  29.354  1.00  0.00     0.054 A 
BRANCH  69  70
ATOM     70  S   UNL A   1      47.739  37.368  29.641  1.00  0.00     0.124 S 
ATOM     71  O   UNL A   1      47.953  37.850  28.278  1.00  0.00    -0.237 OA
ATOM     72  O   UNL A   1      46.574  37.921  30.326  1.00  0.00    -0.237 OA
ATOM     73  O   UNL A   1      48.944  37.258  30.458  1.00  0.00    -0.744 OA
ENDBRANCH  69  70
ENDBRANCH  50  64
BRANCH  51  74
ATOM     74  C   UNL A   1      43.308  23.688  27.165  1.00  0.00    -0.014 A 
ATOM     75  C   UNL A   1      43.025  22.805  28.221  1.00  0.00     0.010 A 
ATOM     76  C   UNL A   1      43.132  23.249  25.839  1.00  0.00     0.010 A 
ATOM     77  C   UNL A   1      42.592  21.502  27.958  1.00  0.00     0.020 A 
ATOM     78  C   UNL A   1      42.676  21.955  25.574  1.00  0.00     0.020 A 
ATOM     79  C   UNL A   1      42.419  21.086  26.636  1.00  0.00     0.054 A 
BRANCH  79  80
ATOM     80  S   UNL A   1      41.807  19.408  26.318  1.00  0.00     0.124 S 
ATOM     81  O   UNL A   1      42.516  19.053  25.092  1.00  0.00    -0.237 OA
ATOM     82  O   UNL A   1      42.220  18.686  27.520  1.00  0.00    -0.237 OA
ATOM     83  O   UNL A   1      40.364  19.592  26.179  1.00  0.00    -0.744 OA
ENDBRANCH  79  80
ENDBRANCH  51  74
BRANCH  63  84
ATOM     84  C   UNL A   1      49.484  26.855  26.528  1.00  0.00    -0.014 A 
ATOM     85  C   UNL A   1      50.365  26.224  27.424  1.00  0.00     0.010 A 
ATOM     86  C   UNL A   1      49.849  26.980  25.176  1.00  0.00     0.010 A 
ATOM     87  C   UNL A   1      51.600  25.745  26.978  1.00  0.00     0.020 A 
ATOM     88  C   UNL A   1      51.073  26.480  24.722  1.00  0.00     0.020 A 
ATOM     89  C   UNL A   1      51.946  25.875  25.629  1.00  0.00     0.054 A 
BRANCH  89  90
ATOM     90  S   UNL A   1      53.529  25.195  25.062  1.00  0.00     0.124 S 
ATOM     91  O   UNL A   1      53.593  25.680  23.687  1.00  0.00    -0.237 OA
ATOM     92  O   UNL A   1      54.487  25.798  25.986  1.00  0.00    -0.237 OA
ATOM     93  O   UNL A   1      53.357  23.752  25.208  1.00  0.00    -0.744 OA
ENDBRANCH  89  90
ENDBRANCH  63  84
ENDBRANCH  37  38
ENDBRANCH  29  32
ENDBRANCH  27  28
ENDBRANCH  26  27
ENDBRANCH   1  26
TORSDOF 18
ENDMDL
MODEL 3
REMARK VINA RESULT:     -10.1      5.373      6.986
REMARK SMILES CC[C@]1(C(=O)NCCCCNC(=O)c2ccc(-c3c4nc(c(-c5ccc(S(=O)(=O)[O-])cc5)c5ccc([nH]5)c(-c5ccc(S(=O)(=O)[O-])cc5)c5nc(c(-c6ccc(S(=O)(=O)[O-])cc6)c6ccc3[nH]6)C=C5)C=C4)cc2)CCC[N@@H+](Cc2cc(OC)ccc2F)C1
REMARK SMILES IDX 8 1 7 2 6 3 4 4 5 5 3 7 74 8 88 9 75 10 77 11 76 12 2 14
REMARK SMILES IDX 1 15 78 16 79 17 80 18 86 19 81 20 85 21 87 22 84 23 82 24
REMARK SMILES IDX 83 25 9 26 10 27 11 28 12 29 13 31 14 32 15 33 73 34 16 35
REMARK SMILES IDX 72 36 17 37 18 38 19 39 66 40 20 41 71 42 65 43 67 44 21 45
REMARK SMILES IDX 70 46 64 47 63 48 22 50 52 51 33 52 51 53 34 54 37 55 50 56
REMARK SMILES IDX 68 57 35 58 36 59 49 61 69 62 38 63 23 64 24 65 32 66 25 67
REMARK SMILES IDX 31 68 26 69 27 70 28 71 29 72 30 73 53 74 54 75 62 76 55 77
REMARK SMILES IDX 61 78 56 79 57 80 58 81 59 82 60 83 39 84 40 85 48 86 41 87
REMARK SMILES IDX 47 88 42 89 43 90 44 91 45 92 46 93
REMARK H PARENT 6 6 77 13 11 30 67 49 37 60
REMARK Flexibility Score: inf
ROOT
ATOM      1  C   UNL A   1      33.252  30.583  26.954  1.00  0.00     0.023 C 
ENDROOT
BRANCH   1   2
ATOM      2  C   UNL A   1      32.441  30.089  25.764  1.00  0.00     0.116 C 
BRANCH   2   3
ATOM      3  N   UNL A   1      33.277  29.581  24.686  1.00  0.00    -0.355 N 
ATOM      4  C   UNL A   1      33.280  28.391  24.013  1.00  0.00     0.231 C 
ATOM      5  O   UNL A   1      33.981  28.359  22.996  1.00  0.00    -0.274 OA
ATOM      6  H   UNL A   1      33.971  30.212  24.387  1.00  0.00     0.163 HD
BRANCH   4   7
ATOM      7  C   UNL A   1      32.423  27.179  24.460  1.00  0.00     0.098 C 
ATOM      8  C   UNL A   1      30.929  27.395  24.111  1.00  0.00     0.028 C 
ATOM      9  C   UNL A   1      33.032  25.941  23.731  1.00  0.00     0.279 C 
ATOM     10  C   UNL A   1      30.148  26.087  24.001  1.00  0.00     0.063 C 
ATOM     11  N   UNL A   1      32.174  24.758  23.572  1.00  0.00    -0.330 N 
ATOM     12  C   UNL A   1      30.839  25.088  23.077  1.00  0.00     0.262 C 
ATOM     13  H   UNL A   1      32.031  24.371  24.504  1.00  0.00     0.348 HD
BRANCH   7  14
ATOM     14  C   UNL A   1      32.557  26.931  26.002  1.00  0.00     0.019 C 
ATOM     15  C   UNL A   1      32.919  25.513  26.448  1.00  0.00     0.005 C 
ENDBRANCH   7  14
BRANCH  11  16
ATOM     16  C   UNL A   1      32.841  23.702  22.768  1.00  0.00     0.302 C 
BRANCH  16  17
ATOM     17  C   UNL A   1      33.365  22.487  23.515  1.00  0.00     0.046 A 
ATOM     18  C   UNL A   1      32.652  21.277  23.522  1.00  0.00     0.059 A 
ATOM     19  C   UNL A   1      34.574  22.532  24.216  1.00  0.00     0.132 A 
ATOM     20  C   UNL A   1      33.154  20.145  24.181  1.00  0.00     0.119 A 
ATOM     21  C   UNL A   1      35.115  21.397  24.814  1.00  0.00     0.043 A 
ATOM     22  F   UNL A   1      35.264  23.678  24.297  1.00  0.00    -0.206 F 
ATOM     23  C   UNL A   1      34.410  20.195  24.786  1.00  0.00     0.049 A 
BRANCH  20  24
ATOM     24  O   UNL A   1      32.334  19.048  24.159  1.00  0.00    -0.497 OA
ATOM     25  C   UNL A   1      32.384  18.259  22.973  1.00  0.00     0.278 C 
ENDBRANCH  20  24
ENDBRANCH  16  17
ENDBRANCH  11  16
ENDBRANCH   4   7
ENDBRANCH   2   3
ENDBRANCH   1   2
BRANCH   1  26
ATOM     26  C   UNL A   1      34.480  29.735  27.285  1.00  0.00     0.023 C 
BRANCH  26  27
ATOM     27  C   UNL A   1      35.614  30.473  27.993  1.00  0.00     0.116 C 
BRANCH  27  28
ATOM     28  N   UNL A   1      35.567  30.344  29.444  1.00  0.00    -0.352 N 
ATOM     29  C   UNL A   1      36.502  29.801  30.293  1.00  0.00     0.251 C 
ATOM     30  H   UNL A   1      34.753  30.695  29.875  1.00  0.00     0.163 HD
ATOM     31  O   UNL A   1      36.253  29.681  31.490  1.00  0.00    -0.269 OA
BRANCH  29  32
ATOM     32  C   UNL A   1      37.795  29.338  29.747  1.00  0.00     0.039 A 
ATOM     33  C   UNL A   1      38.077  29.545  28.394  1.00  0.00     0.014 A 
ATOM     34  C   UNL A   1      38.744  28.746  30.584  1.00  0.00     0.014 A 
ATOM     35  C   UNL A   1      39.346  29.234  27.899  1.00  0.00     0.010 A 
ATOM     36  C   UNL A   1      40.027  28.497  30.104  1.00  0.00     0.010 A 
ATOM     37  C   UNL A   1      40.345  28.750  28.760  1.00  0.00    -0.014 A 
BRANCH  37  38
ATOM     38  C   UNL A   1      41.738  28.529  28.293  1.00  0.00     0.031 A 
ATOM     39  C   UNL A   1      42.188  27.152  27.885  1.00  0.00     0.074 A 
ATOM     40  C   UNL A   1      42.624  29.545  28.322  1.00  0.00     0.049 A 
ATOM     41  N   UNL A   1      43.387  26.738  27.565  1.00  0.00    -0.248 NA
ATOM     42  C   UNL A   1      41.158  26.101  27.854  1.00  0.00     0.031 C 
ATOM     43  C   UNL A   1      42.325  30.922  28.726  1.00  0.00     0.029 A 
ATOM     44  N   UNL A   1      43.963  29.573  28.020  1.00  0.00    -0.354 N 
ATOM     45  C   UNL A   1      43.262  25.377  27.314  1.00  0.00     0.074 A 
ATOM     46  C   UNL A   1      41.878  25.028  27.556  1.00  0.00     0.031 C 
ATOM     47  C   UNL A   1      43.442  31.661  28.631  1.00  0.00     0.029 A 
ATOM     48  C   UNL A   1      44.545  30.806  28.205  1.00  0.00     0.049 A 
ATOM     49  H   UNL A   1      44.460  28.785  27.702  1.00  0.00     0.167 HD
ATOM     50  C   UNL A   1      44.208  24.499  26.904  1.00  0.00     0.031 A 
ATOM     51  C   UNL A   1      45.826  31.202  28.064  1.00  0.00     0.031 A 
ATOM     52  C   UNL A   1      45.581  24.846  26.654  1.00  0.00     0.049 A 
ATOM     53  C   UNL A   1      46.864  30.201  27.636  1.00  0.00     0.074 A 
ATOM     54  C   UNL A   1      46.602  24.035  26.188  1.00  0.00     0.029 A 
ATOM     55  N   UNL A   1      46.128  26.105  26.850  1.00  0.00    -0.354 N 
ATOM     56  N   UNL A   1      46.714  28.930  27.354  1.00  0.00    -0.248 NA
ATOM     57  C   UNL A   1      48.243  30.692  27.504  1.00  0.00     0.031 C 
ATOM     58  C   UNL A   1      47.777  24.795  26.143  1.00  0.00     0.029 A 
ATOM     59  C   UNL A   1      47.476  26.089  26.535  1.00  0.00     0.049 A 
ATOM     60  H   UNL A   1      45.630  26.894  27.165  1.00  0.00     0.167 HD
ATOM     61  C   UNL A   1      47.977  28.472  26.993  1.00  0.00     0.074 A 
ATOM     62  C   UNL A   1      48.875  29.607  27.077  1.00  0.00     0.031 C 
ATOM     63  C   UNL A   1      48.358  27.225  26.626  1.00  0.00     0.031 A 
BRANCH  50  64
ATOM     64  C   UNL A   1      43.784  23.068  26.704  1.00  0.00    -0.014 A 
ATOM     65  C   UNL A   1      43.013  22.401  27.672  1.00  0.00     0.010 A 
ATOM     66  C   UNL A   1      44.130  22.393  25.519  1.00  0.00     0.010 A 
ATOM     67  C   UNL A   1      42.632  21.071  27.479  1.00  0.00     0.020 A 
ATOM     68  C   UNL A   1      43.728  21.070  25.310  1.00  0.00     0.020 A 
ATOM     69  C   UNL A   1      42.997  20.412  26.301  1.00  0.00     0.054 A 
BRANCH  69  70
ATOM     70  S   UNL A   1      42.474  18.691  26.070  1.00  0.00     0.124 S 
ATOM     71  O   UNL A   1      43.371  18.246  25.005  1.00  0.00    -0.237 OA
ATOM     72  O   UNL A   1      42.719  18.101  27.383  1.00  0.00    -0.237 OA
ATOM     73  O   UNL A   1      41.068  18.804  25.693  1.00  0.00    -0.744 OA
ENDBRANCH  69  70
ENDBRANCH  50  64
BRANCH  51  74
ATOM     74  C   UNL A   1      46.201  32.617  28.330  1.00  0.00    -0.014 A 
ATOM     75  C   UNL A   1      46.209  33.558  27.287  1.00  0.00     0.010 A 
ATOM     76  C   UNL A   1      46.546  33.032  29.630  1.00  0.00     0.010 A 
ATOM     77  C   UNL A   1      46.573  34.885  27.533  1.00  0.00     0.020 A 
ATOM     78  C   UNL A   1      46.887  34.364  29.884  1.00  0.00     0.020 A 
ATOM     79  C   UNL A   1      46.908  35.280  28.830  1.00  0.00     0.054 A 
BRANCH  79  80
ATOM     80  S   UNL A   1      47.327  37.019  29.137  1.00  0.00     0.124 S 
ATOM     81  O   UNL A   1      48.714  37.081  28.685  1.00  0.00    -0.237 OA
ATOM     82  O   UNL A   1      46.358  37.730  28.306  1.00  0.00    -0.237 OA
ATOM     83  O   UNL A   1      47.129  37.168  30.577  1.00  0.00    -0.744 OA
ENDBRANCH  79  80
ENDBRANCH  51  74
BRANCH  63  84
ATOM     84  C   UNL A   1      49.804  27.020  26.261  1.00  0.00    -0.014 A 
ATOM     85  C   UNL A   1      50.746  26.633  27.230  1.00  0.00     0.010 A 
ATOM     86  C   UNL A   1      50.209  27.158  24.922  1.00  0.00     0.010 A 
ATOM     87  C   UNL A   1      52.077  26.407  26.867  1.00  0.00     0.020 A 
ATOM     88  C   UNL A   1      51.534  26.909  24.552  1.00  0.00     0.020 A 
ATOM     89  C   UNL A   1      52.462  26.546  25.530  1.00  0.00     0.054 A 
BRANCH  89  90
ATOM     90  S   UNL A   1      54.182  26.194  25.074  1.00  0.00     0.124 S 
ATOM     91  O   UNL A   1      54.141  24.757  24.821  1.00  0.00    -0.237 OA
ATOM     92  O   UNL A   1      54.382  27.034  23.895  1.00  0.00    -0.237 OA
ATOM     93  O   UNL A   1      54.942  26.598  26.254  1.00  0.00    -0.744 OA
ENDBRANCH  89  90
ENDBRANCH  63  84
ENDBRANCH  37  38
ENDBRANCH  29  32
ENDBRANCH  27  28
ENDBRANCH  26  27
ENDBRANCH   1  26
TORSDOF 18
ENDMDL
