MODEL 1
REMARK VINA RESULT:      -7.7      0.000      0.000
REMARK SMILES O=C(CCCCC(=O)NC(=O)NC1CC1)NCCCCNC(=O)c1ccc(-c2c3nc(c(-c4ccc(S(=O)(=O)[O-])cc4)c4ccc([nH]4)c(-c4ccc(S(=O)(=O)[O-])cc4)c4nc(c(-c5ccc(S(=O)(=O)[O-])cc5)c5ccc2[nH]5)C=C4)C=C3)cc1
REMARK SMILES IDX 17 1 16 2 1 3 2 4 3 6 4 7 5 8 6 9 7 10 8 11 9 12 10 13 11 15
REMARK SMILES IDX 12 16 13 18 14 19 15 20 18 21 19 22 20 23 21 24 22 25 23 27
REMARK SMILES IDX 24 28 25 29 83 30 26 31 82 32 27 33 28 34 29 35 76 36 30 37
REMARK SMILES IDX 81 38 75 39 77 40 31 41 80 42 74 43 73 44 32 46 62 47 43 48
REMARK SMILES IDX 61 49 44 50 47 51 60 52 78 53 45 54 46 55 59 57 79 58 48 59
REMARK SMILES IDX 33 60 34 61 42 62 35 63 41 64 36 65 37 66 38 67 39 68 40 69
REMARK SMILES IDX 63 70 64 71 72 72 65 73 71 74 66 75 67 76 68 77 69 78 70 79
REMARK SMILES IDX 49 80 50 81 58 82 51 83 57 84 52 85 53 86 54 87 55 88 56 89
REMARK H PARENT 16 5 9 14 12 17 21 26 77 45 47 56
REMARK Flexibility Score: inf
ROOT
ATOM      1  C   UNL A   1      43.948  24.645  25.579  1.00  0.00     0.116 C 
ENDROOT
BRANCH   1   2
ATOM      2  N   UNL A   1      44.367  25.868  26.240  1.00  0.00    -0.356 N 
ATOM      3  O   UNL A   1      43.230  27.268  24.825  1.00  0.00    -0.275 OA
ATOM      4  C   UNL A   1      43.989  27.108  25.777  1.00  0.00     0.219 C 
ATOM      5  H   UNL A   1      44.939  25.810  27.039  1.00  0.00     0.163 HD
BRANCH   4   6
ATOM      6  C   UNL A   1      44.687  28.283  26.438  1.00  0.00     0.100 C 
BRANCH   6   7
ATOM      7  C   UNL A   1      43.862  29.466  26.947  1.00  0.00     0.010 C 
BRANCH   7   8
ATOM      8  C   UNL A   1      44.513  30.700  27.582  1.00  0.00     0.010 C 
BRANCH   8   9
ATOM      9  C   UNL A   1      44.634  32.041  26.849  1.00  0.00     0.100 C 
BRANCH   9  10
ATOM     10  C   UNL A   1      45.912  32.838  26.979  1.00  0.00     0.227 C 
ATOM     11  O   UNL A   1      46.786  32.732  26.111  1.00  0.00    -0.275 OA
ATOM     12  N   UNL A   1      46.191  33.680  28.033  1.00  0.00    -0.278 N 
ATOM     13  C   UNL A   1      45.689  34.135  29.221  1.00  0.00     0.321 C 
ATOM     14  H   UNL A   1      47.064  34.108  27.874  1.00  0.00     0.174 HD
ATOM     15  O   UNL A   1      46.475  34.349  30.148  1.00  0.00    -0.248 OA
ATOM     16  N   UNL A   1      44.379  34.379  29.427  1.00  0.00    -0.335 N 
ATOM     17  H   UNL A   1      44.162  34.640  30.351  1.00  0.00     0.165 HD
BRANCH  16  18
ATOM     18  C   UNL A   1      43.261  34.331  28.562  1.00  0.00     0.084 C 
ATOM     19  C   UNL A   1      42.103  35.268  28.740  1.00  0.00     0.027 C 
ATOM     20  C   UNL A   1      42.994  35.388  27.537  1.00  0.00     0.027 C 
ENDBRANCH  16  18
ENDBRANCH   9  10
ENDBRANCH   8   9
ENDBRANCH   7   8
ENDBRANCH   6   7
ENDBRANCH   4   6
ENDBRANCH   1   2
BRANCH   1  21
ATOM     21  C   UNL A   1      43.313  23.646  26.548  1.00  0.00     0.023 C 
BRANCH  21  22
ATOM     22  C   UNL A   1      42.453  22.558  25.903  1.00  0.00     0.023 C 
BRANCH  22  23
ATOM     23  C   UNL A   1      41.330  22.002  26.771  1.00  0.00     0.116 C 
BRANCH  23  24
ATOM     24  N   UNL A   1      40.026  22.072  26.131  1.00  0.00    -0.352 N 
ATOM     25  C   UNL A   1      39.091  23.079  26.157  1.00  0.00     0.251 C 
ATOM     26  H   UNL A   1      39.777  21.282  25.601  1.00  0.00     0.163 HD
ATOM     27  O   UNL A   1      37.985  22.891  25.653  1.00  0.00    -0.269 OA
BRANCH  25  28
ATOM     28  C   UNL A   1      39.395  24.369  26.816  1.00  0.00     0.039 A 
ATOM     29  C   UNL A   1      38.977  24.566  28.135  1.00  0.00     0.014 A 
ATOM     30  C   UNL A   1      40.088  25.382  26.147  1.00  0.00     0.014 A 
ATOM     31  C   UNL A   1      39.314  25.746  28.803  1.00  0.00     0.010 A 
ATOM     32  C   UNL A   1      40.495  26.521  26.841  1.00  0.00     0.010 A 
ATOM     33  C   UNL A   1      40.110  26.718  28.175  1.00  0.00    -0.014 A 
BRANCH  33  34
ATOM     34  C   UNL A   1      40.552  27.940  28.900  1.00  0.00     0.031 A 
ATOM     35  C   UNL A   1      41.913  27.993  29.543  1.00  0.00     0.074 A 
ATOM     36  C   UNL A   1      39.707  28.984  29.029  1.00  0.00     0.049 A 
ATOM     37  N   UNL A   1      42.449  28.949  30.258  1.00  0.00    -0.248 NA
ATOM     38  C   UNL A   1      42.772  26.809  29.384  1.00  0.00     0.031 C 
ATOM     39  C   UNL A   1      38.347  29.046  28.487  1.00  0.00     0.029 A 
ATOM     40  N   UNL A   1      39.865  30.193  29.661  1.00  0.00    -0.354 N 
ATOM     41  C   UNL A   1      43.700  28.480  30.642  1.00  0.00     0.074 A 
ATOM     42  C   UNL A   1      43.818  27.132  30.130  1.00  0.00     0.031 C 
ATOM     43  C   UNL A   1      37.807  30.238  28.786  1.00  0.00     0.029 A 
ATOM     44  C   UNL A   1      38.760  31.009  29.578  1.00  0.00     0.049 A 
ATOM     45  H   UNL A   1      40.691  30.452  30.130  1.00  0.00     0.167 HD
ATOM     46  C   UNL A   1      44.673  29.118  31.337  1.00  0.00     0.031 A 
ATOM     47  C   UNL A   1      38.532  32.234  30.091  1.00  0.00     0.031 A 
ATOM     48  C   UNL A   1      44.554  30.460  31.844  1.00  0.00     0.049 A 
ATOM     49  C   UNL A   1      39.617  32.914  30.880  1.00  0.00     0.074 A 
ATOM     50  C   UNL A   1      45.500  31.210  32.521  1.00  0.00     0.029 A 
ATOM     51  N   UNL A   1      43.420  31.252  31.737  1.00  0.00    -0.354 N 
ATOM     52  N   UNL A   1      40.818  32.476  31.177  1.00  0.00    -0.248 NA
ATOM     53  C   UNL A   1      39.320  34.259  31.394  1.00  0.00     0.031 C 
ATOM     54  C   UNL A   1      44.918  32.431  32.875  1.00  0.00     0.029 A 
ATOM     55  C   UNL A   1      43.634  32.470  32.357  1.00  0.00     0.049 A 
ATOM     56  H   UNL A   1      42.587  30.985  31.286  1.00  0.00     0.167 HD
ATOM     57  C   UNL A   1      41.430  33.503  31.888  1.00  0.00     0.074 A 
ATOM     58  C   UNL A   1      40.473  34.590  31.961  1.00  0.00     0.031 C 
ATOM     59  C   UNL A   1      42.673  33.543  32.428  1.00  0.00     0.031 A 
BRANCH  46  60
ATOM     60  C   UNL A   1      45.953  28.364  31.597  1.00  0.00    -0.014 A 
ATOM     61  C   UNL A   1      47.003  28.370  30.660  1.00  0.00     0.010 A 
ATOM     62  C   UNL A   1      46.124  27.670  32.808  1.00  0.00     0.010 A 
ATOM     63  C   UNL A   1      48.180  27.657  30.909  1.00  0.00     0.020 A 
ATOM     64  C   UNL A   1      47.312  26.982  33.075  1.00  0.00     0.020 A 
ATOM     65  C   UNL A   1      48.326  26.966  32.115  1.00  0.00     0.054 A 
BRANCH  65  66
ATOM     66  S   UNL A   1      49.870  26.063  32.416  1.00  0.00     0.124 S 
ATOM     67  O   UNL A   1      50.144  26.395  33.813  1.00  0.00    -0.237 OA
ATOM     68  O   UNL A   1      49.483  24.678  32.164  1.00  0.00    -0.237 OA
ATOM     69  O   UNL A   1      50.802  26.634  31.447  1.00  0.00    -0.744 OA
ENDBRANCH  65  66
ENDBRANCH  46  60
BRANCH  47  70
ATOM     70  C   UNL A   1      37.218  32.899  29.863  1.00  0.00    -0.014 A 
ATOM     71  C   UNL A   1      37.033  33.775  28.779  1.00  0.00     0.010 A 
ATOM     72  C   UNL A   1      36.137  32.646  30.729  1.00  0.00     0.010 A 
ATOM     73  C   UNL A   1      35.797  34.395  28.571  1.00  0.00     0.020 A 
ATOM     74  C   UNL A   1      34.891  33.240  30.506  1.00  0.00     0.020 A 
ATOM     75  C   UNL A   1      34.732  34.120  29.434  1.00  0.00     0.054 A 
BRANCH  75  76
ATOM     76  S   UNL A   1      33.121  34.891  29.111  1.00  0.00     0.124 S 
ATOM     77  O   UNL A   1      32.510  34.885  30.436  1.00  0.00    -0.237 OA
ATOM     78  O   UNL A   1      33.501  36.202  28.591  1.00  0.00    -0.237 OA
ATOM     79  O   UNL A   1      32.505  33.997  28.133  1.00  0.00    -0.744 OA
ENDBRANCH  75  76
ENDBRANCH  47  70
BRANCH  59  80
ATOM     80  C   UNL A   1      43.091  34.816  33.119  1.00  0.00    -0.014 A 
ATOM     81  C   UNL A   1      42.940  34.981  34.507  1.00  0.00     0.010 A 
ATOM     82  C   UNL A   1      43.699  35.841  32.370  1.00  0.00     0.010 A 
ATOM     83  C   UNL A   1      43.358  36.162  35.128  1.00  0.00     0.020 A 
ATOM     84  C   UNL A   1      44.147  37.009  32.991  1.00  0.00     0.020 A 
ATOM     85  C   UNL A   1      43.962  37.168  34.366  1.00  0.00     0.054 A 
BRANCH  85  86
ATOM     86  S   UNL A   1      44.536  38.670  35.203  1.00  0.00     0.124 S 
ATOM     87  O   UNL A   1      44.154  38.413  36.589  1.00  0.00    -0.237 OA
ATOM     88  O   UNL A   1      45.973  38.656  34.935  1.00  0.00    -0.237 OA
ATOM     89  O   UNL A   1      43.795  39.742  34.542  1.00  0.00    -0.744 OA
ENDBRANCH  85  86
ENDBRANCH  59  80
ENDBRANCH  33  34
ENDBRANCH  25  28
ENDBRANCH  23  24
ENDBRANCH  22  23
ENDBRANCH  21  22
ENDBRANCH   1  21
TORSDOF 19
ENDMDL
MODEL 2
REMARK VINA RESULT:      -7.7      4.987     11.362
REMARK SMILES O=C(CCCCC(=O)NC(=O)NC1CC1)NCCCCNC(=O)c1ccc(-c2c3nc(c(-c4ccc(S(=O)(=O)[O-])cc4)c4ccc([nH]4)c(-c4ccc(S(=O)(=O)[O-])cc4)c4nc(c(-c5ccc(S(=O)(=O)[O-])cc5)c5ccc2[nH]5)C=C4)C=C3)cc1
REMARK SMILES IDX 17 1 16 2 1 3 2 4 3 6 4 7 5 8 6 9 7 10 8 11 9 12 10 13 11 15
REMARK SMILES IDX 12 16 13 18 14 19 15 20 18 21 19 22 20 23 21 24 22 25 23 27
REMARK SMILES IDX 24 28 25 29 83 30 26 31 82 32 27 33 28 34 29 35 76 36 30 37
REMARK SMILES IDX 81 38 75 39 77 40 31 41 80 42 74 43 73 44 32 46 62 47 43 48
REMARK SMILES IDX 61 49 44 50 47 51 60 52 78 53 45 54 46 55 59 57 79 58 48 59
REMARK SMILES IDX 33 60 34 61 42 62 35 63 41 64 36 65 37 66 38 67 39 68 40 69
REMARK SMILES IDX 63 70 64 71 72 72 65 73 71 74 66 75 67 76 68 77 69 78 70 79
REMARK SMILES IDX 49 80 50 81 58 82 51 83 57 84 52 85 53 86 54 87 55 88 56 89
REMARK H PARENT 16 5 9 14 12 17 21 26 77 45 47 56
REMARK Flexibility Score: inf
ROOT
ATOM      1  C   UNL A   1      35.407  32.142  28.527  1.00  0.00     0.116 C 
ENDROOT
BRANCH   1   2
ATOM      2  N   UNL A   1      34.979  31.225  27.485  1.00  0.00    -0.356 N 
ATOM      3  O   UNL A   1      35.521  29.324  28.645  1.00  0.00    -0.275 OA
ATOM      4  C   UNL A   1      35.104  29.861  27.623  1.00  0.00     0.219 C 
ATOM      5  H   UNL A   1      34.591  31.589  26.657  1.00  0.00     0.163 HD
BRANCH   4   6
ATOM      6  C   UNL A   1      34.821  29.058  26.366  1.00  0.00     0.100 C 
BRANCH   6   7
ATOM      7  C   UNL A   1      33.892  27.846  26.435  1.00  0.00     0.010 C 
BRANCH   7   8
ATOM      8  C   UNL A   1      32.381  27.989  26.654  1.00  0.00     0.010 C 
BRANCH   8   9
ATOM      9  C   UNL A   1      31.389  28.144  25.496  1.00  0.00     0.100 C 
BRANCH   9  10
ATOM     10  C   UNL A   1      31.265  29.484  24.808  1.00  0.00     0.227 C 
ATOM     11  O   UNL A   1      31.481  30.519  25.449  1.00  0.00    -0.275 OA
ATOM     12  N   UNL A   1      30.901  29.643  23.489  1.00  0.00    -0.278 N 
ATOM     13  C   UNL A   1      30.518  28.944  22.377  1.00  0.00     0.321 C 
ATOM     14  H   UNL A   1      30.925  30.602  23.267  1.00  0.00     0.174 HD
ATOM     15  O   UNL A   1      29.679  29.449  21.626  1.00  0.00    -0.248 OA
ATOM     16  N   UNL A   1      31.023  27.739  22.050  1.00  0.00    -0.335 N 
ATOM     17  H   UNL A   1      30.604  27.331  21.258  1.00  0.00     0.165 HD
BRANCH  16  18
ATOM     18  C   UNL A   1      32.045  26.952  22.630  1.00  0.00     0.084 C 
ATOM     19  C   UNL A   1      32.447  25.637  22.030  1.00  0.00     0.027 C 
ATOM     20  C   UNL A   1      33.395  26.801  22.004  1.00  0.00     0.027 C 
ENDBRANCH  16  18
ENDBRANCH   9  10
ENDBRANCH   8   9
ENDBRANCH   7   8
ENDBRANCH   6   7
ENDBRANCH   4   6
ENDBRANCH   1   2
BRANCH   1  21
ATOM     21  C   UNL A   1      35.721  33.537  27.986  1.00  0.00     0.023 C 
BRANCH  21  22
ATOM     22  C   UNL A   1      34.606  34.572  28.147  1.00  0.00     0.023 C 
BRANCH  22  23
ATOM     23  C   UNL A   1      33.326  34.067  28.802  1.00  0.00     0.116 C 
BRANCH  23  24
ATOM     24  N   UNL A   1      32.743  35.023  29.730  1.00  0.00    -0.352 N 
ATOM     25  C   UNL A   1      33.075  35.288  31.037  1.00  0.00     0.251 C 
ATOM     26  H   UNL A   1      32.002  35.559  29.368  1.00  0.00     0.163 HD
ATOM     27  O   UNL A   1      32.370  36.049  31.698  1.00  0.00    -0.269 OA
BRANCH  25  28
ATOM     28  C   UNL A   1      34.249  34.637  31.661  1.00  0.00     0.039 A 
ATOM     29  C   UNL A   1      34.088  33.381  32.251  1.00  0.00     0.014 A 
ATOM     30  C   UNL A   1      35.503  35.253  31.666  1.00  0.00     0.014 A 
ATOM     31  C   UNL A   1      35.195  32.715  32.783  1.00  0.00     0.010 A 
ATOM     32  C   UNL A   1      36.620  34.552  32.119  1.00  0.00     0.010 A 
ATOM     33  C   UNL A   1      36.480  33.277  32.686  1.00  0.00    -0.014 A 
BRANCH  33  34
ATOM     34  C   UNL A   1      37.681  32.544  33.168  1.00  0.00     0.031 A 
ATOM     35  C   UNL A   1      38.330  32.922  34.473  1.00  0.00     0.074 A 
ATOM     36  C   UNL A   1      38.223  31.573  32.405  1.00  0.00     0.049 A 
ATOM     37  N   UNL A   1      39.410  32.433  35.028  1.00  0.00    -0.248 NA
ATOM     38  C   UNL A   1      37.700  34.008  35.242  1.00  0.00     0.031 C 
ATOM     39  C   UNL A   1      37.715  31.135  31.102  1.00  0.00     0.029 A 
ATOM     40  N   UNL A   1      39.326  30.780  32.611  1.00  0.00    -0.354 N 
ATOM     41  C   UNL A   1      39.594  33.155  36.202  1.00  0.00     0.074 A 
ATOM     42  C   UNL A   1      38.549  34.154  36.249  1.00  0.00     0.031 C 
ATOM     43  C   UNL A   1      38.486  30.138  30.641  1.00  0.00     0.029 A 
ATOM     44  C   UNL A   1      39.569  29.894  31.588  1.00  0.00     0.049 A 
ATOM     45  H   UNL A   1      39.890  30.841  33.416  1.00  0.00     0.167 HD
ATOM     46  C   UNL A   1      40.532  32.990  37.166  1.00  0.00     0.031 A 
ATOM     47  C   UNL A   1      40.557  28.992  31.422  1.00  0.00     0.031 A 
ATOM     48  C   UNL A   1      41.570  31.995  37.119  1.00  0.00     0.049 A 
ATOM     49  C   UNL A   1      41.603  28.842  32.493  1.00  0.00     0.074 A 
ATOM     50  C   UNL A   1      42.540  31.719  38.067  1.00  0.00     0.029 A 
ATOM     51  N   UNL A   1      41.780  31.116  36.066  1.00  0.00    -0.354 N 
ATOM     52  N   UNL A   1      41.720  29.493  33.626  1.00  0.00    -0.248 NA
ATOM     53  C   UNL A   1      42.642  27.828  32.269  1.00  0.00     0.031 C 
ATOM     54  C   UNL A   1      43.372  30.714  37.561  1.00  0.00     0.029 A 
ATOM     55  C   UNL A   1      42.878  30.316  36.330  1.00  0.00     0.049 A 
ATOM     56  H   UNL A   1      41.229  31.069  35.252  1.00  0.00     0.167 HD
ATOM     57  C   UNL A   1      42.830  28.948  34.263  1.00  0.00     0.074 A 
ATOM     58  C   UNL A   1      43.337  27.902  33.396  1.00  0.00     0.031 C 
ATOM     59  C   UNL A   1      43.377  29.281  35.459  1.00  0.00     0.031 A 
BRANCH  46  60
ATOM     60  C   UNL A   1      40.481  33.918  38.354  1.00  0.00    -0.014 A 
ATOM     61  C   UNL A   1      39.755  33.577  39.511  1.00  0.00     0.010 A 
ATOM     62  C   UNL A   1      41.197  35.128  38.331  1.00  0.00     0.010 A 
ATOM     63  C   UNL A   1      39.707  34.451  40.602  1.00  0.00     0.020 A 
ATOM     64  C   UNL A   1      41.178  35.990  39.432  1.00  0.00     0.020 A 
ATOM     65  C   UNL A   1      40.418  35.653  40.553  1.00  0.00     0.054 A 
BRANCH  65  66
ATOM     66  S   UNL A   1      40.349  36.759  41.989  1.00  0.00     0.124 S 
ATOM     67  O   UNL A   1      39.353  37.741  41.564  1.00  0.00    -0.237 OA
ATOM     68  O   UNL A   1      39.929  35.863  43.062  1.00  0.00    -0.237 OA
ATOM     69  O   UNL A   1      41.713  37.268  42.102  1.00  0.00    -0.744 OA
ENDBRANCH  65  66
ENDBRANCH  46  60
BRANCH  47  70
ATOM     70  C   UNL A   1      40.598  28.156  30.190  1.00  0.00    -0.014 A 
ATOM     71  C   UNL A   1      41.558  28.393  29.190  1.00  0.00     0.010 A 
ATOM     72  C   UNL A   1      39.679  27.104  30.018  1.00  0.00     0.010 A 
ATOM     73  C   UNL A   1      41.590  27.604  28.036  1.00  0.00     0.020 A 
ATOM     74  C   UNL A   1      39.728  26.292  28.880  1.00  0.00     0.020 A 
ATOM     75  C   UNL A   1      40.677  26.555  27.891  1.00  0.00     0.054 A 
BRANCH  75  76
ATOM     76  S   UNL A   1      40.776  25.507  26.413  1.00  0.00     0.124 S 
ATOM     77  O   UNL A   1      39.419  24.977  26.324  1.00  0.00    -0.237 OA
ATOM     78  O   UNL A   1      41.153  26.464  25.375  1.00  0.00    -0.237 OA
ATOM     79  O   UNL A   1      41.809  24.531  26.754  1.00  0.00    -0.744 OA
ENDBRANCH  75  76
ENDBRANCH  47  70
BRANCH  59  80
ATOM     80  C   UNL A   1      44.569  28.485  35.924  1.00  0.00    -0.014 A 
ATOM     81  C   UNL A   1      45.884  28.915  35.669  1.00  0.00     0.010 A 
ATOM     82  C   UNL A   1      44.367  27.315  36.679  1.00  0.00     0.010 A 
ATOM     83  C   UNL A   1      46.973  28.171  36.133  1.00  0.00     0.020 A 
ATOM     84  C   UNL A   1      45.452  26.586  37.172  1.00  0.00     0.020 A 
ATOM     85  C   UNL A   1      46.750  27.013  36.884  1.00  0.00     0.054 A 
BRANCH  85  86
ATOM     86  S   UNL A   1      48.181  26.092  37.512  1.00  0.00     0.124 S 
ATOM     87  O   UNL A   1      49.223  26.461  36.560  1.00  0.00    -0.237 OA
ATOM     88  O   UNL A   1      48.341  26.631  38.861  1.00  0.00    -0.237 OA
ATOM     89  O   UNL A   1      47.749  24.697  37.453  1.00  0.00    -0.744 OA
ENDBRANCH  85  86
ENDBRANCH  59  80
ENDBRANCH  33  34
ENDBRANCH  25  28
ENDBRANCH  23  24
ENDBRANCH  22  23
ENDBRANCH  21  22
ENDBRANCH   1  21
TORSDOF 19
ENDMDL
MODEL 3
REMARK VINA RESULT:      -7.6      4.039     11.190
REMARK SMILES O=C(CCCCC(=O)NC(=O)NC1CC1)NCCCCNC(=O)c1ccc(-c2c3nc(c(-c4ccc(S(=O)(=O)[O-])cc4)c4ccc([nH]4)c(-c4ccc(S(=O)(=O)[O-])cc4)c4nc(c(-c5ccc(S(=O)(=O)[O-])cc5)c5ccc2[nH]5)C=C4)C=C3)cc1
REMARK SMILES IDX 17 1 16 2 1 3 2 4 3 6 4 7 5 8 6 9 7 10 8 11 9 12 10 13 11 15
REMARK SMILES IDX 12 16 13 18 14 19 15 20 18 21 19 22 20 23 21 24 22 25 23 27
REMARK SMILES IDX 24 28 25 29 83 30 26 31 82 32 27 33 28 34 29 35 76 36 30 37
REMARK SMILES IDX 81 38 75 39 77 40 31 41 80 42 74 43 73 44 32 46 62 47 43 48
REMARK SMILES IDX 61 49 44 50 47 51 60 52 78 53 45 54 46 55 59 57 79 58 48 59
REMARK SMILES IDX 33 60 34 61 42 62 35 63 41 64 36 65 37 66 38 67 39 68 40 69
REMARK SMILES IDX 63 70 64 71 72 72 65 73 71 74 66 75 67 76 68 77 69 78 70 79
REMARK SMILES IDX 49 80 50 81 58 82 51 83 57 84 52 85 53 86 54 87 55 88 56 89
REMARK H PARENT 16 5 9 14 12 17 21 26 77 45 47 56
REMARK Flexibility Score: inf
ROOT
ATOM      1  C   UNL A   1      41.595  21.771  27.603  1.00  0.00     0.116 C 
ENDROOT
BRANCH   1   2
ATOM      2  N   UNL A   1      40.439  22.638  27.460  1.00  0.00    -0.356 N 
ATOM      3  O   UNL A   1      39.415  21.355  25.859  1.00  0.00    -0.275 OA
ATOM      4  C   UNL A   1      39.437  22.366  26.555  1.00  0.00     0.219 C 
ATOM      5  H   UNL A   1      40.370  23.443  28.023  1.00  0.00     0.163 HD
BRANCH   4   6
ATOM      6  C   UNL A   1      38.418  23.477  26.369  1.00  0.00     0.100 C 
BRANCH   6   7
ATOM      7  C   UNL A   1      37.357  23.355  25.275  1.00  0.00     0.010 C 
BRANCH   7   8
ATOM      8  C   UNL A   1      36.015  22.655  25.516  1.00  0.00     0.010 C 
BRANCH   8   9
ATOM      9  C   UNL A   1      35.249  21.929  24.403  1.00  0.00     0.100 C 
BRANCH   9  10
ATOM     10  C   UNL A   1      34.146  22.660  23.673  1.00  0.00     0.227 C 
ATOM     11  O   UNL A   1      34.427  23.369  22.700  1.00  0.00    -0.275 OA
ATOM     12  N   UNL A   1      32.817  22.609  24.033  1.00  0.00    -0.278 N 
ATOM     13  C   UNL A   1      31.966  22.087  24.967  1.00  0.00     0.321 C 
ATOM     14  H   UNL A   1      32.294  23.137  23.387  1.00  0.00     0.174 HD
ATOM     15  O   UNL A   1      31.001  22.767  25.328  1.00  0.00    -0.248 OA
ATOM     16  N   UNL A   1      32.115  20.858  25.500  1.00  0.00    -0.335 N 
ATOM     17  H   UNL A   1      31.462  20.647  26.206  1.00  0.00     0.165 HD
BRANCH  16  18
ATOM     18  C   UNL A   1      33.033  19.816  25.233  1.00  0.00     0.084 C 
ATOM     19  C   UNL A   1      32.677  18.383  25.497  1.00  0.00     0.027 C 
ATOM     20  C   UNL A   1      32.862  18.869  24.088  1.00  0.00     0.027 C 
ENDBRANCH  16  18
ENDBRANCH   9  10
ENDBRANCH   8   9
ENDBRANCH   7   8
ENDBRANCH   6   7
ENDBRANCH   4   6
ENDBRANCH   1   2
BRANCH   1  21
ATOM     21  C   UNL A   1      42.737  22.160  26.664  1.00  0.00     0.023 C 
BRANCH  21  22
ATOM     22  C   UNL A   1      43.867  22.971  27.300  1.00  0.00     0.023 C 
BRANCH  22  23
ATOM     23  C   UNL A   1      44.199  24.291  26.615  1.00  0.00     0.116 C 
BRANCH  23  24
ATOM     24  N   UNL A   1      43.160  24.737  25.700  1.00  0.00    -0.352 N 
ATOM     25  C   UNL A   1      42.119  25.607  25.916  1.00  0.00     0.251 C 
ATOM     26  H   UNL A   1      43.210  24.359  24.793  1.00  0.00     0.163 HD
ATOM     27  O   UNL A   1      41.263  25.755  25.045  1.00  0.00    -0.269 OA
BRANCH  25  28
ATOM     28  C   UNL A   1      42.003  26.337  27.199  1.00  0.00     0.039 A 
ATOM     29  C   UNL A   1      42.714  27.529  27.362  1.00  0.00     0.014 A 
ATOM     30  C   UNL A   1      41.201  25.857  28.238  1.00  0.00     0.014 A 
ATOM     31  C   UNL A   1      42.565  28.272  28.536  1.00  0.00     0.010 A 
ATOM     32  C   UNL A   1      40.989  26.641  29.371  1.00  0.00     0.010 A 
ATOM     33  C   UNL A   1      41.670  27.856  29.535  1.00  0.00    -0.014 A 
BRANCH  33  34
ATOM     34  C   UNL A   1      41.434  28.679  30.752  1.00  0.00     0.031 A 
ATOM     35  C   UNL A   1      40.310  29.681  30.785  1.00  0.00     0.074 A 
ATOM     36  C   UNL A   1      42.265  28.567  31.808  1.00  0.00     0.049 A 
ATOM     37  N   UNL A   1      39.984  30.521  31.734  1.00  0.00    -0.248 NA
ATOM     38  C   UNL A   1      39.459  29.769  29.588  1.00  0.00     0.031 C 
ATOM     39  C   UNL A   1      43.415  27.662  31.889  1.00  0.00     0.029 A 
ATOM     40  N   UNL A   1      42.275  29.221  33.016  1.00  0.00    -0.354 N 
ATOM     41  C   UNL A   1      38.899  31.242  31.247  1.00  0.00     0.074 A 
ATOM     42  C   UNL A   1      38.662  30.781  29.896  1.00  0.00     0.031 C 
ATOM     43  C   UNL A   1      43.999  27.799  33.090  1.00  0.00     0.029 A 
ATOM     44  C   UNL A   1      43.298  28.831  33.848  1.00  0.00     0.049 A 
ATOM     45  H   UNL A   1      41.611  29.905  33.263  1.00  0.00     0.167 HD
ATOM     46  C   UNL A   1      38.154  32.185  31.871  1.00  0.00     0.031 A 
ATOM     47  C   UNL A   1      43.644  29.261  35.078  1.00  0.00     0.031 A 
ATOM     48  C   UNL A   1      38.391  32.642  33.215  1.00  0.00     0.049 A 
ATOM     49  C   UNL A   1      42.817  30.327  35.743  1.00  0.00     0.074 A 
ATOM     50  C   UNL A   1      37.664  33.561  33.952  1.00  0.00     0.029 A 
ATOM     51  N   UNL A   1      39.437  32.221  34.024  1.00  0.00    -0.354 N 
ATOM     52  N   UNL A   1      41.755  30.950  35.287  1.00  0.00    -0.248 NA
ATOM     53  C   UNL A   1      43.226  30.740  37.092  1.00  0.00     0.031 C 
ATOM     54  C   UNL A   1      38.304  33.740  35.183  1.00  0.00     0.029 A 
ATOM     55  C   UNL A   1      39.389  32.879  35.240  1.00  0.00     0.049 A 
ATOM     56  H   UNL A   1      40.112  31.551  33.769  1.00  0.00     0.167 HD
ATOM     57  C   UNL A   1      41.354  31.808  36.306  1.00  0.00     0.074 A 
ATOM     58  C   UNL A   1      42.276  31.610  37.406  1.00  0.00     0.031 C 
ATOM     59  C   UNL A   1      40.314  32.679  36.328  1.00  0.00     0.031 A 
BRANCH  46  60
ATOM     60  C   UNL A   1      37.011  32.795  31.098  1.00  0.00    -0.014 A 
ATOM     61  C   UNL A   1      37.234  33.820  30.160  1.00  0.00     0.010 A 
ATOM     62  C   UNL A   1      35.703  32.312  31.283  1.00  0.00     0.010 A 
ATOM     63  C   UNL A   1      36.164  34.384  29.458  1.00  0.00     0.020 A 
ATOM     64  C   UNL A   1      34.635  32.851  30.559  1.00  0.00     0.020 A 
ATOM     65  C   UNL A   1      34.870  33.897  29.664  1.00  0.00     0.054 A 
BRANCH  65  66
ATOM     66  S   UNL A   1      33.504  34.637  28.728  1.00  0.00     0.124 S 
ATOM     67  O   UNL A   1      34.168  35.758  28.065  1.00  0.00    -0.237 OA
ATOM     68  O   UNL A   1      33.091  33.546  27.851  1.00  0.00    -0.237 OA
ATOM     69  O   UNL A   1      32.537  35.008  29.758  1.00  0.00    -0.744 OA
ENDBRANCH  65  66
ENDBRANCH  46  60
BRANCH  47  70
ATOM     70  C   UNL A   1      44.830  28.673  35.762  1.00  0.00    -0.014 A 
ATOM     71  C   UNL A   1      44.699  27.533  36.575  1.00  0.00     0.010 A 
ATOM     72  C   UNL A   1      46.103  29.247  35.590  1.00  0.00     0.010 A 
ATOM     73  C   UNL A   1      45.817  26.986  37.214  1.00  0.00     0.020 A 
ATOM     74  C   UNL A   1      47.228  28.685  36.202  1.00  0.00     0.020 A 
ATOM     75  C   UNL A   1      47.075  27.563  37.019  1.00  0.00     0.054 A 
BRANCH  75  76
ATOM     76  S   UNL A   1      48.519  26.801  37.811  1.00  0.00     0.124 S 
ATOM     77  O   UNL A   1      48.308  27.137  39.216  1.00  0.00    -0.237 OA
ATOM     78  O   UNL A   1      48.359  25.392  37.464  1.00  0.00    -0.237 OA
ATOM     79  O   UNL A   1      49.651  27.468  37.170  1.00  0.00    -0.744 OA
ENDBRANCH  75  76
ENDBRANCH  47  70
BRANCH  59  80
ATOM     80  C   UNL A   1      40.090  33.462  37.595  1.00  0.00    -0.014 A 
ATOM     81  C   UNL A   1      40.710  34.706  37.808  1.00  0.00     0.010 A 
ATOM     82  C   UNL A   1      39.197  32.969  38.565  1.00  0.00     0.010 A 
ATOM     83  C   UNL A   1      40.465  35.426  38.981  1.00  0.00     0.020 A 
ATOM     84  C   UNL A   1      38.926  33.700  39.724  1.00  0.00     0.020 A 
ATOM     85  C   UNL A   1      39.573  34.919  39.931  1.00  0.00     0.054 A 
BRANCH  85  86
ATOM     86  S   UNL A   1      39.240  35.894  41.424  1.00  0.00     0.124 S 
ATOM     87  O   UNL A   1      39.680  37.227  41.021  1.00  0.00    -0.237 OA
ATOM     88  O   UNL A   1      37.798  35.733  41.595  1.00  0.00    -0.237 OA
ATOM     89  O   UNL A   1      40.059  35.251  42.448  1.00  0.00    -0.744 OA
ENDBRANCH  85  86
ENDBRANCH  59  80
ENDBRANCH  33  34
ENDBRANCH  25  28
ENDBRANCH  23  24
ENDBRANCH  22  23
ENDBRANCH  21  22
ENDBRANCH   1  21
TORSDOF 19
ENDMDL
