MODEL 1
REMARK VINA RESULT:     -10.1      0.000      0.000
REMARK SMILES CC[C@H]1CN(C(=O)N(CC(=O)NCCCCNC(=O)c2ccc(-c3c4nc(c(-c5ccc(S(=O)(=O)[O-])cc5)c5ccc([nH]5)c(-c5ccc(S(=O)(=O)[O-])cc5)c5nc(c(-c6ccc(S(=O)(=O)[O-])cc6)c6ccc3[nH]6)C=C5)C=C4)cc2)C(C)(C)C)CC[N@@H+]1C
REMARK SMILES IDX 14 1 13 2 12 3 10 4 11 5 9 7 8 8 6 9 7 10 5 11 3 12 4 13
REMARK SMILES IDX 86 14 85 15 87 16 84 18 2 19 1 20 80 21 81 22 82 23 83 24
REMARK SMILES IDX 15 25 16 26 17 27 18 28 19 30 20 31 21 32 79 33 22 34 78 35
REMARK SMILES IDX 23 36 24 37 25 38 72 39 26 40 77 41 71 42 73 43 27 44 76 45
REMARK SMILES IDX 70 46 69 47 28 49 58 50 39 51 57 52 40 53 43 54 56 55 74 56
REMARK SMILES IDX 41 57 42 58 55 60 75 61 44 62 29 63 30 64 38 65 31 66 37 67
REMARK SMILES IDX 32 68 33 69 34 70 35 71 36 72 59 73 60 74 68 75 61 76 67 77
REMARK SMILES IDX 62 78 63 79 64 80 65 81 66 82 45 83 46 84 54 85 47 86 53 87
REMARK SMILES IDX 48 88 49 89 50 90 51 91 52 92
REMARK H PARENT 12 6 86 17 17 29 73 48 43 59
REMARK Flexibility Score: inf
ROOT
ATOM      1  C   UNL A   1      34.869  21.566  26.276  1.00  0.00     0.023 C 
ENDROOT
BRANCH   1   2
ATOM      2  C   UNL A   1      33.372  21.310  26.200  1.00  0.00     0.116 C 
BRANCH   2   3
ATOM      3  N   UNL A   1      32.610  22.258  26.984  1.00  0.00    -0.355 N 
ATOM      4  C   UNL A   1      31.656  23.135  26.562  1.00  0.00     0.239 C 
ATOM      5  O   UNL A   1      30.999  23.740  27.413  1.00  0.00    -0.273 OA
ATOM      6  H   UNL A   1      32.807  22.272  27.949  1.00  0.00     0.163 HD
BRANCH   4   7
ATOM      7  C   UNL A   1      31.326  23.252  25.069  1.00  0.00     0.221 C 
BRANCH   7   8
ATOM      8  N   UNL A   1      31.655  24.508  24.365  1.00  0.00    -0.311 N 
BRANCH   8   9
ATOM      9  C   UNL A   1      31.051  25.725  24.664  1.00  0.00     0.321 C 
ATOM     10  O   UNL A   1      29.824  25.853  24.619  1.00  0.00    -0.248 OA
BRANCH   9  11
ATOM     11  N   UNL A   1      31.811  26.828  25.033  1.00  0.00    -0.313 N 
ATOM     12  C   UNL A   1      32.818  29.134  24.810  1.00  0.00     0.203 C 
ATOM     13  C   UNL A   1      31.558  28.227  24.644  1.00  0.00     0.186 C 
ATOM     14  N   UNL A   1      33.394  29.067  26.175  1.00  0.00    -0.332 N 
ATOM     15  C   UNL A   1      33.656  27.666  26.552  1.00  0.00     0.284 C 
ATOM     16  C   UNL A   1      32.550  29.740  27.163  1.00  0.00     0.333 C 
ATOM     17  H   UNL A   1      34.282  29.570  26.163  1.00  0.00     0.348 HD
ATOM     18  C   UNL A   1      32.482  26.698  26.338  1.00  0.00     0.183 C 
BRANCH  12  19
ATOM     19  C   UNL A   1      33.892  28.806  23.739  1.00  0.00     0.063 C 
ATOM     20  C   UNL A   1      33.325  28.518  22.351  1.00  0.00     0.010 C 
ENDBRANCH  12  19
ENDBRANCH   9  11
ENDBRANCH   8   9
BRANCH   8  21
ATOM     21  C   UNL A   1      32.549  24.443  23.134  1.00  0.00     0.037 C 
ATOM     22  C   UNL A   1      32.796  22.992  22.661  1.00  0.00     0.034 C 
ATOM     23  C   UNL A   1      31.913  25.253  21.977  1.00  0.00     0.034 C 
ATOM     24  C   UNL A   1      33.955  25.062  23.336  1.00  0.00     0.034 C 
ENDBRANCH   8  21
ENDBRANCH   7   8
ENDBRANCH   4   7
ENDBRANCH   2   3
ENDBRANCH   1   2
BRANCH   1  25
ATOM     25  C   UNL A   1      35.334  22.777  25.467  1.00  0.00     0.023 C 
BRANCH  25  26
ATOM     26  C   UNL A   1      36.573  23.463  26.027  1.00  0.00     0.116 C 
BRANCH  26  27
ATOM     27  N   UNL A   1      37.741  22.594  26.012  1.00  0.00    -0.352 N 
ATOM     28  C   UNL A   1      39.038  22.900  26.342  1.00  0.00     0.251 C 
ATOM     29  H   UNL A   1      37.580  21.666  25.727  1.00  0.00     0.163 HD
ATOM     30  O   UNL A   1      39.940  22.099  26.118  1.00  0.00    -0.269 OA
BRANCH  28  31
ATOM     31  C   UNL A   1      39.331  24.213  26.945  1.00  0.00     0.039 A 
ATOM     32  C   UNL A   1      38.943  24.455  28.263  1.00  0.00     0.014 A 
ATOM     33  C   UNL A   1      40.023  25.185  26.216  1.00  0.00     0.014 A 
ATOM     34  C   UNL A   1      39.303  25.657  28.873  1.00  0.00     0.010 A 
ATOM     35  C   UNL A   1      40.444  26.348  26.849  1.00  0.00     0.010 A 
ATOM     36  C   UNL A   1      40.083  26.598  28.181  1.00  0.00    -0.014 A 
BRANCH  36  37
ATOM     37  C   UNL A   1      40.529  27.856  28.831  1.00  0.00     0.031 A 
ATOM     38  C   UNL A   1      41.911  27.946  29.419  1.00  0.00     0.074 A 
ATOM     39  C   UNL A   1      39.669  28.887  28.947  1.00  0.00     0.049 A 
ATOM     40  N   UNL A   1      42.461  28.931  30.081  1.00  0.00    -0.248 NA
ATOM     41  C   UNL A   1      42.781  26.766  29.267  1.00  0.00     0.031 C 
ATOM     42  C   UNL A   1      38.288  28.903  28.457  1.00  0.00     0.029 A 
ATOM     43  N   UNL A   1      39.828  30.122  29.524  1.00  0.00    -0.354 N 
ATOM     44  C   UNL A   1      43.726  28.483  30.442  1.00  0.00     0.074 A 
ATOM     45  C   UNL A   1      43.848  27.123  29.966  1.00  0.00     0.031 C 
ATOM     46  C   UNL A   1      37.738  30.098  28.727  1.00  0.00     0.029 A 
ATOM     47  C   UNL A   1      38.708  30.918  29.447  1.00  0.00     0.049 A 
ATOM     48  H   UNL A   1      40.665  30.413  29.952  1.00  0.00     0.167 HD
ATOM     49  C   UNL A   1      44.706  29.151  31.095  1.00  0.00     0.031 A 
ATOM     50  C   UNL A   1      38.485  32.163  29.908  1.00  0.00     0.031 A 
ATOM     51  C   UNL A   1      44.590  30.513  31.542  1.00  0.00     0.049 A 
ATOM     52  C   UNL A   1      39.594  32.883  30.629  1.00  0.00     0.074 A 
ATOM     53  C   UNL A   1      45.550  31.302  32.150  1.00  0.00     0.029 A 
ATOM     54  N   UNL A   1      43.446  31.288  31.427  1.00  0.00    -0.354 N 
ATOM     55  N   UNL A   1      40.809  32.468  30.895  1.00  0.00    -0.248 NA
ATOM     56  C   UNL A   1      39.304  34.244  31.100  1.00  0.00     0.031 C 
ATOM     57  C   UNL A   1      44.971  32.539  32.450  1.00  0.00     0.029 A 
ATOM     58  C   UNL A   1      43.670  32.540  31.976  1.00  0.00     0.049 A 
ATOM     59  H   UNL A   1      42.601  30.993  31.018  1.00  0.00     0.167 HD
ATOM     60  C   UNL A   1      41.438  33.529  31.537  1.00  0.00     0.074 A 
ATOM     61  C   UNL A   1      40.475  34.608  31.605  1.00  0.00     0.031 C 
ATOM     62  C   UNL A   1      42.701  33.605  32.026  1.00  0.00     0.031 A 
BRANCH  49  63
ATOM     63  C   UNL A   1      45.995  28.422  31.364  1.00  0.00    -0.014 A 
ATOM     64  C   UNL A   1      46.176  27.678  32.544  1.00  0.00     0.010 A 
ATOM     65  C   UNL A   1      47.015  28.427  30.395  1.00  0.00     0.010 A 
ATOM     66  C   UNL A   1      47.364  26.975  32.762  1.00  0.00     0.020 A 
ATOM     67  C   UNL A   1      48.193  27.703  30.596  1.00  0.00     0.020 A 
ATOM     68  C   UNL A   1      48.365  26.990  31.785  1.00  0.00     0.054 A 
BRANCH  68  69
ATOM     69  S   UNL A   1      49.875  26.028  32.075  1.00  0.00     0.124 S 
ATOM     70  O   UNL A   1      50.332  25.766  30.713  1.00  0.00    -0.237 OA
ATOM     71  O   UNL A   1      50.700  26.953  32.847  1.00  0.00    -0.237 OA
ATOM     72  O   UNL A   1      49.404  24.856  32.809  1.00  0.00    -0.744 OA
ENDBRANCH  68  69
ENDBRANCH  49  63
BRANCH  50  73
ATOM     73  C   UNL A   1      37.165  32.819  29.698  1.00  0.00    -0.014 A 
ATOM     74  C   UNL A   1      36.890  33.501  28.499  1.00  0.00     0.010 A 
ATOM     75  C   UNL A   1      36.181  32.780  30.702  1.00  0.00     0.010 A 
ATOM     76  C   UNL A   1      35.671  34.161  28.322  1.00  0.00     0.020 A 
ATOM     77  C   UNL A   1      34.948  33.413  30.516  1.00  0.00     0.020 A 
ATOM     78  C   UNL A   1      34.708  34.116  29.334  1.00  0.00     0.054 A 
BRANCH  78  79
ATOM     79  S   UNL A   1      33.124  34.962  29.076  1.00  0.00     0.124 S 
ATOM     80  O   UNL A   1      32.542  34.929  30.413  1.00  0.00    -0.237 OA
ATOM     81  O   UNL A   1      33.542  36.277  28.598  1.00  0.00    -0.237 OA
ATOM     82  O   UNL A   1      32.453  34.130  28.079  1.00  0.00    -0.744 OA
ENDBRANCH  78  79
ENDBRANCH  50  73
BRANCH  62  83
ATOM     83  C   UNL A   1      43.130  34.909  32.639  1.00  0.00    -0.014 A 
ATOM     84  C   UNL A   1      42.971  35.159  34.014  1.00  0.00     0.010 A 
ATOM     85  C   UNL A   1      43.756  35.879  31.834  1.00  0.00     0.010 A 
ATOM     86  C   UNL A   1      43.402  36.368  34.565  1.00  0.00     0.020 A 
ATOM     87  C   UNL A   1      44.214  37.076  32.387  1.00  0.00     0.020 A 
ATOM     88  C   UNL A   1      44.021  37.319  33.748  1.00  0.00     0.054 A 
BRANCH  88  89
ATOM     89  S   UNL A   1      44.613  38.861  34.497  1.00  0.00     0.124 S 
ATOM     90  O   UNL A   1      45.857  39.095  33.768  1.00  0.00    -0.237 OA
ATOM     91  O   UNL A   1      43.529  39.795  34.208  1.00  0.00    -0.237 OA
ATOM     92  O   UNL A   1      44.773  38.521  35.910  1.00  0.00    -0.744 OA
ENDBRANCH  88  89
ENDBRANCH  62  83
ENDBRANCH  36  37
ENDBRANCH  28  31
ENDBRANCH  26  27
ENDBRANCH  25  26
ENDBRANCH   1  25
TORSDOF 19
ENDMDL
MODEL 2
REMARK VINA RESULT:      -9.5      4.056     10.008
REMARK SMILES CC[C@H]1CN(C(=O)N(CC(=O)NCCCCNC(=O)c2ccc(-c3c4nc(c(-c5ccc(S(=O)(=O)[O-])cc5)c5ccc([nH]5)c(-c5ccc(S(=O)(=O)[O-])cc5)c5nc(c(-c6ccc(S(=O)(=O)[O-])cc6)c6ccc3[nH]6)C=C5)C=C4)cc2)C(C)(C)C)CC[N@@H+]1C
REMARK SMILES IDX 14 1 13 2 12 3 10 4 11 5 9 7 8 8 6 9 7 10 5 11 3 12 4 13
REMARK SMILES IDX 86 14 85 15 87 16 84 18 2 19 1 20 80 21 81 22 82 23 83 24
REMARK SMILES IDX 15 25 16 26 17 27 18 28 19 30 20 31 21 32 79 33 22 34 78 35
REMARK SMILES IDX 23 36 24 37 25 38 72 39 26 40 77 41 71 42 73 43 27 44 76 45
REMARK SMILES IDX 70 46 69 47 28 49 58 50 39 51 57 52 40 53 43 54 56 55 74 56
REMARK SMILES IDX 41 57 42 58 55 60 75 61 44 62 29 63 30 64 38 65 31 66 37 67
REMARK SMILES IDX 32 68 33 69 34 70 35 71 36 72 59 73 60 74 68 75 61 76 67 77
REMARK SMILES IDX 62 78 63 79 64 80 65 81 66 82 45 83 46 84 54 85 47 86 53 87
REMARK SMILES IDX 48 88 49 89 50 90 51 91 52 92
REMARK H PARENT 12 6 86 17 17 29 73 48 43 59
REMARK Flexibility Score: inf
ROOT
ATOM      1  C   UNL A   1      34.565  31.339  27.983  1.00  0.00     0.023 C 
ENDROOT
BRANCH   1   2
ATOM      2  C   UNL A   1      34.919  30.031  27.292  1.00  0.00     0.116 C 
BRANCH   2   3
ATOM      3  N   UNL A   1      33.922  29.005  27.512  1.00  0.00    -0.355 N 
ATOM      4  C   UNL A   1      33.260  28.254  26.586  1.00  0.00     0.239 C 
ATOM      5  O   UNL A   1      32.572  27.310  26.982  1.00  0.00    -0.273 OA
ATOM      6  H   UNL A   1      33.691  28.826  28.452  1.00  0.00     0.163 HD
BRANCH   4   7
ATOM      7  C   UNL A   1      33.486  28.503  25.091  1.00  0.00     0.221 C 
BRANCH   7   8
ATOM      8  N   UNL A   1      32.775  27.653  24.114  1.00  0.00    -0.311 N 
BRANCH   8   9
ATOM      9  C   UNL A   1      33.428  26.756  23.273  1.00  0.00     0.321 C 
ATOM     10  O   UNL A   1      33.964  27.140  22.230  1.00  0.00    -0.248 OA
BRANCH   9  11
ATOM     11  N   UNL A   1      33.505  25.406  23.591  1.00  0.00    -0.313 N 
ATOM     12  C   UNL A   1      34.317  23.351  24.816  1.00  0.00     0.203 C 
ATOM     13  C   UNL A   1      33.861  24.841  24.906  1.00  0.00     0.186 C 
ATOM     14  N   UNL A   1      33.323  22.490  24.128  1.00  0.00    -0.332 N 
ATOM     15  C   UNL A   1      32.983  23.054  22.809  1.00  0.00     0.284 C 
ATOM     16  C   UNL A   1      32.129  22.269  24.943  1.00  0.00     0.333 C 
ATOM     17  H   UNL A   1      33.751  21.574  23.987  1.00  0.00     0.348 HD
ATOM     18  C   UNL A   1      32.602  24.543  22.811  1.00  0.00     0.183 C 
BRANCH  12  19
ATOM     19  C   UNL A   1      35.712  23.229  24.147  1.00  0.00     0.063 C 
ATOM     20  C   UNL A   1      36.869  23.714  25.018  1.00  0.00     0.010 C 
ENDBRANCH  12  19
ENDBRANCH   9  11
ENDBRANCH   8   9
BRANCH   8  21
ATOM     21  C   UNL A   1      31.292  27.897  23.876  1.00  0.00     0.037 C 
ATOM     22  C   UNL A   1      30.399  26.870  24.609  1.00  0.00     0.034 C 
ATOM     23  C   UNL A   1      30.910  29.325  24.341  1.00  0.00     0.034 C 
ATOM     24  C   UNL A   1      30.868  27.831  22.386  1.00  0.00     0.034 C 
ENDBRANCH   8  21
ENDBRANCH   7   8
ENDBRANCH   4   7
ENDBRANCH   2   3
ENDBRANCH   1   2
BRANCH   1  25
ATOM     25  C   UNL A   1      35.681  32.383  27.945  1.00  0.00     0.023 C 
BRANCH  25  26
ATOM     26  C   UNL A   1      36.310  32.674  29.301  1.00  0.00     0.116 C 
BRANCH  26  27
ATOM     27  N   UNL A   1      35.906  31.711  30.316  1.00  0.00    -0.352 N 
ATOM     28  C   UNL A   1      36.565  30.581  30.730  1.00  0.00     0.251 C 
ATOM     29  H   UNL A   1      35.048  31.894  30.762  1.00  0.00     0.163 HD
ATOM     30  O   UNL A   1      36.013  29.781  31.480  1.00  0.00    -0.269 OA
BRANCH  28  31
ATOM     31  C   UNL A   1      37.933  30.331  30.241  1.00  0.00     0.039 A 
ATOM     32  C   UNL A   1      38.998  30.401  31.140  1.00  0.00     0.014 A 
ATOM     33  C   UNL A   1      38.152  29.990  28.903  1.00  0.00     0.014 A 
ATOM     34  C   UNL A   1      40.282  30.070  30.708  1.00  0.00     0.010 A 
ATOM     35  C   UNL A   1      39.418  29.589  28.494  1.00  0.00     0.010 A 
ATOM     36  C   UNL A   1      40.497  29.631  29.390  1.00  0.00    -0.014 A 
BRANCH  36  37
ATOM     37  C   UNL A   1      41.844  29.215  28.926  1.00  0.00     0.031 A 
ATOM     38  C   UNL A   1      42.949  30.232  28.830  1.00  0.00     0.074 A 
ATOM     39  C   UNL A   1      42.050  27.943  28.533  1.00  0.00     0.049 A 
ATOM     40  N   UNL A   1      44.171  30.080  28.389  1.00  0.00    -0.248 NA
ATOM     41  C   UNL A   1      42.634  31.605  29.260  1.00  0.00     0.031 C 
ATOM     42  C   UNL A   1      41.045  26.877  28.539  1.00  0.00     0.029 A 
ATOM     43  N   UNL A   1      43.177  27.331  28.044  1.00  0.00    -0.354 N 
ATOM     44  C   UNL A   1      44.760  31.336  28.467  1.00  0.00     0.074 A 
ATOM     45  C   UNL A   1      43.750  32.250  28.955  1.00  0.00     0.031 C 
ATOM     46  C   UNL A   1      41.608  25.738  28.103  1.00  0.00     0.029 A 
ATOM     47  C   UNL A   1      42.999  25.999  27.746  1.00  0.00     0.049 A 
ATOM     48  H   UNL A   1      44.033  27.800  27.917  1.00  0.00     0.167 HD
ATOM     49  C   UNL A   1      46.033  31.693  28.177  1.00  0.00     0.031 A 
ATOM     50  C   UNL A   1      43.856  25.093  27.239  1.00  0.00     0.031 A 
ATOM     51  C   UNL A   1      47.041  30.775  27.718  1.00  0.00     0.049 A 
ATOM     52  C   UNL A   1      45.266  25.519  26.927  1.00  0.00     0.074 A 
ATOM     53  C   UNL A   1      48.378  31.025  27.464  1.00  0.00     0.029 A 
ATOM     54  N   UNL A   1      46.824  29.433  27.448  1.00  0.00    -0.354 N 
ATOM     55  N   UNL A   1      45.824  26.696  27.078  1.00  0.00    -0.248 NA
ATOM     56  C   UNL A   1      46.165  24.489  26.388  1.00  0.00     0.031 C 
ATOM     57  C   UNL A   1      48.958  29.844  26.990  1.00  0.00     0.029 A 
ATOM     58  C   UNL A   1      47.998  28.847  27.006  1.00  0.00     0.049 A 
ATOM     59  H   UNL A   1      45.964  28.966  27.555  1.00  0.00     0.167 HD
ATOM     60  C   UNL A   1      47.148  26.540  26.682  1.00  0.00     0.074 A 
ATOM     61  C   UNL A   1      47.310  25.152  26.300  1.00  0.00     0.031 C 
ATOM     62  C   UNL A   1      48.142  27.461  26.639  1.00  0.00     0.031 A 
BRANCH  49  63
ATOM     63  C   UNL A   1      46.414  33.139  28.349  1.00  0.00    -0.014 A 
ATOM     64  C   UNL A   1      46.953  33.610  29.561  1.00  0.00     0.010 A 
ATOM     65  C   UNL A   1      46.292  34.027  27.265  1.00  0.00     0.010 A 
ATOM     66  C   UNL A   1      47.338  34.947  29.693  1.00  0.00     0.020 A 
ATOM     67  C   UNL A   1      46.701  35.358  27.383  1.00  0.00     0.020 A 
ATOM     68  C   UNL A   1      47.211  35.812  28.601  1.00  0.00     0.054 A 
BRANCH  68  69
ATOM     69  S   UNL A   1      47.764  37.530  28.788  1.00  0.00     0.124 S 
ATOM     70  O   UNL A   1      49.215  37.389  28.713  1.00  0.00    -0.237 OA
ATOM     71  O   UNL A   1      47.137  38.194  27.648  1.00  0.00    -0.237 OA
ATOM     72  O   UNL A   1      47.244  37.921  30.097  1.00  0.00    -0.744 OA
ENDBRANCH  68  69
ENDBRANCH  49  63
BRANCH  50  73
ATOM     73  C   UNL A   1      43.415  23.691  27.001  1.00  0.00    -0.014 A 
ATOM     74  C   UNL A   1      43.194  23.226  25.692  1.00  0.00     0.010 A 
ATOM     75  C   UNL A   1      43.197  22.818  28.082  1.00  0.00     0.010 A 
ATOM     76  C   UNL A   1      42.730  21.926  25.471  1.00  0.00     0.020 A 
ATOM     77  C   UNL A   1      42.763  21.508  27.863  1.00  0.00     0.020 A 
ATOM     78  C   UNL A   1      42.513  21.075  26.559  1.00  0.00     0.054 A 
BRANCH  78  79
ATOM     79  S   UNL A   1      41.931  19.385  26.248  1.00  0.00     0.124 S 
ATOM     80  O   UNL A   1      40.494  19.585  26.093  1.00  0.00    -0.237 OA
ATOM     81  O   UNL A   1      42.656  19.019  25.035  1.00  0.00    -0.237 OA
ATOM     82  O   UNL A   1      42.336  18.659  27.450  1.00  0.00    -0.744 OA
ENDBRANCH  78  79
ENDBRANCH  50  73
BRANCH  62  83
ATOM     83  C   UNL A   1      49.504  26.993  26.205  1.00  0.00    -0.014 A 
ATOM     84  C   UNL A   1      49.907  27.065  24.860  1.00  0.00     0.010 A 
ATOM     85  C   UNL A   1      50.415  26.527  27.171  1.00  0.00     0.010 A 
ATOM     86  C   UNL A   1      51.186  26.649  24.485  1.00  0.00     0.020 A 
ATOM     87  C   UNL A   1      51.704  26.138  26.803  1.00  0.00     0.020 A 
ATOM     88  C   UNL A   1      52.077  26.189  25.459  1.00  0.00     0.054 A 
BRANCH  88  89
ATOM     89  S   UNL A   1      53.749  25.699  24.952  1.00  0.00     0.124 S 
ATOM     90  O   UNL A   1      53.756  26.062  23.538  1.00  0.00    -0.237 OA
ATOM     91  O   UNL A   1      54.598  26.515  25.816  1.00  0.00    -0.237 OA
ATOM     92  O   UNL A   1      53.788  24.264  25.228  1.00  0.00    -0.744 OA
ENDBRANCH  88  89
ENDBRANCH  62  83
ENDBRANCH  36  37
ENDBRANCH  28  31
ENDBRANCH  26  27
ENDBRANCH  25  26
ENDBRANCH   1  25
TORSDOF 19
ENDMDL
MODEL 3
REMARK VINA RESULT:      -9.5      3.837      5.134
REMARK SMILES CC[C@H]1CN(C(=O)N(CC(=O)NCCCCNC(=O)c2ccc(-c3c4nc(c(-c5ccc(S(=O)(=O)[O-])cc5)c5ccc([nH]5)c(-c5ccc(S(=O)(=O)[O-])cc5)c5nc(c(-c6ccc(S(=O)(=O)[O-])cc6)c6ccc3[nH]6)C=C5)C=C4)cc2)C(C)(C)C)CC[N@@H+]1C
REMARK SMILES IDX 14 1 13 2 12 3 10 4 11 5 9 7 8 8 6 9 7 10 5 11 3 12 4 13
REMARK SMILES IDX 86 14 85 15 87 16 84 18 2 19 1 20 80 21 81 22 82 23 83 24
REMARK SMILES IDX 15 25 16 26 17 27 18 28 19 30 20 31 21 32 79 33 22 34 78 35
REMARK SMILES IDX 23 36 24 37 25 38 72 39 26 40 77 41 71 42 73 43 27 44 76 45
REMARK SMILES IDX 70 46 69 47 28 49 58 50 39 51 57 52 40 53 43 54 56 55 74 56
REMARK SMILES IDX 41 57 42 58 55 60 75 61 44 62 29 63 30 64 38 65 31 66 37 67
REMARK SMILES IDX 32 68 33 69 34 70 35 71 36 72 59 73 60 74 68 75 61 76 67 77
REMARK SMILES IDX 62 78 63 79 64 80 65 81 66 82 45 83 46 84 54 85 47 86 53 87
REMARK SMILES IDX 48 88 49 89 50 90 51 91 52 92
REMARK H PARENT 12 6 86 17 17 29 73 48 43 59
REMARK Flexibility Score: inf
ROOT
ATOM      1  C   UNL A   1      38.927  22.310  26.107  1.00  0.00     0.023 C 
ENDROOT
BRANCH   1   2
ATOM      2  C   UNL A   1      37.633  22.865  25.529  1.00  0.00     0.116 C 
BRANCH   2   3
ATOM      3  N   UNL A   1      36.501  22.647  26.403  1.00  0.00    -0.355 N 
ATOM      4  C   UNL A   1      35.234  23.137  26.287  1.00  0.00     0.239 C 
ATOM      5  O   UNL A   1      34.365  22.696  27.043  1.00  0.00    -0.273 OA
ATOM      6  H   UNL A   1      36.667  22.070  27.184  1.00  0.00     0.163 HD
BRANCH   4   7
ATOM      7  C   UNL A   1      34.886  24.108  25.153  1.00  0.00     0.221 C 
BRANCH   7   8
ATOM      8  N   UNL A   1      33.464  24.404  24.883  1.00  0.00    -0.311 N 
BRANCH   8   9
ATOM      9  C   UNL A   1      32.733  25.338  25.610  1.00  0.00     0.321 C 
ATOM     10  O   UNL A   1      31.950  24.982  26.494  1.00  0.00    -0.248 OA
BRANCH   9  11
ATOM     11  N   UNL A   1      32.872  26.698  25.367  1.00  0.00    -0.313 N 
ATOM     12  C   UNL A   1      32.709  28.853  24.058  1.00  0.00     0.203 C 
ATOM     13  C   UNL A   1      32.025  27.514  24.478  1.00  0.00     0.186 C 
ATOM     14  N   UNL A   1      33.167  29.651  25.221  1.00  0.00    -0.332 N 
ATOM     15  C   UNL A   1      34.024  28.833  26.098  1.00  0.00     0.284 C 
ATOM     16  C   UNL A   1      32.050  30.239  25.960  1.00  0.00     0.333 C 
ATOM     17  H   UNL A   1      33.720  30.431  24.865  1.00  0.00     0.348 HD
ATOM     18  C   UNL A   1      33.447  27.463  26.487  1.00  0.00     0.183 C 
BRANCH  12  19
ATOM     19  C   UNL A   1      33.876  28.600  23.066  1.00  0.00     0.063 C 
ATOM     20  C   UNL A   1      33.658  27.412  22.131  1.00  0.00     0.010 C 
ENDBRANCH  12  19
ENDBRANCH   9  11
ENDBRANCH   8   9
BRANCH   8  21
ATOM     21  C   UNL A   1      32.709  23.520  23.899  1.00  0.00     0.037 C 
ATOM     22  C   UNL A   1      31.527  24.259  23.230  1.00  0.00     0.034 C 
ATOM     23  C   UNL A   1      33.674  23.007  22.801  1.00  0.00     0.034 C 
ATOM     24  C   UNL A   1      32.099  22.243  24.531  1.00  0.00     0.034 C 
ENDBRANCH   8  21
ENDBRANCH   7   8
ENDBRANCH   4   7
ENDBRANCH   2   3
ENDBRANCH   1   2
BRANCH   1  25
ATOM     25  C   UNL A   1      39.216  20.863  25.707  1.00  0.00     0.023 C 
BRANCH  25  26
ATOM     26  C   UNL A   1      39.895  20.039  26.793  1.00  0.00     0.116 C 
BRANCH  26  27
ATOM     27  N   UNL A   1      41.054  19.314  26.293  1.00  0.00    -0.352 N 
ATOM     28  C   UNL A   1      42.290  19.808  25.955  1.00  0.00     0.251 C 
ATOM     29  H   UNL A   1      40.937  18.344  26.181  1.00  0.00     0.163 HD
ATOM     30  O   UNL A   1      43.111  19.092  25.391  1.00  0.00    -0.269 OA
BRANCH  28  31
ATOM     31  C   UNL A   1      42.604  21.216  26.259  1.00  0.00     0.039 A 
ATOM     32  C   UNL A   1      42.888  21.578  27.576  1.00  0.00     0.014 A 
ATOM     33  C   UNL A   1      42.655  22.164  25.233  1.00  0.00     0.014 A 
ATOM     34  C   UNL A   1      43.282  22.887  27.857  1.00  0.00     0.010 A 
ATOM     35  C   UNL A   1      43.119  23.445  25.503  1.00  0.00     0.010 A 
ATOM     36  C   UNL A   1      43.432  23.821  26.818  1.00  0.00    -0.014 A 
BRANCH  36  37
ATOM     37  C   UNL A   1      43.908  25.201  27.086  1.00  0.00     0.031 A 
ATOM     38  C   UNL A   1      45.359  25.545  26.880  1.00  0.00     0.074 A 
ATOM     39  C   UNL A   1      43.051  26.120  27.574  1.00  0.00     0.049 A 
ATOM     40  N   UNL A   1      45.979  26.671  27.119  1.00  0.00    -0.248 NA
ATOM     41  C   UNL A   1      46.233  24.477  26.364  1.00  0.00     0.031 C 
ATOM     42  C   UNL A   1      41.632  25.893  27.856  1.00  0.00     0.029 A 
ATOM     43  N   UNL A   1      43.252  27.431  27.926  1.00  0.00    -0.354 N 
ATOM     44  C   UNL A   1      47.314  26.442  26.805  1.00  0.00     0.074 A 
ATOM     45  C   UNL A   1      47.423  25.057  26.402  1.00  0.00     0.031 C 
ATOM     46  C   UNL A   1      41.085  27.032  28.310  1.00  0.00     0.029 A 
ATOM     47  C   UNL A   1      42.120  28.058  28.392  1.00  0.00     0.049 A 
ATOM     48  H   UNL A   1      44.124  27.881  27.852  1.00  0.00     0.167 HD
ATOM     49  C   UNL A   1      48.351  27.311  26.832  1.00  0.00     0.031 A 
ATOM     50  C   UNL A   1      41.937  29.315  28.840  1.00  0.00     0.031 A 
ATOM     51  C   UNL A   1      48.231  28.694  27.208  1.00  0.00     0.049 A 
ATOM     52  C   UNL A   1      43.109  30.261  28.857  1.00  0.00     0.074 A 
ATOM     53  C   UNL A   1      49.208  29.674  27.201  1.00  0.00     0.029 A 
ATOM     54  N   UNL A   1      47.064  29.294  27.655  1.00  0.00    -0.354 N 
ATOM     55  N   UNL A   1      44.348  30.044  28.486  1.00  0.00    -0.248 NA
ATOM     56  C   UNL A   1      42.853  31.624  29.343  1.00  0.00     0.031 C 
ATOM     57  C   UNL A   1      48.644  30.855  27.693  1.00  0.00     0.029 A 
ATOM     58  C   UNL A   1      47.303  30.625  27.950  1.00  0.00     0.049 A 
ATOM     59  H   UNL A   1      46.195  28.841  27.749  1.00  0.00     0.167 HD
ATOM     60  C   UNL A   1      45.012  31.253  28.663  1.00  0.00     0.074 A 
ATOM     61  C   UNL A   1      44.035  32.199  29.160  1.00  0.00     0.031 C 
ATOM     62  C   UNL A   1      46.314  31.554  28.435  1.00  0.00     0.031 A 
BRANCH  49  63
ATOM     63  C   UNL A   1      49.710  26.795  26.441  1.00  0.00    -0.014 A 
ATOM     64  C   UNL A   1      50.552  26.178  27.384  1.00  0.00     0.010 A 
ATOM     65  C   UNL A   1      50.125  26.870  25.100  1.00  0.00     0.010 A 
ATOM     66  C   UNL A   1      51.795  25.670  26.998  1.00  0.00     0.020 A 
ATOM     67  C   UNL A   1      51.355  26.339  24.703  1.00  0.00     0.020 A 
ATOM     68  C   UNL A   1      52.188  25.752  25.658  1.00  0.00     0.054 A 
BRANCH  68  69
ATOM     69  S   UNL A   1      53.786  25.040  25.178  1.00  0.00     0.124 S 
ATOM     70  O   UNL A   1      54.653  25.483  26.266  1.00  0.00    -0.237 OA
ATOM     71  O   UNL A   1      53.501  23.608  25.144  1.00  0.00    -0.237 OA
ATOM     72  O   UNL A   1      54.060  25.649  23.878  1.00  0.00    -0.744 OA
ENDBRANCH  68  69
ENDBRANCH  49  63
BRANCH  50  73
ATOM     73  C   UNL A   1      40.594  29.762  29.301  1.00  0.00    -0.014 A 
ATOM     74  C   UNL A   1      40.329  29.928  30.672  1.00  0.00     0.010 A 
ATOM     75  C   UNL A   1      39.566  30.007  28.372  1.00  0.00     0.010 A 
ATOM     76  C   UNL A   1      39.053  30.297  31.108  1.00  0.00     0.020 A 
ATOM     77  C   UNL A   1      38.297  30.406  28.803  1.00  0.00     0.020 A 
ATOM     78  C   UNL A   1      38.043  30.529  30.170  1.00  0.00     0.054 A 
BRANCH  78  79
ATOM     79  S   UNL A   1      36.400  31.028  30.757  1.00  0.00     0.124 S 
ATOM     80  O   UNL A   1      35.629  31.039  29.519  1.00  0.00    -0.237 OA
ATOM     81  O   UNL A   1      36.067  29.966  31.703  1.00  0.00    -0.237 OA
ATOM     82  O   UNL A   1      36.637  32.337  31.360  1.00  0.00    -0.744 OA
ENDBRANCH  78  79
ENDBRANCH  50  73
BRANCH  62  83
ATOM     83  C   UNL A   1      46.751  32.973  28.677  1.00  0.00    -0.014 A 
ATOM     84  C   UNL A   1      47.306  33.368  29.907  1.00  0.00     0.010 A 
ATOM     85  C   UNL A   1      46.655  33.914  27.635  1.00  0.00     0.010 A 
ATOM     86  C   UNL A   1      47.729  34.685  30.100  1.00  0.00     0.020 A 
ATOM     87  C   UNL A   1      47.103  35.223  27.814  1.00  0.00     0.020 A 
ATOM     88  C   UNL A   1      47.625  35.604  29.051  1.00  0.00     0.054 A 
BRANCH  88  89
ATOM     89  S   UNL A   1      48.224  37.297  29.312  1.00  0.00     0.124 S 
ATOM     90  O   UNL A   1      46.985  38.068  29.264  1.00  0.00    -0.237 OA
ATOM     91  O   UNL A   1      48.862  37.212  30.623  1.00  0.00    -0.237 OA
ATOM     92  O   UNL A   1      49.139  37.517  28.194  1.00  0.00    -0.744 OA
ENDBRANCH  88  89
ENDBRANCH  62  83
ENDBRANCH  36  37
ENDBRANCH  28  31
ENDBRANCH  26  27
ENDBRANCH  25  26
ENDBRANCH   1  25
TORSDOF 19
ENDMDL
