MODEL 1
REMARK VINA RESULT:      -9.8      0.000      0.000
REMARK SMILES CCCCCCC(=O)N1C[C@@H](O)C[C@@H]1C(=O)NCCCCNC(=O)c1ccc(-c2c3nc(c(-c4ccc(S(=O)(=O)[O-])cc4)c4ccc([nH]4)c(-c4ccc(S(=O)(=O)[O-])cc4)c4nc(c(-c5ccc(S(=O)(=O)[O-])cc5)c5ccc2[nH]5)C=C4)C=C3)cc1
REMARK SMILES IDX 18 1 17 2 15 3 16 4 14 6 9 7 10 8 11 9 13 10 7 11 8 12 6 13
REMARK SMILES IDX 5 14 4 15 3 16 2 17 1 18 12 19 19 21 20 22 21 23 22 24 23 25
REMARK SMILES IDX 24 27 25 28 26 29 84 30 27 31 83 32 28 33 29 34 30 35 77 36
REMARK SMILES IDX 31 37 82 38 76 39 78 40 32 41 81 42 75 43 74 44 33 46 63 47
REMARK SMILES IDX 44 48 62 49 45 50 48 51 61 52 79 53 46 54 47 55 60 57 80 58
REMARK SMILES IDX 49 59 34 60 35 61 43 62 36 63 42 64 37 65 38 66 39 67 40 68
REMARK SMILES IDX 41 69 64 70 65 71 73 72 66 73 72 74 67 75 68 76 69 77 70 78
REMARK SMILES IDX 71 79 50 80 51 81 59 82 52 83 58 84 53 85 54 86 55 87 56 88
REMARK SMILES IDX 57 89
REMARK H PARENT 17 5 12 20 22 26 78 45 48 56
REMARK Flexibility Score: inf
ROOT
ATOM      1  C   UNL A   1      31.434  28.433  27.143  1.00  0.00     0.116 C 
ENDROOT
BRANCH   1   2
ATOM      2  N   UNL A   1      31.698  27.057  26.814  1.00  0.00    -0.354 N 
ATOM      3  C   UNL A   1      32.111  26.541  25.614  1.00  0.00     0.242 C 
ATOM      4  O   UNL A   1      32.457  25.352  25.618  1.00  0.00    -0.273 OA
ATOM      5  H   UNL A   1      31.565  26.406  27.541  1.00  0.00     0.163 HD
BRANCH   3   6
ATOM      6  C   UNL A   1      31.949  27.284  24.252  1.00  0.00     0.177 C 
ATOM      7  N   UNL A   1      30.837  26.934  23.348  1.00  0.00    -0.328 N 
ATOM      8  C   UNL A   1      31.359  26.465  22.082  1.00  0.00     0.152 C 
ATOM      9  C   UNL A   1      32.772  25.995  22.396  1.00  0.00     0.136 C 
ATOM     10  C   UNL A   1      33.222  27.025  23.420  1.00  0.00     0.069 C 
BRANCH   7  11
ATOM     11  C   UNL A   1      29.560  27.415  23.548  1.00  0.00     0.223 C 
ATOM     12  O   UNL A   1      28.606  26.638  23.633  1.00  0.00    -0.275 OA
BRANCH  11  13
ATOM     13  C   UNL A   1      29.304  28.923  23.376  1.00  0.00     0.100 C 
BRANCH  13  14
ATOM     14  C   UNL A   1      27.932  29.516  23.080  1.00  0.00     0.010 C 
BRANCH  14  15
ATOM     15  C   UNL A   1      27.589  30.933  23.567  1.00  0.00     0.001 C 
BRANCH  15  16
ATOM     16  C   UNL A   1      27.916  32.118  22.643  1.00  0.00    -0.000 C 
BRANCH  16  17
ATOM     17  C   UNL A   1      28.645  31.791  21.345  1.00  0.00    -0.003 C 
ATOM     18  C   UNL A   1      27.889  32.289  20.123  1.00  0.00     0.004 C 
ENDBRANCH  16  17
ENDBRANCH  15  16
ENDBRANCH  14  15
ENDBRANCH  13  14
ENDBRANCH  11  13
ENDBRANCH   7  11
BRANCH   9  19
ATOM     19  O   UNL A   1      33.610  25.956  21.256  1.00  0.00    -0.391 OA
ATOM     20  H   UNL A   1      33.079  26.112  20.459  1.00  0.00     0.211 HD
ENDBRANCH   9  19
ENDBRANCH   3   6
ENDBRANCH   1   2
BRANCH   1  21
ATOM     21  C   UNL A   1      32.643  29.348  27.244  1.00  0.00     0.023 C 
BRANCH  21  22
ATOM     22  C   UNL A   1      32.400  30.815  26.930  1.00  0.00     0.023 C 
BRANCH  22  23
ATOM     23  C   UNL A   1      33.485  31.791  27.376  1.00  0.00     0.116 C 
BRANCH  23  24
ATOM     24  N   UNL A   1      33.008  33.137  27.674  1.00  0.00    -0.352 N 
ATOM     25  C   UNL A   1      33.477  34.048  28.595  1.00  0.00     0.251 C 
ATOM     26  H   UNL A   1      32.238  33.439  27.138  1.00  0.00     0.163 HD
ATOM     27  O   UNL A   1      32.904  35.128  28.731  1.00  0.00    -0.269 OA
BRANCH  25  28
ATOM     28  C   UNL A   1      34.635  33.706  29.454  1.00  0.00     0.039 A 
ATOM     29  C   UNL A   1      34.447  32.844  30.538  1.00  0.00     0.014 A 
ATOM     30  C   UNL A   1      35.912  34.185  29.158  1.00  0.00     0.014 A 
ATOM     31  C   UNL A   1      35.555  32.387  31.258  1.00  0.00     0.010 A 
ATOM     32  C   UNL A   1      37.019  33.647  29.806  1.00  0.00     0.010 A 
ATOM     33  C   UNL A   1      36.857  32.743  30.866  1.00  0.00    -0.014 A 
BRANCH  33  34
ATOM     34  C   UNL A   1      38.055  32.188  31.552  1.00  0.00     0.031 A 
ATOM     35  C   UNL A   1      38.470  32.721  32.901  1.00  0.00     0.074 A 
ATOM     36  C   UNL A   1      38.814  31.257  30.938  1.00  0.00     0.049 A 
ATOM     37  N   UNL A   1      39.506  32.400  33.632  1.00  0.00    -0.248 NA
ATOM     38  C   UNL A   1      37.630  33.779  33.487  1.00  0.00     0.031 C 
ATOM     39  C   UNL A   1      38.569  30.705  29.601  1.00  0.00     0.029 A 
ATOM     40  N   UNL A   1      39.951  30.610  31.356  1.00  0.00    -0.354 N 
ATOM     41  C   UNL A   1      39.456  33.232  34.746  1.00  0.00     0.074 A 
ATOM     42  C   UNL A   1      38.324  34.113  34.564  1.00  0.00     0.031 C 
ATOM     43  C   UNL A   1      39.500  29.776  29.330  1.00  0.00     0.029 A 
ATOM     44  C   UNL A   1      40.428  29.688  30.453  1.00  0.00     0.049 A 
ATOM     45  H   UNL A   1      40.383  30.789  32.222  1.00  0.00     0.167 HD
ATOM     46  C   UNL A   1      40.257  33.245  35.837  1.00  0.00     0.031 A 
ATOM     47  C   UNL A   1      41.486  28.857  30.524  1.00  0.00     0.031 A 
ATOM     48  C   UNL A   1      41.363  32.348  36.035  1.00  0.00     0.049 A 
ATOM     49  C   UNL A   1      42.338  28.859  31.764  1.00  0.00     0.074 A 
ATOM     50  C   UNL A   1      42.193  32.233  37.136  1.00  0.00     0.029 A 
ATOM     51  N   UNL A   1      41.787  31.402  35.114  1.00  0.00    -0.354 N 
ATOM     52  N   UNL A   1      42.228  29.604  32.838  1.00  0.00    -0.248 NA
ATOM     53  C   UNL A   1      43.442  27.891  31.809  1.00  0.00     0.031 C 
ATOM     54  C   UNL A   1      43.143  31.242  36.866  1.00  0.00     0.029 A 
ATOM     55  C   UNL A   1      42.874  30.707  35.616  1.00  0.00     0.049 A 
ATOM     56  H   UNL A   1      41.376  31.248  34.233  1.00  0.00     0.167 HD
ATOM     57  C   UNL A   1      43.235  29.177  33.698  1.00  0.00     0.074 A 
ATOM     58  C   UNL A   1      43.929  28.097  33.026  1.00  0.00     0.031 C 
ATOM     59  C   UNL A   1      43.555  29.637  34.932  1.00  0.00     0.031 A 
BRANCH  46  60
ATOM     60  C   UNL A   1      39.953  34.263  36.906  1.00  0.00    -0.014 A 
ATOM     61  C   UNL A   1      40.481  35.565  36.838  1.00  0.00     0.010 A 
ATOM     62  C   UNL A   1      39.115  33.921  37.983  1.00  0.00     0.010 A 
ATOM     63  C   UNL A   1      40.221  36.490  37.851  1.00  0.00     0.020 A 
ATOM     64  C   UNL A   1      38.827  34.853  38.984  1.00  0.00     0.020 A 
ATOM     65  C   UNL A   1      39.399  36.126  38.922  1.00  0.00     0.054 A 
BRANCH  65  66
ATOM     66  S   UNL A   1      39.066  37.350  40.218  1.00  0.00     0.124 S 
ATOM     67  O   UNL A   1      38.388  36.541  41.228  1.00  0.00    -0.237 OA
ATOM     68  O   UNL A   1      40.406  37.809  40.578  1.00  0.00    -0.237 OA
ATOM     69  O   UNL A   1      38.230  38.344  39.549  1.00  0.00    -0.744 OA
ENDBRANCH  65  66
ENDBRANCH  46  60
BRANCH  47  70
ATOM     70  C   UNL A   1      41.778  27.922  29.401  1.00  0.00    -0.014 A 
ATOM     71  C   UNL A   1      41.051  26.726  29.267  1.00  0.00     0.010 A 
ATOM     72  C   UNL A   1      42.776  28.225  28.458  1.00  0.00     0.010 A 
ATOM     73  C   UNL A   1      41.329  25.840  28.221  1.00  0.00     0.020 A 
ATOM     74  C   UNL A   1      43.040  27.354  27.396  1.00  0.00     0.020 A 
ATOM     75  C   UNL A   1      42.323  26.159  27.292  1.00  0.00     0.054 A 
BRANCH  75  76
ATOM     76  S   UNL A   1      42.631  25.021  25.913  1.00  0.00     0.124 S 
ATOM     77  O   UNL A   1      41.800  23.876  26.273  1.00  0.00    -0.237 OA
ATOM     78  O   UNL A   1      42.182  25.793  24.758  1.00  0.00    -0.237 OA
ATOM     79  O   UNL A   1      44.074  24.792  25.976  1.00  0.00    -0.744 OA
ENDBRANCH  75  76
ENDBRANCH  47  70
BRANCH  59  80
ATOM     80  C   UNL A   1      44.686  28.951  35.650  1.00  0.00    -0.014 A 
ATOM     81  C   UNL A   1      46.025  29.299  35.402  1.00  0.00     0.010 A 
ATOM     82  C   UNL A   1      44.399  27.962  36.609  1.00  0.00     0.010 A 
ATOM     83  C   UNL A   1      47.060  28.640  36.069  1.00  0.00     0.020 A 
ATOM     84  C   UNL A   1      45.431  27.320  37.298  1.00  0.00     0.020 A 
ATOM     85  C   UNL A   1      46.756  27.649  37.009  1.00  0.00     0.054 A 
BRANCH  85  86
ATOM     86  S   UNL A   1      48.115  26.819  37.877  1.00  0.00     0.124 S 
ATOM     87  O   UNL A   1      49.011  27.934  38.172  1.00  0.00    -0.237 OA
ATOM     88  O   UNL A   1      47.446  26.227  39.032  1.00  0.00    -0.237 OA
ATOM     89  O   UNL A   1      48.617  25.860  36.896  1.00  0.00    -0.744 OA
ENDBRANCH  85  86
ENDBRANCH  59  80
ENDBRANCH  33  34
ENDBRANCH  25  28
ENDBRANCH  23  24
ENDBRANCH  22  23
ENDBRANCH  21  22
ENDBRANCH   1  21
TORSDOF 21
ENDMDL
MODEL 2
REMARK VINA RESULT:      -9.8      2.633      4.047
REMARK SMILES CCCCCCC(=O)N1C[C@@H](O)C[C@@H]1C(=O)NCCCCNC(=O)c1ccc(-c2c3nc(c(-c4ccc(S(=O)(=O)[O-])cc4)c4ccc([nH]4)c(-c4ccc(S(=O)(=O)[O-])cc4)c4nc(c(-c5ccc(S(=O)(=O)[O-])cc5)c5ccc2[nH]5)C=C4)C=C3)cc1
REMARK SMILES IDX 18 1 17 2 15 3 16 4 14 6 9 7 10 8 11 9 13 10 7 11 8 12 6 13
REMARK SMILES IDX 5 14 4 15 3 16 2 17 1 18 12 19 19 21 20 22 21 23 22 24 23 25
REMARK SMILES IDX 24 27 25 28 26 29 84 30 27 31 83 32 28 33 29 34 30 35 77 36
REMARK SMILES IDX 31 37 82 38 76 39 78 40 32 41 81 42 75 43 74 44 33 46 63 47
REMARK SMILES IDX 44 48 62 49 45 50 48 51 61 52 79 53 46 54 47 55 60 57 80 58
REMARK SMILES IDX 49 59 34 60 35 61 43 62 36 63 42 64 37 65 38 66 39 67 40 68
REMARK SMILES IDX 41 69 64 70 65 71 73 72 66 73 72 74 67 75 68 76 69 77 70 78
REMARK SMILES IDX 71 79 50 80 51 81 59 82 52 83 58 84 53 85 54 86 55 87 56 88
REMARK SMILES IDX 57 89
REMARK H PARENT 17 5 12 20 22 26 78 45 48 56
REMARK Flexibility Score: inf
ROOT
ATOM      1  C   UNL A   1      30.590  25.954  26.130  1.00  0.00     0.116 C 
ENDROOT
BRANCH   1   2
ATOM      2  N   UNL A   1      30.368  25.317  24.859  1.00  0.00    -0.354 N 
ATOM      3  C   UNL A   1      30.849  24.109  24.426  1.00  0.00     0.242 C 
ATOM      4  O   UNL A   1      30.373  23.676  23.369  1.00  0.00    -0.273 OA
ATOM      5  H   UNL A   1      29.801  25.809  24.222  1.00  0.00     0.163 HD
BRANCH   3   6
ATOM      6  C   UNL A   1      32.087  23.397  25.054  1.00  0.00     0.177 C 
ATOM      7  N   UNL A   1      33.186  22.929  24.189  1.00  0.00    -0.328 N 
ATOM      8  C   UNL A   1      33.339  21.495  24.317  1.00  0.00     0.152 C 
ATOM      9  C   UNL A   1      31.989  21.005  24.821  1.00  0.00     0.136 C 
ATOM     10  C   UNL A   1      31.586  22.125  25.768  1.00  0.00     0.069 C 
BRANCH   7  11
ATOM     11  C   UNL A   1      34.155  23.789  23.717  1.00  0.00     0.223 C 
ATOM     12  O   UNL A   1      34.926  23.432  22.822  1.00  0.00    -0.275 OA
BRANCH  11  13
ATOM     13  C   UNL A   1      34.449  25.076  24.509  1.00  0.00     0.100 C 
BRANCH  13  14
ATOM     14  C   UNL A   1      33.929  26.450  24.107  1.00  0.00     0.010 C 
BRANCH  14  15
ATOM     15  C   UNL A   1      33.434  26.691  22.671  1.00  0.00     0.001 C 
BRANCH  15  16
ATOM     16  C   UNL A   1      32.562  27.929  22.402  1.00  0.00    -0.000 C 
BRANCH  16  17
ATOM     17  C   UNL A   1      31.053  27.736  22.497  1.00  0.00    -0.003 C 
ATOM     18  C   UNL A   1      30.299  29.050  22.368  1.00  0.00     0.004 C 
ENDBRANCH  16  17
ENDBRANCH  15  16
ENDBRANCH  14  15
ENDBRANCH  13  14
ENDBRANCH  11  13
ENDBRANCH   7  11
BRANCH   9  19
ATOM     19  O   UNL A   1      32.061  19.746  25.463  1.00  0.00    -0.391 OA
ATOM     20  H   UNL A   1      32.871  19.289  25.188  1.00  0.00     0.211 HD
ENDBRANCH   9  19
ENDBRANCH   3   6
ENDBRANCH   1   2
BRANCH   1  21
ATOM     21  C   UNL A   1      31.075  27.394  26.090  1.00  0.00     0.023 C 
BRANCH  21  22
ATOM     22  C   UNL A   1      31.925  27.847  27.265  1.00  0.00     0.023 C 
BRANCH  22  23
ATOM     23  C   UNL A   1      33.264  28.493  26.923  1.00  0.00     0.116 C 
BRANCH  23  24
ATOM     24  N   UNL A   1      33.288  29.947  27.046  1.00  0.00    -0.352 N 
ATOM     25  C   UNL A   1      34.256  30.763  27.590  1.00  0.00     0.251 C 
ATOM     26  H   UNL A   1      32.498  30.412  26.687  1.00  0.00     0.163 HD
ATOM     27  O   UNL A   1      34.068  31.978  27.643  1.00  0.00    -0.269 OA
BRANCH  25  28
ATOM     28  C   UNL A   1      35.492  30.175  28.155  1.00  0.00     0.039 A 
ATOM     29  C   UNL A   1      36.662  30.186  27.392  1.00  0.00     0.014 A 
ATOM     30  C   UNL A   1      35.513  29.668  29.456  1.00  0.00     0.014 A 
ATOM     31  C   UNL A   1      37.870  29.782  27.970  1.00  0.00     0.010 A 
ATOM     32  C   UNL A   1      36.731  29.369  30.060  1.00  0.00     0.010 A 
ATOM     33  C   UNL A   1      37.925  29.419  29.326  1.00  0.00    -0.014 A 
BRANCH  33  34
ATOM     34  C   UNL A   1      39.213  29.084  29.991  1.00  0.00     0.031 A 
ATOM     35  C   UNL A   1      39.653  29.845  31.216  1.00  0.00     0.074 A 
ATOM     36  C   UNL A   1      40.023  28.147  29.457  1.00  0.00     0.049 A 
ATOM     37  N   UNL A   1      40.760  29.731  31.905  1.00  0.00    -0.248 NA
ATOM     38  C   UNL A   1      38.747  30.896  31.710  1.00  0.00     0.031 C 
ATOM     39  C   UNL A   1      39.755  27.385  28.234  1.00  0.00     0.029 A 
ATOM     40  N   UNL A   1      41.244  27.675  29.875  1.00  0.00    -0.354 N 
ATOM     41  C   UNL A   1      40.693  30.710  32.892  1.00  0.00     0.074 A 
ATOM     42  C   UNL A   1      39.468  31.446  32.674  1.00  0.00     0.031 C 
ATOM     43  C   UNL A   1      40.757  26.516  28.026  1.00  0.00     0.029 A 
ATOM     44  C   UNL A   1      41.756  26.679  29.077  1.00  0.00     0.049 A 
ATOM     45  H   UNL A   1      41.708  28.018  30.672  1.00  0.00     0.167 HD
ATOM     46  C   UNL A   1      41.554  30.957  33.907  1.00  0.00     0.031 A 
ATOM     47  C   UNL A   1      42.897  25.969  29.183  1.00  0.00     0.031 A 
ATOM     48  C   UNL A   1      42.756  30.204  34.145  1.00  0.00     0.049 A 
ATOM     49  C   UNL A   1      43.818  26.231  30.344  1.00  0.00     0.074 A 
ATOM     50  C   UNL A   1      43.659  30.329  35.186  1.00  0.00     0.029 A 
ATOM     51  N   UNL A   1      43.217  29.176  33.336  1.00  0.00    -0.354 N 
ATOM     52  N   UNL A   1      43.699  27.112  31.308  1.00  0.00    -0.248 NA
ATOM     53  C   UNL A   1      45.016  25.386  30.441  1.00  0.00     0.031 C 
ATOM     54  C   UNL A   1      44.687  29.401  34.986  1.00  0.00     0.029 A 
ATOM     55  C   UNL A   1      44.397  28.666  33.848  1.00  0.00     0.049 A 
ATOM     56  H   UNL A   1      42.771  28.857  32.519  1.00  0.00     0.167 HD
ATOM     57  C   UNL A   1      44.794  26.911  32.141  1.00  0.00     0.074 A 
ATOM     58  C   UNL A   1      45.553  25.813  31.576  1.00  0.00     0.031 C 
ATOM     59  C   UNL A   1      45.141  27.574  33.271  1.00  0.00     0.031 A 
BRANCH  46  60
ATOM     60  C   UNL A   1      41.214  32.088  34.843  1.00  0.00    -0.014 A 
ATOM     61  C   UNL A   1      41.632  33.404  34.571  1.00  0.00     0.010 A 
ATOM     62  C   UNL A   1      40.452  31.838  35.998  1.00  0.00     0.010 A 
ATOM     63  C   UNL A   1      41.341  34.438  35.462  1.00  0.00     0.020 A 
ATOM     64  C   UNL A   1      40.131  32.876  36.878  1.00  0.00     0.020 A 
ATOM     65  C   UNL A   1      40.596  34.167  36.614  1.00  0.00     0.054 A 
BRANCH  65  66
ATOM     66  S   UNL A   1      40.220  35.532  37.748  1.00  0.00     0.124 S 
ATOM     67  O   UNL A   1      41.463  35.641  38.508  1.00  0.00    -0.237 OA
ATOM     68  O   UNL A   1      39.943  36.640  36.836  1.00  0.00    -0.237 OA
ATOM     69  O   UNL A   1      39.068  35.047  38.502  1.00  0.00    -0.744 OA
ENDBRANCH  65  66
ENDBRANCH  46  60
BRANCH  47  70
ATOM     70  C   UNL A   1      43.212  24.910  28.184  1.00  0.00    -0.014 A 
ATOM     71  C   UNL A   1      43.936  25.225  27.020  1.00  0.00     0.010 A 
ATOM     72  C   UNL A   1      42.799  23.582  28.393  1.00  0.00     0.010 A 
ATOM     73  C   UNL A   1      44.224  24.236  26.074  1.00  0.00     0.020 A 
ATOM     74  C   UNL A   1      43.107  22.585  27.462  1.00  0.00     0.020 A 
ATOM     75  C   UNL A   1      43.807  22.922  26.301  1.00  0.00     0.054 A 
BRANCH  75  76
ATOM     76  S   UNL A   1      44.237  21.644  25.086  1.00  0.00     0.124 S 
ATOM     77  O   UNL A   1      45.586  21.271  25.502  1.00  0.00    -0.237 OA
ATOM     78  O   UNL A   1      43.204  20.636  25.306  1.00  0.00    -0.237 OA
ATOM     79  O   UNL A   1      44.147  22.347  23.807  1.00  0.00    -0.744 OA
ENDBRANCH  75  76
ENDBRANCH  47  70
BRANCH  59  80
ATOM     80  C   UNL A   1      46.378  27.108  33.991  1.00  0.00    -0.014 A 
ATOM     81  C   UNL A   1      47.639  27.662  33.708  1.00  0.00     0.010 A 
ATOM     82  C   UNL A   1      46.269  26.120  34.986  1.00  0.00     0.010 A 
ATOM     83  C   UNL A   1      48.776  27.204  34.377  1.00  0.00     0.020 A 
ATOM     84  C   UNL A   1      47.400  25.680  35.678  1.00  0.00     0.020 A 
ATOM     85  C   UNL A   1      48.650  26.211  35.354  1.00  0.00     0.054 A 
BRANCH  85  86
ATOM     86  S   UNL A   1      50.138  25.646  36.225  1.00  0.00     0.124 S 
ATOM     87  O   UNL A   1      50.957  26.854  36.238  1.00  0.00    -0.237 OA
ATOM     88  O   UNL A   1      49.613  25.227  37.522  1.00  0.00    -0.237 OA
ATOM     89  O   UNL A   1      50.639  24.562  35.383  1.00  0.00    -0.744 OA
ENDBRANCH  85  86
ENDBRANCH  59  80
ENDBRANCH  33  34
ENDBRANCH  25  28
ENDBRANCH  23  24
ENDBRANCH  22  23
ENDBRANCH  21  22
ENDBRANCH   1  21
TORSDOF 21
ENDMDL
MODEL 3
REMARK VINA RESULT:      -9.6      6.290      8.514
REMARK SMILES CCCCCCC(=O)N1C[C@@H](O)C[C@@H]1C(=O)NCCCCNC(=O)c1ccc(-c2c3nc(c(-c4ccc(S(=O)(=O)[O-])cc4)c4ccc([nH]4)c(-c4ccc(S(=O)(=O)[O-])cc4)c4nc(c(-c5ccc(S(=O)(=O)[O-])cc5)c5ccc2[nH]5)C=C4)C=C3)cc1
REMARK SMILES IDX 18 1 17 2 15 3 16 4 14 6 9 7 10 8 11 9 13 10 7 11 8 12 6 13
REMARK SMILES IDX 5 14 4 15 3 16 2 17 1 18 12 19 19 21 20 22 21 23 22 24 23 25
REMARK SMILES IDX 24 27 25 28 26 29 84 30 27 31 83 32 28 33 29 34 30 35 77 36
REMARK SMILES IDX 31 37 82 38 76 39 78 40 32 41 81 42 75 43 74 44 33 46 63 47
REMARK SMILES IDX 44 48 62 49 45 50 48 51 61 52 79 53 46 54 47 55 60 57 80 58
REMARK SMILES IDX 49 59 34 60 35 61 43 62 36 63 42 64 37 65 38 66 39 67 40 68
REMARK SMILES IDX 41 69 64 70 65 71 73 72 66 73 72 74 67 75 68 76 69 77 70 78
REMARK SMILES IDX 71 79 50 80 51 81 59 82 52 83 58 84 53 85 54 86 55 87 56 88
REMARK SMILES IDX 57 89
REMARK H PARENT 17 5 12 20 22 26 78 45 48 56
REMARK Flexibility Score: inf
ROOT
ATOM      1  C   UNL A   1      33.297  27.979  26.566  1.00  0.00     0.116 C 
ENDROOT
BRANCH   1   2
ATOM      2  N   UNL A   1      33.825  26.751  26.032  1.00  0.00    -0.354 N 
ATOM      3  C   UNL A   1      33.745  26.287  24.746  1.00  0.00     0.242 C 
ATOM      4  O   UNL A   1      34.437  25.297  24.476  1.00  0.00    -0.273 OA
ATOM      5  H   UNL A   1      34.302  26.173  26.671  1.00  0.00     0.163 HD
BRANCH   3   6
ATOM      6  C   UNL A   1      32.689  26.785  23.711  1.00  0.00     0.177 C 
ATOM      7  N   UNL A   1      31.515  25.950  23.397  1.00  0.00    -0.328 N 
ATOM      8  C   UNL A   1      31.512  25.613  21.988  1.00  0.00     0.152 C 
ATOM      9  C   UNL A   1      32.962  25.763  21.552  1.00  0.00     0.136 C 
ATOM     10  C   UNL A   1      33.406  26.972  22.359  1.00  0.00     0.069 C 
BRANCH   7  11
ATOM     11  C   UNL A   1      30.411  25.907  24.222  1.00  0.00     0.223 C 
ATOM     12  O   UNL A   1      29.347  26.422  23.870  1.00  0.00    -0.275 OA
BRANCH  11  13
ATOM     13  C   UNL A   1      30.601  25.472  25.686  1.00  0.00     0.100 C 
BRANCH  13  14
ATOM     14  C   UNL A   1      31.201  24.133  26.097  1.00  0.00     0.010 C 
BRANCH  14  15
ATOM     15  C   UNL A   1      30.807  22.854  25.340  1.00  0.00     0.001 C 
BRANCH  15  16
ATOM     16  C   UNL A   1      31.895  21.797  25.084  1.00  0.00    -0.000 C 
BRANCH  16  17
ATOM     17  C   UNL A   1      32.974  22.159  24.069  1.00  0.00    -0.003 C 
ATOM     18  C   UNL A   1      32.470  22.060  22.638  1.00  0.00     0.004 C 
ENDBRANCH  16  17
ENDBRANCH  15  16
ENDBRANCH  14  15
ENDBRANCH  13  14
ENDBRANCH  11  13
ENDBRANCH   7  11
BRANCH   9  19
ATOM     19  O   UNL A   1      33.104  25.955  20.156  1.00  0.00    -0.391 OA
ATOM     20  H   UNL A   1      32.259  26.250  19.783  1.00  0.00     0.211 HD
ENDBRANCH   9  19
ENDBRANCH   3   6
ENDBRANCH   1   2
BRANCH   1  21
ATOM     21  C   UNL A   1      34.033  29.253  26.186  1.00  0.00     0.023 C 
BRANCH  21  22
ATOM     22  C   UNL A   1      34.444  30.157  27.337  1.00  0.00     0.023 C 
BRANCH  22  23
ATOM     23  C   UNL A   1      35.678  29.729  28.126  1.00  0.00     0.116 C 
BRANCH  23  24
ATOM     24  N   UNL A   1      35.558  29.876  29.572  1.00  0.00    -0.352 N 
ATOM     25  C   UNL A   1      36.544  29.895  30.535  1.00  0.00     0.251 C 
ATOM     26  H   UNL A   1      34.638  29.977  29.909  1.00  0.00     0.163 HD
ATOM     27  O   UNL A   1      36.234  29.982  31.722  1.00  0.00    -0.269 OA
BRANCH  25  28
ATOM     28  C   UNL A   1      37.966  29.757  30.144  1.00  0.00     0.039 A 
ATOM     29  C   UNL A   1      38.883  29.265  31.077  1.00  0.00     0.014 A 
ATOM     30  C   UNL A   1      38.384  30.055  28.846  1.00  0.00     0.014 A 
ATOM     31  C   UNL A   1      40.192  28.978  30.675  1.00  0.00     0.010 A 
ATOM     32  C   UNL A   1      39.653  29.670  28.424  1.00  0.00     0.010 A 
ATOM     33  C   UNL A   1      40.575  29.129  29.332  1.00  0.00    -0.014 A 
BRANCH  33  34
ATOM     34  C   UNL A   1      41.930  28.735  28.860  1.00  0.00     0.031 A 
ATOM     35  C   UNL A   1      43.035  29.758  28.792  1.00  0.00     0.074 A 
ATOM     36  C   UNL A   1      42.153  27.477  28.425  1.00  0.00     0.049 A 
ATOM     37  N   UNL A   1      44.264  29.619  28.365  1.00  0.00    -0.248 NA
ATOM     38  C   UNL A   1      42.705  31.127  29.227  1.00  0.00     0.031 C 
ATOM     39  C   UNL A   1      41.154  26.406  28.368  1.00  0.00     0.029 A 
ATOM     40  N   UNL A   1      43.296  26.886  27.944  1.00  0.00    -0.354 N 
ATOM     41  C   UNL A   1      44.841  30.882  28.455  1.00  0.00     0.074 A 
ATOM     42  C   UNL A   1      43.812  31.784  28.917  1.00  0.00     0.031 C 
ATOM     43  C   UNL A   1      41.737  25.282  27.921  1.00  0.00     0.029 A 
ATOM     44  C   UNL A   1      43.140  25.557  27.626  1.00  0.00     0.049 A 
ATOM     45  H   UNL A   1      44.147  27.369  27.838  1.00  0.00     0.167 HD
ATOM     46  C   UNL A   1      46.119  31.254  28.206  1.00  0.00     0.031 A 
ATOM     47  C   UNL A   1      44.028  24.657  27.159  1.00  0.00     0.031 A 
ATOM     48  C   UNL A   1      47.153  30.351  27.779  1.00  0.00     0.049 A 
ATOM     49  C   UNL A   1      45.452  25.083  26.931  1.00  0.00     0.074 A 
ATOM     50  C   UNL A   1      48.495  30.615  27.567  1.00  0.00     0.029 A 
ATOM     51  N   UNL A   1      46.962  29.004  27.508  1.00  0.00    -0.354 N 
ATOM     52  N   UNL A   1      45.995  26.266  27.093  1.00  0.00    -0.248 NA
ATOM     53  C   UNL A   1      46.389  24.045  26.478  1.00  0.00     0.031 C 
ATOM     54  C   UNL A   1      49.109  29.436  27.132  1.00  0.00     0.029 A 
ATOM     55  C   UNL A   1      48.159  28.427  27.120  1.00  0.00     0.049 A 
ATOM     56  H   UNL A   1      46.103  28.530  27.580  1.00  0.00     0.167 HD
ATOM     57  C   UNL A   1      47.342  26.109  26.786  1.00  0.00     0.074 A 
ATOM     58  C   UNL A   1      47.534  24.713  26.447  1.00  0.00     0.031 C 
ATOM     59  C   UNL A   1      48.331  27.036  26.784  1.00  0.00     0.031 A 
BRANCH  46  60
ATOM     60  C   UNL A   1      46.466  32.707  28.404  1.00  0.00    -0.014 A 
ATOM     61  C   UNL A   1      46.920  33.181  29.648  1.00  0.00     0.010 A 
ATOM     62  C   UNL A   1      46.355  33.608  27.329  1.00  0.00     0.010 A 
ATOM     63  C   UNL A   1      47.206  34.536  29.830  1.00  0.00     0.020 A 
ATOM     64  C   UNL A   1      46.670  34.960  27.498  1.00  0.00     0.020 A 
ATOM     65  C   UNL A   1      47.074  35.418  28.754  1.00  0.00     0.054 A 
BRANCH  65  66
ATOM     66  S   UNL A   1      47.465  37.170  29.013  1.00  0.00     0.124 S 
ATOM     67  O   UNL A   1      47.078  37.360  30.409  1.00  0.00    -0.237 OA
ATOM     68  O   UNL A   1      48.900  37.222  28.747  1.00  0.00    -0.237 OA
ATOM     69  O   UNL A   1      46.628  37.860  28.035  1.00  0.00    -0.744 OA
ENDBRANCH  65  66
ENDBRANCH  46  60
BRANCH  47  70
ATOM     70  C   UNL A   1      43.606  23.249  26.916  1.00  0.00    -0.014 A 
ATOM     71  C   UNL A   1      43.061  22.480  27.960  1.00  0.00     0.010 A 
ATOM     72  C   UNL A   1      43.738  22.672  25.640  1.00  0.00     0.010 A 
ATOM     73  C   UNL A   1      42.675  21.154  27.739  1.00  0.00     0.020 A 
ATOM     74  C   UNL A   1      43.329  21.355  25.408  1.00  0.00     0.020 A 
ATOM     75  C   UNL A   1      42.811  20.600  26.464  1.00  0.00     0.054 A 
BRANCH  75  76
ATOM     76  S   UNL A   1      42.254  18.895  26.186  1.00  0.00     0.124 S 
ATOM     77  O   UNL A   1      42.452  18.293  27.500  1.00  0.00    -0.237 OA
ATOM     78  O   UNL A   1      40.865  19.079  25.774  1.00  0.00    -0.237 OA
ATOM     79  O   UNL A   1      43.147  18.413  25.134  1.00  0.00    -0.744 OA
ENDBRANCH  75  76
ENDBRANCH  47  70
BRANCH  59  80
ATOM     80  C   UNL A   1      49.718  26.563  26.437  1.00  0.00    -0.014 A 
ATOM     81  C   UNL A   1      50.583  26.056  27.422  1.00  0.00     0.010 A 
ATOM     82  C   UNL A   1      50.147  26.600  25.098  1.00  0.00     0.010 A 
ATOM     83  C   UNL A   1      51.871  25.635  27.081  1.00  0.00     0.020 A 
ATOM     84  C   UNL A   1      51.424  26.154  24.748  1.00  0.00     0.020 A 
ATOM     85  C   UNL A   1      52.285  25.693  25.746  1.00  0.00     0.054 A 
BRANCH  85  86
ATOM     86  S   UNL A   1      53.954  25.124  25.322  1.00  0.00     0.124 S 
ATOM     87  O   UNL A   1      54.614  25.125  26.625  1.00  0.00    -0.237 OA
ATOM     88  O   UNL A   1      53.708  23.806  24.742  1.00  0.00    -0.237 OA
ATOM     89  O   UNL A   1      54.434  26.132  24.379  1.00  0.00    -0.744 OA
ENDBRANCH  85  86
ENDBRANCH  59  80
ENDBRANCH  33  34
ENDBRANCH  25  28
ENDBRANCH  23  24
ENDBRANCH  22  23
ENDBRANCH  21  22
ENDBRANCH   1  21
TORSDOF 21
ENDMDL
