MODEL 1
REMARK VINA RESULT:     -11.9      0.000      0.000
REMARK SMILES O=C(NCCCCNC(=O)c1c(F)cccc1NC(=O)C1CCCCC1)c1ccc(-c2c3nc(c(-c4ccc(S(=O)(=O)[O-])cc4)c4ccc([nH]4)c(-c4ccc(S(=O)(=O)[O-])cc4)c4nc(c(-c5ccc(S(=O)(=O)[O-])cc5)c5ccc2[nH]5)C=C4)C=C3)cc1
REMARK SMILES IDX 5 1 4 2 3 3 1 4 2 5 27 7 28 8 86 9 29 10 85 11 30 12 31 13
REMARK SMILES IDX 32 14 79 15 33 16 84 17 78 18 80 19 34 20 83 21 77 22 76 23
REMARK SMILES IDX 35 25 65 26 46 27 64 28 47 29 50 30 63 31 81 32 48 33 49 34
REMARK SMILES IDX 62 36 82 37 51 38 36 39 37 40 45 41 38 42 44 43 39 44 40 45
REMARK SMILES IDX 41 46 42 47 43 48 66 49 67 50 75 51 68 52 74 53 69 54 70 55
REMARK SMILES IDX 71 56 72 57 73 58 52 59 53 60 61 61 54 62 60 63 55 64 56 65
REMARK SMILES IDX 57 66 58 67 59 68 6 69 7 70 8 71 9 72 10 74 11 75 12 76
REMARK SMILES IDX 17 77 13 78 14 79 16 80 15 81 18 82 19 83 20 85 21 86 22 87
REMARK SMILES IDX 26 88 23 89 25 90 24 91
REMARK H PARENT 3 6 80 24 50 35 8 73 18 84
REMARK Flexibility Score: inf
ROOT
ATOM      1  C   UNL A   1      34.800  30.716  27.848  1.00  0.00     0.023 C 
ENDROOT
BRANCH   1   2
ATOM      2  C   UNL A   1      35.766  31.395  28.809  1.00  0.00     0.116 C 
BRANCH   2   3
ATOM      3  N   UNL A   1      35.648  30.908  30.176  1.00  0.00    -0.352 N 
ATOM      4  O   UNL A   1      36.256  29.799  32.044  1.00  0.00    -0.269 OA
ATOM      5  C   UNL A   1      36.578  30.259  30.959  1.00  0.00     0.251 C 
ATOM      6  H   UNL A   1      34.775  31.064  30.604  1.00  0.00     0.163 HD
BRANCH   5   7
ATOM      7  C   UNL A   1      37.962  30.096  30.457  1.00  0.00     0.039 A 
ATOM      8  C   UNL A   1      38.234  30.199  29.092  1.00  0.00     0.014 A 
ATOM      9  C   UNL A   1      38.989  29.801  31.357  1.00  0.00     0.014 A 
ATOM     10  C   UNL A   1      39.481  29.822  28.611  1.00  0.00     0.010 A 
ATOM     11  C   UNL A   1      40.274  29.524  30.876  1.00  0.00     0.010 A 
ATOM     12  C   UNL A   1      40.521  29.486  29.495  1.00  0.00    -0.014 A 
BRANCH  12  13
ATOM     13  C   UNL A   1      41.857  29.142  28.940  1.00  0.00     0.031 A 
ATOM     14  C   UNL A   1      42.990  30.135  28.949  1.00  0.00     0.074 A 
ATOM     15  C   UNL A   1      42.057  27.895  28.471  1.00  0.00     0.049 A 
ATOM     16  N   UNL A   1      44.229  29.969  28.560  1.00  0.00    -0.248 NA
ATOM     17  C   UNL A   1      42.698  31.488  29.446  1.00  0.00     0.031 C 
ATOM     18  C   UNL A   1      41.037  26.843  28.410  1.00  0.00     0.029 A 
ATOM     19  N   UNL A   1      43.187  27.285  27.989  1.00  0.00    -0.354 N 
ATOM     20  C   UNL A   1      44.857  31.198  28.737  1.00  0.00     0.074 A 
ATOM     21  C   UNL A   1      43.855  32.107  29.251  1.00  0.00     0.031 C 
ATOM     22  C   UNL A   1      41.604  25.704  27.990  1.00  0.00     0.029 A 
ATOM     23  C   UNL A   1      43.005  25.959  27.679  1.00  0.00     0.049 A 
ATOM     24  H   UNL A   1      44.046  27.753  27.875  1.00  0.00     0.167 HD
ATOM     25  C   UNL A   1      46.148  31.536  28.497  1.00  0.00     0.031 A 
ATOM     26  C   UNL A   1      43.862  25.044  27.190  1.00  0.00     0.031 A 
ATOM     27  C   UNL A   1      47.142  30.622  27.991  1.00  0.00     0.049 A 
ATOM     28  C   UNL A   1      45.279  25.452  26.909  1.00  0.00     0.074 A 
ATOM     29  C   UNL A   1      48.486  30.859  27.752  1.00  0.00     0.029 A 
ATOM     30  N   UNL A   1      46.903  29.303  27.640  1.00  0.00    -0.354 N 
ATOM     31  N   UNL A   1      45.858  26.610  27.117  1.00  0.00    -0.248 NA
ATOM     32  C   UNL A   1      46.157  24.429  26.330  1.00  0.00     0.031 C 
ATOM     33  C   UNL A   1      49.045  29.701  27.203  1.00  0.00     0.029 A 
ATOM     34  C   UNL A   1      48.065  28.720  27.159  1.00  0.00     0.049 A 
ATOM     35  H   UNL A   1      46.035  28.845  27.721  1.00  0.00     0.167 HD
ATOM     36  C   UNL A   1      47.176  26.450  26.711  1.00  0.00     0.074 A 
ATOM     37  C   UNL A   1      47.312  25.076  26.265  1.00  0.00     0.031 C 
ATOM     38  C   UNL A   1      48.184  27.357  26.709  1.00  0.00     0.031 A 
BRANCH  25  39
ATOM     39  C   UNL A   1      46.554  32.968  28.739  1.00  0.00    -0.014 A 
ATOM     40  C   UNL A   1      46.429  33.949  27.739  1.00  0.00     0.010 A 
ATOM     41  C   UNL A   1      47.033  33.347  30.008  1.00  0.00     0.010 A 
ATOM     42  C   UNL A   1      46.821  35.270  27.987  1.00  0.00     0.020 A 
ATOM     43  C   UNL A   1      47.400  34.671  30.269  1.00  0.00     0.020 A 
ATOM     44  C   UNL A   1      47.311  35.620  29.250  1.00  0.00     0.054 A 
BRANCH  44  45
ATOM     45  S   UNL A   1      47.810  37.340  29.546  1.00  0.00     0.124 S 
ATOM     46  O   UNL A   1      48.099  37.325  30.977  1.00  0.00    -0.237 OA
ATOM     47  O   UNL A   1      48.971  37.492  28.673  1.00  0.00    -0.237 OA
ATOM     48  O   UNL A   1      46.635  38.115  29.156  1.00  0.00    -0.744 OA
ENDBRANCH  44  45
ENDBRANCH  25  39
BRANCH  26  49
ATOM     49  C   UNL A   1      43.393  23.654  26.937  1.00  0.00    -0.014 A 
ATOM     50  C   UNL A   1      43.152  23.211  25.626  1.00  0.00     0.010 A 
ATOM     51  C   UNL A   1      43.216  22.758  28.008  1.00  0.00     0.010 A 
ATOM     52  C   UNL A   1      42.732  21.898  25.391  1.00  0.00     0.020 A 
ATOM     53  C   UNL A   1      42.827  21.438  27.774  1.00  0.00     0.020 A 
ATOM     54  C   UNL A   1      42.576  21.019  26.466  1.00  0.00     0.054 A 
BRANCH  54  55
ATOM     55  S   UNL A   1      42.086  19.305  26.134  1.00  0.00     0.124 S 
ATOM     56  O   UNL A   1      42.899  18.978  24.967  1.00  0.00    -0.237 OA
ATOM     57  O   UNL A   1      42.454  18.625  27.375  1.00  0.00    -0.237 OA
ATOM     58  O   UNL A   1      40.649  19.402  25.890  1.00  0.00    -0.744 OA
ENDBRANCH  54  55
ENDBRANCH  26  49
BRANCH  38  59
ATOM     59  C   UNL A   1      49.532  26.878  26.240  1.00  0.00    -0.014 A 
ATOM     60  C   UNL A   1      50.460  26.315  27.134  1.00  0.00     0.010 A 
ATOM     61  C   UNL A   1      49.864  26.974  24.877  1.00  0.00     0.010 A 
ATOM     62  C   UNL A   1      51.713  25.895  26.680  1.00  0.00     0.020 A 
ATOM     63  C   UNL A   1      51.105  26.528  24.413  1.00  0.00     0.020 A 
ATOM     64  C   UNL A   1      52.029  26.007  25.322  1.00  0.00     0.054 A 
BRANCH  64  65
ATOM     65  S   UNL A   1      53.651  25.433  24.752  1.00  0.00     0.124 S 
ATOM     66  O   UNL A   1      54.539  25.952  25.789  1.00  0.00    -0.237 OA
ATOM     67  O   UNL A   1      53.490  23.981  24.731  1.00  0.00    -0.237 OA
ATOM     68  O   UNL A   1      53.796  26.057  23.438  1.00  0.00    -0.744 OA
ENDBRANCH  64  65
ENDBRANCH  38  59
ENDBRANCH  12  13
ENDBRANCH   5   7
ENDBRANCH   2   3
ENDBRANCH   1   2
BRANCH   1  69
ATOM     69  C   UNL A   1      35.313  29.424  27.211  1.00  0.00     0.023 C 
BRANCH  69  70
ATOM     70  C   UNL A   1      34.237  28.518  26.615  1.00  0.00     0.116 C 
BRANCH  70  71
ATOM     71  N   UNL A   1      33.130  28.303  27.530  1.00  0.00    -0.352 N 
ATOM     72  C   UNL A   1      31.813  28.056  27.246  1.00  0.00     0.256 C 
ATOM     73  H   UNL A   1      33.358  28.340  28.487  1.00  0.00     0.163 HD
ATOM     74  O   UNL A   1      30.982  28.055  28.151  1.00  0.00    -0.269 OA
BRANCH  72  75
ATOM     75  C   UNL A   1      31.346  27.855  25.863  1.00  0.00     0.099 A 
ATOM     76  C   UNL A   1      31.328  28.934  24.978  1.00  0.00     0.138 A 
ATOM     77  C   UNL A   1      30.954  26.571  25.425  1.00  0.00     0.057 A 
ATOM     78  F   UNL A   1      31.691  30.162  25.373  1.00  0.00    -0.206 F 
ATOM     79  C   UNL A   1      30.918  28.767  23.659  1.00  0.00     0.040 A 
ATOM     80  C   UNL A   1      30.645  26.402  24.071  1.00  0.00     0.027 A 
ATOM     81  C   UNL A   1      30.597  27.495  23.200  1.00  0.00     0.005 A 
BRANCH  77  82
ATOM     82  N   UNL A   1      30.878  25.522  26.368  1.00  0.00    -0.325 N 
ATOM     83  C   UNL A   1      31.609  24.394  26.606  1.00  0.00     0.227 C 
ATOM     84  H   UNL A   1      30.128  25.630  26.996  1.00  0.00     0.169 HD
ATOM     85  O   UNL A   1      31.271  23.715  27.583  1.00  0.00    -0.274 OA
BRANCH  83  86
ATOM     86  C   UNL A   1      32.787  23.955  25.730  1.00  0.00     0.079 C 
ATOM     87  C   UNL A   1      32.277  23.400  24.378  1.00  0.00     0.013 C 
ATOM     88  C   UNL A   1      33.798  25.068  25.419  1.00  0.00     0.013 C 
ATOM     89  C   UNL A   1      33.416  22.890  23.493  1.00  0.00     0.001 C 
ATOM     90  C   UNL A   1      34.987  24.492  24.652  1.00  0.00     0.001 C 
ATOM     91  C   UNL A   1      34.534  23.915  23.317  1.00  0.00     0.000 C 
ENDBRANCH  83  86
ENDBRANCH  77  82
ENDBRANCH  72  75
ENDBRANCH  70  71
ENDBRANCH  69  70
ENDBRANCH   1  69
TORSDOF 16
ENDMDL
MODEL 2
REMARK VINA RESULT:     -11.9      3.565      4.447
REMARK SMILES O=C(NCCCCNC(=O)c1c(F)cccc1NC(=O)C1CCCCC1)c1ccc(-c2c3nc(c(-c4ccc(S(=O)(=O)[O-])cc4)c4ccc([nH]4)c(-c4ccc(S(=O)(=O)[O-])cc4)c4nc(c(-c5ccc(S(=O)(=O)[O-])cc5)c5ccc2[nH]5)C=C4)C=C3)cc1
REMARK SMILES IDX 5 1 4 2 3 3 1 4 2 5 27 7 28 8 86 9 29 10 85 11 30 12 31 13
REMARK SMILES IDX 32 14 79 15 33 16 84 17 78 18 80 19 34 20 83 21 77 22 76 23
REMARK SMILES IDX 35 25 65 26 46 27 64 28 47 29 50 30 63 31 81 32 48 33 49 34
REMARK SMILES IDX 62 36 82 37 51 38 36 39 37 40 45 41 38 42 44 43 39 44 40 45
REMARK SMILES IDX 41 46 42 47 43 48 66 49 67 50 75 51 68 52 74 53 69 54 70 55
REMARK SMILES IDX 71 56 72 57 73 58 52 59 53 60 61 61 54 62 60 63 55 64 56 65
REMARK SMILES IDX 57 66 58 67 59 68 6 69 7 70 8 71 9 72 10 74 11 75 12 76
REMARK SMILES IDX 17 77 13 78 14 79 16 80 15 81 18 82 19 83 20 85 21 86 22 87
REMARK SMILES IDX 26 88 23 89 25 90 24 91
REMARK H PARENT 3 6 80 24 50 35 8 73 18 84
REMARK Flexibility Score: inf
ROOT
ATOM      1  C   UNL A   1      34.046  27.795  25.956  1.00  0.00     0.023 C 
ENDROOT
BRANCH   1   2
ATOM      2  C   UNL A   1      33.409  28.230  27.269  1.00  0.00     0.116 C 
BRANCH   2   3
ATOM      3  N   UNL A   1      33.332  29.676  27.415  1.00  0.00    -0.352 N 
ATOM      4  O   UNL A   1      33.994  31.736  28.054  1.00  0.00    -0.269 OA
ATOM      5  C   UNL A   1      34.284  30.564  27.868  1.00  0.00     0.251 C 
ATOM      6  H   UNL A   1      32.473  30.081  27.153  1.00  0.00     0.163 HD
BRANCH   5   7
ATOM      7  C   UNL A   1      35.651  30.074  28.160  1.00  0.00     0.039 A 
ATOM      8  C   UNL A   1      35.983  29.627  29.440  1.00  0.00     0.014 A 
ATOM      9  C   UNL A   1      36.619  30.098  27.153  1.00  0.00     0.014 A 
ATOM     10  C   UNL A   1      37.313  29.387  29.760  1.00  0.00     0.010 A 
ATOM     11  C   UNL A   1      37.942  29.753  27.454  1.00  0.00     0.010 A 
ATOM     12  C   UNL A   1      38.310  29.440  28.771  1.00  0.00    -0.014 A 
BRANCH  12  13
ATOM     13  C   UNL A   1      39.714  29.123  29.145  1.00  0.00     0.031 A 
ATOM     14  C   UNL A   1      40.549  30.087  29.948  1.00  0.00     0.074 A 
ATOM     15  C   UNL A   1      40.219  27.925  28.793  1.00  0.00     0.049 A 
ATOM     16  N   UNL A   1      41.767  29.933  30.406  1.00  0.00    -0.248 NA
ATOM     17  C   UNL A   1      39.950  31.390  30.274  1.00  0.00     0.031 C 
ATOM     18  C   UNL A   1      39.508  26.906  28.014  1.00  0.00     0.029 A 
ATOM     19  N   UNL A   1      41.429  27.342  29.070  1.00  0.00    -0.354 N 
ATOM     20  C   UNL A   1      42.091  31.125  31.046  1.00  0.00     0.074 A 
ATOM     21  C   UNL A   1      40.947  32.000  30.901  1.00  0.00     0.031 C 
ATOM     22  C   UNL A   1      40.263  25.802  27.939  1.00  0.00     0.029 A 
ATOM     23  C   UNL A   1      41.540  26.056  28.596  1.00  0.00     0.049 A 
ATOM     24  H   UNL A   1      42.149  27.800  29.560  1.00  0.00     0.167 HD
ATOM     25  C   UNL A   1      43.233  31.457  31.697  1.00  0.00     0.031 A 
ATOM     26  C   UNL A   1      42.555  25.176  28.669  1.00  0.00     0.031 A 
ATOM     27  C   UNL A   1      44.365  30.577  31.843  1.00  0.00     0.049 A 
ATOM     28  C   UNL A   1      43.818  25.579  29.373  1.00  0.00     0.074 A 
ATOM     29  C   UNL A   1      45.552  30.808  32.518  1.00  0.00     0.029 A 
ATOM     30  N   UNL A   1      44.457  29.304  31.302  1.00  0.00    -0.354 N 
ATOM     31  N   UNL A   1      44.088  26.699  30.000  1.00  0.00    -0.248 NA
ATOM     32  C   UNL A   1      44.910  24.600  29.379  1.00  0.00     0.031 C 
ATOM     33  C   UNL A   1      46.384  29.697  32.336  1.00  0.00     0.029 A 
ATOM     34  C   UNL A   1      45.691  28.747  31.602  1.00  0.00     0.049 A 
ATOM     35  H   UNL A   1      43.750  28.859  30.781  1.00  0.00     0.167 HD
ATOM     36  C   UNL A   1      45.378  26.551  30.494  1.00  0.00     0.074 A 
ATOM     37  C   UNL A   1      45.823  25.225  30.109  1.00  0.00     0.031 C 
ATOM     38  C   UNL A   1      46.125  27.432  31.204  1.00  0.00     0.031 A 
BRANCH  25  39
ATOM     39  C   UNL A   1      43.335  32.850  32.268  1.00  0.00    -0.014 A 
ATOM     40  C   UNL A   1      43.960  33.893  31.561  1.00  0.00     0.010 A 
ATOM     41  C   UNL A   1      42.756  33.129  33.521  1.00  0.00     0.010 A 
ATOM     42  C   UNL A   1      44.049  35.174  32.117  1.00  0.00     0.020 A 
ATOM     43  C   UNL A   1      42.817  34.414  34.068  1.00  0.00     0.020 A 
ATOM     44  C   UNL A   1      43.481  35.424  33.371  1.00  0.00     0.054 A 
BRANCH  44  45
ATOM     45  S   UNL A   1      43.607  37.095  34.069  1.00  0.00     0.124 S 
ATOM     46  O   UNL A   1      42.601  37.055  35.126  1.00  0.00    -0.237 OA
ATOM     47  O   UNL A   1      44.994  37.148  34.525  1.00  0.00    -0.237 OA
ATOM     48  O   UNL A   1      43.292  37.967  32.941  1.00  0.00    -0.744 OA
ENDBRANCH  44  45
ENDBRANCH  25  39
BRANCH  26  49
ATOM     49  C   UNL A   1      42.409  23.829  28.055  1.00  0.00    -0.014 A 
ATOM     50  C   UNL A   1      41.825  22.775  28.777  1.00  0.00     0.010 A 
ATOM     51  C   UNL A   1      42.827  23.603  26.731  1.00  0.00     0.010 A 
ATOM     52  C   UNL A   1      41.671  21.515  28.189  1.00  0.00     0.020 A 
ATOM     53  C   UNL A   1      42.647  22.356  26.129  1.00  0.00     0.020 A 
ATOM     54  C   UNL A   1      42.079  21.316  26.867  1.00  0.00     0.054 A 
BRANCH  54  55
ATOM     55  S   UNL A   1      41.818  19.691  26.105  1.00  0.00     0.124 S 
ATOM     56  O   UNL A   1      42.227  18.785  27.174  1.00  0.00    -0.237 OA
ATOM     57  O   UNL A   1      40.388  19.711  25.802  1.00  0.00    -0.237 OA
ATOM     58  O   UNL A   1      42.694  19.717  24.936  1.00  0.00    -0.744 OA
ENDBRANCH  54  55
ENDBRANCH  26  49
BRANCH  38  59
ATOM     59  C   UNL A   1      47.491  26.974  31.639  1.00  0.00    -0.014 A 
ATOM     60  C   UNL A   1      47.675  26.254  32.833  1.00  0.00     0.010 A 
ATOM     61  C   UNL A   1      48.605  27.248  30.825  1.00  0.00     0.010 A 
ATOM     62  C   UNL A   1      48.956  25.855  33.227  1.00  0.00     0.020 A 
ATOM     63  C   UNL A   1      49.883  26.825  31.201  1.00  0.00     0.020 A 
ATOM     64  C   UNL A   1      50.052  26.146  32.409  1.00  0.00     0.054 A 
BRANCH  64  65
ATOM     65  S   UNL A   1      51.700  25.597  32.928  1.00  0.00     0.124 S 
ATOM     66  O   UNL A   1      52.365  26.865  33.217  1.00  0.00    -0.237 OA
ATOM     67  O   UNL A   1      51.409  24.760  34.090  1.00  0.00    -0.237 OA
ATOM     68  O   UNL A   1      52.208  24.878  31.762  1.00  0.00    -0.744 OA
ENDBRANCH  64  65
ENDBRANCH  38  59
ENDBRANCH  12  13
ENDBRANCH   5   7
ENDBRANCH   2   3
ENDBRANCH   1   2
BRANCH   1  69
ATOM     69  C   UNL A   1      33.607  28.586  24.724  1.00  0.00     0.023 C 
BRANCH  69  70
ATOM     70  C   UNL A   1      33.825  27.884  23.386  1.00  0.00     0.116 C 
BRANCH  70  71
ATOM     71  N   UNL A   1      32.655  27.955  22.530  1.00  0.00    -0.352 N 
ATOM     72  C   UNL A   1      31.479  27.258  22.617  1.00  0.00     0.256 C 
ATOM     73  H   UNL A   1      32.714  28.595  21.784  1.00  0.00     0.163 HD
ATOM     74  O   UNL A   1      30.654  27.333  21.710  1.00  0.00    -0.269 OA
BRANCH  72  75
ATOM     75  C   UNL A   1      31.199  26.354  23.747  1.00  0.00     0.099 A 
ATOM     76  C   UNL A   1      30.634  26.868  24.916  1.00  0.00     0.138 A 
ATOM     77  C   UNL A   1      31.463  24.972  23.634  1.00  0.00     0.057 A 
ATOM     78  F   UNL A   1      30.379  28.177  25.047  1.00  0.00    -0.206 F 
ATOM     79  C   UNL A   1      30.333  26.034  25.988  1.00  0.00     0.040 A 
ATOM     80  C   UNL A   1      31.058  24.135  24.680  1.00  0.00     0.027 A 
ATOM     81  C   UNL A   1      30.525  24.663  25.861  1.00  0.00     0.005 A 
BRANCH  77  82
ATOM     82  N   UNL A   1      32.133  24.498  22.485  1.00  0.00    -0.325 N 
ATOM     83  C   UNL A   1      33.308  23.837  22.267  1.00  0.00     0.227 C 
ATOM     84  H   UNL A   1      31.642  24.686  21.653  1.00  0.00     0.169 HD
ATOM     85  O   UNL A   1      33.556  23.527  21.096  1.00  0.00    -0.274 OA
BRANCH  83  86
ATOM     86  C   UNL A   1      34.296  23.487  23.385  1.00  0.00     0.079 C 
ATOM     87  C   UNL A   1      35.643  23.015  22.787  1.00  0.00     0.013 C 
ATOM     88  C   UNL A   1      34.600  24.642  24.350  1.00  0.00     0.013 C 
ATOM     89  C   UNL A   1      36.642  22.594  23.866  1.00  0.00     0.001 C 
ATOM     90  C   UNL A   1      35.490  24.148  25.489  1.00  0.00     0.001 C 
ATOM     91  C   UNL A   1      36.826  23.654  24.949  1.00  0.00     0.000 C 
ENDBRANCH  83  86
ENDBRANCH  77  82
ENDBRANCH  72  75
ENDBRANCH  70  71
ENDBRANCH  69  70
ENDBRANCH   1  69
TORSDOF 16
ENDMDL
MODEL 3
REMARK VINA RESULT:     -11.9      4.429      7.920
REMARK SMILES O=C(NCCCCNC(=O)c1c(F)cccc1NC(=O)C1CCCCC1)c1ccc(-c2c3nc(c(-c4ccc(S(=O)(=O)[O-])cc4)c4ccc([nH]4)c(-c4ccc(S(=O)(=O)[O-])cc4)c4nc(c(-c5ccc(S(=O)(=O)[O-])cc5)c5ccc2[nH]5)C=C4)C=C3)cc1
REMARK SMILES IDX 5 1 4 2 3 3 1 4 2 5 27 7 28 8 86 9 29 10 85 11 30 12 31 13
REMARK SMILES IDX 32 14 79 15 33 16 84 17 78 18 80 19 34 20 83 21 77 22 76 23
REMARK SMILES IDX 35 25 65 26 46 27 64 28 47 29 50 30 63 31 81 32 48 33 49 34
REMARK SMILES IDX 62 36 82 37 51 38 36 39 37 40 45 41 38 42 44 43 39 44 40 45
REMARK SMILES IDX 41 46 42 47 43 48 66 49 67 50 75 51 68 52 74 53 69 54 70 55
REMARK SMILES IDX 71 56 72 57 73 58 52 59 53 60 61 61 54 62 60 63 55 64 56 65
REMARK SMILES IDX 57 66 58 67 59 68 6 69 7 70 8 71 9 72 10 74 11 75 12 76
REMARK SMILES IDX 17 77 13 78 14 79 16 80 15 81 18 82 19 83 20 85 21 86 22 87
REMARK SMILES IDX 26 88 23 89 25 90 24 91
REMARK H PARENT 3 6 80 24 50 35 8 73 18 84
REMARK Flexibility Score: inf
ROOT
ATOM      1  C   UNL A   1      35.752  33.476  29.227  1.00  0.00     0.023 C 
ENDROOT
BRANCH   1   2
ATOM      2  C   UNL A   1      34.788  32.444  29.795  1.00  0.00     0.116 C 
BRANCH   2   3
ATOM      3  N   UNL A   1      34.105  31.673  28.766  1.00  0.00    -0.352 N 
ATOM      4  O   UNL A   1      33.901  30.207  27.063  1.00  0.00    -0.269 OA
ATOM      5  C   UNL A   1      34.582  30.648  27.978  1.00  0.00     0.251 C 
ATOM      6  H   UNL A   1      33.165  31.920  28.609  1.00  0.00     0.163 HD
BRANCH   5   7
ATOM      7  C   UNL A   1      35.940  30.111  28.227  1.00  0.00     0.039 A 
ATOM      8  C   UNL A   1      36.259  29.546  29.463  1.00  0.00     0.014 A 
ATOM      9  C   UNL A   1      36.912  30.209  27.229  1.00  0.00     0.014 A 
ATOM     10  C   UNL A   1      37.583  29.256  29.763  1.00  0.00     0.010 A 
ATOM     11  C   UNL A   1      38.227  29.816  27.501  1.00  0.00     0.010 A 
ATOM     12  C   UNL A   1      38.585  29.381  28.786  1.00  0.00    -0.014 A 
BRANCH  12  13
ATOM     13  C   UNL A   1      39.983  29.008  29.132  1.00  0.00     0.031 A 
ATOM     14  C   UNL A   1      40.864  29.929  29.935  1.00  0.00     0.074 A 
ATOM     15  C   UNL A   1      40.438  27.797  28.756  1.00  0.00     0.049 A 
ATOM     16  N   UNL A   1      42.082  29.726  30.371  1.00  0.00    -0.248 NA
ATOM     17  C   UNL A   1      40.318  31.249  30.288  1.00  0.00     0.031 C 
ATOM     18  C   UNL A   1      39.678  26.816  27.975  1.00  0.00     0.029 A 
ATOM     19  N   UNL A   1      41.630  27.167  29.006  1.00  0.00    -0.354 N 
ATOM     20  C   UNL A   1      42.459  30.896  31.022  1.00  0.00     0.074 A 
ATOM     21  C   UNL A   1      41.346  31.814  30.907  1.00  0.00     0.031 C 
ATOM     22  C   UNL A   1      40.392  25.686  27.874  1.00  0.00     0.029 A 
ATOM     23  C   UNL A   1      41.687  25.885  28.513  1.00  0.00     0.049 A 
ATOM     24  H   UNL A   1      42.374  27.592  29.491  1.00  0.00     0.167 HD
ATOM     25  C   UNL A   1      43.623  31.177  31.659  1.00  0.00     0.031 A 
ATOM     26  C   UNL A   1      42.670  24.968  28.559  1.00  0.00     0.031 A 
ATOM     27  C   UNL A   1      44.725  30.255  31.775  1.00  0.00     0.049 A 
ATOM     28  C   UNL A   1      43.957  25.315  29.248  1.00  0.00     0.074 A 
ATOM     29  C   UNL A   1      45.930  30.433  32.434  1.00  0.00     0.029 A 
ATOM     30  N   UNL A   1      44.762  28.987  31.216  1.00  0.00    -0.354 N 
ATOM     31  N   UNL A   1      44.278  26.416  29.885  1.00  0.00    -0.248 NA
ATOM     32  C   UNL A   1      45.014  24.297  29.223  1.00  0.00     0.031 C 
ATOM     33  C   UNL A   1      46.717  29.296  32.224  1.00  0.00     0.029 A 
ATOM     34  C   UNL A   1      45.979  28.382  31.489  1.00  0.00     0.049 A 
ATOM     35  H   UNL A   1      44.030  28.575  30.701  1.00  0.00     0.167 HD
ATOM     36  C   UNL A   1      45.569  26.215  30.356  1.00  0.00     0.074 A 
ATOM     37  C   UNL A   1      45.960  24.879  29.947  1.00  0.00     0.031 C 
ATOM     38  C   UNL A   1      46.359  27.058  31.066  1.00  0.00     0.031 A 
BRANCH  25  39
ATOM     39  C   UNL A   1      43.784  32.558  32.247  1.00  0.00    -0.014 A 
ATOM     40  C   UNL A   1      43.422  32.840  33.576  1.00  0.00     0.010 A 
ATOM     41  C   UNL A   1      44.347  33.583  31.462  1.00  0.00     0.010 A 
ATOM     42  C   UNL A   1      43.573  34.132  34.093  1.00  0.00     0.020 A 
ATOM     43  C   UNL A   1      44.526  34.868  31.984  1.00  0.00     0.020 A 
ATOM     44  C   UNL A   1      44.119  35.139  33.291  1.00  0.00     0.054 A 
BRANCH  44  45
ATOM     45  S   UNL A   1      44.307  36.805  33.987  1.00  0.00     0.124 S 
ATOM     46  O   UNL A   1      42.948  37.328  33.882  1.00  0.00    -0.237 OA
ATOM     47  O   UNL A   1      44.772  36.534  35.345  1.00  0.00    -0.237 OA
ATOM     48  O   UNL A   1      45.287  37.439  33.110  1.00  0.00    -0.744 OA
ENDBRANCH  44  45
ENDBRANCH  25  39
BRANCH  26  49
ATOM     49  C   UNL A   1      42.466  23.635  27.929  1.00  0.00    -0.014 A 
ATOM     50  C   UNL A   1      42.912  23.390  26.619  1.00  0.00     0.010 A 
ATOM     51  C   UNL A   1      41.851  22.595  28.650  1.00  0.00     0.010 A 
ATOM     52  C   UNL A   1      42.737  22.130  26.039  1.00  0.00     0.020 A 
ATOM     53  C   UNL A   1      41.703  21.327  28.084  1.00  0.00     0.020 A 
ATOM     54  C   UNL A   1      42.138  21.106  26.776  1.00  0.00     0.054 A 
BRANCH  54  55
ATOM     55  S   UNL A   1      41.973  19.464  26.024  1.00  0.00     0.124 S 
ATOM     56  O   UNL A   1      42.434  18.591  27.098  1.00  0.00    -0.237 OA
ATOM     57  O   UNL A   1      40.544  19.398  25.722  1.00  0.00    -0.237 OA
ATOM     58  O   UNL A   1      42.845  19.535  24.854  1.00  0.00    -0.744 OA
ENDBRANCH  54  55
ENDBRANCH  26  49
BRANCH  38  59
ATOM     59  C   UNL A   1      47.714  26.545  31.473  1.00  0.00    -0.014 A 
ATOM     60  C   UNL A   1      47.913  25.907  32.711  1.00  0.00     0.010 A 
ATOM     61  C   UNL A   1      48.800  26.682  30.590  1.00  0.00     0.010 A 
ATOM     62  C   UNL A   1      49.184  25.455  33.076  1.00  0.00     0.020 A 
ATOM     63  C   UNL A   1      50.066  26.205  30.939  1.00  0.00     0.020 A 
ATOM     64  C   UNL A   1      50.253  25.610  32.188  1.00  0.00     0.054 A 
BRANCH  64  65
ATOM     65  S   UNL A   1      51.888  24.994  32.673  1.00  0.00     0.124 S 
ATOM     66  O   UNL A   1      51.912  25.289  34.104  1.00  0.00    -0.237 OA
ATOM     67  O   UNL A   1      51.815  23.577  32.325  1.00  0.00    -0.237 OA
ATOM     68  O   UNL A   1      52.811  25.783  31.859  1.00  0.00    -0.744 OA
ENDBRANCH  64  65
ENDBRANCH  38  59
ENDBRANCH  12  13
ENDBRANCH   5   7
ENDBRANCH   2   3
ENDBRANCH   1   2
BRANCH   1  69
ATOM     69  C   UNL A   1      37.232  33.209  29.502  1.00  0.00     0.023 C 
BRANCH  69  70
ATOM     70  C   UNL A   1      37.899  34.176  30.477  1.00  0.00     0.116 C 
BRANCH  70  71
ATOM     71  N   UNL A   1      37.022  34.548  31.573  1.00  0.00    -0.352 N 
ATOM     72  C   UNL A   1      36.905  33.981  32.813  1.00  0.00     0.256 C 
ATOM     73  H   UNL A   1      36.429  35.315  31.399  1.00  0.00     0.163 HD
ATOM     74  O   UNL A   1      35.995  34.328  33.562  1.00  0.00    -0.269 OA
BRANCH  72  75
ATOM     75  C   UNL A   1      37.807  32.904  33.259  1.00  0.00     0.099 A 
ATOM     76  C   UNL A   1      37.519  31.580  32.924  1.00  0.00     0.138 A 
ATOM     77  C   UNL A   1      38.978  33.212  33.986  1.00  0.00     0.057 A 
ATOM     78  F   UNL A   1      36.411  31.262  32.237  1.00  0.00    -0.206 F 
ATOM     79  C   UNL A   1      38.367  30.546  33.307  1.00  0.00     0.040 A 
ATOM     80  C   UNL A   1      39.870  32.174  34.272  1.00  0.00     0.027 A 
ATOM     81  C   UNL A   1      39.555  30.846  33.963  1.00  0.00     0.005 A 
BRANCH  77  82
ATOM     82  N   UNL A   1      39.188  34.545  34.405  1.00  0.00    -0.325 N 
ATOM     83  C   UNL A   1      39.341  35.154  35.616  1.00  0.00     0.227 C 
ATOM     84  H   UNL A   1      39.235  35.177  33.652  1.00  0.00     0.169 HD
ATOM     85  O   UNL A   1      39.567  36.370  35.597  1.00  0.00    -0.274 OA
BRANCH  83  86
ATOM     86  C   UNL A   1      39.238  34.409  36.952  1.00  0.00     0.079 C 
ATOM     87  C   UNL A   1      39.478  35.380  38.132  1.00  0.00     0.013 C 
ATOM     88  C   UNL A   1      37.888  33.718  37.192  1.00  0.00     0.013 C 
ATOM     89  C   UNL A   1      39.447  34.668  39.486  1.00  0.00     0.001 C 
ATOM     90  C   UNL A   1      37.941  32.905  38.485  1.00  0.00     0.001 C 
ATOM     91  C   UNL A   1      38.195  33.817  39.679  1.00  0.00     0.000 C 
ENDBRANCH  83  86
ENDBRANCH  77  82
ENDBRANCH  72  75
ENDBRANCH  70  71
ENDBRANCH  69  70
ENDBRANCH   1  69
TORSDOF 16
ENDMDL
