MODEL 1
REMARK VINA RESULT:     -11.6      0.000      0.000
REMARK SMILES O=C(NCCCCNC(=O)[C@H]1CCC[N@@H+]1CCn1ccnc1)c1ccc(-c2c3nc(c(-c4ccc(S(=O)(=O)[O-])cc4)c4ccc([nH]4)c(-c4ccc(S(=O)(=O)[O-])cc4)c4nc(c(-c5ccc(S(=O)(=O)[O-])cc5)c5ccc2[nH]5)C=C4)C=C3)cc1
REMARK SMILES IDX 5 1 4 2 3 3 1 4 2 5 23 7 24 8 82 9 25 10 81 11 26 12 27 13
REMARK SMILES IDX 28 14 75 15 29 16 80 17 74 18 76 19 30 20 79 21 73 22 72 23
REMARK SMILES IDX 31 25 61 26 42 27 60 28 43 29 46 30 59 31 77 32 44 33 45 34
REMARK SMILES IDX 58 36 78 37 47 38 32 39 33 40 41 41 34 42 40 43 35 44 36 45
REMARK SMILES IDX 37 46 38 47 39 48 62 49 63 50 71 51 64 52 70 53 65 54 66 55
REMARK SMILES IDX 67 56 68 57 69 58 48 59 49 60 57 61 50 62 56 63 51 64 52 65
REMARK SMILES IDX 53 66 54 67 55 68 6 69 7 70 8 71 9 72 10 74 11 75 12 76
REMARK SMILES IDX 15 77 13 78 14 79 16 81 17 82 18 83 19 84 22 85 20 86 21 87
REMARK H PARENT 3 6 76 24 46 35 8 73 15 80
REMARK Flexibility Score: inf
ROOT
ATOM      1  C   UNL A   1      36.820  21.829  24.354  1.00  0.00     0.023 C 
ENDROOT
BRANCH   1   2
ATOM      2  C   UNL A   1      37.583  22.175  25.640  1.00  0.00     0.116 C 
BRANCH   2   3
ATOM      3  N   UNL A   1      38.992  21.842  25.617  1.00  0.00    -0.352 N 
ATOM      4  O   UNL A   1      41.086  21.592  26.273  1.00  0.00    -0.269 OA
ATOM      5  C   UNL A   1      40.078  22.303  26.314  1.00  0.00     0.251 C 
ATOM      6  H   UNL A   1      39.216  21.139  24.966  1.00  0.00     0.163 HD
BRANCH   5   7
ATOM      7  C   UNL A   1      40.139  23.603  27.040  1.00  0.00     0.039 A 
ATOM      8  C   UNL A   1      39.222  24.645  26.917  1.00  0.00     0.014 A 
ATOM      9  C   UNL A   1      41.271  23.803  27.855  1.00  0.00     0.014 A 
ATOM     10  C   UNL A   1      39.468  25.878  27.514  1.00  0.00     0.010 A 
ATOM     11  C   UNL A   1      41.517  25.029  28.464  1.00  0.00     0.010 A 
ATOM     12  C   UNL A   1      40.631  26.079  28.260  1.00  0.00    -0.014 A 
BRANCH  12  13
ATOM     13  C   UNL A   1      40.788  27.364  28.938  1.00  0.00     0.031 A 
ATOM     14  C   UNL A   1      41.867  28.221  28.365  1.00  0.00     0.074 A 
ATOM     15  C   UNL A   1      39.987  27.817  29.922  1.00  0.00     0.049 A 
ATOM     16  N   UNL A   1      42.979  28.573  28.921  1.00  0.00    -0.248 NA
ATOM     17  C   UNL A   1      41.753  28.619  26.953  1.00  0.00     0.031 C 
ATOM     18  C   UNL A   1      38.733  27.244  30.416  1.00  0.00     0.029 A 
ATOM     19  N   UNL A   1      40.093  28.971  30.639  1.00  0.00    -0.354 N 
ATOM     20  C   UNL A   1      43.627  29.398  28.004  1.00  0.00     0.074 A 
ATOM     21  C   UNL A   1      42.897  29.280  26.767  1.00  0.00     0.031 C 
ATOM     22  C   UNL A   1      38.085  28.166  31.169  1.00  0.00     0.029 A 
ATOM     23  C   UNL A   1      38.944  29.327  31.338  1.00  0.00     0.049 A 
ATOM     24  H   UNL A   1      40.916  29.511  30.660  1.00  0.00     0.167 HD
ATOM     25  C   UNL A   1      44.604  30.270  28.382  1.00  0.00     0.031 A 
ATOM     26  C   UNL A   1      38.704  30.507  31.969  1.00  0.00     0.031 A 
ATOM     27  C   UNL A   1      45.107  29.976  29.696  1.00  0.00     0.049 A 
ATOM     28  C   UNL A   1      40.022  31.135  32.232  1.00  0.00     0.074 A 
ATOM     29  C   UNL A   1      45.765  28.909  30.271  1.00  0.00     0.029 A 
ATOM     30  N   UNL A   1      44.609  30.723  30.736  1.00  0.00    -0.354 N 
ATOM     31  N   UNL A   1      40.905  30.633  33.051  1.00  0.00    -0.248 NA
ATOM     32  C   UNL A   1      40.540  32.069  31.247  1.00  0.00     0.031 C 
ATOM     33  C   UNL A   1      45.210  28.803  31.578  1.00  0.00     0.029 A 
ATOM     34  C   UNL A   1      44.304  29.851  31.747  1.00  0.00     0.049 A 
ATOM     35  H   UNL A   1      44.495  31.701  30.752  1.00  0.00     0.167 HD
ATOM     36  C   UNL A   1      42.125  30.843  32.426  1.00  0.00     0.074 A 
ATOM     37  C   UNL A   1      41.845  31.801  31.358  1.00  0.00     0.031 C 
ATOM     38  C   UNL A   1      43.191  30.023  32.657  1.00  0.00     0.031 A 
BRANCH  25  39
ATOM     39  C   UNL A   1      44.836  31.611  27.731  1.00  0.00    -0.014 A 
ATOM     40  C   UNL A   1      46.140  31.946  27.309  1.00  0.00     0.010 A 
ATOM     41  C   UNL A   1      43.893  32.658  27.787  1.00  0.00     0.010 A 
ATOM     42  C   UNL A   1      46.502  33.271  27.041  1.00  0.00     0.020 A 
ATOM     43  C   UNL A   1      44.233  33.978  27.482  1.00  0.00     0.020 A 
ATOM     44  C   UNL A   1      45.546  34.281  27.146  1.00  0.00     0.054 A 
BRANCH  44  45
ATOM     45  S   UNL A   1      46.047  36.005  26.911  1.00  0.00     0.124 S 
ATOM     46  O   UNL A   1      46.867  36.244  28.101  1.00  0.00    -0.237 OA
ATOM     47  O   UNL A   1      46.778  35.943  25.646  1.00  0.00    -0.237 OA
ATOM     48  O   UNL A   1      44.786  36.728  26.864  1.00  0.00    -0.744 OA
ENDBRANCH  44  45
ENDBRANCH  25  39
BRANCH  26  49
ATOM     49  C   UNL A   1      37.435  31.281  32.024  1.00  0.00    -0.014 A 
ATOM     50  C   UNL A   1      36.927  31.772  33.244  1.00  0.00     0.010 A 
ATOM     51  C   UNL A   1      36.880  31.796  30.835  1.00  0.00     0.010 A 
ATOM     52  C   UNL A   1      35.944  32.782  33.269  1.00  0.00     0.020 A 
ATOM     53  C   UNL A   1      35.900  32.799  30.853  1.00  0.00     0.020 A 
ATOM     54  C   UNL A   1      35.451  33.304  32.071  1.00  0.00     0.054 A 
BRANCH  54  55
ATOM     55  S   UNL A   1      34.317  34.726  32.106  1.00  0.00     0.124 S 
ATOM     56  O   UNL A   1      34.120  35.003  30.686  1.00  0.00    -0.237 OA
ATOM     57  O   UNL A   1      33.156  34.192  32.812  1.00  0.00    -0.237 OA
ATOM     58  O   UNL A   1      35.066  35.747  32.837  1.00  0.00    -0.744 OA
ENDBRANCH  54  55
ENDBRANCH  26  49
BRANCH  38  59
ATOM     59  C   UNL A   1      43.134  29.051  33.811  1.00  0.00    -0.014 A 
ATOM     60  C   UNL A   1      43.482  29.380  35.136  1.00  0.00     0.010 A 
ATOM     61  C   UNL A   1      42.504  27.818  33.567  1.00  0.00     0.010 A 
ATOM     62  C   UNL A   1      43.198  28.493  36.188  1.00  0.00     0.020 A 
ATOM     63  C   UNL A   1      42.205  26.941  34.610  1.00  0.00     0.020 A 
ATOM     64  C   UNL A   1      42.552  27.281  35.916  1.00  0.00     0.054 A 
BRANCH  64  65
ATOM     65  S   UNL A   1      42.095  26.178  37.285  1.00  0.00     0.124 S 
ATOM     66  O   UNL A   1      43.122  26.467  38.283  1.00  0.00    -0.237 OA
ATOM     67  O   UNL A   1      40.745  26.623  37.624  1.00  0.00    -0.237 OA
ATOM     68  O   UNL A   1      42.164  24.842  36.694  1.00  0.00    -0.744 OA
ENDBRANCH  64  65
ENDBRANCH  38  59
ENDBRANCH  12  13
ENDBRANCH   5   7
ENDBRANCH   2   3
ENDBRANCH   1   2
BRANCH   1  69
ATOM     69  C   UNL A   1      36.594  22.990  23.382  1.00  0.00     0.023 C 
BRANCH  69  70
ATOM     70  C   UNL A   1      35.129  23.338  23.149  1.00  0.00     0.116 C 
BRANCH  70  71
ATOM     71  N   UNL A   1      34.544  24.286  24.071  1.00  0.00    -0.351 N 
ATOM     72  C   UNL A   1      34.098  24.157  25.358  1.00  0.00     0.278 C 
ATOM     73  H   UNL A   1      34.449  25.194  23.704  1.00  0.00     0.163 HD
ATOM     74  O   UNL A   1      34.032  25.217  25.999  1.00  0.00    -0.268 OA
BRANCH  72  75
ATOM     75  C   UNL A   1      33.646  22.815  26.037  1.00  0.00     0.274 C 
ATOM     76  C   UNL A   1      32.729  22.897  27.243  1.00  0.00     0.081 C 
ATOM     77  N   UNL A   1      32.893  21.963  25.076  1.00  0.00    -0.323 N 
ATOM     78  C   UNL A   1      31.314  22.751  26.670  1.00  0.00     0.068 C 
ATOM     79  C   UNL A   1      31.500  22.385  25.207  1.00  0.00     0.263 C 
ATOM     80  H   UNL A   1      33.255  22.107  24.133  1.00  0.00     0.348 HD
BRANCH  77  81
ATOM     81  C   UNL A   1      33.086  20.501  25.206  1.00  0.00     0.285 C 
BRANCH  81  82
ATOM     82  C   UNL A   1      32.552  19.434  24.206  1.00  0.00     0.184 C 
BRANCH  82  83
ATOM     83  N   UNL A   1      32.876  18.040  24.428  1.00  0.00    -0.332 N 
ATOM     84  C   UNL A   1      32.728  17.315  25.579  1.00  0.00     0.107 A 
ATOM     85  C   UNL A   1      33.443  17.206  23.497  1.00  0.00     0.199 A 
ATOM     86  C   UNL A   1      33.359  16.115  25.329  1.00  0.00     0.130 A 
ATOM     87  N   UNL A   1      33.772  16.048  24.025  1.00  0.00    -0.245 NA
ENDBRANCH  82  83
ENDBRANCH  81  82
ENDBRANCH  77  81
ENDBRANCH  72  75
ENDBRANCH  70  71
ENDBRANCH  69  70
ENDBRANCH   1  69
TORSDOF 17
ENDMDL
MODEL 2
REMARK VINA RESULT:     -11.5      2.216      3.253
REMARK SMILES O=C(NCCCCNC(=O)[C@H]1CCC[N@@H+]1CCn1ccnc1)c1ccc(-c2c3nc(c(-c4ccc(S(=O)(=O)[O-])cc4)c4ccc([nH]4)c(-c4ccc(S(=O)(=O)[O-])cc4)c4nc(c(-c5ccc(S(=O)(=O)[O-])cc5)c5ccc2[nH]5)C=C4)C=C3)cc1
REMARK SMILES IDX 5 1 4 2 3 3 1 4 2 5 23 7 24 8 82 9 25 10 81 11 26 12 27 13
REMARK SMILES IDX 28 14 75 15 29 16 80 17 74 18 76 19 30 20 79 21 73 22 72 23
REMARK SMILES IDX 31 25 61 26 42 27 60 28 43 29 46 30 59 31 77 32 44 33 45 34
REMARK SMILES IDX 58 36 78 37 47 38 32 39 33 40 41 41 34 42 40 43 35 44 36 45
REMARK SMILES IDX 37 46 38 47 39 48 62 49 63 50 71 51 64 52 70 53 65 54 66 55
REMARK SMILES IDX 67 56 68 57 69 58 48 59 49 60 57 61 50 62 56 63 51 64 52 65
REMARK SMILES IDX 53 66 54 67 55 68 6 69 7 70 8 71 9 72 10 74 11 75 12 76
REMARK SMILES IDX 15 77 13 78 14 79 16 81 17 82 18 83 19 84 22 85 20 86 21 87
REMARK H PARENT 3 6 76 24 46 35 8 73 15 80
REMARK Flexibility Score: inf
ROOT
ATOM      1  C   UNL A   1      40.158  22.828  27.144  1.00  0.00     0.023 C 
ENDROOT
BRANCH   1   2
ATOM      2  C   UNL A   1      41.048  21.730  26.542  1.00  0.00     0.116 C 
BRANCH   2   3
ATOM      3  N   UNL A   1      41.927  22.178  25.481  1.00  0.00    -0.352 N 
ATOM      4  O   UNL A   1      43.575  23.212  24.437  1.00  0.00    -0.269 OA
ATOM      5  C   UNL A   1      42.716  23.286  25.320  1.00  0.00     0.251 C 
ATOM      6  H   UNL A   1      41.965  21.557  24.719  1.00  0.00     0.163 HD
BRANCH   5   7
ATOM      7  C   UNL A   1      42.563  24.562  26.074  1.00  0.00     0.039 A 
ATOM      8  C   UNL A   1      43.083  24.824  27.340  1.00  0.00     0.014 A 
ATOM      9  C   UNL A   1      41.752  25.544  25.469  1.00  0.00     0.014 A 
ATOM     10  C   UNL A   1      42.737  25.987  28.021  1.00  0.00     0.010 A 
ATOM     11  C   UNL A   1      41.412  26.714  26.140  1.00  0.00     0.010 A 
ATOM     12  C   UNL A   1      41.876  26.917  27.434  1.00  0.00    -0.014 A 
BRANCH  12  13
ATOM     13  C   UNL A   1      41.623  28.159  28.158  1.00  0.00     0.031 A 
ATOM     14  C   UNL A   1      42.709  29.172  28.019  1.00  0.00     0.074 A 
ATOM     15  C   UNL A   1      40.482  28.447  28.816  1.00  0.00     0.049 A 
ATOM     16  N   UNL A   1      43.510  29.609  28.935  1.00  0.00    -0.248 NA
ATOM     17  C   UNL A   1      43.031  29.654  26.667  1.00  0.00     0.031 C 
ATOM     18  C   UNL A   1      39.222  27.701  28.829  1.00  0.00     0.029 A 
ATOM     19  N   UNL A   1      40.185  29.552  29.557  1.00  0.00    -0.354 N 
ATOM     20  C   UNL A   1      44.316  30.566  28.323  1.00  0.00     0.074 A 
ATOM     21  C   UNL A   1      44.072  30.453  26.906  1.00  0.00     0.031 C 
ATOM     22  C   UNL A   1      38.242  28.487  29.336  1.00  0.00     0.029 A 
ATOM     23  C   UNL A   1      38.831  29.723  29.824  1.00  0.00     0.049 A 
ATOM     24  H   UNL A   1      40.874  30.179  29.876  1.00  0.00     0.167 HD
ATOM     25  C   UNL A   1      44.982  31.514  29.039  1.00  0.00     0.031 A 
ATOM     26  C   UNL A   1      38.237  30.821  30.364  1.00  0.00     0.031 A 
ATOM     27  C   UNL A   1      45.042  31.186  30.437  1.00  0.00     0.049 A 
ATOM     28  C   UNL A   1      39.292  31.574  31.085  1.00  0.00     0.074 A 
ATOM     29  C   UNL A   1      45.600  30.164  31.175  1.00  0.00     0.029 A 
ATOM     30  N   UNL A   1      44.126  31.796  31.261  1.00  0.00    -0.354 N 
ATOM     31  N   UNL A   1      39.901  31.119  32.145  1.00  0.00    -0.248 NA
ATOM     32  C   UNL A   1      39.987  32.629  30.366  1.00  0.00     0.031 C 
ATOM     33  C   UNL A   1      44.652  29.902  32.206  1.00  0.00     0.029 A 
ATOM     34  C   UNL A   1      43.613  30.826  32.079  1.00  0.00     0.049 A 
ATOM     35  H   UNL A   1      43.886  32.752  31.263  1.00  0.00     0.167 HD
ATOM     36  C   UNL A   1      41.222  31.511  31.987  1.00  0.00     0.074 A 
ATOM     37  C   UNL A   1      41.199  32.505  30.915  1.00  0.00     0.031 C 
ATOM     38  C   UNL A   1      42.245  30.804  32.552  1.00  0.00     0.031 A 
BRANCH  25  39
ATOM     39  C   UNL A   1      45.243  32.916  28.546  1.00  0.00    -0.014 A 
ATOM     40  C   UNL A   1      46.385  33.600  29.013  1.00  0.00     0.010 A 
ATOM     41  C   UNL A   1      44.264  33.684  27.882  1.00  0.00     0.010 A 
ATOM     42  C   UNL A   1      46.501  34.990  28.897  1.00  0.00     0.020 A 
ATOM     43  C   UNL A   1      44.388  35.067  27.725  1.00  0.00     0.020 A 
ATOM     44  C   UNL A   1      45.491  35.716  28.267  1.00  0.00     0.054 A 
BRANCH  44  45
ATOM     45  S   UNL A   1      45.590  37.522  28.223  1.00  0.00     0.124 S 
ATOM     46  O   UNL A   1      47.037  37.744  28.248  1.00  0.00    -0.237 OA
ATOM     47  O   UNL A   1      44.928  37.836  26.957  1.00  0.00    -0.237 OA
ATOM     48  O   UNL A   1      44.872  37.938  29.418  1.00  0.00    -0.744 OA
ENDBRANCH  44  45
ENDBRANCH  25  39
BRANCH  26  49
ATOM     49  C   UNL A   1      36.934  31.438  29.998  1.00  0.00    -0.014 A 
ATOM     50  C   UNL A   1      36.032  31.889  30.983  1.00  0.00     0.010 A 
ATOM     51  C   UNL A   1      36.713  31.862  28.671  1.00  0.00     0.010 A 
ATOM     52  C   UNL A   1      34.984  32.774  30.660  1.00  0.00     0.020 A 
ATOM     53  C   UNL A   1      35.671  32.740  28.343  1.00  0.00     0.020 A 
ATOM     54  C   UNL A   1      34.823  33.211  29.343  1.00  0.00     0.054 A 
BRANCH  54  55
ATOM     55  S   UNL A   1      33.585  34.488  28.962  1.00  0.00     0.124 S 
ATOM     56  O   UNL A   1      32.993  34.749  30.272  1.00  0.00    -0.237 OA
ATOM     57  O   UNL A   1      34.398  35.568  28.410  1.00  0.00    -0.237 OA
ATOM     58  O   UNL A   1      32.697  33.834  28.003  1.00  0.00    -0.744 OA
ENDBRANCH  54  55
ENDBRANCH  26  49
BRANCH  38  59
ATOM     59  C   UNL A   1      41.926  29.753  33.587  1.00  0.00    -0.014 A 
ATOM     60  C   UNL A   1      41.612  28.414  33.279  1.00  0.00     0.010 A 
ATOM     61  C   UNL A   1      42.160  30.097  34.930  1.00  0.00     0.010 A 
ATOM     62  C   UNL A   1      41.540  27.448  34.296  1.00  0.00     0.020 A 
ATOM     63  C   UNL A   1      42.108  29.138  35.941  1.00  0.00     0.020 A 
ATOM     64  C   UNL A   1      41.798  27.816  35.621  1.00  0.00     0.054 A 
BRANCH  64  65
ATOM     65  S   UNL A   1      41.805  26.550  36.923  1.00  0.00     0.124 S 
ATOM     66  O   UNL A   1      42.976  26.916  37.716  1.00  0.00    -0.237 OA
ATOM     67  O   UNL A   1      40.514  26.751  37.578  1.00  0.00    -0.237 OA
ATOM     68  O   UNL A   1      41.924  25.293  36.187  1.00  0.00    -0.744 OA
ENDBRANCH  64  65
ENDBRANCH  38  59
ENDBRANCH  12  13
ENDBRANCH   5   7
ENDBRANCH   2   3
ENDBRANCH   1   2
BRANCH   1  69
ATOM     69  C   UNL A   1      38.935  23.222  26.313  1.00  0.00     0.023 C 
BRANCH  69  70
ATOM     70  C   UNL A   1      38.147  22.042  25.757  1.00  0.00     0.116 C 
BRANCH  70  71
ATOM     71  N   UNL A   1      37.710  22.157  24.384  1.00  0.00    -0.351 N 
ATOM     72  C   UNL A   1      36.562  22.647  23.824  1.00  0.00     0.278 C 
ATOM     73  H   UNL A   1      38.362  21.819  23.727  1.00  0.00     0.163 HD
ATOM     74  O   UNL A   1      36.658  22.975  22.631  1.00  0.00    -0.268 OA
BRANCH  72  75
ATOM     75  C   UNL A   1      35.177  22.781  24.552  1.00  0.00     0.274 C 
ATOM     76  C   UNL A   1      35.032  23.846  25.623  1.00  0.00     0.081 C 
ATOM     77  N   UNL A   1      34.097  23.107  23.580  1.00  0.00    -0.323 N 
ATOM     78  C   UNL A   1      34.444  25.060  24.892  1.00  0.00     0.068 C 
ATOM     79  C   UNL A   1      34.088  24.566  23.500  1.00  0.00     0.263 C 
ATOM     80  H   UNL A   1      34.303  22.671  22.681  1.00  0.00     0.348 HD
BRANCH  77  81
ATOM     81  C   UNL A   1      32.767  22.518  23.856  1.00  0.00     0.285 C 
BRANCH  81  82
ATOM     82  C   UNL A   1      31.405  23.236  23.632  1.00  0.00     0.184 C 
BRANCH  82  83
ATOM     83  N   UNL A   1      30.885  24.095  24.676  1.00  0.00    -0.332 N 
ATOM     84  C   UNL A   1      30.434  25.382  24.558  1.00  0.00     0.107 A 
ATOM     85  C   UNL A   1      30.797  23.757  26.003  1.00  0.00     0.199 A 
ATOM     86  C   UNL A   1      30.238  25.811  25.853  1.00  0.00     0.130 A 
ATOM     87  N   UNL A   1      30.439  24.786  26.738  1.00  0.00    -0.245 NA
ENDBRANCH  82  83
ENDBRANCH  81  82
ENDBRANCH  77  81
ENDBRANCH  72  75
ENDBRANCH  70  71
ENDBRANCH  69  70
ENDBRANCH   1  69
TORSDOF 17
ENDMDL
MODEL 3
REMARK VINA RESULT:     -11.5      1.725      2.454
REMARK SMILES O=C(NCCCCNC(=O)[C@H]1CCC[N@@H+]1CCn1ccnc1)c1ccc(-c2c3nc(c(-c4ccc(S(=O)(=O)[O-])cc4)c4ccc([nH]4)c(-c4ccc(S(=O)(=O)[O-])cc4)c4nc(c(-c5ccc(S(=O)(=O)[O-])cc5)c5ccc2[nH]5)C=C4)C=C3)cc1
REMARK SMILES IDX 5 1 4 2 3 3 1 4 2 5 23 7 24 8 82 9 25 10 81 11 26 12 27 13
REMARK SMILES IDX 28 14 75 15 29 16 80 17 74 18 76 19 30 20 79 21 73 22 72 23
REMARK SMILES IDX 31 25 61 26 42 27 60 28 43 29 46 30 59 31 77 32 44 33 45 34
REMARK SMILES IDX 58 36 78 37 47 38 32 39 33 40 41 41 34 42 40 43 35 44 36 45
REMARK SMILES IDX 37 46 38 47 39 48 62 49 63 50 71 51 64 52 70 53 65 54 66 55
REMARK SMILES IDX 67 56 68 57 69 58 48 59 49 60 57 61 50 62 56 63 51 64 52 65
REMARK SMILES IDX 53 66 54 67 55 68 6 69 7 70 8 71 9 72 10 74 11 75 12 76
REMARK SMILES IDX 15 77 13 78 14 79 16 81 17 82 18 83 19 84 22 85 20 86 21 87
REMARK H PARENT 3 6 76 24 46 35 8 73 15 80
REMARK Flexibility Score: inf
ROOT
ATOM      1  C   UNL A   1      40.032  22.119  27.011  1.00  0.00     0.023 C 
ENDROOT
BRANCH   1   2
ATOM      2  C   UNL A   1      41.410  21.491  26.754  1.00  0.00     0.116 C 
BRANCH   2   3
ATOM      3  N   UNL A   1      42.087  21.979  25.571  1.00  0.00    -0.352 N 
ATOM      4  O   UNL A   1      43.472  23.121  24.284  1.00  0.00    -0.269 OA
ATOM      5  C   UNL A   1      42.740  23.147  25.278  1.00  0.00     0.251 C 
ATOM      6  H   UNL A   1      42.077  21.340  24.823  1.00  0.00     0.163 HD
BRANCH   5   7
ATOM      7  C   UNL A   1      42.576  24.429  26.021  1.00  0.00     0.039 A 
ATOM      8  C   UNL A   1      43.184  24.747  27.234  1.00  0.00     0.014 A 
ATOM      9  C   UNL A   1      41.662  25.349  25.470  1.00  0.00     0.014 A 
ATOM     10  C   UNL A   1      42.828  25.903  27.921  1.00  0.00     0.010 A 
ATOM     11  C   UNL A   1      41.311  26.512  26.147  1.00  0.00     0.010 A 
ATOM     12  C   UNL A   1      41.868  26.769  27.393  1.00  0.00    -0.014 A 
BRANCH  12  13
ATOM     13  C   UNL A   1      41.604  28.011  28.116  1.00  0.00     0.031 A 
ATOM     14  C   UNL A   1      42.685  29.030  27.982  1.00  0.00     0.074 A 
ATOM     15  C   UNL A   1      40.457  28.293  28.767  1.00  0.00     0.049 A 
ATOM     16  N   UNL A   1      43.478  29.472  28.902  1.00  0.00    -0.248 NA
ATOM     17  C   UNL A   1      43.012  29.513  26.631  1.00  0.00     0.031 C 
ATOM     18  C   UNL A   1      39.202  27.539  28.773  1.00  0.00     0.029 A 
ATOM     19  N   UNL A   1      40.150  29.396  29.505  1.00  0.00    -0.354 N 
ATOM     20  C   UNL A   1      44.282  30.433  28.294  1.00  0.00     0.074 A 
ATOM     21  C   UNL A   1      44.047  30.318  26.876  1.00  0.00     0.031 C 
ATOM     22  C   UNL A   1      38.214  28.320  29.273  1.00  0.00     0.029 A 
ATOM     23  C   UNL A   1      38.793  29.560  29.764  1.00  0.00     0.049 A 
ATOM     24  H   UNL A   1      40.833  30.028  29.828  1.00  0.00     0.167 HD
ATOM     25  C   UNL A   1      44.939  31.385  29.013  1.00  0.00     0.031 A 
ATOM     26  C   UNL A   1      38.191  30.655  30.300  1.00  0.00     0.031 A 
ATOM     27  C   UNL A   1      44.992  31.059  30.412  1.00  0.00     0.049 A 
ATOM     28  C   UNL A   1      39.237  31.415  31.027  1.00  0.00     0.074 A 
ATOM     29  C   UNL A   1      45.552  30.040  31.154  1.00  0.00     0.029 A 
ATOM     30  N   UNL A   1      44.069  31.664  31.230  1.00  0.00    -0.354 N 
ATOM     31  N   UNL A   1      39.842  30.964  32.090  1.00  0.00    -0.248 NA
ATOM     32  C   UNL A   1      39.930  32.473  30.311  1.00  0.00     0.031 C 
ATOM     33  C   UNL A   1      44.600  29.774  32.179  1.00  0.00     0.029 A 
ATOM     34  C   UNL A   1      43.556  30.692  32.046  1.00  0.00     0.049 A 
ATOM     35  H   UNL A   1      43.823  32.618  31.230  1.00  0.00     0.167 HD
ATOM     36  C   UNL A   1      41.162  31.363  31.940  1.00  0.00     0.074 A 
ATOM     37  C   UNL A   1      41.139  32.356  30.867  1.00  0.00     0.031 C 
ATOM     38  C   UNL A   1      42.185  30.662  32.511  1.00  0.00     0.031 A 
BRANCH  25  39
ATOM     39  C   UNL A   1      45.194  32.788  28.520  1.00  0.00    -0.014 A 
ATOM     40  C   UNL A   1      46.367  33.453  28.939  1.00  0.00     0.010 A 
ATOM     41  C   UNL A   1      44.196  33.575  27.911  1.00  0.00     0.010 A 
ATOM     42  C   UNL A   1      46.495  34.843  28.830  1.00  0.00     0.020 A 
ATOM     43  C   UNL A   1      44.331  34.957  27.760  1.00  0.00     0.020 A 
ATOM     44  C   UNL A   1      45.466  35.587  28.254  1.00  0.00     0.054 A 
BRANCH  44  45
ATOM     45  S   UNL A   1      45.587  37.393  28.222  1.00  0.00     0.124 S 
ATOM     46  O   UNL A   1      44.701  37.732  27.106  1.00  0.00    -0.237 OA
ATOM     47  O   UNL A   1      45.095  37.758  29.549  1.00  0.00    -0.237 OA
ATOM     48  O   UNL A   1      47.003  37.640  27.995  1.00  0.00    -0.744 OA
ENDBRANCH  44  45
ENDBRANCH  25  39
BRANCH  26  49
ATOM     49  C   UNL A   1      36.886  31.265  29.925  1.00  0.00    -0.014 A 
ATOM     50  C   UNL A   1      36.026  31.815  30.897  1.00  0.00     0.010 A 
ATOM     51  C   UNL A   1      36.626  31.578  28.575  1.00  0.00     0.010 A 
ATOM     52  C   UNL A   1      34.983  32.690  30.535  1.00  0.00     0.020 A 
ATOM     53  C   UNL A   1      35.588  32.446  28.208  1.00  0.00     0.020 A 
ATOM     54  C   UNL A   1      34.784  33.017  29.192  1.00  0.00     0.054 A 
BRANCH  54  55
ATOM     55  S   UNL A   1      33.555  34.282  28.745  1.00  0.00     0.124 S 
ATOM     56  O   UNL A   1      32.720  33.576  27.776  1.00  0.00    -0.237 OA
ATOM     57  O   UNL A   1      32.921  34.579  30.026  1.00  0.00    -0.237 OA
ATOM     58  O   UNL A   1      34.362  35.367  28.191  1.00  0.00    -0.744 OA
ENDBRANCH  54  55
ENDBRANCH  26  49
BRANCH  38  59
ATOM     59  C   UNL A   1      41.867  29.610  33.545  1.00  0.00    -0.014 A 
ATOM     60  C   UNL A   1      41.434  28.306  33.233  1.00  0.00     0.010 A 
ATOM     61  C   UNL A   1      42.222  29.901  34.873  1.00  0.00     0.010 A 
ATOM     62  C   UNL A   1      41.365  27.321  34.233  1.00  0.00     0.020 A 
ATOM     63  C   UNL A   1      42.173  28.923  35.866  1.00  0.00     0.020 A 
ATOM     64  C   UNL A   1      41.745  27.636  35.542  1.00  0.00     0.054 A 
BRANCH  64  65
ATOM     65  S   UNL A   1      41.754  26.339  36.814  1.00  0.00     0.124 S 
ATOM     66  O   UNL A   1      42.041  25.135  36.038  1.00  0.00    -0.237 OA
ATOM     67  O   UNL A   1      42.818  26.775  37.716  1.00  0.00    -0.237 OA
ATOM     68  O   UNL A   1      40.409  26.401  37.385  1.00  0.00    -0.744 OA
ENDBRANCH  64  65
ENDBRANCH  38  59
ENDBRANCH  12  13
ENDBRANCH   5   7
ENDBRANCH   2   3
ENDBRANCH   1   2
BRANCH   1  69
ATOM     69  C   UNL A   1      38.898  21.623  26.112  1.00  0.00     0.023 C 
BRANCH  69  70
ATOM     70  C   UNL A   1      37.939  22.714  25.650  1.00  0.00     0.116 C 
BRANCH  70  71
ATOM     71  N   UNL A   1      37.407  22.571  24.313  1.00  0.00    -0.351 N 
ATOM     72  C   UNL A   1      36.155  22.768  23.799  1.00  0.00     0.278 C 
ATOM     73  H   UNL A   1      38.070  22.277  23.648  1.00  0.00     0.163 HD
ATOM     74  O   UNL A   1      36.114  22.953  22.573  1.00  0.00    -0.268 OA
BRANCH  72  75
ATOM     75  C   UNL A   1      34.817  22.739  24.620  1.00  0.00     0.274 C 
ATOM     76  C   UNL A   1      33.968  23.996  24.649  1.00  0.00     0.081 C 
ATOM     77  N   UNL A   1      33.892  21.700  24.088  1.00  0.00    -0.323 N 
ATOM     78  C   UNL A   1      32.947  23.807  23.520  1.00  0.00     0.068 C 
ATOM     79  C   UNL A   1      33.124  22.375  23.044  1.00  0.00     0.263 C 
ATOM     80  H   UNL A   1      34.431  20.914  23.726  1.00  0.00     0.348 HD
BRANCH  77  81
ATOM     81  C   UNL A   1      33.051  20.998  25.085  1.00  0.00     0.285 C 
BRANCH  81  82
ATOM     82  C   UNL A   1      33.206  19.506  25.496  1.00  0.00     0.184 C 
BRANCH  82  83
ATOM     83  N   UNL A   1      33.315  18.499  24.460  1.00  0.00    -0.332 N 
ATOM     84  C   UNL A   1      34.223  17.479  24.372  1.00  0.00     0.107 A 
ATOM     85  C   UNL A   1      32.523  18.432  23.342  1.00  0.00     0.199 A 
ATOM     86  C   UNL A   1      34.029  16.937  23.119  1.00  0.00     0.130 A 
ATOM     87  N   UNL A   1      32.953  17.517  22.502  1.00  0.00    -0.245 NA
ENDBRANCH  82  83
ENDBRANCH  81  82
ENDBRANCH  77  81
ENDBRANCH  72  75
ENDBRANCH  70  71
ENDBRANCH  69  70
ENDBRANCH   1  69
TORSDOF 17
ENDMDL
