MODEL 1
REMARK VINA RESULT:     -10.2      0.000      0.000
REMARK SMILES COC(OC)[C@@](C)(Nc1ccc(Cl)c(Br)c1)C(=O)NCCCCNC(=O)c1ccc(-c2c3nc(c(-c4ccc(S(=O)(=O)[O-])cc4)c4ccc([nH]4)c(-c4ccc(S(=O)(=O)[O-])cc4)c4nc(c(-c5ccc(S(=O)(=O)[O-])cc5)c5ccc2[nH]5)C=C4)C=C3)cc1
REMARK SMILES IDX 22 1 21 2 20 3 19 4 17 5 18 6 6 8 7 9 3 10 2 11 1 12 4 13
REMARK SMILES IDX 5 14 8 15 9 17 10 18 16 19 11 20 14 21 12 22 15 23 13 24
REMARK SMILES IDX 23 25 24 26 25 27 26 29 27 30 28 31 86 32 29 33 85 34 30 35
REMARK SMILES IDX 31 36 32 37 79 38 33 39 84 40 78 41 80 42 34 43 83 44 77 45
REMARK SMILES IDX 76 46 35 48 65 49 46 50 64 51 47 52 50 53 63 54 81 55 48 56
REMARK SMILES IDX 49 57 62 59 82 60 51 61 36 62 37 63 45 64 38 65 44 66 39 67
REMARK SMILES IDX 40 68 41 69 42 70 43 71 66 72 67 73 75 74 68 75 74 76 69 77
REMARK SMILES IDX 70 78 71 79 72 80 73 81 52 82 53 83 61 84 54 85 60 86 55 87
REMARK SMILES IDX 56 88 57 89 58 90 59 91
REMARK H PARENT 19 7 8 16 24 28 80 47 50 58
REMARK Flexibility Score: inf
ROOT
ATOM      1  C   UNL A   1      34.170  29.291  26.918  1.00  0.00     0.023 C 
ENDROOT
BRANCH   1   2
ATOM      2  C   UNL A   1      33.566  27.897  26.894  1.00  0.00     0.023 C 
BRANCH   2   3
ATOM      3  C   UNL A   1      32.062  27.836  26.640  1.00  0.00     0.116 C 
BRANCH   3   4
ATOM      4  N   UNL A   1      31.444  26.540  26.882  1.00  0.00    -0.354 N 
ATOM      5  C   UNL A   1      31.109  25.499  26.050  1.00  0.00     0.250 C 
ATOM      6  O   UNL A   1      30.444  24.607  26.584  1.00  0.00    -0.272 OA
ATOM      7  H   UNL A   1      31.222  26.378  27.826  1.00  0.00     0.163 HD
BRANCH   5   8
ATOM      8  C   UNL A   1      31.483  25.491  24.546  1.00  0.00     0.165 C 
ATOM      9  C   UNL A   1      30.705  24.322  23.870  1.00  0.00     0.051 C 
BRANCH   8  10
ATOM     10  C   UNL A   1      31.000  26.760  23.708  1.00  0.00     0.284 C 
BRANCH  10  11
ATOM     11  O   UNL A   1      29.824  27.441  24.177  1.00  0.00    -0.353 OA
ATOM     12  C   UNL A   1      28.597  26.942  23.668  1.00  0.00     0.198 C 
ENDBRANCH  10  11
BRANCH  10  13
ATOM     13  O   UNL A   1      32.026  27.646  23.253  1.00  0.00    -0.353 OA
ATOM     14  C   UNL A   1      31.465  28.775  22.581  1.00  0.00     0.198 C 
ENDBRANCH  10  13
ENDBRANCH   8  10
BRANCH   8  15
ATOM     15  N   UNL A   1      32.963  25.291  24.324  1.00  0.00    -0.367 N 
ATOM     16  H   UNL A   1      33.426  26.032  23.870  1.00  0.00     0.161 HD
BRANCH  15  17
ATOM     17  C   UNL A   1      33.764  24.207  24.671  1.00  0.00     0.036 A 
ATOM     18  C   UNL A   1      33.446  22.858  24.479  1.00  0.00     0.027 A 
ATOM     19  C   UNL A   1      35.061  24.463  25.151  1.00  0.00     0.043 A 
ATOM     20  C   UNL A   1      34.396  21.832  24.619  1.00  0.00     0.024 A 
ATOM     21  C   UNL A   1      36.004  23.439  25.361  1.00  0.00     0.038 A 
ATOM     22  C   UNL A   1      35.682  22.119  25.049  1.00  0.00     0.055 A 
ATOM     23  Br  UNL A   1      37.699  23.932  26.064  1.00  0.00    -0.049 Br
ATOM     24  Cl  UNL A   1      36.811  20.819  25.150  1.00  0.00    -0.083 Cl
ENDBRANCH  15  17
ENDBRANCH   8  15
ENDBRANCH   5   8
ENDBRANCH   3   4
ENDBRANCH   2   3
ENDBRANCH   1   2
BRANCH   1  25
ATOM     25  C   UNL A   1      35.468  29.386  27.698  1.00  0.00     0.116 C 
BRANCH  25  26
ATOM     26  N   UNL A   1      35.315  30.132  28.941  1.00  0.00    -0.352 N 
ATOM     27  C   UNL A   1      36.245  30.413  29.916  1.00  0.00     0.251 C 
ATOM     28  H   UNL A   1      34.413  30.489  29.106  1.00  0.00     0.163 HD
ATOM     29  O   UNL A   1      35.883  30.875  30.989  1.00  0.00    -0.269 OA
BRANCH  27  30
ATOM     30  C   UNL A   1      37.674  30.131  29.661  1.00  0.00     0.039 A 
ATOM     31  C   UNL A   1      38.187  30.230  28.369  1.00  0.00     0.014 A 
ATOM     32  C   UNL A   1      38.503  29.744  30.716  1.00  0.00     0.014 A 
ATOM     33  C   UNL A   1      39.455  29.743  28.096  1.00  0.00     0.010 A 
ATOM     34  C   UNL A   1      39.832  29.390  30.457  1.00  0.00     0.010 A 
ATOM     35  C   UNL A   1      40.306  29.343  29.138  1.00  0.00    -0.014 A 
BRANCH  35  36
ATOM     36  C   UNL A   1      41.694  28.928  28.802  1.00  0.00     0.031 A 
ATOM     37  C   UNL A   1      42.006  27.523  28.365  1.00  0.00     0.074 A 
ATOM     38  C   UNL A   1      42.665  29.865  28.824  1.00  0.00     0.049 A 
ATOM     39  N   UNL A   1      43.153  27.025  27.979  1.00  0.00    -0.248 NA
ATOM     40  C   UNL A   1      40.901  26.551  28.363  1.00  0.00     0.031 C 
ATOM     41  C   UNL A   1      42.471  31.261  29.228  1.00  0.00     0.029 A 
ATOM     42  N   UNL A   1      43.986  29.809  28.458  1.00  0.00    -0.354 N 
ATOM     43  C   UNL A   1      42.911  25.685  27.697  1.00  0.00     0.074 A 
ATOM     44  C   UNL A   1      41.522  25.434  28.005  1.00  0.00     0.031 C 
ATOM     45  C   UNL A   1      43.599  31.945  29.003  1.00  0.00     0.029 A 
ATOM     46  C   UNL A   1      44.627  31.023  28.533  1.00  0.00     0.049 A 
ATOM     47  H   UNL A   1      44.431  28.980  28.170  1.00  0.00     0.167 HD
ATOM     48  C   UNL A   1      43.768  24.758  27.205  1.00  0.00     0.031 A 
ATOM     49  C   UNL A   1      45.901  31.369  28.267  1.00  0.00     0.031 A 
ATOM     50  C   UNL A   1      45.152  25.026  26.900  1.00  0.00     0.049 A 
ATOM     51  C   UNL A   1      46.841  30.315  27.764  1.00  0.00     0.074 A 
ATOM     52  C   UNL A   1      46.103  24.155  26.399  1.00  0.00     0.029 A 
ATOM     53  N   UNL A   1      45.781  26.255  27.055  1.00  0.00    -0.354 N 
ATOM     54  N   UNL A   1      46.592  29.054  27.501  1.00  0.00    -0.248 NA
ATOM     55  C   UNL A   1      48.229  30.723  27.517  1.00  0.00     0.031 C 
ATOM     56  C   UNL A   1      47.321  24.834  26.320  1.00  0.00     0.029 A 
ATOM     57  C   UNL A   1      47.114  26.155  26.686  1.00  0.00     0.049 A 
ATOM     58  H   UNL A   1      45.346  27.076  27.379  1.00  0.00     0.167 HD
ATOM     59  C   UNL A   1      47.792  28.515  27.055  1.00  0.00     0.074 A 
ATOM     60  C   UNL A   1      48.755  29.600  27.047  1.00  0.00     0.031 C 
ATOM     61  C   UNL A   1      48.070  27.237  26.699  1.00  0.00     0.031 A 
BRANCH  48  62
ATOM     62  C   UNL A   1      43.246  23.363  26.954  1.00  0.00    -0.014 A 
ATOM     63  C   UNL A   1      42.985  22.502  28.036  1.00  0.00     0.010 A 
ATOM     64  C   UNL A   1      43.114  22.864  25.645  1.00  0.00     0.010 A 
ATOM     65  C   UNL A   1      42.641  21.165  27.818  1.00  0.00     0.020 A 
ATOM     66  C   UNL A   1      42.735  21.537  25.420  1.00  0.00     0.020 A 
ATOM     67  C   UNL A   1      42.526  20.688  26.510  1.00  0.00     0.054 A 
BRANCH  67  68
ATOM     68  S   UNL A   1      42.112  18.941  26.247  1.00  0.00     0.124 S 
ATOM     69  O   UNL A   1      42.298  18.376  27.580  1.00  0.00    -0.237 OA
ATOM     70  O   UNL A   1      40.730  19.010  25.777  1.00  0.00    -0.237 OA
ATOM     71  O   UNL A   1      43.081  18.506  25.243  1.00  0.00    -0.744 OA
ENDBRANCH  67  68
ENDBRANCH  48  62
BRANCH  49  72
ATOM     72  C   UNL A   1      46.318  32.787  28.464  1.00  0.00    -0.014 A 
ATOM     73  C   UNL A   1      46.736  33.231  29.735  1.00  0.00     0.010 A 
ATOM     74  C   UNL A   1      46.178  33.726  27.428  1.00  0.00     0.010 A 
ATOM     75  C   UNL A   1      46.917  34.591  29.990  1.00  0.00     0.020 A 
ATOM     76  C   UNL A   1      46.400  35.086  27.669  1.00  0.00     0.020 A 
ATOM     77  C   UNL A   1      46.730  35.513  28.958  1.00  0.00     0.054 A 
BRANCH  77  78
ATOM     78  S   UNL A   1      46.879  37.281  29.338  1.00  0.00     0.124 S 
ATOM     79  O   UNL A   1      45.613  37.548  30.016  1.00  0.00    -0.237 OA
ATOM     80  O   UNL A   1      48.068  37.325  30.185  1.00  0.00    -0.237 OA
ATOM     81  O   UNL A   1      47.027  37.902  28.025  1.00  0.00    -0.744 OA
ENDBRANCH  77  78
ENDBRANCH  49  72
BRANCH  61  82
ATOM     82  C   UNL A   1      49.485  26.918  26.283  1.00  0.00    -0.014 A 
ATOM     83  C   UNL A   1      49.894  27.138  24.955  1.00  0.00     0.010 A 
ATOM     84  C   UNL A   1      50.379  26.304  27.180  1.00  0.00     0.010 A 
ATOM     85  C   UNL A   1      51.155  26.725  24.522  1.00  0.00     0.020 A 
ATOM     86  C   UNL A   1      51.657  25.924  26.760  1.00  0.00     0.020 A 
ATOM     87  C   UNL A   1      52.027  26.114  25.426  1.00  0.00     0.054 A 
BRANCH  87  88
ATOM     88  S   UNL A   1      53.656  25.572  24.842  1.00  0.00     0.124 S 
ATOM     89  O   UNL A   1      54.553  26.491  25.537  1.00  0.00    -0.237 OA
ATOM     90  O   UNL A   1      53.710  24.182  25.287  1.00  0.00    -0.237 OA
ATOM     91  O   UNL A   1      53.579  25.752  23.393  1.00  0.00    -0.744 OA
ENDBRANCH  87  88
ENDBRANCH  61  82
ENDBRANCH  35  36
ENDBRANCH  27  30
ENDBRANCH  25  26
ENDBRANCH   1  25
TORSDOF 19
ENDMDL
MODEL 2
REMARK VINA RESULT:     -10.1      3.866      9.111
REMARK SMILES COC(OC)[C@@](C)(Nc1ccc(Cl)c(Br)c1)C(=O)NCCCCNC(=O)c1ccc(-c2c3nc(c(-c4ccc(S(=O)(=O)[O-])cc4)c4ccc([nH]4)c(-c4ccc(S(=O)(=O)[O-])cc4)c4nc(c(-c5ccc(S(=O)(=O)[O-])cc5)c5ccc2[nH]5)C=C4)C=C3)cc1
REMARK SMILES IDX 22 1 21 2 20 3 19 4 17 5 18 6 6 8 7 9 3 10 2 11 1 12 4 13
REMARK SMILES IDX 5 14 8 15 9 17 10 18 16 19 11 20 14 21 12 22 15 23 13 24
REMARK SMILES IDX 23 25 24 26 25 27 26 29 27 30 28 31 86 32 29 33 85 34 30 35
REMARK SMILES IDX 31 36 32 37 79 38 33 39 84 40 78 41 80 42 34 43 83 44 77 45
REMARK SMILES IDX 76 46 35 48 65 49 46 50 64 51 47 52 50 53 63 54 81 55 48 56
REMARK SMILES IDX 49 57 62 59 82 60 51 61 36 62 37 63 45 64 38 65 44 66 39 67
REMARK SMILES IDX 40 68 41 69 42 70 43 71 66 72 67 73 75 74 68 75 74 76 69 77
REMARK SMILES IDX 70 78 71 79 72 80 73 81 52 82 53 83 61 84 54 85 60 86 55 87
REMARK SMILES IDX 56 88 57 89 58 90 59 91
REMARK H PARENT 19 7 8 16 24 28 80 47 50 58
REMARK Flexibility Score: inf
ROOT
ATOM      1  C   UNL A   1      32.711  28.393  25.594  1.00  0.00     0.023 C 
ENDROOT
BRANCH   1   2
ATOM      2  C   UNL A   1      31.434  28.036  26.338  1.00  0.00     0.023 C 
BRANCH   2   3
ATOM      3  C   UNL A   1      30.746  26.751  25.884  1.00  0.00     0.116 C 
BRANCH   3   4
ATOM      4  N   UNL A   1      30.907  25.612  26.776  1.00  0.00    -0.354 N 
ATOM      5  C   UNL A   1      31.329  24.321  26.570  1.00  0.00     0.250 C 
ATOM      6  O   UNL A   1      31.186  23.572  27.541  1.00  0.00    -0.272 OA
ATOM      7  H   UNL A   1      30.667  25.805  27.710  1.00  0.00     0.163 HD
BRANCH   5   8
ATOM      8  C   UNL A   1      31.874  23.839  25.202  1.00  0.00     0.165 C 
ATOM      9  C   UNL A   1      30.660  23.679  24.237  1.00  0.00     0.051 C 
BRANCH   8  10
ATOM     10  C   UNL A   1      32.802  24.877  24.423  1.00  0.00     0.284 C 
BRANCH  10  11
ATOM     11  O   UNL A   1      34.215  24.609  24.416  1.00  0.00    -0.353 OA
ATOM     12  C   UNL A   1      34.935  25.149  25.514  1.00  0.00     0.198 C 
ENDBRANCH  10  11
BRANCH  10  13
ATOM     13  O   UNL A   1      32.308  25.352  23.168  1.00  0.00    -0.353 OA
ATOM     14  C   UNL A   1      33.127  24.895  22.091  1.00  0.00     0.198 C 
ENDBRANCH  10  13
ENDBRANCH   8  10
BRANCH   8  15
ATOM     15  N   UNL A   1      32.597  22.518  25.306  1.00  0.00    -0.367 N 
ATOM     16  H   UNL A   1      33.296  22.472  25.999  1.00  0.00     0.161 HD
BRANCH  15  17
ATOM     17  C   UNL A   1      32.416  21.356  24.560  1.00  0.00     0.036 A 
ATOM     18  C   UNL A   1      32.228  21.293  23.176  1.00  0.00     0.027 A 
ATOM     19  C   UNL A   1      32.546  20.117  25.214  1.00  0.00     0.043 A 
ATOM     20  C   UNL A   1      32.301  20.086  22.459  1.00  0.00     0.024 A 
ATOM     21  C   UNL A   1      32.555  18.894  24.517  1.00  0.00     0.038 A 
ATOM     22  C   UNL A   1      32.478  18.883  23.126  1.00  0.00     0.055 A 
ATOM     23  Br  UNL A   1      32.685  17.298  25.540  1.00  0.00    -0.049 Br
ATOM     24  Cl  UNL A   1      32.611  17.446  22.180  1.00  0.00    -0.083 Cl
ENDBRANCH  15  17
ENDBRANCH   8  15
ENDBRANCH   5   8
ENDBRANCH   3   4
ENDBRANCH   2   3
ENDBRANCH   1   2
BRANCH   1  25
ATOM     25  C   UNL A   1      33.876  28.739  26.503  1.00  0.00     0.116 C 
BRANCH  25  26
ATOM     26  N   UNL A   1      33.737  30.059  27.105  1.00  0.00    -0.352 N 
ATOM     27  C   UNL A   1      34.571  30.718  27.978  1.00  0.00     0.251 C 
ATOM     28  H   UNL A   1      32.926  30.553  26.847  1.00  0.00     0.163 HD
ATOM     29  O   UNL A   1      34.188  31.735  28.539  1.00  0.00    -0.269 OA
BRANCH  27  30
ATOM     30  C   UNL A   1      35.920  30.173  28.246  1.00  0.00     0.039 A 
ATOM     31  C   UNL A   1      36.180  29.507  29.442  1.00  0.00     0.014 A 
ATOM     32  C   UNL A   1      36.938  30.347  27.305  1.00  0.00     0.014 A 
ATOM     33  C   UNL A   1      37.488  29.208  29.789  1.00  0.00     0.010 A 
ATOM     34  C   UNL A   1      38.233  29.910  27.599  1.00  0.00     0.010 A 
ATOM     35  C   UNL A   1      38.530  29.378  28.863  1.00  0.00    -0.014 A 
BRANCH  35  36
ATOM     36  C   UNL A   1      39.899  28.943  29.246  1.00  0.00     0.031 A 
ATOM     37  C   UNL A   1      40.759  29.778  30.155  1.00  0.00     0.074 A 
ATOM     38  C   UNL A   1      40.331  27.737  28.821  1.00  0.00     0.049 A 
ATOM     39  N   UNL A   1      41.948  29.506  30.629  1.00  0.00    -0.248 NA
ATOM     40  C   UNL A   1      40.229  31.083  30.583  1.00  0.00     0.031 C 
ATOM     41  C   UNL A   1      39.574  26.842  27.939  1.00  0.00     0.029 A 
ATOM     42  N   UNL A   1      41.473  27.033  29.102  1.00  0.00    -0.354 N 
ATOM     43  C   UNL A   1      42.310  30.604  31.403  1.00  0.00     0.074 A 
ATOM     44  C   UNL A   1      41.239  31.567  31.293  1.00  0.00     0.031 C 
ATOM     45  C   UNL A   1      40.227  25.680  27.827  1.00  0.00     0.029 A 
ATOM     46  C   UNL A   1      41.493  25.777  28.544  1.00  0.00     0.049 A 
ATOM     47  H   UNL A   1      42.207  27.392  29.651  1.00  0.00     0.167 HD
ATOM     48  C   UNL A   1      43.426  30.776  32.152  1.00  0.00     0.031 A 
ATOM     49  C   UNL A   1      42.425  24.804  28.586  1.00  0.00     0.031 A 
ATOM     50  C   UNL A   1      44.484  29.802  32.253  1.00  0.00     0.049 A 
ATOM     51  C   UNL A   1      43.670  25.038  29.388  1.00  0.00     0.074 A 
ATOM     52  C   UNL A   1      45.655  29.883  32.985  1.00  0.00     0.029 A 
ATOM     53  N   UNL A   1      44.497  28.568  31.616  1.00  0.00    -0.354 N 
ATOM     54  N   UNL A   1      43.992  26.081  30.115  1.00  0.00    -0.248 NA
ATOM     55  C   UNL A   1      44.675  23.968  29.383  1.00  0.00     0.031 C 
ATOM     56  C   UNL A   1      46.408  28.734  32.734  1.00  0.00     0.029 A 
ATOM     57  C   UNL A   1      45.670  27.892  31.916  1.00  0.00     0.049 A 
ATOM     58  H   UNL A   1      43.780  28.223  31.037  1.00  0.00     0.167 HD
ATOM     59  C   UNL A   1      45.238  25.796  30.657  1.00  0.00     0.074 A 
ATOM     60  C   UNL A   1      45.592  24.464  30.205  1.00  0.00     0.031 C 
ATOM     61  C   UNL A   1      46.021  26.573  31.446  1.00  0.00     0.031 A 
BRANCH  48  62
ATOM     62  C   UNL A   1      43.569  32.061  32.934  1.00  0.00    -0.014 A 
ATOM     63  C   UNL A   1      43.109  32.132  34.262  1.00  0.00     0.010 A 
ATOM     64  C   UNL A   1      44.060  33.230  32.324  1.00  0.00     0.010 A 
ATOM     65  C   UNL A   1      43.101  33.349  34.951  1.00  0.00     0.020 A 
ATOM     66  C   UNL A   1      44.087  34.442  33.020  1.00  0.00     0.020 A 
ATOM     67  C   UNL A   1      43.583  34.499  34.322  1.00  0.00     0.054 A 
BRANCH  67  68
ATOM     68  S   UNL A   1      43.533  36.075  35.220  1.00  0.00     0.124 S 
ATOM     69  O   UNL A   1      42.181  36.075  35.768  1.00  0.00    -0.237 OA
ATOM     70  O   UNL A   1      44.611  35.919  36.195  1.00  0.00    -0.237 OA
ATOM     71  O   UNL A   1      43.786  37.070  34.179  1.00  0.00    -0.744 OA
ENDBRANCH  67  68
ENDBRANCH  48  62
BRANCH  49  72
ATOM     72  C   UNL A   1      42.171  23.532  27.853  1.00  0.00    -0.014 A 
ATOM     73  C   UNL A   1      41.462  22.485  28.477  1.00  0.00     0.010 A 
ATOM     74  C   UNL A   1      42.742  23.306  26.588  1.00  0.00     0.010 A 
ATOM     75  C   UNL A   1      41.406  21.217  27.896  1.00  0.00     0.020 A 
ATOM     76  C   UNL A   1      42.652  22.048  25.983  1.00  0.00     0.020 A 
ATOM     77  C   UNL A   1      42.018  21.002  26.660  1.00  0.00     0.054 A 
BRANCH  77  78
ATOM     78  S   UNL A   1      42.013  19.324  25.971  1.00  0.00     0.124 S 
ATOM     79  O   UNL A   1      40.591  19.110  25.716  1.00  0.00    -0.237 OA
ATOM     80  O   UNL A   1      42.851  19.465  24.783  1.00  0.00    -0.237 OA
ATOM     81  O   UNL A   1      42.584  18.511  27.042  1.00  0.00    -0.744 OA
ENDBRANCH  77  78
ENDBRANCH  49  72
BRANCH  61  82
ATOM     82  C   UNL A   1      47.360  26.019  31.866  1.00  0.00    -0.014 A 
ATOM     83  C   UNL A   1      47.497  25.376  33.110  1.00  0.00     0.010 A 
ATOM     84  C   UNL A   1      48.506  26.227  31.076  1.00  0.00     0.010 A 
ATOM     85  C   UNL A   1      48.753  24.978  33.570  1.00  0.00     0.020 A 
ATOM     86  C   UNL A   1      49.760  25.796  31.516  1.00  0.00     0.020 A 
ATOM     87  C   UNL A   1      49.879  25.197  32.773  1.00  0.00     0.054 A 
BRANCH  87  88
ATOM     88  S   UNL A   1      51.504  24.685  33.394  1.00  0.00     0.124 S 
ATOM     89  O   UNL A   1      51.939  23.737  32.372  1.00  0.00    -0.237 OA
ATOM     90  O   UNL A   1      52.241  25.946  33.439  1.00  0.00    -0.237 OA
ATOM     91  O   UNL A   1      51.204  24.101  34.700  1.00  0.00    -0.744 OA
ENDBRANCH  87  88
ENDBRANCH  61  82
ENDBRANCH  35  36
ENDBRANCH  27  30
ENDBRANCH  25  26
ENDBRANCH   1  25
TORSDOF 19
ENDMDL
MODEL 3
REMARK VINA RESULT:     -10.0      2.447      8.923
REMARK SMILES COC(OC)[C@@](C)(Nc1ccc(Cl)c(Br)c1)C(=O)NCCCCNC(=O)c1ccc(-c2c3nc(c(-c4ccc(S(=O)(=O)[O-])cc4)c4ccc([nH]4)c(-c4ccc(S(=O)(=O)[O-])cc4)c4nc(c(-c5ccc(S(=O)(=O)[O-])cc5)c5ccc2[nH]5)C=C4)C=C3)cc1
REMARK SMILES IDX 22 1 21 2 20 3 19 4 17 5 18 6 6 8 7 9 3 10 2 11 1 12 4 13
REMARK SMILES IDX 5 14 8 15 9 17 10 18 16 19 11 20 14 21 12 22 15 23 13 24
REMARK SMILES IDX 23 25 24 26 25 27 26 29 27 30 28 31 86 32 29 33 85 34 30 35
REMARK SMILES IDX 31 36 32 37 79 38 33 39 84 40 78 41 80 42 34 43 83 44 77 45
REMARK SMILES IDX 76 46 35 48 65 49 46 50 64 51 47 52 50 53 63 54 81 55 48 56
REMARK SMILES IDX 49 57 62 59 82 60 51 61 36 62 37 63 45 64 38 65 44 66 39 67
REMARK SMILES IDX 40 68 41 69 42 70 43 71 66 72 67 73 75 74 68 75 74 76 69 77
REMARK SMILES IDX 70 78 71 79 72 80 73 81 52 82 53 83 61 84 54 85 60 86 55 87
REMARK SMILES IDX 56 88 57 89 58 90 59 91
REMARK H PARENT 19 7 8 16 24 28 80 47 50 58
REMARK Flexibility Score: inf
ROOT
ATOM      1  C   UNL A   1      34.593  30.756  27.242  1.00  0.00     0.023 C 
ENDROOT
BRANCH   1   2
ATOM      2  C   UNL A   1      34.138  29.377  27.688  1.00  0.00     0.023 C 
BRANCH   2   3
ATOM      3  C   UNL A   1      34.017  28.334  26.579  1.00  0.00     0.116 C 
BRANCH   3   4
ATOM      4  N   UNL A   1      34.217  28.839  25.228  1.00  0.00    -0.354 N 
ATOM      5  C   UNL A   1      33.742  28.435  24.003  1.00  0.00     0.250 C 
ATOM      6  O   UNL A   1      34.254  29.010  23.038  1.00  0.00    -0.272 OA
ATOM      7  H   UNL A   1      34.809  29.624  25.183  1.00  0.00     0.163 HD
BRANCH   5   8
ATOM      8  C   UNL A   1      32.699  27.300  23.856  1.00  0.00     0.165 C 
ATOM      9  C   UNL A   1      32.563  26.973  22.338  1.00  0.00     0.051 C 
BRANCH   8  10
ATOM     10  C   UNL A   1      33.118  25.891  24.479  1.00  0.00     0.284 C 
BRANCH  10  11
ATOM     11  O   UNL A   1      32.339  24.748  24.087  1.00  0.00    -0.353 OA
ATOM     12  C   UNL A   1      31.411  24.291  25.059  1.00  0.00     0.198 C 
ENDBRANCH  10  11
BRANCH  10  13
ATOM     13  O   UNL A   1      34.521  25.624  24.553  1.00  0.00    -0.353 OA
ATOM     14  C   UNL A   1      34.789  24.550  25.455  1.00  0.00     0.198 C 
ENDBRANCH  10  13
ENDBRANCH   8  10
BRANCH   8  15
ATOM     15  N   UNL A   1      31.345  27.691  24.399  1.00  0.00    -0.367 N 
ATOM     16  H   UNL A   1      30.877  26.993  24.912  1.00  0.00     0.161 HD
BRANCH  15  17
ATOM     17  C   UNL A   1      30.666  28.901  24.274  1.00  0.00     0.036 A 
ATOM     18  C   UNL A   1      30.837  30.024  25.090  1.00  0.00     0.027 A 
ATOM     19  C   UNL A   1      29.812  29.075  23.170  1.00  0.00     0.043 A 
ATOM     20  C   UNL A   1      30.309  31.284  24.759  1.00  0.00     0.024 A 
ATOM     21  C   UNL A   1      29.222  30.315  22.862  1.00  0.00     0.038 A 
ATOM     22  C   UNL A   1      29.509  31.437  23.636  1.00  0.00     0.055 A 
ATOM     23  Br  UNL A   1      28.049  30.385  21.369  1.00  0.00    -0.049 Br
ATOM     24  Cl  UNL A   1      28.937  33.020  23.262  1.00  0.00    -0.083 Cl
ENDBRANCH  15  17
ENDBRANCH   8  15
ENDBRANCH   5   8
ENDBRANCH   3   4
ENDBRANCH   2   3
ENDBRANCH   1   2
BRANCH   1  25
ATOM     25  C   UNL A   1      35.689  31.352  28.108  1.00  0.00     0.116 C 
BRANCH  25  26
ATOM     26  N   UNL A   1      35.554  30.976  29.509  1.00  0.00    -0.352 N 
ATOM     27  C   UNL A   1      36.435  30.306  30.327  1.00  0.00     0.251 C 
ATOM     28  H   UNL A   1      34.707  31.243  29.934  1.00  0.00     0.163 HD
ATOM     29  O   UNL A   1      36.064  29.898  31.419  1.00  0.00    -0.269 OA
BRANCH  27  30
ATOM     30  C   UNL A   1      37.819  30.069  29.865  1.00  0.00     0.039 A 
ATOM     31  C   UNL A   1      38.102  30.015  28.500  1.00  0.00     0.014 A 
ATOM     32  C   UNL A   1      38.840  29.879  30.799  1.00  0.00     0.014 A 
ATOM     33  C   UNL A   1      39.340  29.563  28.075  1.00  0.00     0.010 A 
ATOM     34  C   UNL A   1      40.130  29.565  30.359  1.00  0.00     0.010 A 
ATOM     35  C   UNL A   1      40.381  29.359  28.994  1.00  0.00    -0.014 A 
BRANCH  35  36
ATOM     36  C   UNL A   1      41.722  28.977  28.477  1.00  0.00     0.031 A 
ATOM     37  C   UNL A   1      42.869  29.951  28.484  1.00  0.00     0.074 A 
ATOM     38  C   UNL A   1      41.913  27.705  28.069  1.00  0.00     0.049 A 
ATOM     39  N   UNL A   1      44.111  29.749  28.126  1.00  0.00    -0.248 NA
ATOM     40  C   UNL A   1      42.594  31.322  28.942  1.00  0.00     0.031 C 
ATOM     41  C   UNL A   1      40.869  26.676  28.026  1.00  0.00     0.029 A 
ATOM     42  N   UNL A   1      43.043  27.044  27.662  1.00  0.00    -0.354 N 
ATOM     43  C   UNL A   1      44.762  30.965  28.307  1.00  0.00     0.074 A 
ATOM     44  C   UNL A   1      43.768  31.912  28.758  1.00  0.00     0.031 C 
ATOM     45  C   UNL A   1      41.423  25.501  27.705  1.00  0.00     0.029 A 
ATOM     46  C   UNL A   1      42.839  25.706  27.423  1.00  0.00     0.049 A 
ATOM     47  H   UNL A   1      43.916  27.486  27.551  1.00  0.00     0.167 HD
ATOM     48  C   UNL A   1      46.074  31.253  28.133  1.00  0.00     0.031 A 
ATOM     49  C   UNL A   1      43.684  24.741  27.012  1.00  0.00     0.031 A 
ATOM     50  C   UNL A   1      47.055  30.295  27.686  1.00  0.00     0.049 A 
ATOM     51  C   UNL A   1      45.123  25.096  26.786  1.00  0.00     0.074 A 
ATOM     52  C   UNL A   1      48.409  30.489  27.478  1.00  0.00     0.029 A 
ATOM     53  N   UNL A   1      46.793  28.964  27.389  1.00  0.00    -0.354 N 
ATOM     54  N   UNL A   1      45.719  26.251  26.966  1.00  0.00    -0.248 NA
ATOM     55  C   UNL A   1      46.006  24.026  26.307  1.00  0.00     0.031 C 
ATOM     56  C   UNL A   1      48.951  29.300  26.987  1.00  0.00     0.029 A 
ATOM     57  C   UNL A   1      47.956  28.334  26.972  1.00  0.00     0.049 A 
ATOM     58  H   UNL A   1      45.913  28.531  27.464  1.00  0.00     0.167 HD
ATOM     59  C   UNL A   1      47.050  26.048  26.624  1.00  0.00     0.074 A 
ATOM     60  C   UNL A   1      47.177  24.648  26.265  1.00  0.00     0.031 C 
ATOM     61  C   UNL A   1      48.068  26.943  26.599  1.00  0.00     0.031 A 
BRANCH  48  62
ATOM     62  C   UNL A   1      46.543  32.659  28.432  1.00  0.00    -0.014 A 
ATOM     63  C   UNL A   1      46.574  33.623  27.407  1.00  0.00     0.010 A 
ATOM     64  C   UNL A   1      47.054  32.998  29.698  1.00  0.00     0.010 A 
ATOM     65  C   UNL A   1      47.139  34.883  27.631  1.00  0.00     0.020 A 
ATOM     66  C   UNL A   1      47.588  34.268  29.937  1.00  0.00     0.020 A 
ATOM     67  C   UNL A   1      47.651  35.194  28.892  1.00  0.00     0.054 A 
BRANCH  67  68
ATOM     68  S   UNL A   1      48.411  36.821  29.152  1.00  0.00     0.124 S 
ATOM     69  O   UNL A   1      49.735  36.466  29.656  1.00  0.00    -0.237 OA
ATOM     70  O   UNL A   1      48.380  37.404  27.813  1.00  0.00    -0.237 OA
ATOM     71  O   UNL A   1      47.525  37.463  30.121  1.00  0.00    -0.744 OA
ENDBRANCH  67  68
ENDBRANCH  48  62
BRANCH  49  72
ATOM     72  C   UNL A   1      43.161  23.359  26.818  1.00  0.00    -0.014 A 
ATOM     73  C   UNL A   1      43.069  22.478  27.915  1.00  0.00     0.010 A 
ATOM     74  C   UNL A   1      42.877  22.873  25.531  1.00  0.00     0.010 A 
ATOM     75  C   UNL A   1      42.794  21.123  27.720  1.00  0.00     0.020 A 
ATOM     76  C   UNL A   1      42.558  21.524  25.335  1.00  0.00     0.020 A 
ATOM     77  C   UNL A   1      42.558  20.651  26.427  1.00  0.00     0.054 A 
BRANCH  77  78
ATOM     78  S   UNL A   1      42.296  18.872  26.188  1.00  0.00     0.124 S 
ATOM     79  O   UNL A   1      42.471  18.361  27.545  1.00  0.00    -0.237 OA
ATOM     80  O   UNL A   1      40.933  18.819  25.667  1.00  0.00    -0.237 OA
ATOM     81  O   UNL A   1      43.341  18.496  25.240  1.00  0.00    -0.744 OA
ENDBRANCH  77  78
ENDBRANCH  49  72
BRANCH  61  82
ATOM     82  C   UNL A   1      49.422  26.453  26.147  1.00  0.00    -0.014 A 
ATOM     83  C   UNL A   1      50.288  25.834  27.067  1.00  0.00     0.010 A 
ATOM     84  C   UNL A   1      49.877  26.698  24.839  1.00  0.00     0.010 A 
ATOM     85  C   UNL A   1      51.592  25.496  26.699  1.00  0.00     0.020 A 
ATOM     86  C   UNL A   1      51.169  26.326  24.455  1.00  0.00     0.020 A 
ATOM     87  C   UNL A   1      52.026  25.750  25.396  1.00  0.00     0.054 A 
BRANCH  87  88
ATOM     88  S   UNL A   1      53.727  25.316  24.940  1.00  0.00     0.124 S 
ATOM     89  O   UNL A   1      53.891  26.012  23.667  1.00  0.00    -0.237 OA
ATOM     90  O   UNL A   1      54.504  25.852  26.056  1.00  0.00    -0.237 OA
ATOM     91  O   UNL A   1      53.699  23.857  24.856  1.00  0.00    -0.744 OA
ENDBRANCH  87  88
ENDBRANCH  61  82
ENDBRANCH  35  36
ENDBRANCH  27  30
ENDBRANCH  25  26
ENDBRANCH   1  25
TORSDOF 19
ENDMDL
