MODEL 1
REMARK VINA RESULT:     -10.9      0.000      0.000
REMARK SMILES C[C@@H](c1ccccn1)S(=O)(=O)N1CC[NH2+]C[C@@H]1C(=O)NCCCCNC(=O)c1ccc(-c2c3nc(c(-c4ccc(S(=O)(=O)[O-])cc4)c4ccc([nH]4)c(-c4ccc(S(=O)(=O)[O-])cc4)c4nc(c(-c5ccc(S(=O)(=O)[O-])cc5)c5ccc2[nH]5)C=C4)C=C3)cc1
REMARK SMILES IDX 22 1 21 2 20 3 18 4 19 5 17 7 12 8 13 9 14 10 16 11 15 12
REMARK SMILES IDX 9 15 10 16 11 17 2 18 1 19 3 20 4 21 8 22 5 23 7 24 6 25
REMARK SMILES IDX 23 26 24 27 25 28 26 29 27 31 28 32 29 33 87 34 30 35 86 36
REMARK SMILES IDX 31 37 32 38 33 39 80 40 34 41 85 42 79 43 81 44 35 45 84 46
REMARK SMILES IDX 78 47 77 48 36 50 66 51 47 52 65 53 48 54 51 55 64 56 82 57
REMARK SMILES IDX 49 58 50 59 63 61 83 62 52 63 37 64 38 65 46 66 39 67 45 68
REMARK SMILES IDX 40 69 41 70 42 71 43 72 44 73 67 74 68 75 76 76 69 77 75 78
REMARK SMILES IDX 70 79 71 80 72 81 73 82 74 83 53 84 54 85 62 86 55 87 61 88
REMARK SMILES IDX 56 89 57 90 58 91 59 92 60 93
REMARK H PARENT 20 6 15 13 15 14 25 30 81 49 51 60
REMARK Flexibility Score: inf
ROOT
ATOM      1  C   UNL A   1      36.052  22.976  23.567  1.00  0.00     0.023 C 
ENDROOT
BRANCH   1   2
ATOM      2  C   UNL A   1      34.707  22.984  22.837  1.00  0.00     0.116 C 
BRANCH   2   3
ATOM      3  N   UNL A   1      33.671  22.339  23.615  1.00  0.00    -0.355 N 
ATOM      4  C   UNL A   1      32.377  22.686  23.833  1.00  0.00     0.244 C 
ATOM      5  O   UNL A   1      31.742  21.933  24.579  1.00  0.00    -0.273 OA
ATOM      6  H   UNL A   1      33.952  21.508  24.061  1.00  0.00     0.163 HD
BRANCH   4   7
ATOM      7  C   UNL A   1      31.743  23.945  23.201  1.00  0.00     0.216 C 
ATOM      8  N   UNL A   1      32.496  25.199  23.493  1.00  0.00    -0.177 NA
ATOM      9  C   UNL A   1      32.687  25.421  24.936  1.00  0.00     0.164 C 
ATOM     10  C   UNL A   1      31.310  25.424  25.650  1.00  0.00     0.277 C 
ATOM     11  C   UNL A   1      30.328  24.128  23.798  1.00  0.00     0.291 C 
ATOM     12  N   UNL A   1      30.324  24.393  25.262  1.00  0.00    -0.343 N 
ATOM     13  H   UNL A   1      29.394  24.711  25.535  1.00  0.00     0.346 HD
ATOM     14  H   UNL A   1      30.576  23.527  25.737  1.00  0.00     0.346 HD
BRANCH   8  15
ATOM     15  S   UNL A   1      32.632  26.406  22.352  1.00  0.00     0.223 S 
ATOM     16  O   UNL A   1      31.577  26.155  21.381  1.00  0.00    -0.211 OA
ATOM     17  O   UNL A   1      34.001  26.350  21.881  1.00  0.00    -0.211 OA
BRANCH  15  18
ATOM     18  C   UNL A   1      32.277  28.076  23.068  1.00  0.00     0.170 C 
ATOM     19  C   UNL A   1      33.379  29.091  22.771  1.00  0.00     0.033 C 
BRANCH  18  20
ATOM     20  C   UNL A   1      30.854  28.504  22.785  1.00  0.00     0.060 A 
ATOM     21  C   UNL A   1      29.738  27.903  23.371  1.00  0.00     0.025 A 
ATOM     22  N   UNL A   1      30.692  29.491  21.874  1.00  0.00    -0.260 NA
ATOM     23  C   UNL A   1      28.466  28.426  23.135  1.00  0.00     0.004 A 
ATOM     24  C   UNL A   1      29.452  29.975  21.642  1.00  0.00     0.111 A 
ATOM     25  C   UNL A   1      28.319  29.495  22.265  1.00  0.00     0.020 A 
ENDBRANCH  18  20
ENDBRANCH  15  18
ENDBRANCH   8  15
ENDBRANCH   4   7
ENDBRANCH   2   3
ENDBRANCH   1   2
BRANCH   1  26
ATOM     26  C   UNL A   1      36.197  23.969  24.731  1.00  0.00     0.023 C 
BRANCH  26  27
ATOM     27  C   UNL A   1      36.592  23.381  26.083  1.00  0.00     0.116 C 
BRANCH  27  28
ATOM     28  N   UNL A   1      37.792  22.564  26.023  1.00  0.00    -0.352 N 
ATOM     29  C   UNL A   1      39.092  22.893  26.328  1.00  0.00     0.251 C 
ATOM     30  H   UNL A   1      37.654  21.638  25.717  1.00  0.00     0.163 HD
ATOM     31  O   UNL A   1      39.993  22.093  26.092  1.00  0.00    -0.269 OA
BRANCH  29  32
ATOM     32  C   UNL A   1      39.416  24.219  26.906  1.00  0.00     0.039 A 
ATOM     33  C   UNL A   1      39.028  24.491  28.221  1.00  0.00     0.014 A 
ATOM     34  C   UNL A   1      40.094  25.190  26.164  1.00  0.00     0.014 A 
ATOM     35  C   UNL A   1      39.386  25.704  28.818  1.00  0.00     0.010 A 
ATOM     36  C   UNL A   1      40.506  26.372  26.780  1.00  0.00     0.010 A 
ATOM     37  C   UNL A   1      40.167  26.638  28.116  1.00  0.00    -0.014 A 
BRANCH  37  38
ATOM     38  C   UNL A   1      40.663  27.877  28.774  1.00  0.00     0.031 A 
ATOM     39  C   UNL A   1      42.047  27.929  29.364  1.00  0.00     0.074 A 
ATOM     40  C   UNL A   1      39.837  28.936  28.907  1.00  0.00     0.049 A 
ATOM     41  N   UNL A   1      42.621  28.895  30.034  1.00  0.00    -0.248 NA
ATOM     42  C   UNL A   1      42.888  26.732  29.197  1.00  0.00     0.031 C 
ATOM     43  C   UNL A   1      38.458  29.000  28.416  1.00  0.00     0.029 A 
ATOM     44  N   UNL A   1      40.032  30.157  29.506  1.00  0.00    -0.354 N 
ATOM     45  C   UNL A   1      43.878  28.419  30.388  1.00  0.00     0.074 A 
ATOM     46  C   UNL A   1      43.969  27.063  29.891  1.00  0.00     0.031 C 
ATOM     47  C   UNL A   1      37.939  30.201  28.717  1.00  0.00     0.029 A 
ATOM     48  C   UNL A   1      38.927  30.976  29.462  1.00  0.00     0.049 A 
ATOM     49  H   UNL A   1      40.881  30.421  29.926  1.00  0.00     0.167 HD
ATOM     50  C   UNL A   1      44.872  29.056  31.054  1.00  0.00     0.031 A 
ATOM     51  C   UNL A   1      38.722  32.206  29.973  1.00  0.00     0.031 A 
ATOM     52  C   UNL A   1      44.783  30.408  31.538  1.00  0.00     0.049 A 
ATOM     53  C   UNL A   1      39.837  32.888  30.719  1.00  0.00     0.074 A 
ATOM     54  C   UNL A   1      45.762  31.162  32.163  1.00  0.00     0.029 A 
ATOM     55  N   UNL A   1      43.653  31.208  31.461  1.00  0.00    -0.354 N 
ATOM     56  N   UNL A   1      41.046  32.448  30.973  1.00  0.00    -0.248 NA
ATOM     57  C   UNL A   1      39.564  34.235  31.239  1.00  0.00     0.031 C 
ATOM     58  C   UNL A   1      45.205  32.394  32.518  1.00  0.00     0.029 A 
ATOM     59  C   UNL A   1      43.899  32.434  32.056  1.00  0.00     0.049 A 
ATOM     60  H   UNL A   1      42.801  30.943  31.045  1.00  0.00     0.167 HD
ATOM     61  C   UNL A   1      41.684  33.474  31.661  1.00  0.00     0.074 A 
ATOM     62  C   UNL A   1      40.735  34.561  31.768  1.00  0.00     0.031 C 
ATOM     63  C   UNL A   1      42.945  33.510  32.159  1.00  0.00     0.031 A 
BRANCH  50  64
ATOM     64  C   UNL A   1      46.145  28.292  31.314  1.00  0.00    -0.014 A 
ATOM     65  C   UNL A   1      46.288  27.477  32.451  1.00  0.00     0.010 A 
ATOM     66  C   UNL A   1      47.193  28.346  30.376  1.00  0.00     0.010 A 
ATOM     67  C   UNL A   1      47.469  26.759  32.665  1.00  0.00     0.020 A 
ATOM     68  C   UNL A   1      48.364  27.608  30.571  1.00  0.00     0.020 A 
ATOM     69  C   UNL A   1      48.500  26.831  31.723  1.00  0.00     0.054 A 
BRANCH  69  70
ATOM     70  S   UNL A   1      50.009  25.866  32.012  1.00  0.00     0.124 S 
ATOM     71  O   UNL A   1      51.030  26.910  32.056  1.00  0.00    -0.237 OA
ATOM     72  O   UNL A   1      49.728  25.208  33.285  1.00  0.00    -0.237 OA
ATOM     73  O   UNL A   1      50.079  24.977  30.856  1.00  0.00    -0.744 OA
ENDBRANCH  69  70
ENDBRANCH  50  64
BRANCH  51  74
ATOM     74  C   UNL A   1      37.401  32.872  29.801  1.00  0.00    -0.014 A 
ATOM     75  C   UNL A   1      37.101  33.577  28.622  1.00  0.00     0.010 A 
ATOM     76  C   UNL A   1      36.430  32.798  30.817  1.00  0.00     0.010 A 
ATOM     77  C   UNL A   1      35.863  34.211  28.471  1.00  0.00     0.020 A 
ATOM     78  C   UNL A   1      35.181  33.404  30.657  1.00  0.00     0.020 A 
ATOM     79  C   UNL A   1      34.910  34.118  29.488  1.00  0.00     0.054 A 
BRANCH  79  80
ATOM     80  S   UNL A   1      33.293  34.907  29.250  1.00  0.00     0.124 S 
ATOM     81  O   UNL A   1      33.669  36.222  28.741  1.00  0.00    -0.237 OA
ATOM     82  O   UNL A   1      32.647  34.017  28.289  1.00  0.00    -0.237 OA
ATOM     83  O   UNL A   1      32.707  34.896  30.589  1.00  0.00    -0.744 OA
ENDBRANCH  79  80
ENDBRANCH  51  74
BRANCH  63  84
ATOM     84  C   UNL A   1      43.389  34.777  32.842  1.00  0.00    -0.014 A 
ATOM     85  C   UNL A   1      43.906  35.860  32.109  1.00  0.00     0.010 A 
ATOM     86  C   UNL A   1      43.227  34.907  34.234  1.00  0.00     0.010 A 
ATOM     87  C   UNL A   1      44.276  37.040  32.759  1.00  0.00     0.020 A 
ATOM     88  C   UNL A   1      43.568  36.096  34.884  1.00  0.00     0.020 A 
ATOM     89  C   UNL A   1      44.101  37.152  34.142  1.00  0.00     0.054 A 
BRANCH  89  90
ATOM     90  S   UNL A   1      44.538  38.714  34.954  1.00  0.00     0.124 S 
ATOM     91  O   UNL A   1      44.379  38.379  36.366  1.00  0.00    -0.237 OA
ATOM     92  O   UNL A   1      45.914  38.931  34.511  1.00  0.00    -0.237 OA
ATOM     93  O   UNL A   1      43.563  39.665  34.425  1.00  0.00    -0.744 OA
ENDBRANCH  89  90
ENDBRANCH  63  84
ENDBRANCH  37  38
ENDBRANCH  29  32
ENDBRANCH  27  28
ENDBRANCH  26  27
ENDBRANCH   1  26
TORSDOF 17
ENDMDL
MODEL 2
REMARK VINA RESULT:     -10.5      4.163      9.781
REMARK SMILES C[C@@H](c1ccccn1)S(=O)(=O)N1CC[NH2+]C[C@@H]1C(=O)NCCCCNC(=O)c1ccc(-c2c3nc(c(-c4ccc(S(=O)(=O)[O-])cc4)c4ccc([nH]4)c(-c4ccc(S(=O)(=O)[O-])cc4)c4nc(c(-c5ccc(S(=O)(=O)[O-])cc5)c5ccc2[nH]5)C=C4)C=C3)cc1
REMARK SMILES IDX 22 1 21 2 20 3 18 4 19 5 17 7 12 8 13 9 14 10 16 11 15 12
REMARK SMILES IDX 9 15 10 16 11 17 2 18 1 19 3 20 4 21 8 22 5 23 7 24 6 25
REMARK SMILES IDX 23 26 24 27 25 28 26 29 27 31 28 32 29 33 87 34 30 35 86 36
REMARK SMILES IDX 31 37 32 38 33 39 80 40 34 41 85 42 79 43 81 44 35 45 84 46
REMARK SMILES IDX 78 47 77 48 36 50 66 51 47 52 65 53 48 54 51 55 64 56 82 57
REMARK SMILES IDX 49 58 50 59 63 61 83 62 52 63 37 64 38 65 46 66 39 67 45 68
REMARK SMILES IDX 40 69 41 70 42 71 43 72 44 73 67 74 68 75 76 76 69 77 75 78
REMARK SMILES IDX 70 79 71 80 72 81 73 82 74 83 53 84 54 85 62 86 55 87 61 88
REMARK SMILES IDX 56 89 57 90 58 91 59 92 60 93
REMARK H PARENT 20 6 15 13 15 14 25 30 81 49 51 60
REMARK Flexibility Score: inf
ROOT
ATOM      1  C   UNL A   1      33.263  27.553  26.743  1.00  0.00     0.023 C 
ENDROOT
BRANCH   1   2
ATOM      2  C   UNL A   1      31.761  27.267  26.692  1.00  0.00     0.116 C 
BRANCH   2   3
ATOM      3  N   UNL A   1      31.477  25.857  26.856  1.00  0.00    -0.355 N 
ATOM      4  C   UNL A   1      31.779  24.793  26.069  1.00  0.00     0.244 C 
ATOM      5  O   UNL A   1      31.368  23.699  26.474  1.00  0.00    -0.273 OA
ATOM      6  H   UNL A   1      30.983  25.632  27.677  1.00  0.00     0.163 HD
BRANCH   4   7
ATOM      7  C   UNL A   1      32.570  24.939  24.751  1.00  0.00     0.216 C 
ATOM      8  N   UNL A   1      31.713  25.290  23.581  1.00  0.00    -0.177 NA
ATOM      9  C   UNL A   1      30.608  24.338  23.384  1.00  0.00     0.164 C 
ATOM     10  C   UNL A   1      31.175  22.902  23.242  1.00  0.00     0.277 C 
ATOM     11  C   UNL A   1      33.228  23.578  24.426  1.00  0.00     0.291 C 
ATOM     12  N   UNL A   1      32.252  22.486  24.166  1.00  0.00    -0.343 N 
ATOM     13  H   UNL A   1      32.748  21.694  23.755  1.00  0.00     0.346 HD
ATOM     14  H   UNL A   1      31.819  22.235  25.055  1.00  0.00     0.346 HD
BRANCH   8  15
ATOM     15  S   UNL A   1      32.264  26.320  22.391  1.00  0.00     0.223 S 
ATOM     16  O   UNL A   1      31.364  26.137  21.261  1.00  0.00    -0.211 OA
ATOM     17  O   UNL A   1      33.659  25.984  22.195  1.00  0.00    -0.211 OA
BRANCH  15  18
ATOM     18  C   UNL A   1      32.103  28.096  22.887  1.00  0.00     0.170 C 
ATOM     19  C   UNL A   1      33.251  28.959  22.367  1.00  0.00     0.033 C 
BRANCH  18  20
ATOM     20  C   UNL A   1      30.699  28.608  22.652  1.00  0.00     0.060 A 
ATOM     21  C   UNL A   1      29.562  28.030  23.224  1.00  0.00     0.025 A 
ATOM     22  N   UNL A   1      30.572  29.649  21.798  1.00  0.00    -0.260 NA
ATOM     23  C   UNL A   1      28.314  28.625  23.037  1.00  0.00     0.004 A 
ATOM     24  C   UNL A   1      29.353  30.204  21.613  1.00  0.00     0.111 A 
ATOM     25  C   UNL A   1      28.207  29.746  22.230  1.00  0.00     0.020 A 
ENDBRANCH  18  20
ENDBRANCH  15  18
ENDBRANCH   8  15
ENDBRANCH   4   7
ENDBRANCH   2   3
ENDBRANCH   1   2
BRANCH   1  26
ATOM     26  C   UNL A   1      33.665  29.019  26.970  1.00  0.00     0.023 C 
BRANCH  26  27
ATOM     27  C   UNL A   1      35.095  29.267  27.445  1.00  0.00     0.116 C 
BRANCH  27  28
ATOM     28  N   UNL A   1      35.171  30.167  28.583  1.00  0.00    -0.352 N 
ATOM     29  C   UNL A   1      36.236  30.450  29.407  1.00  0.00     0.251 C 
ATOM     30  H   UNL A   1      34.336  30.644  28.797  1.00  0.00     0.163 HD
ATOM     31  O   UNL A   1      36.066  31.152  30.400  1.00  0.00    -0.269 OA
BRANCH  29  32
ATOM     32  C   UNL A   1      37.576  29.884  29.124  1.00  0.00     0.039 A 
ATOM     33  C   UNL A   1      37.984  29.759  27.794  1.00  0.00     0.014 A 
ATOM     34  C   UNL A   1      38.426  29.478  30.156  1.00  0.00     0.014 A 
ATOM     35  C   UNL A   1      39.272  29.300  27.499  1.00  0.00     0.010 A 
ATOM     36  C   UNL A   1      39.732  29.082  29.864  1.00  0.00     0.010 A 
ATOM     37  C   UNL A   1      40.173  28.998  28.534  1.00  0.00    -0.014 A 
BRANCH  37  38
ATOM     38  C   UNL A   1      41.585  28.629  28.243  1.00  0.00     0.031 A 
ATOM     39  C   UNL A   1      42.655  29.686  28.177  1.00  0.00     0.074 A 
ATOM     40  C   UNL A   1      41.893  27.345  27.964  1.00  0.00     0.049 A 
ATOM     41  N   UNL A   1      43.920  29.559  27.868  1.00  0.00    -0.248 NA
ATOM     42  C   UNL A   1      42.246  31.068  28.475  1.00  0.00     0.031 C 
ATOM     43  C   UNL A   1      40.942  26.230  27.954  1.00  0.00     0.029 A 
ATOM     44  N   UNL A   1      43.089  26.761  27.623  1.00  0.00    -0.354 N 
ATOM     45  C   UNL A   1      44.454  30.841  27.913  1.00  0.00     0.074 A 
ATOM     46  C   UNL A   1      43.367  31.738  28.243  1.00  0.00     0.031 C 
ATOM     47  C   UNL A   1      41.593  25.098  27.641  1.00  0.00     0.029 A 
ATOM     48  C   UNL A   1      42.996  25.409  27.383  1.00  0.00     0.049 A 
ATOM     49  H   UNL A   1      43.932  27.263  27.556  1.00  0.00     0.167 HD
ATOM     50  C   UNL A   1      45.735  31.237  27.713  1.00  0.00     0.031 A 
ATOM     51  C   UNL A   1      43.927  24.520  26.987  1.00  0.00     0.031 A 
ATOM     52  C   UNL A   1      46.817  30.341  27.397  1.00  0.00     0.049 A 
ATOM     53  C   UNL A   1      45.340  24.985  26.760  1.00  0.00     0.074 A 
ATOM     54  C   UNL A   1      48.160  30.640  27.244  1.00  0.00     0.029 A 
ATOM     55  N   UNL A   1      46.684  28.979  27.178  1.00  0.00    -0.354 N 
ATOM     56  N   UNL A   1      45.839  26.191  26.885  1.00  0.00    -0.248 NA
ATOM     57  C   UNL A   1      46.317  23.969  26.345  1.00  0.00     0.031 C 
ATOM     58  C   UNL A   1      48.829  29.469  26.873  1.00  0.00     0.029 A 
ATOM     59  C   UNL A   1      47.914  28.429  26.858  1.00  0.00     0.049 A 
ATOM     60  H   UNL A   1      45.839  28.477  27.239  1.00  0.00     0.167 HD
ATOM     61  C   UNL A   1      47.192  26.073  26.590  1.00  0.00     0.074 A 
ATOM     62  C   UNL A   1      47.437  24.676  26.296  1.00  0.00     0.031 C 
ATOM     63  C   UNL A   1      48.146  27.036  26.566  1.00  0.00     0.031 A 
BRANCH  50  64
ATOM     64  C   UNL A   1      46.040  32.709  27.817  1.00  0.00    -0.014 A 
ATOM     65  C   UNL A   1      46.066  33.363  29.063  1.00  0.00     0.010 A 
ATOM     66  C   UNL A   1      46.361  33.438  26.657  1.00  0.00     0.010 A 
ATOM     67  C   UNL A   1      46.371  34.725  29.141  1.00  0.00     0.020 A 
ATOM     68  C   UNL A   1      46.696  34.792  26.734  1.00  0.00     0.020 A 
ATOM     69  C   UNL A   1      46.683  35.431  27.975  1.00  0.00     0.054 A 
BRANCH  69  70
ATOM     70  S   UNL A   1      47.104  37.190  28.112  1.00  0.00     0.124 S 
ATOM     71  O   UNL A   1      47.064  37.619  26.716  1.00  0.00    -0.237 OA
ATOM     72  O   UNL A   1      46.033  37.710  28.959  1.00  0.00    -0.237 OA
ATOM     73  O   UNL A   1      48.431  37.183  28.723  1.00  0.00    -0.744 OA
ENDBRANCH  69  70
ENDBRANCH  50  64
BRANCH  51  74
ATOM     74  C   UNL A   1      43.550  23.095  26.773  1.00  0.00    -0.014 A 
ATOM     75  C   UNL A   1      43.778  22.470  25.534  1.00  0.00     0.010 A 
ATOM     76  C   UNL A   1      42.966  22.350  27.815  1.00  0.00     0.010 A 
ATOM     77  C   UNL A   1      43.411  21.135  25.335  1.00  0.00     0.020 A 
ATOM     78  C   UNL A   1      42.627  21.007  27.630  1.00  0.00     0.020 A 
ATOM     79  C   UNL A   1      42.840  20.412  26.385  1.00  0.00     0.054 A 
BRANCH  79  80
ATOM     80  S   UNL A   1      42.417  18.667  26.119  1.00  0.00     0.124 S 
ATOM     81  O   UNL A   1      41.010  18.750  25.744  1.00  0.00    -0.237 OA
ATOM     82  O   UNL A   1      43.335  18.279  25.051  1.00  0.00    -0.237 OA
ATOM     83  O   UNL A   1      42.686  18.048  27.416  1.00  0.00    -0.744 OA
ENDBRANCH  79  80
ENDBRANCH  51  74
BRANCH  63  84
ATOM     84  C   UNL A   1      49.554  26.615  26.237  1.00  0.00    -0.014 A 
ATOM     85  C   UNL A   1      50.075  26.758  24.939  1.00  0.00     0.010 A 
ATOM     86  C   UNL A   1      50.389  26.128  27.260  1.00  0.00     0.010 A 
ATOM     87  C   UNL A   1      51.397  26.397  24.664  1.00  0.00     0.020 A 
ATOM     88  C   UNL A   1      51.720  25.793  26.996  1.00  0.00     0.020 A 
ATOM     89  C   UNL A   1      52.212  25.920  25.696  1.00  0.00     0.054 A 
BRANCH  89  90
ATOM     90  S   UNL A   1      53.940  25.510  25.325  1.00  0.00     0.124 S 
ATOM     91  O   UNL A   1      54.663  26.352  26.275  1.00  0.00    -0.237 OA
ATOM     92  O   UNL A   1      53.992  24.074  25.591  1.00  0.00    -0.237 OA
ATOM     93  O   UNL A   1      54.092  25.884  23.921  1.00  0.00    -0.744 OA
ENDBRANCH  89  90
ENDBRANCH  63  84
ENDBRANCH  37  38
ENDBRANCH  29  32
ENDBRANCH  27  28
ENDBRANCH  26  27
ENDBRANCH   1  26
TORSDOF 17
ENDMDL
MODEL 3
REMARK VINA RESULT:     -10.5      4.263      9.267
REMARK SMILES C[C@@H](c1ccccn1)S(=O)(=O)N1CC[NH2+]C[C@@H]1C(=O)NCCCCNC(=O)c1ccc(-c2c3nc(c(-c4ccc(S(=O)(=O)[O-])cc4)c4ccc([nH]4)c(-c4ccc(S(=O)(=O)[O-])cc4)c4nc(c(-c5ccc(S(=O)(=O)[O-])cc5)c5ccc2[nH]5)C=C4)C=C3)cc1
REMARK SMILES IDX 22 1 21 2 20 3 18 4 19 5 17 7 12 8 13 9 14 10 16 11 15 12
REMARK SMILES IDX 9 15 10 16 11 17 2 18 1 19 3 20 4 21 8 22 5 23 7 24 6 25
REMARK SMILES IDX 23 26 24 27 25 28 26 29 27 31 28 32 29 33 87 34 30 35 86 36
REMARK SMILES IDX 31 37 32 38 33 39 80 40 34 41 85 42 79 43 81 44 35 45 84 46
REMARK SMILES IDX 78 47 77 48 36 50 66 51 47 52 65 53 48 54 51 55 64 56 82 57
REMARK SMILES IDX 49 58 50 59 63 61 83 62 52 63 37 64 38 65 46 66 39 67 45 68
REMARK SMILES IDX 40 69 41 70 42 71 43 72 44 73 67 74 68 75 76 76 69 77 75 78
REMARK SMILES IDX 70 79 71 80 72 81 73 82 74 83 53 84 54 85 62 86 55 87 61 88
REMARK SMILES IDX 56 89 57 90 58 91 59 92 60 93
REMARK H PARENT 20 6 15 13 15 14 25 30 81 49 51 60
REMARK Flexibility Score: inf
ROOT
ATOM      1  C   UNL A   1      34.629  29.175  26.604  1.00  0.00     0.023 C 
ENDROOT
BRANCH   1   2
ATOM      2  C   UNL A   1      33.419  28.373  26.122  1.00  0.00     0.116 C 
BRANCH   2   3
ATOM      3  N   UNL A   1      33.585  26.955  26.359  1.00  0.00    -0.355 N 
ATOM      4  C   UNL A   1      33.290  25.883  25.581  1.00  0.00     0.244 C 
ATOM      5  O   UNL A   1      33.527  24.779  26.084  1.00  0.00    -0.273 OA
ATOM      6  H   UNL A   1      33.978  26.730  27.233  1.00  0.00     0.163 HD
BRANCH   4   7
ATOM      7  C   UNL A   1      32.688  26.031  24.166  1.00  0.00     0.216 C 
ATOM      8  N   UNL A   1      31.207  26.215  24.169  1.00  0.00    -0.177 NA
ATOM      9  C   UNL A   1      30.506  25.138  24.887  1.00  0.00     0.164 C 
ATOM     10  C   UNL A   1      30.892  23.766  24.278  1.00  0.00     0.277 C 
ATOM     11  C   UNL A   1      32.973  24.732  23.379  1.00  0.00     0.291 C 
ATOM     12  N   UNL A   1      32.313  23.527  23.950  1.00  0.00    -0.343 N 
ATOM     13  H   UNL A   1      32.369  22.769  23.268  1.00  0.00     0.346 HD
ATOM     14  H   UNL A   1      32.797  23.287  24.815  1.00  0.00     0.346 HD
BRANCH   8  15
ATOM     15  S   UNL A   1      30.464  27.221  23.067  1.00  0.00     0.223 S 
ATOM     16  O   UNL A   1      29.048  27.205  23.407  1.00  0.00    -0.211 OA
ATOM     17  O   UNL A   1      30.842  26.723  21.761  1.00  0.00    -0.211 OA
BRANCH  15  18
ATOM     18  C   UNL A   1      31.012  28.978  23.258  1.00  0.00     0.170 C 
ATOM     19  C   UNL A   1      32.394  29.232  22.660  1.00  0.00     0.033 C 
BRANCH  18  20
ATOM     20  C   UNL A   1      29.911  29.943  22.876  1.00  0.00     0.060 A 
ATOM     21  C   UNL A   1      29.278  30.790  23.790  1.00  0.00     0.025 A 
ATOM     22  N   UNL A   1      29.511  29.920  21.585  1.00  0.00    -0.260 NA
ATOM     23  C   UNL A   1      28.343  31.722  23.337  1.00  0.00     0.004 A 
ATOM     24  C   UNL A   1      28.592  30.817  21.164  1.00  0.00     0.111 A 
ATOM     25  C   UNL A   1      28.004  31.750  21.994  1.00  0.00     0.020 A 
ENDBRANCH  18  20
ENDBRANCH  15  18
ENDBRANCH   8  15
ENDBRANCH   4   7
ENDBRANCH   2   3
ENDBRANCH   1   2
BRANCH   1  26
ATOM     26  C   UNL A   1      34.327  30.378  27.511  1.00  0.00     0.023 C 
BRANCH  26  27
ATOM     27  C   UNL A   1      35.501  30.946  28.305  1.00  0.00     0.116 C 
BRANCH  27  28
ATOM     28  N   UNL A   1      35.482  30.563  29.706  1.00  0.00    -0.352 N 
ATOM     29  C   UNL A   1      36.489  30.047  30.487  1.00  0.00     0.251 C 
ATOM     30  H   UNL A   1      34.619  30.690  30.164  1.00  0.00     0.163 HD
ATOM     31  O   UNL A   1      36.239  29.667  31.629  1.00  0.00    -0.269 OA
BRANCH  29  32
ATOM     32  C   UNL A   1      37.863  29.912  29.950  1.00  0.00     0.039 A 
ATOM     33  C   UNL A   1      38.929  29.814  30.848  1.00  0.00     0.014 A 
ATOM     34  C   UNL A   1      38.107  29.885  28.574  1.00  0.00     0.014 A 
ATOM     35  C   UNL A   1      40.228  29.610  30.372  1.00  0.00     0.010 A 
ATOM     36  C   UNL A   1      39.392  29.618  28.101  1.00  0.00     0.010 A 
ATOM     37  C   UNL A   1      40.465  29.467  28.995  1.00  0.00    -0.014 A 
BRANCH  37  38
ATOM     38  C   UNL A   1      41.818  29.125  28.477  1.00  0.00     0.031 A 
ATOM     39  C   UNL A   1      42.140  27.720  28.043  1.00  0.00     0.074 A 
ATOM     40  C   UNL A   1      42.783  30.067  28.468  1.00  0.00     0.049 A 
ATOM     41  N   UNL A   1      43.279  27.225  27.633  1.00  0.00    -0.248 NA
ATOM     42  C   UNL A   1      41.044  26.739  28.095  1.00  0.00     0.031 C 
ATOM     43  C   UNL A   1      42.614  31.457  28.900  1.00  0.00     0.029 A 
ATOM     44  N   UNL A   1      44.103  29.998  28.092  1.00  0.00    -0.354 N 
ATOM     45  C   UNL A   1      43.047  25.875  27.399  1.00  0.00     0.074 A 
ATOM     46  C   UNL A   1      41.666  25.620  27.749  1.00  0.00     0.031 C 
ATOM     47  C   UNL A   1      43.777  32.111  28.750  1.00  0.00     0.029 A 
ATOM     48  C   UNL A   1      44.787  31.181  28.254  1.00  0.00     0.049 A 
ATOM     49  H   UNL A   1      44.520  29.179  27.740  1.00  0.00     0.167 HD
ATOM     50  C   UNL A   1      43.900  24.935  26.924  1.00  0.00     0.031 A 
ATOM     51  C   UNL A   1      46.083  31.484  28.044  1.00  0.00     0.031 A 
ATOM     52  C   UNL A   1      45.270  25.194  26.567  1.00  0.00     0.049 A 
ATOM     53  C   UNL A   1      47.014  30.420  27.528  1.00  0.00     0.074 A 
ATOM     54  C   UNL A   1      46.191  24.322  26.012  1.00  0.00     0.029 A 
ATOM     55  N   UNL A   1      45.920  26.407  26.733  1.00  0.00    -0.354 N 
ATOM     56  N   UNL A   1      46.752  29.168  27.239  1.00  0.00    -0.248 NA
ATOM     57  C   UNL A   1      48.412  30.812  27.300  1.00  0.00     0.031 C 
ATOM     58  C   UNL A   1      47.414  24.990  25.900  1.00  0.00     0.029 A 
ATOM     59  C   UNL A   1      47.238  26.298  26.323  1.00  0.00     0.049 A 
ATOM     60  H   UNL A   1      45.505  27.225  27.090  1.00  0.00     0.167 HD
ATOM     61  C   UNL A   1      47.946  28.630  26.773  1.00  0.00     0.074 A 
ATOM     62  C   UNL A   1      48.926  29.696  26.802  1.00  0.00     0.031 C 
ATOM     63  C   UNL A   1      48.206  27.366  26.357  1.00  0.00     0.031 A 
BRANCH  50  64
ATOM     64  C   UNL A   1      43.381  23.528  26.774  1.00  0.00    -0.014 A 
ATOM     65  C   UNL A   1      42.945  23.040  25.528  1.00  0.00     0.010 A 
ATOM     66  C   UNL A   1      43.383  22.662  27.883  1.00  0.00     0.010 A 
ATOM     67  C   UNL A   1      42.487  21.726  25.403  1.00  0.00     0.020 A 
ATOM     68  C   UNL A   1      42.953  21.338  27.756  1.00  0.00     0.020 A 
ATOM     69  C   UNL A   1      42.493  20.884  26.520  1.00  0.00     0.054 A 
BRANCH  69  70
ATOM     70  S   UNL A   1      41.920  19.173  26.321  1.00  0.00     0.124 S 
ATOM     71  O   UNL A   1      42.855  18.657  25.323  1.00  0.00    -0.237 OA
ATOM     72  O   UNL A   1      42.072  18.626  27.666  1.00  0.00    -0.237 OA
ATOM     73  O   UNL A   1      40.541  19.320  25.863  1.00  0.00    -0.744 OA
ENDBRANCH  69  70
ENDBRANCH  50  64
BRANCH  51  74
ATOM     74  C   UNL A   1      46.581  32.859  28.329  1.00  0.00    -0.014 A 
ATOM     75  C   UNL A   1      47.014  33.212  29.619  1.00  0.00     0.010 A 
ATOM     76  C   UNL A   1      46.631  33.823  27.305  1.00  0.00     0.010 A 
ATOM     77  C   UNL A   1      47.469  34.508  29.884  1.00  0.00     0.020 A 
ATOM     78  C   UNL A   1      47.114  35.109  27.558  1.00  0.00     0.020 A 
ATOM     79  C   UNL A   1      47.518  35.448  28.851  1.00  0.00     0.054 A 
BRANCH  79  80
ATOM     80  S   UNL A   1      48.158  37.109  29.206  1.00  0.00     0.124 S 
ATOM     81  O   UNL A   1      49.025  37.352  28.057  1.00  0.00    -0.237 OA
ATOM     82  O   UNL A   1      46.939  37.911  29.261  1.00  0.00    -0.237 OA
ATOM     83  O   UNL A   1      48.845  36.944  30.486  1.00  0.00    -0.744 OA
ENDBRANCH  79  80
ENDBRANCH  51  74
BRANCH  63  84
ATOM     84  C   UNL A   1      49.599  27.064  25.871  1.00  0.00    -0.014 A 
ATOM     85  C   UNL A   1      50.560  26.485  26.718  1.00  0.00     0.010 A 
ATOM     86  C   UNL A   1      49.931  27.306  24.525  1.00  0.00     0.010 A 
ATOM     87  C   UNL A   1      51.834  26.177  26.236  1.00  0.00     0.020 A 
ATOM     88  C   UNL A   1      51.195  26.973  24.030  1.00  0.00     0.020 A 
ATOM     89  C   UNL A   1      52.142  26.421  24.893  1.00  0.00     0.054 A 
BRANCH  89  90
ATOM     90  S   UNL A   1      53.786  25.962  24.278  1.00  0.00     0.124 S 
ATOM     91  O   UNL A   1      53.933  24.601  24.787  1.00  0.00    -0.237 OA
ATOM     92  O   UNL A   1      53.629  26.077  22.829  1.00  0.00    -0.237 OA
ATOM     93  O   UNL A   1      54.673  26.952  24.883  1.00  0.00    -0.744 OA
ENDBRANCH  89  90
ENDBRANCH  63  84
ENDBRANCH  37  38
ENDBRANCH  29  32
ENDBRANCH  27  28
ENDBRANCH  26  27
ENDBRANCH   1  26
TORSDOF 17
ENDMDL
