MODEL 1
REMARK VINA RESULT:     -10.8      0.000      0.000
REMARK SMILES N#Cc1ccc(N2CCC[C@@H]2CC(=O)NCCCCNC(=O)c2ccc(-c3c4nc(c(-c5ccc(S(=O)(=O)[O-])cc5)c5ccc([nH]5)c(-c5ccc(S(=O)(=O)[O-])cc5)c5nc(c(-c6ccc(S(=O)(=O)[O-])cc6)c6ccc3[nH]6)C=C5)C=C4)cc2)cc1[N+](=O)[O-]
REMARK SMILES IDX 17 1 16 2 15 3 13 4 14 5 12 7 11 8 7 9 8 10 9 11 10 12 6 13
REMARK SMILES IDX 3 14 4 15 84 16 5 17 83 18 2 19 1 20 85 21 86 22 87 23 18 24
REMARK SMILES IDX 19 25 20 26 21 27 22 29 23 30 24 31 82 32 25 33 81 34 26 35
REMARK SMILES IDX 27 36 28 37 75 38 29 39 80 40 74 41 76 42 30 43 79 44 73 45
REMARK SMILES IDX 72 46 31 48 61 49 42 50 60 51 43 52 46 53 59 54 77 55 44 56
REMARK SMILES IDX 45 57 58 59 78 60 47 61 32 62 33 63 41 64 34 65 40 66 35 67
REMARK SMILES IDX 36 68 37 69 38 70 39 71 62 72 63 73 71 74 64 75 70 76 65 77
REMARK SMILES IDX 66 78 67 79 68 80 69 81 48 82 49 83 57 84 50 85 56 86 51 87
REMARK SMILES IDX 52 88 53 89 54 90 55 91
REMARK H PARENT 15 6 20 28 76 47 46 58
REMARK Flexibility Score: inf
ROOT
ATOM      1  C   UNL A   1      31.733  27.930  26.620  1.00  0.00     0.023 C 
ENDROOT
BRANCH   1   2
ATOM      2  C   UNL A   1      31.026  26.897  25.737  1.00  0.00     0.116 C 
BRANCH   2   3
ATOM      3  N   UNL A   1      30.458  25.840  26.550  1.00  0.00    -0.356 N 
ATOM      4  C   UNL A   1      30.650  24.492  26.475  1.00  0.00     0.222 C 
ATOM      5  O   UNL A   1      29.914  23.758  27.137  1.00  0.00    -0.275 OA
ATOM      6  H   UNL A   1      29.845  26.139  27.260  1.00  0.00     0.163 HD
BRANCH   4   7
ATOM      7  C   UNL A   1      31.770  23.915  25.633  1.00  0.00     0.125 C 
BRANCH   7   8
ATOM      8  C   UNL A   1      31.339  23.449  24.231  1.00  0.00     0.091 C 
ATOM      9  N   UNL A   1      32.492  22.867  23.520  1.00  0.00    -0.368 N 
ATOM     10  C   UNL A   1      32.918  23.672  22.373  1.00  0.00     0.117 C 
ATOM     11  C   UNL A   1      32.275  25.016  22.650  1.00  0.00     0.024 C 
ATOM     12  C   UNL A   1      30.960  24.574  23.265  1.00  0.00     0.027 C 
BRANCH   9  13
ATOM     13  C   UNL A   1      33.094  21.694  23.865  1.00  0.00     0.044 A 
ATOM     14  C   UNL A   1      34.328  19.227  24.526  1.00  0.00     0.130 A 
ATOM     15  C   UNL A   1      34.975  20.449  24.767  1.00  0.00     0.029 A 
ATOM     16  C   UNL A   1      33.055  19.251  23.943  1.00  0.00     0.289 A 
ATOM     17  C   UNL A   1      34.370  21.660  24.426  1.00  0.00     0.028 A 
ATOM     18  C   UNL A   1      32.448  20.478  23.630  1.00  0.00     0.113 A 
BRANCH  14  19
ATOM     19  C   UNL A   1      35.036  18.038  24.892  1.00  0.00     0.106 C 
ATOM     20  N   UNL A   1      35.595  17.043  25.121  1.00  0.00    -0.192 NA
ENDBRANCH  14  19
BRANCH  16  21
ATOM     21  N   UNL A   1      32.302  18.033  23.619  1.00  0.00     0.064 N 
ATOM     22  O   UNL A   1      31.778  17.414  24.558  1.00  0.00    -0.258 OA
ATOM     23  O   UNL A   1      32.241  17.673  22.439  1.00  0.00    -0.258 OA
ENDBRANCH  16  21
ENDBRANCH   9  13
ENDBRANCH   7   8
ENDBRANCH   4   7
ENDBRANCH   2   3
ENDBRANCH   1   2
BRANCH   1  24
ATOM     24  C   UNL A   1      33.218  27.735  26.808  1.00  0.00     0.023 C 
BRANCH  24  25
ATOM     25  C   UNL A   1      34.056  28.838  26.213  1.00  0.00     0.116 C 
BRANCH  25  26
ATOM     26  N   UNL A   1      33.860  30.125  26.871  1.00  0.00    -0.352 N 
ATOM     27  C   UNL A   1      34.671  30.724  27.805  1.00  0.00     0.251 C 
ATOM     28  H   UNL A   1      33.050  30.623  26.617  1.00  0.00     0.163 HD
ATOM     29  O   UNL A   1      34.307  31.734  28.395  1.00  0.00    -0.269 OA
BRANCH  27  30
ATOM     30  C   UNL A   1      35.972  30.093  28.098  1.00  0.00     0.039 A 
ATOM     31  C   UNL A   1      37.014  30.211  27.183  1.00  0.00     0.014 A 
ATOM     32  C   UNL A   1      36.177  29.486  29.341  1.00  0.00     0.014 A 
ATOM     33  C   UNL A   1      38.284  29.764  27.543  1.00  0.00     0.010 A 
ATOM     34  C   UNL A   1      37.464  29.192  29.751  1.00  0.00     0.010 A 
ATOM     35  C   UNL A   1      38.525  29.285  28.842  1.00  0.00    -0.014 A 
BRANCH  35  36
ATOM     36  C   UNL A   1      39.868  28.817  29.256  1.00  0.00     0.031 A 
ATOM     37  C   UNL A   1      40.763  29.735  30.046  1.00  0.00     0.074 A 
ATOM     38  C   UNL A   1      40.298  27.595  28.889  1.00  0.00     0.049 A 
ATOM     39  N   UNL A   1      41.972  29.522  30.495  1.00  0.00    -0.248 NA
ATOM     40  C   UNL A   1      40.248  31.085  30.338  1.00  0.00     0.031 C 
ATOM     41  C   UNL A   1      39.547  26.644  28.065  1.00  0.00     0.029 A 
ATOM     42  N   UNL A   1      41.473  26.944  29.161  1.00  0.00    -0.354 N 
ATOM     43  C   UNL A   1      42.360  30.709  31.105  1.00  0.00     0.074 A 
ATOM     44  C   UNL A   1      41.300  31.665  30.889  1.00  0.00     0.031 C 
ATOM     45  C   UNL A   1      40.262  25.515  27.937  1.00  0.00     0.029 A 
ATOM     46  C   UNL A   1      41.539  25.681  28.624  1.00  0.00     0.049 A 
ATOM     47  H   UNL A   1      42.199  27.343  29.693  1.00  0.00     0.167 HD
ATOM     48  C   UNL A   1      43.481  30.973  31.815  1.00  0.00     0.031 A 
ATOM     49  C   UNL A   1      42.522  24.762  28.671  1.00  0.00     0.031 A 
ATOM     50  C   UNL A   1      44.535  30.016  32.016  1.00  0.00     0.049 A 
ATOM     51  C   UNL A   1      43.769  25.072  29.450  1.00  0.00     0.074 A 
ATOM     52  C   UNL A   1      45.694  30.155  32.756  1.00  0.00     0.029 A 
ATOM     53  N   UNL A   1      44.562  28.743  31.463  1.00  0.00    -0.354 N 
ATOM     54  N   UNL A   1      44.085  26.171  30.095  1.00  0.00    -0.248 NA
ATOM     55  C   UNL A   1      44.783  24.014  29.526  1.00  0.00     0.031 C 
ATOM     56  C   UNL A   1      46.458  28.996  32.587  1.00  0.00     0.029 A 
ATOM     57  C   UNL A   1      45.734  28.098  31.816  1.00  0.00     0.049 A 
ATOM     58  H   UNL A   1      43.851  28.356  30.902  1.00  0.00     0.167 HD
ATOM     59  C   UNL A   1      45.325  25.929  30.676  1.00  0.00     0.074 A 
ATOM     60  C   UNL A   1      45.689  24.571  30.319  1.00  0.00     0.031 C 
ATOM     61  C   UNL A   1      46.089  26.751  31.438  1.00  0.00     0.031 A 
BRANCH  48  62
ATOM     62  C   UNL A   1      43.620  32.359  32.394  1.00  0.00    -0.014 A 
ATOM     63  C   UNL A   1      43.205  32.652  33.709  1.00  0.00     0.010 A 
ATOM     64  C   UNL A   1      44.156  33.392  31.607  1.00  0.00     0.010 A 
ATOM     65  C   UNL A   1      43.255  33.961  34.195  1.00  0.00     0.020 A 
ATOM     66  C   UNL A   1      44.249  34.696  32.104  1.00  0.00     0.020 A 
ATOM     67  C   UNL A   1      43.771  34.976  33.386  1.00  0.00     0.054 A 
BRANCH  67  68
ATOM     68  S   UNL A   1      43.809  36.668  34.036  1.00  0.00     0.124 S 
ATOM     69  O   UNL A   1      42.386  36.990  34.118  1.00  0.00    -0.237 OA
ATOM     70  O   UNL A   1      44.489  36.501  35.317  1.00  0.00    -0.237 OA
ATOM     71  O   UNL A   1      44.558  37.412  33.027  1.00  0.00    -0.744 OA
ENDBRANCH  67  68
ENDBRANCH  48  62
BRANCH  49  72
ATOM     72  C   UNL A   1      42.346  23.467  27.957  1.00  0.00    -0.014 A 
ATOM     73  C   UNL A   1      42.918  23.251  26.691  1.00  0.00     0.010 A 
ATOM     74  C   UNL A   1      41.648  22.415  28.578  1.00  0.00     0.010 A 
ATOM     75  C   UNL A   1      42.796  22.007  26.062  1.00  0.00     0.020 A 
ATOM     76  C   UNL A   1      41.552  21.163  27.969  1.00  0.00     0.020 A 
ATOM     77  C   UNL A   1      42.125  20.967  26.712  1.00  0.00     0.054 A 
BRANCH  77  78
ATOM     78  S   UNL A   1      42.061  19.336  25.920  1.00  0.00     0.124 S 
ATOM     79  O   UNL A   1      42.598  18.469  26.963  1.00  0.00    -0.237 OA
ATOM     80  O   UNL A   1      40.636  19.182  25.639  1.00  0.00    -0.237 OA
ATOM     81  O   UNL A   1      42.907  19.495  24.739  1.00  0.00    -0.744 OA
ENDBRANCH  77  78
ENDBRANCH  49  72
BRANCH  61  82
ATOM     82  C   UNL A   1      47.385  26.195  31.972  1.00  0.00    -0.014 A 
ATOM     83  C   UNL A   1      47.451  25.543  33.216  1.00  0.00     0.010 A 
ATOM     84  C   UNL A   1      48.549  26.290  31.187  1.00  0.00     0.010 A 
ATOM     85  C   UNL A   1      48.667  25.034  33.683  1.00  0.00     0.020 A 
ATOM     86  C   UNL A   1      49.756  25.749  31.632  1.00  0.00     0.020 A 
ATOM     87  C   UNL A   1      49.811  25.141  32.887  1.00  0.00     0.054 A 
BRANCH  87  88
ATOM     88  S   UNL A   1      51.368  24.447  33.503  1.00  0.00     0.124 S 
ATOM     89  O   UNL A   1      51.881  23.755  32.324  1.00  0.00    -0.237 OA
ATOM     90  O   UNL A   1      52.110  25.639  33.905  1.00  0.00    -0.237 OA
ATOM     91  O   UNL A   1      50.951  23.579  34.602  1.00  0.00    -0.744 OA
ENDBRANCH  87  88
ENDBRANCH  61  82
ENDBRANCH  35  36
ENDBRANCH  27  30
ENDBRANCH  25  26
ENDBRANCH  24  25
ENDBRANCH   1  24
TORSDOF 18
ENDMDL
MODEL 2
REMARK VINA RESULT:     -10.6      2.588      9.043
REMARK SMILES N#Cc1ccc(N2CCC[C@@H]2CC(=O)NCCCCNC(=O)c2ccc(-c3c4nc(c(-c5ccc(S(=O)(=O)[O-])cc5)c5ccc([nH]5)c(-c5ccc(S(=O)(=O)[O-])cc5)c5nc(c(-c6ccc(S(=O)(=O)[O-])cc6)c6ccc3[nH]6)C=C5)C=C4)cc2)cc1[N+](=O)[O-]
REMARK SMILES IDX 17 1 16 2 15 3 13 4 14 5 12 7 11 8 7 9 8 10 9 11 10 12 6 13
REMARK SMILES IDX 3 14 4 15 84 16 5 17 83 18 2 19 1 20 85 21 86 22 87 23 18 24
REMARK SMILES IDX 19 25 20 26 21 27 22 29 23 30 24 31 82 32 25 33 81 34 26 35
REMARK SMILES IDX 27 36 28 37 75 38 29 39 80 40 74 41 76 42 30 43 79 44 73 45
REMARK SMILES IDX 72 46 31 48 61 49 42 50 60 51 43 52 46 53 59 54 77 55 44 56
REMARK SMILES IDX 45 57 58 59 78 60 47 61 32 62 33 63 41 64 34 65 40 66 35 67
REMARK SMILES IDX 36 68 37 69 38 70 39 71 62 72 63 73 71 74 64 75 70 76 65 77
REMARK SMILES IDX 66 78 67 79 68 80 69 81 48 82 49 83 57 84 50 85 56 86 51 87
REMARK SMILES IDX 52 88 53 89 54 90 55 91
REMARK H PARENT 15 6 20 28 76 47 46 58
REMARK Flexibility Score: inf
ROOT
ATOM      1  C   UNL A   1      39.190  22.786  26.346  1.00  0.00     0.023 C 
ENDROOT
BRANCH   1   2
ATOM      2  C   UNL A   1      37.852  23.499  26.120  1.00  0.00     0.116 C 
BRANCH   2   3
ATOM      3  N   UNL A   1      37.519  23.515  24.710  1.00  0.00    -0.356 N 
ATOM      4  C   UNL A   1      36.397  23.062  24.080  1.00  0.00     0.222 C 
ATOM      5  O   UNL A   1      36.404  22.993  22.850  1.00  0.00    -0.275 OA
ATOM      6  H   UNL A   1      38.201  23.910  24.121  1.00  0.00     0.163 HD
BRANCH   4   7
ATOM      7  C   UNL A   1      35.158  22.697  24.873  1.00  0.00     0.125 C 
BRANCH   7   8
ATOM      8  C   UNL A   1      34.148  21.822  24.111  1.00  0.00     0.091 C 
ATOM      9  N   UNL A   1      32.776  22.289  24.379  1.00  0.00    -0.368 N 
ATOM     10  C   UNL A   1      31.989  21.326  25.153  1.00  0.00     0.117 C 
ATOM     11  C   UNL A   1      33.052  20.425  25.747  1.00  0.00     0.024 C 
ATOM     12  C   UNL A   1      34.047  20.376  24.603  1.00  0.00     0.027 C 
BRANCH   9  13
ATOM     13  C   UNL A   1      32.271  23.477  23.942  1.00  0.00     0.044 A 
ATOM     14  C   UNL A   1      31.229  25.929  22.969  1.00  0.00     0.130 A 
ATOM     15  C   UNL A   1      30.585  25.226  23.999  1.00  0.00     0.029 A 
ATOM     16  C   UNL A   1      32.400  25.389  22.424  1.00  0.00     0.289 A 
ATOM     17  C   UNL A   1      31.093  24.011  24.464  1.00  0.00     0.028 A 
ATOM     18  C   UNL A   1      32.914  24.180  22.921  1.00  0.00     0.113 A 
BRANCH  14  19
ATOM     19  C   UNL A   1      30.622  27.156  22.547  1.00  0.00     0.106 C 
ATOM     20  N   UNL A   1      30.192  28.165  22.162  1.00  0.00    -0.192 NA
ENDBRANCH  14  19
BRANCH  16  21
ATOM     21  N   UNL A   1      33.136  26.024  21.324  1.00  0.00     0.064 N 
ATOM     22  O   UNL A   1      33.831  27.016  21.594  1.00  0.00    -0.258 OA
ATOM     23  O   UNL A   1      33.017  25.558  20.187  1.00  0.00    -0.258 OA
ENDBRANCH  16  21
ENDBRANCH   9  13
ENDBRANCH   7   8
ENDBRANCH   4   7
ENDBRANCH   2   3
ENDBRANCH   1   2
BRANCH   1  24
ATOM     24  C   UNL A   1      39.326  21.420  25.718  1.00  0.00     0.023 C 
BRANCH  24  25
ATOM     25  C   UNL A   1      40.013  20.410  26.601  1.00  0.00     0.116 C 
BRANCH  25  26
ATOM     26  N   UNL A   1      41.227  19.862  26.008  1.00  0.00    -0.352 N 
ATOM     27  C   UNL A   1      42.467  20.452  25.936  1.00  0.00     0.251 C 
ATOM     28  H   UNL A   1      41.150  18.965  25.612  1.00  0.00     0.163 HD
ATOM     29  O   UNL A   1      43.362  19.948  25.269  1.00  0.00    -0.269 OA
BRANCH  27  30
ATOM     30  C   UNL A   1      42.671  21.725  26.653  1.00  0.00     0.039 A 
ATOM     31  C   UNL A   1      42.951  22.882  25.932  1.00  0.00     0.014 A 
ATOM     32  C   UNL A   1      42.464  21.776  28.035  1.00  0.00     0.014 A 
ATOM     33  C   UNL A   1      42.970  24.106  26.598  1.00  0.00     0.010 A 
ATOM     34  C   UNL A   1      42.327  23.002  28.658  1.00  0.00     0.010 A 
ATOM     35  C   UNL A   1      42.623  24.178  27.958  1.00  0.00    -0.014 A 
BRANCH  35  36
ATOM     36  C   UNL A   1      42.621  25.468  28.687  1.00  0.00     0.031 A 
ATOM     37  C   UNL A   1      43.815  25.850  29.522  1.00  0.00     0.074 A 
ATOM     38  C   UNL A   1      41.541  26.269  28.634  1.00  0.00     0.049 A 
ATOM     39  N   UNL A   1      44.007  26.925  30.241  1.00  0.00    -0.248 NA
ATOM     40  C   UNL A   1      44.923  24.881  29.590  1.00  0.00     0.031 C 
ATOM     41  C   UNL A   1      40.299  25.973  27.914  1.00  0.00     0.029 A 
ATOM     42  N   UNL A   1      41.313  27.498  29.198  1.00  0.00    -0.354 N 
ATOM     43  C   UNL A   1      45.245  26.750  30.851  1.00  0.00     0.074 A 
ATOM     44  C   UNL A   1      45.714  25.433  30.494  1.00  0.00     0.031 C 
ATOM     45  C   UNL A   1      39.459  27.012  28.044  1.00  0.00     0.029 A 
ATOM     46  C   UNL A   1      40.079  28.022  28.896  1.00  0.00     0.049 A 
ATOM     47  H   UNL A   1      41.972  27.961  29.764  1.00  0.00     0.167 HD
ATOM     48  C   UNL A   1      45.947  27.622  31.610  1.00  0.00     0.031 A 
ATOM     49  C   UNL A   1      39.507  29.182  29.270  1.00  0.00     0.031 A 
ATOM     50  C   UNL A   1      45.467  28.929  31.967  1.00  0.00     0.049 A 
ATOM     51  C   UNL A   1      40.293  30.135  30.127  1.00  0.00     0.074 A 
ATOM     52  C   UNL A   1      46.110  29.914  32.691  1.00  0.00     0.029 A 
ATOM     53  N   UNL A   1      44.214  29.428  31.635  1.00  0.00    -0.354 N 
ATOM     54  N   UNL A   1      41.498  29.992  30.626  1.00  0.00    -0.248 NA
ATOM     55  C   UNL A   1      39.651  31.414  30.454  1.00  0.00     0.031 C 
ATOM     56  C   UNL A   1      45.219  30.978  32.863  1.00  0.00     0.029 A 
ATOM     57  C   UNL A   1      44.052  30.694  32.169  1.00  0.00     0.049 A 
ATOM     58  H   UNL A   1      43.541  28.950  31.098  1.00  0.00     0.167 HD
ATOM     59  C   UNL A   1      41.771  31.173  31.307  1.00  0.00     0.074 A 
ATOM     60  C   UNL A   1      40.610  32.025  31.137  1.00  0.00     0.031 C 
ATOM     61  C   UNL A   1      42.881  31.522  32.004  1.00  0.00     0.031 A 
BRANCH  48  62
ATOM     62  C   UNL A   1      47.292  27.165  32.117  1.00  0.00    -0.014 A 
ATOM     63  C   UNL A   1      48.473  27.397  31.384  1.00  0.00     0.010 A 
ATOM     64  C   UNL A   1      47.378  26.473  33.339  1.00  0.00     0.010 A 
ATOM     65  C   UNL A   1      49.696  26.884  31.825  1.00  0.00     0.020 A 
ATOM     66  C   UNL A   1      48.607  25.996  33.805  1.00  0.00     0.020 A 
ATOM     67  C   UNL A   1      49.753  26.181  33.030  1.00  0.00     0.054 A 
BRANCH  67  68
ATOM     68  S   UNL A   1      51.350  25.513  33.569  1.00  0.00     0.124 S 
ATOM     69  O   UNL A   1      52.112  25.513  32.323  1.00  0.00    -0.237 OA
ATOM     70  O   UNL A   1      51.781  26.486  34.569  1.00  0.00    -0.237 OA
ATOM     71  O   UNL A   1      51.015  24.191  34.093  1.00  0.00    -0.744 OA
ENDBRANCH  67  68
ENDBRANCH  48  62
BRANCH  49  72
ATOM     72  C   UNL A   1      38.120  29.489  28.824  1.00  0.00    -0.014 A 
ATOM     73  C   UNL A   1      37.857  29.922  27.514  1.00  0.00     0.010 A 
ATOM     74  C   UNL A   1      37.041  29.287  29.706  1.00  0.00     0.010 A 
ATOM     75  C   UNL A   1      36.541  30.146  27.093  1.00  0.00     0.020 A 
ATOM     76  C   UNL A   1      35.726  29.476  29.280  1.00  0.00     0.020 A 
ATOM     77  C   UNL A   1      35.483  29.908  27.975  1.00  0.00     0.054 A 
BRANCH  77  78
ATOM     78  S   UNL A   1      33.783  30.112  27.379  1.00  0.00     0.124 S 
ATOM     79  O   UNL A   1      33.111  28.959  27.969  1.00  0.00    -0.237 OA
ATOM     80  O   UNL A   1      33.413  31.412  27.932  1.00  0.00    -0.237 OA
ATOM     81  O   UNL A   1      33.923  30.080  25.925  1.00  0.00    -0.744 OA
ENDBRANCH  77  78
ENDBRANCH  49  72
BRANCH  61  82
ATOM     82  C   UNL A   1      42.914  32.903  32.609  1.00  0.00    -0.014 A 
ATOM     83  C   UNL A   1      43.365  34.017  31.881  1.00  0.00     0.010 A 
ATOM     84  C   UNL A   1      42.437  33.090  33.920  1.00  0.00     0.010 A 
ATOM     85  C   UNL A   1      43.380  35.286  32.468  1.00  0.00     0.020 A 
ATOM     86  C   UNL A   1      42.413  34.361  34.497  1.00  0.00     0.020 A 
ATOM     87  C   UNL A   1      42.902  35.449  33.773  1.00  0.00     0.054 A 
BRANCH  87  88
ATOM     88  S   UNL A   1      42.905  37.109  34.500  1.00  0.00     0.124 S 
ATOM     89  O   UNL A   1      43.215  37.947  33.346  1.00  0.00    -0.237 OA
ATOM     90  O   UNL A   1      41.545  37.231  35.019  1.00  0.00    -0.237 OA
ATOM     91  O   UNL A   1      43.952  37.041  35.518  1.00  0.00    -0.744 OA
ENDBRANCH  87  88
ENDBRANCH  61  82
ENDBRANCH  35  36
ENDBRANCH  27  30
ENDBRANCH  25  26
ENDBRANCH  24  25
ENDBRANCH   1  24
TORSDOF 18
ENDMDL
MODEL 3
REMARK VINA RESULT:     -10.6      4.289      9.840
REMARK SMILES N#Cc1ccc(N2CCC[C@@H]2CC(=O)NCCCCNC(=O)c2ccc(-c3c4nc(c(-c5ccc(S(=O)(=O)[O-])cc5)c5ccc([nH]5)c(-c5ccc(S(=O)(=O)[O-])cc5)c5nc(c(-c6ccc(S(=O)(=O)[O-])cc6)c6ccc3[nH]6)C=C5)C=C4)cc2)cc1[N+](=O)[O-]
REMARK SMILES IDX 17 1 16 2 15 3 13 4 14 5 12 7 11 8 7 9 8 10 9 11 10 12 6 13
REMARK SMILES IDX 3 14 4 15 84 16 5 17 83 18 2 19 1 20 85 21 86 22 87 23 18 24
REMARK SMILES IDX 19 25 20 26 21 27 22 29 23 30 24 31 82 32 25 33 81 34 26 35
REMARK SMILES IDX 27 36 28 37 75 38 29 39 80 40 74 41 76 42 30 43 79 44 73 45
REMARK SMILES IDX 72 46 31 48 61 49 42 50 60 51 43 52 46 53 59 54 77 55 44 56
REMARK SMILES IDX 45 57 58 59 78 60 47 61 32 62 33 63 41 64 34 65 40 66 35 67
REMARK SMILES IDX 36 68 37 69 38 70 39 71 62 72 63 73 71 74 64 75 70 76 65 77
REMARK SMILES IDX 66 78 67 79 68 80 69 81 48 82 49 83 57 84 50 85 56 86 51 87
REMARK SMILES IDX 52 88 53 89 54 90 55 91
REMARK H PARENT 15 6 20 28 76 47 46 58
REMARK Flexibility Score: inf
ROOT
ATOM      1  C   UNL A   1      39.652  23.174  26.705  1.00  0.00     0.023 C 
ENDROOT
BRANCH   1   2
ATOM      2  C   UNL A   1      38.395  24.021  26.480  1.00  0.00     0.116 C 
BRANCH   2   3
ATOM      3  N   UNL A   1      37.844  23.769  25.163  1.00  0.00    -0.356 N 
ATOM      4  C   UNL A   1      36.552  23.529  24.797  1.00  0.00     0.222 C 
ATOM      5  O   UNL A   1      36.332  23.143  23.648  1.00  0.00    -0.275 OA
ATOM      6  H   UNL A   1      38.496  23.771  24.427  1.00  0.00     0.163 HD
BRANCH   4   7
ATOM      7  C   UNL A   1      35.414  23.777  25.766  1.00  0.00     0.125 C 
BRANCH   7   8
ATOM      8  C   UNL A   1      34.228  22.808  25.617  1.00  0.00     0.091 C 
ATOM      9  N   UNL A   1      32.966  23.511  25.912  1.00  0.00    -0.368 N 
ATOM     10  C   UNL A   1      32.321  23.031  27.136  1.00  0.00     0.117 C 
ATOM     11  C   UNL A   1      33.446  22.305  27.845  1.00  0.00     0.024 C 
ATOM     12  C   UNL A   1      34.171  21.692  26.662  1.00  0.00     0.027 C 
BRANCH   9  13
ATOM     13  C   UNL A   1      32.431  24.490  25.128  1.00  0.00     0.044 A 
ATOM     14  C   UNL A   1      31.324  26.485  23.444  1.00  0.00     0.130 A 
ATOM     15  C   UNL A   1      30.746  26.183  24.686  1.00  0.00     0.029 A 
ATOM     16  C   UNL A   1      32.462  25.772  23.047  1.00  0.00     0.289 A 
ATOM     17  C   UNL A   1      31.286  25.189  25.506  1.00  0.00     0.028 A 
ATOM     18  C   UNL A   1      33.009  24.794  23.893  1.00  0.00     0.113 A 
BRANCH  14  19
ATOM     19  C   UNL A   1      30.689  27.506  22.667  1.00  0.00     0.106 C 
ATOM     20  N   UNL A   1      30.224  28.322  21.980  1.00  0.00    -0.192 NA
ENDBRANCH  14  19
BRANCH  16  21
ATOM     21  N   UNL A   1      33.128  25.985  21.756  1.00  0.00     0.064 N 
ATOM     22  O   UNL A   1      33.816  27.009  21.626  1.00  0.00    -0.258 OA
ATOM     23  O   UNL A   1      32.960  25.151  20.861  1.00  0.00    -0.258 OA
ENDBRANCH  16  21
ENDBRANCH   9  13
ENDBRANCH   7   8
ENDBRANCH   4   7
ENDBRANCH   2   3
ENDBRANCH   1   2
BRANCH   1  24
ATOM     24  C   UNL A   1      39.611  21.769  26.154  1.00  0.00     0.023 C 
BRANCH  24  25
ATOM     25  C   UNL A   1      40.316  20.756  27.020  1.00  0.00     0.116 C 
BRANCH  25  26
ATOM     26  N   UNL A   1      41.177  19.856  26.263  1.00  0.00    -0.352 N 
ATOM     27  C   UNL A   1      42.394  20.140  25.691  1.00  0.00     0.251 C 
ATOM     28  H   UNL A   1      40.848  18.935  26.148  1.00  0.00     0.163 HD
ATOM     29  O   UNL A   1      42.939  19.335  24.946  1.00  0.00    -0.269 OA
BRANCH  27  30
ATOM     30  C   UNL A   1      43.000  21.456  25.971  1.00  0.00     0.039 A 
ATOM     31  C   UNL A   1      43.020  22.428  24.975  1.00  0.00     0.014 A 
ATOM     32  C   UNL A   1      43.440  21.748  27.265  1.00  0.00     0.014 A 
ATOM     33  C   UNL A   1      43.435  23.719  25.299  1.00  0.00     0.010 A 
ATOM     34  C   UNL A   1      43.696  23.061  27.617  1.00  0.00     0.010 A 
ATOM     35  C   UNL A   1      43.741  24.052  26.630  1.00  0.00    -0.014 A 
BRANCH  35  36
ATOM     36  C   UNL A   1      44.170  25.420  27.004  1.00  0.00     0.031 A 
ATOM     37  C   UNL A   1      45.596  25.842  26.763  1.00  0.00     0.074 A 
ATOM     38  C   UNL A   1      43.300  26.261  27.593  1.00  0.00     0.049 A 
ATOM     39  N   UNL A   1      46.172  26.985  27.026  1.00  0.00    -0.248 NA
ATOM     40  C   UNL A   1      46.505  24.834  26.188  1.00  0.00     0.031 C 
ATOM     41  C   UNL A   1      41.912  25.941  27.938  1.00  0.00     0.029 A 
ATOM     42  N   UNL A   1      43.454  27.559  28.006  1.00  0.00    -0.354 N 
ATOM     43  C   UNL A   1      47.504  26.826  26.661  1.00  0.00     0.074 A 
ATOM     44  C   UNL A   1      47.671  25.453  26.247  1.00  0.00     0.031 C 
ATOM     45  C   UNL A   1      41.331  27.028  28.471  1.00  0.00     0.029 A 
ATOM     46  C   UNL A   1      42.316  28.103  28.551  1.00  0.00     0.049 A 
ATOM     47  H   UNL A   1      44.301  28.055  27.918  1.00  0.00     0.167 HD
ATOM     48  C   UNL A   1      48.494  27.748  26.635  1.00  0.00     0.031 A 
ATOM     49  C   UNL A   1      42.092  29.327  29.065  1.00  0.00     0.031 A 
ATOM     50  C   UNL A   1      48.319  29.111  27.057  1.00  0.00     0.049 A 
ATOM     51  C   UNL A   1      43.204  30.337  29.045  1.00  0.00     0.074 A 
ATOM     52  C   UNL A   1      49.236  30.144  27.032  1.00  0.00     0.029 A 
ATOM     53  N   UNL A   1      47.147  29.626  27.596  1.00  0.00    -0.354 N 
ATOM     54  N   UNL A   1      44.437  30.196  28.616  1.00  0.00    -0.248 NA
ATOM     55  C   UNL A   1      42.891  31.676  29.557  1.00  0.00     0.031 C 
ATOM     56  C   UNL A   1      48.644  31.264  27.625  1.00  0.00     0.029 A 
ATOM     57  C   UNL A   1      47.328  30.954  27.938  1.00  0.00     0.049 A 
ATOM     58  H   UNL A   1      46.311  29.120  27.715  1.00  0.00     0.167 HD
ATOM     59  C   UNL A   1      45.042  31.437  28.784  1.00  0.00     0.074 A 
ATOM     60  C   UNL A   1      44.030  32.318  29.336  1.00  0.00     0.031 C 
ATOM     61  C   UNL A   1      46.315  31.814  28.503  1.00  0.00     0.031 A 
BRANCH  48  62
ATOM     62  C   UNL A   1      49.850  27.290  26.157  1.00  0.00    -0.014 A 
ATOM     63  C   UNL A   1      50.246  27.442  24.813  1.00  0.00     0.010 A 
ATOM     64  C   UNL A   1      50.737  26.680  27.061  1.00  0.00     0.010 A 
ATOM     65  C   UNL A   1      51.467  26.928  24.370  1.00  0.00     0.020 A 
ATOM     66  C   UNL A   1      51.979  26.203  26.631  1.00  0.00     0.020 A 
ATOM     67  C   UNL A   1      52.323  26.305  25.282  1.00  0.00     0.054 A 
BRANCH  67  68
ATOM     68  S   UNL A   1      53.894  25.632  24.676  1.00  0.00     0.124 S 
ATOM     69  O   UNL A   1      53.687  24.195  24.836  1.00  0.00    -0.237 OA
ATOM     70  O   UNL A   1      53.933  26.111  23.296  1.00  0.00    -0.237 OA
ATOM     71  O   UNL A   1      54.891  26.220  25.566  1.00  0.00    -0.744 OA
ENDBRANCH  67  68
ENDBRANCH  48  62
BRANCH  49  72
ATOM     72  C   UNL A   1      40.753  29.645  29.634  1.00  0.00    -0.014 A 
ATOM     73  C   UNL A   1      40.533  29.637  31.022  1.00  0.00     0.010 A 
ATOM     74  C   UNL A   1      39.701  30.021  28.778  1.00  0.00     0.010 A 
ATOM     75  C   UNL A   1      39.286  30.000  31.543  1.00  0.00     0.020 A 
ATOM     76  C   UNL A   1      38.466  30.416  29.295  1.00  0.00     0.020 A 
ATOM     77  C   UNL A   1      38.264  30.400  30.676  1.00  0.00     0.054 A 
BRANCH  77  78
ATOM     78  S   UNL A   1      36.688  30.958  31.378  1.00  0.00     0.124 S 
ATOM     79  O   UNL A   1      35.861  31.114  30.186  1.00  0.00    -0.237 OA
ATOM     80  O   UNL A   1      36.329  29.849  32.258  1.00  0.00    -0.237 OA
ATOM     81  O   UNL A   1      37.038  32.199  32.065  1.00  0.00    -0.744 OA
ENDBRANCH  77  78
ENDBRANCH  49  72
BRANCH  61  82
ATOM     82  C   UNL A   1      46.682  33.254  28.752  1.00  0.00    -0.014 A 
ATOM     83  C   UNL A   1      46.493  34.244  27.772  1.00  0.00     0.010 A 
ATOM     84  C   UNL A   1      47.183  33.627  30.014  1.00  0.00     0.010 A 
ATOM     85  C   UNL A   1      46.840  35.573  28.035  1.00  0.00     0.020 A 
ATOM     86  C   UNL A   1      47.493  34.959  30.294  1.00  0.00     0.020 A 
ATOM     87  C   UNL A   1      47.337  35.921  29.295  1.00  0.00     0.054 A 
BRANCH  87  88
ATOM     88  S   UNL A   1      47.752  37.656  29.619  1.00  0.00     0.124 S 
ATOM     89  O   UNL A   1      47.120  38.335  28.492  1.00  0.00    -0.237 OA
ATOM     90  O   UNL A   1      47.135  37.893  30.921  1.00  0.00    -0.237 OA
ATOM     91  O   UNL A   1      49.213  37.671  29.615  1.00  0.00    -0.744 OA
ENDBRANCH  87  88
ENDBRANCH  61  82
ENDBRANCH  35  36
ENDBRANCH  27  30
ENDBRANCH  25  26
ENDBRANCH  24  25
ENDBRANCH   1  24
TORSDOF 18
ENDMDL
