MODEL 1
REMARK VINA RESULT:     -10.5      0.000      0.000
REMARK SMILES CCCN(CCC)c1cc(C(=O)NCCCCNC(=O)c2ccc(-c3c4nc(c(-c5ccc(S(=O)(=O)[O-])cc5)c5ccc([nH]5)c(-c5ccc(S(=O)(=O)[O-])cc5)c5nc(c(-c6ccc(S(=O)(=O)[O-])cc6)c6ccc3[nH]6)C=C5)C=C4)cc2)cc(C(F)(F)F)c1
REMARK SMILES IDX 15 1 14 2 13 3 11 4 12 5 10 7 8 8 9 9 87 10 82 11 81 12 4 13
REMARK SMILES IDX 3 14 2 15 1 16 5 17 6 18 7 19 83 20 84 21 85 22 86 23 16 24
REMARK SMILES IDX 17 25 18 26 19 27 20 29 21 30 22 31 80 32 23 33 79 34 24 35
REMARK SMILES IDX 25 36 26 37 73 38 27 39 78 40 72 41 74 42 28 43 77 44 71 45
REMARK SMILES IDX 70 46 29 48 59 49 40 50 58 51 41 52 44 53 57 54 75 55 42 56
REMARK SMILES IDX 43 57 56 59 76 60 45 61 30 62 31 63 39 64 32 65 38 66 33 67
REMARK SMILES IDX 34 68 35 69 36 70 37 71 60 72 61 73 69 74 62 75 68 76 63 77
REMARK SMILES IDX 64 78 65 79 66 80 67 81 46 82 47 83 55 84 48 85 54 86 49 87
REMARK SMILES IDX 50 88 51 89 52 90 53 91
REMARK H PARENT 13 6 18 28 74 47 44 58
REMARK Flexibility Score: inf
ROOT
ATOM      1  C   UNL A   1      38.945  23.786  26.635  1.00  0.00     0.023 C 
ENDROOT
BRANCH   1   2
ATOM      2  C   UNL A   1      37.610  23.377  26.032  1.00  0.00     0.116 C 
BRANCH   2   3
ATOM      3  N   UNL A   1      37.565  23.263  24.583  1.00  0.00    -0.352 N 
ATOM      4  C   UNL A   1      36.490  22.976  23.763  1.00  0.00     0.251 C 
ATOM      5  O   UNL A   1      36.633  22.963  22.545  1.00  0.00    -0.269 OA
ATOM      6  H   UNL A   1      38.421  23.413  24.121  1.00  0.00     0.163 HD
BRANCH   4   7
ATOM      7  C   UNL A   1      35.188  22.567  24.358  1.00  0.00     0.042 A 
ATOM      8  C   UNL A   1      32.909  23.305  24.876  1.00  0.00     0.038 A 
ATOM      9  C   UNL A   1      34.262  23.580  24.654  1.00  0.00     0.039 A 
ATOM     10  C   UNL A   1      32.547  21.956  24.832  1.00  0.00     0.039 A 
ATOM     11  C   UNL A   1      33.463  20.919  24.600  1.00  0.00     0.058 A 
ATOM     12  C   UNL A   1      34.811  21.234  24.458  1.00  0.00     0.027 A 
BRANCH   8  13
ATOM     13  N   UNL A   1      31.956  24.302  25.036  1.00  0.00    -0.372 N 
BRANCH  13  14
ATOM     14  C   UNL A   1      32.332  25.723  24.992  1.00  0.00     0.116 C 
BRANCH  14  15
ATOM     15  C   UNL A   1      31.796  26.563  26.166  1.00  0.00     0.018 C 
ATOM     16  C   UNL A   1      31.944  28.073  26.019  1.00  0.00     0.006 C 
ENDBRANCH  14  15
ENDBRANCH  13  14
BRANCH  13  17
ATOM     17  C   UNL A   1      30.569  23.954  25.401  1.00  0.00     0.116 C 
BRANCH  17  18
ATOM     18  C   UNL A   1      30.384  23.582  26.877  1.00  0.00     0.018 C 
ATOM     19  C   UNL A   1      29.300  22.523  27.081  1.00  0.00     0.006 C 
ENDBRANCH  17  18
ENDBRANCH  13  17
ENDBRANCH   8  13
BRANCH  11  20
ATOM     20  C   UNL A   1      32.985  19.524  24.294  1.00  0.00     0.416 C 
ATOM     21  F   UNL A   1      34.031  18.649  24.222  1.00  0.00    -0.166 F 
ATOM     22  F   UNL A   1      32.150  19.026  25.242  1.00  0.00    -0.166 F 
ATOM     23  F   UNL A   1      32.329  19.414  23.107  1.00  0.00    -0.166 F 
ENDBRANCH  11  20
ENDBRANCH   4   7
ENDBRANCH   2   3
ENDBRANCH   1   2
BRANCH   1  24
ATOM     24  C   UNL A   1      40.028  22.720  26.682  1.00  0.00     0.023 C 
BRANCH  24  25
ATOM     25  C   UNL A   1      41.452  23.215  26.891  1.00  0.00     0.116 C 
BRANCH  25  26
ATOM     26  N   UNL A   1      41.933  24.101  25.842  1.00  0.00    -0.352 N 
ATOM     27  C   UNL A   1      42.208  25.452  25.882  1.00  0.00     0.251 C 
ATOM     28  H   UNL A   1      42.085  23.670  24.970  1.00  0.00     0.163 HD
ATOM     29  O   UNL A   1      42.540  26.035  24.864  1.00  0.00    -0.269 OA
BRANCH  27  30
ATOM     30  C   UNL A   1      42.052  26.199  27.153  1.00  0.00     0.039 A 
ATOM     31  C   UNL A   1      42.869  27.310  27.381  1.00  0.00     0.014 A 
ATOM     32  C   UNL A   1      41.096  25.830  28.101  1.00  0.00     0.014 A 
ATOM     33  C   UNL A   1      42.665  28.098  28.516  1.00  0.00     0.010 A 
ATOM     34  C   UNL A   1      40.831  26.669  29.180  1.00  0.00     0.010 A 
ATOM     35  C   UNL A   1      41.613  27.811  29.403  1.00  0.00    -0.014 A 
BRANCH  35  36
ATOM     36  C   UNL A   1      41.321  28.692  30.564  1.00  0.00     0.031 A 
ATOM     37  C   UNL A   1      42.139  28.581  31.824  1.00  0.00     0.074 A 
ATOM     38  C   UNL A   1      40.285  29.553  30.507  1.00  0.00     0.049 A 
ATOM     39  N   UNL A   1      42.014  29.239  32.948  1.00  0.00    -0.248 NA
ATOM     40  C   UNL A   1      43.220  27.580  31.833  1.00  0.00     0.031 C 
ATOM     41  C   UNL A   1      39.381  29.721  29.366  1.00  0.00     0.029 A 
ATOM     42  N   UNL A   1      39.815  30.452  31.434  1.00  0.00    -0.354 N 
ATOM     43  C   UNL A   1      42.985  28.722  33.800  1.00  0.00     0.074 A 
ATOM     44  C   UNL A   1      43.650  27.656  33.083  1.00  0.00     0.031 C 
ATOM     45  C   UNL A   1      38.491  30.687  29.646  1.00  0.00     0.029 A 
ATOM     46  C   UNL A   1      38.733  31.181  30.997  1.00  0.00     0.049 A 
ATOM     47  H   UNL A   1      40.214  30.563  32.326  1.00  0.00     0.167 HD
ATOM     48  C   UNL A   1      43.311  29.111  35.055  1.00  0.00     0.031 A 
ATOM     49  C   UNL A   1      38.016  32.141  31.614  1.00  0.00     0.031 A 
ATOM     50  C   UNL A   1      42.658  30.182  35.762  1.00  0.00     0.049 A 
ATOM     51  C   UNL A   1      38.401  32.563  33.006  1.00  0.00     0.074 A 
ATOM     52  C   UNL A   1      42.953  30.693  37.012  1.00  0.00     0.029 A 
ATOM     53  N   UNL A   1      41.577  30.904  35.279  1.00  0.00    -0.354 N 
ATOM     54  N   UNL A   1      39.370  32.109  33.766  1.00  0.00    -0.248 NA
ATOM     55  C   UNL A   1      37.606  33.636  33.617  1.00  0.00     0.031 C 
ATOM     56  C   UNL A   1      42.019  31.692  37.308  1.00  0.00     0.029 A 
ATOM     57  C   UNL A   1      41.180  31.843  36.216  1.00  0.00     0.049 A 
ATOM     58  H   UNL A   1      41.155  30.771  34.399  1.00  0.00     0.167 HD
ATOM     59  C   UNL A   1      39.317  32.862  34.934  1.00  0.00     0.074 A 
ATOM     60  C   UNL A   1      38.234  33.811  34.771  1.00  0.00     0.031 C 
ATOM     61  C   UNL A   1      40.096  32.777  36.042  1.00  0.00     0.031 A 
BRANCH  48  62
ATOM     62  C   UNL A   1      44.429  28.373  35.744  1.00  0.00    -0.014 A 
ATOM     63  C   UNL A   1      44.173  27.231  36.525  1.00  0.00     0.010 A 
ATOM     64  C   UNL A   1      45.758  28.805  35.584  1.00  0.00     0.010 A 
ATOM     65  C   UNL A   1      45.217  26.563  37.170  1.00  0.00     0.020 A 
ATOM     66  C   UNL A   1      46.810  28.121  36.202  1.00  0.00     0.020 A 
ATOM     67  C   UNL A   1      46.530  27.015  37.006  1.00  0.00     0.054 A 
BRANCH  67  68
ATOM     68  S   UNL A   1      47.867  26.117  37.838  1.00  0.00     0.124 S 
ATOM     69  O   UNL A   1      48.011  26.873  39.080  1.00  0.00    -0.237 OA
ATOM     70  O   UNL A   1      47.311  24.774  37.982  1.00  0.00    -0.237 OA
ATOM     71  O   UNL A   1      48.990  26.226  36.910  1.00  0.00    -0.744 OA
ENDBRANCH  67  68
ENDBRANCH  48  62
BRANCH  49  72
ATOM     72  C   UNL A   1      36.874  32.789  30.908  1.00  0.00    -0.014 A 
ATOM     73  C   UNL A   1      37.101  33.822  29.981  1.00  0.00     0.010 A 
ATOM     74  C   UNL A   1      35.554  32.369  31.153  1.00  0.00     0.010 A 
ATOM     75  C   UNL A   1      36.029  34.436  29.327  1.00  0.00     0.020 A 
ATOM     76  C   UNL A   1      34.482  32.962  30.480  1.00  0.00     0.020 A 
ATOM     77  C   UNL A   1      34.726  34.001  29.579  1.00  0.00     0.054 A 
BRANCH  77  78
ATOM     78  S   UNL A   1      33.353  34.778  28.682  1.00  0.00     0.124 S 
ATOM     79  O   UNL A   1      32.876  33.681  27.847  1.00  0.00    -0.237 OA
ATOM     80  O   UNL A   1      32.460  35.185  29.765  1.00  0.00    -0.237 OA
ATOM     81  O   UNL A   1      33.993  35.880  27.967  1.00  0.00    -0.744 OA
ENDBRANCH  77  78
ENDBRANCH  49  72
BRANCH  61  82
ATOM     82  C   UNL A   1      39.826  33.757  37.152  1.00  0.00    -0.014 A 
ATOM     83  C   UNL A   1      39.144  33.371  38.319  1.00  0.00     0.010 A 
ATOM     84  C   UNL A   1      40.298  35.079  37.039  1.00  0.00     0.010 A 
ATOM     85  C   UNL A   1      38.901  34.300  39.335  1.00  0.00     0.020 A 
ATOM     86  C   UNL A   1      40.083  36.002  38.065  1.00  0.00     0.020 A 
ATOM     87  C   UNL A   1      39.370  35.610  39.200  1.00  0.00     0.054 A 
BRANCH  87  88
ATOM     88  S   UNL A   1      39.064  36.791  40.543  1.00  0.00     0.124 S 
ATOM     89  O   UNL A   1      38.555  37.950  39.817  1.00  0.00    -0.237 OA
ATOM     90  O   UNL A   1      38.088  36.089  41.372  1.00  0.00    -0.237 OA
ATOM     91  O   UNL A   1      40.379  36.968  41.155  1.00  0.00    -0.744 OA
ENDBRANCH  87  88
ENDBRANCH  61  82
ENDBRANCH  35  36
ENDBRANCH  27  30
ENDBRANCH  25  26
ENDBRANCH  24  25
ENDBRANCH   1  24
TORSDOF 20
ENDMDL
MODEL 2
REMARK VINA RESULT:     -10.4      6.001      8.317
REMARK SMILES CCCN(CCC)c1cc(C(=O)NCCCCNC(=O)c2ccc(-c3c4nc(c(-c5ccc(S(=O)(=O)[O-])cc5)c5ccc([nH]5)c(-c5ccc(S(=O)(=O)[O-])cc5)c5nc(c(-c6ccc(S(=O)(=O)[O-])cc6)c6ccc3[nH]6)C=C5)C=C4)cc2)cc(C(F)(F)F)c1
REMARK SMILES IDX 15 1 14 2 13 3 11 4 12 5 10 7 8 8 9 9 87 10 82 11 81 12 4 13
REMARK SMILES IDX 3 14 2 15 1 16 5 17 6 18 7 19 83 20 84 21 85 22 86 23 16 24
REMARK SMILES IDX 17 25 18 26 19 27 20 29 21 30 22 31 80 32 23 33 79 34 24 35
REMARK SMILES IDX 25 36 26 37 73 38 27 39 78 40 72 41 74 42 28 43 77 44 71 45
REMARK SMILES IDX 70 46 29 48 59 49 40 50 58 51 41 52 44 53 57 54 75 55 42 56
REMARK SMILES IDX 43 57 56 59 76 60 45 61 30 62 31 63 39 64 32 65 38 66 33 67
REMARK SMILES IDX 34 68 35 69 36 70 37 71 60 72 61 73 69 74 62 75 68 76 63 77
REMARK SMILES IDX 64 78 65 79 66 80 67 81 46 82 47 83 55 84 48 85 54 86 49 87
REMARK SMILES IDX 50 88 51 89 52 90 53 91
REMARK H PARENT 13 6 18 28 74 47 44 58
REMARK Flexibility Score: inf
ROOT
ATOM      1  C   UNL A   1      39.395  22.814  26.485  1.00  0.00     0.023 C 
ENDROOT
BRANCH   1   2
ATOM      2  C   UNL A   1      38.234  23.665  25.997  1.00  0.00     0.116 C 
BRANCH   2   3
ATOM      3  N   UNL A   1      37.701  23.335  24.685  1.00  0.00    -0.352 N 
ATOM      4  C   UNL A   1      36.423  23.522  24.190  1.00  0.00     0.251 C 
ATOM      5  O   UNL A   1      36.164  23.216  23.030  1.00  0.00    -0.269 OA
ATOM      6  H   UNL A   1      38.340  22.921  24.060  1.00  0.00     0.163 HD
BRANCH   4   7
ATOM      7  C   UNL A   1      35.335  23.982  25.094  1.00  0.00     0.042 A 
ATOM      8  C   UNL A   1      33.564  25.648  25.401  1.00  0.00     0.038 A 
ATOM      9  C   UNL A   1      34.794  25.257  24.864  1.00  0.00     0.039 A 
ATOM     10  C   UNL A   1      32.929  24.708  26.218  1.00  0.00     0.039 A 
ATOM     11  C   UNL A   1      33.476  23.450  26.514  1.00  0.00     0.058 A 
ATOM     12  C   UNL A   1      34.737  23.133  26.018  1.00  0.00     0.027 A 
BRANCH   8  13
ATOM     13  N   UNL A   1      32.951  26.850  25.078  1.00  0.00    -0.372 N 
BRANCH  13  14
ATOM     14  C   UNL A   1      31.994  26.937  23.964  1.00  0.00     0.116 C 
BRANCH  14  15
ATOM     15  C   UNL A   1      30.536  27.187  24.391  1.00  0.00     0.018 C 
ATOM     16  C   UNL A   1      29.925  26.131  25.306  1.00  0.00     0.006 C 
ENDBRANCH  14  15
ENDBRANCH  13  14
BRANCH  13  17
ATOM     17  C   UNL A   1      33.359  28.099  25.751  1.00  0.00     0.116 C 
BRANCH  17  18
ATOM     18  C   UNL A   1      32.723  28.304  27.131  1.00  0.00     0.018 C 
ATOM     19  C   UNL A   1      31.811  29.531  27.178  1.00  0.00     0.006 C 
ENDBRANCH  17  18
ENDBRANCH  13  17
ENDBRANCH   8  13
BRANCH  11  20
ATOM     20  C   UNL A   1      32.641  22.382  27.167  1.00  0.00     0.416 C 
ATOM     21  F   UNL A   1      32.917  22.285  28.501  1.00  0.00    -0.166 F 
ATOM     22  F   UNL A   1      31.306  22.620  27.081  1.00  0.00    -0.166 F 
ATOM     23  F   UNL A   1      32.842  21.135  26.658  1.00  0.00    -0.166 F 
ENDBRANCH  11  20
ENDBRANCH   4   7
ENDBRANCH   2   3
ENDBRANCH   1   2
BRANCH   1  24
ATOM     24  C   UNL A   1      39.470  21.391  25.955  1.00  0.00     0.023 C 
BRANCH  24  25
ATOM     25  C   UNL A   1      40.176  20.376  26.844  1.00  0.00     0.116 C 
BRANCH  25  26
ATOM     26  N   UNL A   1      41.118  19.522  26.136  1.00  0.00    -0.352 N 
ATOM     27  C   UNL A   1      42.404  19.783  25.712  1.00  0.00     0.251 C 
ATOM     28  H   UNL A   1      40.785  18.619  25.927  1.00  0.00     0.163 HD
ATOM     29  O   UNL A   1      43.012  18.948  25.066  1.00  0.00    -0.269 OA
BRANCH  27  30
ATOM     30  C   UNL A   1      43.024  21.097  26.006  1.00  0.00     0.039 A 
ATOM     31  C   UNL A   1      43.195  22.006  24.957  1.00  0.00     0.014 A 
ATOM     32  C   UNL A   1      43.411  21.447  27.301  1.00  0.00     0.014 A 
ATOM     33  C   UNL A   1      43.670  23.292  25.227  1.00  0.00     0.010 A 
ATOM     34  C   UNL A   1      43.792  22.756  27.581  1.00  0.00     0.010 A 
ATOM     35  C   UNL A   1      43.929  23.694  26.548  1.00  0.00    -0.014 A 
BRANCH  35  36
ATOM     36  C   UNL A   1      44.344  25.086  26.863  1.00  0.00     0.031 A 
ATOM     37  C   UNL A   1      45.779  25.507  26.686  1.00  0.00     0.074 A 
ATOM     38  C   UNL A   1      43.443  25.956  27.364  1.00  0.00     0.049 A 
ATOM     39  N   UNL A   1      46.335  26.665  26.938  1.00  0.00    -0.248 NA
ATOM     40  C   UNL A   1      46.718  24.488  26.187  1.00  0.00     0.031 C 
ATOM     41  C   UNL A   1      42.034  25.658  27.635  1.00  0.00     0.029 A 
ATOM     42  N   UNL A   1      43.578  27.271  27.735  1.00  0.00    -0.354 N 
ATOM     43  C   UNL A   1      47.685  26.508  26.645  1.00  0.00     0.074 A 
ATOM     44  C   UNL A   1      47.875  25.129  26.254  1.00  0.00     0.031 C 
ATOM     45  C   UNL A   1      41.429  26.766  28.094  1.00  0.00     0.029 A 
ATOM     46  C   UNL A   1      42.411  27.841  28.187  1.00  0.00     0.049 A 
ATOM     47  H   UNL A   1      44.431  27.760  27.683  1.00  0.00     0.167 HD
ATOM     48  C   UNL A   1      48.676  27.431  26.675  1.00  0.00     0.031 A 
ATOM     49  C   UNL A   1      42.157  29.089  28.628  1.00  0.00     0.031 A 
ATOM     50  C   UNL A   1      48.484  28.807  27.050  1.00  0.00     0.049 A 
ATOM     51  C   UNL A   1      43.271  30.100  28.646  1.00  0.00     0.074 A 
ATOM     52  C   UNL A   1      49.409  29.835  27.056  1.00  0.00     0.029 A 
ATOM     53  N   UNL A   1      47.283  29.347  27.487  1.00  0.00    -0.354 N 
ATOM     54  N   UNL A   1      44.527  29.949  28.296  1.00  0.00    -0.248 NA
ATOM     55  C   UNL A   1      42.930  31.454  29.103  1.00  0.00     0.031 C 
ATOM     56  C   UNL A   1      48.781  30.986  27.544  1.00  0.00     0.029 A 
ATOM     57  C   UNL A   1      47.450  30.689  27.786  1.00  0.00     0.049 A 
ATOM     58  H   UNL A   1      46.437  28.850  27.572  1.00  0.00     0.167 HD
ATOM     59  C   UNL A   1      45.118  31.196  28.465  1.00  0.00     0.074 A 
ATOM     60  C   UNL A   1      44.079  32.093  28.930  1.00  0.00     0.031 C 
ATOM     61  C   UNL A   1      46.406  31.567  28.254  1.00  0.00     0.031 A 
BRANCH  48  62
ATOM     62  C   UNL A   1      50.060  26.978  26.289  1.00  0.00    -0.014 A 
ATOM     63  C   UNL A   1      50.902  26.341  27.219  1.00  0.00     0.010 A 
ATOM     64  C   UNL A   1      50.517  27.164  24.972  1.00  0.00     0.010 A 
ATOM     65  C   UNL A   1      52.189  25.938  26.851  1.00  0.00     0.020 A 
ATOM     66  C   UNL A   1      51.792  26.735  24.591  1.00  0.00     0.020 A 
ATOM     67  C   UNL A   1      52.627  26.141  25.539  1.00  0.00     0.054 A 
BRANCH  67  68
ATOM     68  S   UNL A   1      54.294  25.590  25.086  1.00  0.00     0.124 S 
ATOM     69  O   UNL A   1      54.108  24.148  24.949  1.00  0.00    -0.237 OA
ATOM     70  O   UNL A   1      54.542  26.312  23.840  1.00  0.00    -0.237 OA
ATOM     71  O   UNL A   1      55.118  26.007  26.218  1.00  0.00    -0.744 OA
ENDBRANCH  67  68
ENDBRANCH  48  62
BRANCH  49  72
ATOM     72  C   UNL A   1      40.782  29.461  29.064  1.00  0.00    -0.014 A 
ATOM     73  C   UNL A   1      40.490  29.646  30.428  1.00  0.00     0.010 A 
ATOM     74  C   UNL A   1      39.758  29.642  28.117  1.00  0.00     0.010 A 
ATOM     75  C   UNL A   1      39.196  29.985  30.836  1.00  0.00     0.020 A 
ATOM     76  C   UNL A   1      38.471  30.009  28.519  1.00  0.00     0.020 A 
ATOM     77  C   UNL A   1      38.195  30.167  29.879  1.00  0.00     0.054 A 
BRANCH  77  78
ATOM     78  S   UNL A   1      36.536  30.655  30.428  1.00  0.00     0.124 S 
ATOM     79  O   UNL A   1      36.778  31.982  30.985  1.00  0.00    -0.237 OA
ATOM     80  O   UNL A   1      35.770  30.621  29.184  1.00  0.00    -0.237 OA
ATOM     81  O   UNL A   1      36.179  29.623  31.398  1.00  0.00    -0.744 OA
ENDBRANCH  77  78
ENDBRANCH  49  72
BRANCH  61  82
ATOM     82  C   UNL A   1      46.756  33.012  28.492  1.00  0.00    -0.014 A 
ATOM     83  C   UNL A   1      46.763  33.946  27.441  1.00  0.00     0.010 A 
ATOM     84  C   UNL A   1      47.046  33.448  29.799  1.00  0.00     0.010 A 
ATOM     85  C   UNL A   1      47.096  35.282  27.686  1.00  0.00     0.020 A 
ATOM     86  C   UNL A   1      47.349  34.787  30.052  1.00  0.00     0.020 A 
ATOM     87  C   UNL A   1      47.390  35.693  28.990  1.00  0.00     0.054 A 
BRANCH  87  88
ATOM     88  S   UNL A   1      47.793  37.436  29.286  1.00  0.00     0.124 S 
ATOM     89  O   UNL A   1      49.052  37.335  30.020  1.00  0.00    -0.237 OA
ATOM     90  O   UNL A   1      47.896  37.977  27.933  1.00  0.00    -0.237 OA
ATOM     91  O   UNL A   1      46.658  37.928  30.063  1.00  0.00    -0.744 OA
ENDBRANCH  87  88
ENDBRANCH  61  82
ENDBRANCH  35  36
ENDBRANCH  27  30
ENDBRANCH  25  26
ENDBRANCH  24  25
ENDBRANCH   1  24
TORSDOF 20
ENDMDL
MODEL 3
REMARK VINA RESULT:      -9.9      5.409      7.097
REMARK SMILES CCCN(CCC)c1cc(C(=O)NCCCCNC(=O)c2ccc(-c3c4nc(c(-c5ccc(S(=O)(=O)[O-])cc5)c5ccc([nH]5)c(-c5ccc(S(=O)(=O)[O-])cc5)c5nc(c(-c6ccc(S(=O)(=O)[O-])cc6)c6ccc3[nH]6)C=C5)C=C4)cc2)cc(C(F)(F)F)c1
REMARK SMILES IDX 15 1 14 2 13 3 11 4 12 5 10 7 8 8 9 9 87 10 82 11 81 12 4 13
REMARK SMILES IDX 3 14 2 15 1 16 5 17 6 18 7 19 83 20 84 21 85 22 86 23 16 24
REMARK SMILES IDX 17 25 18 26 19 27 20 29 21 30 22 31 80 32 23 33 79 34 24 35
REMARK SMILES IDX 25 36 26 37 73 38 27 39 78 40 72 41 74 42 28 43 77 44 71 45
REMARK SMILES IDX 70 46 29 48 59 49 40 50 58 51 41 52 44 53 57 54 75 55 42 56
REMARK SMILES IDX 43 57 56 59 76 60 45 61 30 62 31 63 39 64 32 65 38 66 33 67
REMARK SMILES IDX 34 68 35 69 36 70 37 71 60 72 61 73 69 74 62 75 68 76 63 77
REMARK SMILES IDX 64 78 65 79 66 80 67 81 46 82 47 83 55 84 48 85 54 86 49 87
REMARK SMILES IDX 50 88 51 89 52 90 53 91
REMARK H PARENT 13 6 18 28 74 47 44 58
REMARK Flexibility Score: inf
ROOT
ATOM      1  C   UNL A   1      34.769  23.480  25.456  1.00  0.00     0.023 C 
ENDROOT
BRANCH   1   2
ATOM      2  C   UNL A   1      33.483  22.734  25.136  1.00  0.00     0.116 C 
BRANCH   2   3
ATOM      3  N   UNL A   1      32.410  22.853  26.111  1.00  0.00    -0.352 N 
ATOM      4  C   UNL A   1      31.626  23.950  26.416  1.00  0.00     0.251 C 
ATOM      5  O   UNL A   1      30.730  23.852  27.248  1.00  0.00    -0.269 OA
ATOM      6  H   UNL A   1      32.213  22.036  26.625  1.00  0.00     0.163 HD
BRANCH   4   7
ATOM      7  C   UNL A   1      31.943  25.279  25.825  1.00  0.00     0.042 A 
ATOM      8  C   UNL A   1      31.409  26.836  24.010  1.00  0.00     0.038 A 
ATOM      9  C   UNL A   1      31.483  25.539  24.525  1.00  0.00     0.039 A 
ATOM     10  C   UNL A   1      31.866  27.853  24.854  1.00  0.00     0.039 A 
ATOM     11  C   UNL A   1      32.388  27.615  26.134  1.00  0.00     0.058 A 
ATOM     12  C   UNL A   1      32.511  26.301  26.575  1.00  0.00     0.027 A 
BRANCH   8  13
ATOM     13  N   UNL A   1      30.833  27.126  22.781  1.00  0.00    -0.372 N 
BRANCH  13  14
ATOM     14  C   UNL A   1      31.330  26.500  21.546  1.00  0.00     0.116 C 
BRANCH  14  15
ATOM     15  C   UNL A   1      32.806  26.064  21.599  1.00  0.00     0.018 C 
ATOM     16  C   UNL A   1      33.053  24.561  21.538  1.00  0.00     0.006 C 
ENDBRANCH  14  15
ENDBRANCH  13  14
BRANCH  13  17
ATOM     17  C   UNL A   1      29.807  28.181  22.669  1.00  0.00     0.116 C 
BRANCH  17  18
ATOM     18  C   UNL A   1      28.488  27.851  23.379  1.00  0.00     0.018 C 
ATOM     19  C   UNL A   1      27.402  28.892  23.107  1.00  0.00     0.006 C 
ENDBRANCH  17  18
ENDBRANCH  13  17
ENDBRANCH   8  13
BRANCH  11  20
ATOM     20  C   UNL A   1      32.610  28.751  27.098  1.00  0.00     0.416 C 
ATOM     21  F   UNL A   1      31.602  28.824  28.016  1.00  0.00    -0.166 F 
ATOM     22  F   UNL A   1      33.756  28.626  27.816  1.00  0.00    -0.166 F 
ATOM     23  F   UNL A   1      32.659  29.975  26.505  1.00  0.00    -0.166 F 
ENDBRANCH  11  20
ENDBRANCH   4   7
ENDBRANCH   2   3
ENDBRANCH   1   2
BRANCH   1  24
ATOM     24  C   UNL A   1      35.925  22.651  25.990  1.00  0.00     0.023 C 
BRANCH  24  25
ATOM     25  C   UNL A   1      37.322  23.112  25.600  1.00  0.00     0.116 C 
BRANCH  25  26
ATOM     26  N   UNL A   1      38.373  22.156  25.916  1.00  0.00    -0.352 N 
ATOM     27  C   UNL A   1      39.600  22.355  26.512  1.00  0.00     0.251 C 
ATOM     28  H   UNL A   1      38.176  21.224  25.666  1.00  0.00     0.163 HD
ATOM     29  O   UNL A   1      40.377  21.422  26.629  1.00  0.00    -0.269 OA
BRANCH  27  30
ATOM     30  C   UNL A   1      39.989  23.711  26.967  1.00  0.00     0.039 A 
ATOM     31  C   UNL A   1      40.527  23.860  28.248  1.00  0.00     0.014 A 
ATOM     32  C   UNL A   1      39.852  24.824  26.134  1.00  0.00     0.014 A 
ATOM     33  C   UNL A   1      41.006  25.107  28.656  1.00  0.00     0.010 A 
ATOM     34  C   UNL A   1      40.416  26.041  26.506  1.00  0.00     0.010 A 
ATOM     35  C   UNL A   1      40.997  26.199  27.772  1.00  0.00    -0.014 A 
BRANCH  35  36
ATOM     36  C   UNL A   1      41.589  27.508  28.156  1.00  0.00     0.031 A 
ATOM     37  C   UNL A   1      43.071  27.737  28.022  1.00  0.00     0.074 A 
ATOM     38  C   UNL A   1      40.802  28.470  28.679  1.00  0.00     0.049 A 
ATOM     39  N   UNL A   1      43.773  28.797  28.334  1.00  0.00    -0.248 NA
ATOM     40  C   UNL A   1      43.875  26.622  27.494  1.00  0.00     0.031 C 
ATOM     41  C   UNL A   1      39.360  28.355  28.912  1.00  0.00     0.029 A 
ATOM     42  N   UNL A   1      41.106  29.738  29.111  1.00  0.00    -0.354 N 
ATOM     43  C   UNL A   1      45.096  28.470  28.058  1.00  0.00     0.074 A 
ATOM     44  C   UNL A   1      45.107  27.096  27.609  1.00  0.00     0.031 C 
ATOM     45  C   UNL A   1      38.900  29.515  29.410  1.00  0.00     0.029 A 
ATOM     46  C   UNL A   1      40.016  30.442  29.568  1.00  0.00     0.049 A 
ATOM     47  H   UNL A   1      42.017  30.108  29.095  1.00  0.00     0.167 HD
ATOM     48  C   UNL A   1      46.201  29.248  28.146  1.00  0.00     0.031 A 
ATOM     49  C   UNL A   1      39.923  31.693  30.059  1.00  0.00     0.031 A 
ATOM     50  C   UNL A   1      46.188  30.621  28.579  1.00  0.00     0.049 A 
ATOM     51  C   UNL A   1      41.162  32.542  30.141  1.00  0.00     0.074 A 
ATOM     52  C   UNL A   1      47.243  31.512  28.646  1.00  0.00     0.029 A 
ATOM     53  N   UNL A   1      45.061  31.300  29.019  1.00  0.00    -0.354 N 
ATOM     54  N   UNL A   1      42.394  32.237  29.806  1.00  0.00    -0.248 NA
ATOM     55  C   UNL A   1      40.997  33.909  30.652  1.00  0.00     0.031 C 
ATOM     56  C   UNL A   1      46.765  32.717  29.175  1.00  0.00     0.029 A 
ATOM     57  C   UNL A   1      45.401  32.593  29.380  1.00  0.00     0.049 A 
ATOM     58  H   UNL A   1      44.154  30.920  29.067  1.00  0.00     0.167 HD
ATOM     59  C   UNL A   1      43.144  33.384  30.041  1.00  0.00     0.074 A 
ATOM     60  C   UNL A   1      42.225  34.393  30.527  1.00  0.00     0.031 C 
ATOM     61  C   UNL A   1      44.475  33.585  29.868  1.00  0.00     0.031 A 
BRANCH  48  62
ATOM     62  C   UNL A   1      47.520  28.628  27.764  1.00  0.00    -0.014 A 
ATOM     63  C   UNL A   1      47.972  28.645  26.432  1.00  0.00     0.010 A 
ATOM     64  C   UNL A   1      48.335  28.048  28.753  1.00  0.00     0.010 A 
ATOM     65  C   UNL A   1      49.191  28.054  26.089  1.00  0.00     0.020 A 
ATOM     66  C   UNL A   1      49.570  27.484  28.419  1.00  0.00     0.020 A 
ATOM     67  C   UNL A   1      49.981  27.475  27.086  1.00  0.00     0.054 A 
BRANCH  67  68
ATOM     68  S   UNL A   1      51.568  26.734  26.614  1.00  0.00     0.124 S 
ATOM     69  O   UNL A   1      52.233  27.848  25.942  1.00  0.00    -0.237 OA
ATOM     70  O   UNL A   1      52.138  26.349  27.903  1.00  0.00    -0.237 OA
ATOM     71  O   UNL A   1      51.188  25.621  25.747  1.00  0.00    -0.744 OA
ENDBRANCH  67  68
ENDBRANCH  48  62
BRANCH  49  72
ATOM     72  C   UNL A   1      38.600  32.230  30.488  1.00  0.00    -0.014 A 
ATOM     73  C   UNL A   1      37.730  32.817  29.551  1.00  0.00     0.010 A 
ATOM     74  C   UNL A   1      38.200  32.149  31.834  1.00  0.00     0.010 A 
ATOM     75  C   UNL A   1      36.494  33.329  29.956  1.00  0.00     0.020 A 
ATOM     76  C   UNL A   1      36.953  32.635  32.237  1.00  0.00     0.020 A 
ATOM     77  C   UNL A   1      36.112  33.233  31.297  1.00  0.00     0.054 A 
BRANCH  77  78
ATOM     78  S   UNL A   1      34.483  33.860  31.791  1.00  0.00     0.124 S 
ATOM     79  O   UNL A   1      33.876  34.178  30.503  1.00  0.00    -0.237 OA
ATOM     80  O   UNL A   1      33.907  32.718  32.498  1.00  0.00    -0.237 OA
ATOM     81  O   UNL A   1      34.800  35.008  32.637  1.00  0.00    -0.744 OA
ENDBRANCH  77  78
ENDBRANCH  49  72
BRANCH  61  82
ATOM     82  C   UNL A   1      45.011  34.957  30.177  1.00  0.00    -0.014 A 
ATOM     83  C   UNL A   1      45.073  35.957  29.190  1.00  0.00     0.010 A 
ATOM     84  C   UNL A   1      45.424  35.261  31.488  1.00  0.00     0.010 A 
ATOM     85  C   UNL A   1      45.579  37.223  29.499  1.00  0.00     0.020 A 
ATOM     86  C   UNL A   1      45.901  36.534  31.807  1.00  0.00     0.020 A 
ATOM     87  C   UNL A   1      45.993  37.502  30.805  1.00  0.00     0.054 A 
BRANCH  87  88
ATOM     88  S   UNL A   1      46.622  39.160  31.187  1.00  0.00     0.124 S 
ATOM     89  O   UNL A   1      47.232  38.957  32.498  1.00  0.00    -0.237 OA
ATOM     90  O   UNL A   1      47.555  39.410  30.091  1.00  0.00    -0.237 OA
ATOM     91  O   UNL A   1      45.424  39.996  31.181  1.00  0.00    -0.744 OA
ENDBRANCH  87  88
ENDBRANCH  61  82
ENDBRANCH  35  36
ENDBRANCH  27  30
ENDBRANCH  25  26
ENDBRANCH  24  25
ENDBRANCH   1  24
TORSDOF 20
ENDMDL
