MODEL 1
REMARK VINA RESULT:     -11.6      0.000      0.000
REMARK SMILES COc1ccc(-n2c(SCC(=O)NCCCCNC(=O)c3ccc(-c4c5nc(c(-c6ccc(S(=O)(=O)[O-])cc6)c6ccc([nH]6)c(-c6ccc(S(=O)(=O)[O-])cc6)c6nc(c(-c7ccc(S(=O)(=O)[O-])cc7)c7ccc4[nH]7)C=C6)C=C5)cc3)nc3sc4c(c3c2=O)CC[N@H+](C)C4)cc1
REMARK SMILES IDX 15 1 14 2 13 3 11 4 12 5 10 7 9 8 8 9 7 10 87 11 81 12 86 13
REMARK SMILES IDX 88 14 82 15 85 16 83 17 84 18 89 19 93 20 90 21 91 22 92 23
REMARK SMILES IDX 6 25 3 26 4 27 95 28 5 29 94 30 2 31 1 32 16 33 17 34 18 35
REMARK SMILES IDX 19 36 20 38 21 39 22 40 80 41 23 42 79 43 24 44 25 45 26 46
REMARK SMILES IDX 73 47 27 48 78 49 72 50 74 51 28 52 77 53 71 54 70 55 29 57
REMARK SMILES IDX 59 58 40 59 58 60 41 61 44 62 57 63 75 64 42 65 43 66 56 68
REMARK SMILES IDX 76 69 45 70 30 71 31 72 39 73 32 74 38 75 33 76 34 77 35 78
REMARK SMILES IDX 36 79 37 80 60 81 61 82 69 83 62 84 68 85 63 86 64 87 65 88
REMARK SMILES IDX 66 89 67 90 46 91 47 92 55 93 48 94 54 95 49 96 50 97 51 98
REMARK SMILES IDX 52 99 53 100
REMARK H PARENT 13 6 91 24 18 37 74 56 44 67
REMARK Flexibility Score: inf
ROOT
ATOM      1  C   UNL A   1      45.562  23.868  37.266  1.00  0.00     0.023 C 
ENDROOT
BRANCH   1   2
ATOM      2  C   UNL A   1      46.045  22.450  37.588  1.00  0.00     0.116 C 
BRANCH   2   3
ATOM      3  N   UNL A   1      46.477  21.678  36.433  1.00  0.00    -0.355 N 
ATOM      4  C   UNL A   1      46.113  20.412  36.066  1.00  0.00     0.230 C 
ATOM      5  O   UNL A   1      45.968  20.209  34.856  1.00  0.00    -0.274 OA
ATOM      6  H   UNL A   1      47.118  22.127  35.835  1.00  0.00     0.163 HD
BRANCH   4   7
ATOM      7  C   UNL A   1      45.825  19.284  37.050  1.00  0.00     0.178 C 
BRANCH   7   8
ATOM      8  S   UNL A   1      47.029  19.043  38.335  1.00  0.00    -0.077 SA
BRANCH   8   9
ATOM      9  C   UNL A   1      46.496  18.040  39.664  1.00  0.00     0.177 A 
ATOM     10  N   UNL A   1      47.192  17.757  40.848  1.00  0.00    -0.255 N 
ATOM     11  C   UNL A   1      46.597  16.992  41.874  1.00  0.00     0.267 A 
ATOM     12  N   UNL A   1      45.292  17.604  39.419  1.00  0.00    -0.212 NA
ATOM     13  C   UNL A   1      45.228  16.608  41.626  1.00  0.00     0.081 A 
ATOM     14  O   UNL A   1      47.150  16.664  42.926  1.00  0.00    -0.268 OA
ATOM     15  C   UNL A   1      44.686  16.914  40.405  1.00  0.00     0.132 A 
ATOM     16  C   UNL A   1      44.293  15.968  42.490  1.00  0.00    -0.008 A 
ATOM     17  S   UNL A   1      43.081  16.348  40.258  1.00  0.00    -0.114 S 
ATOM     18  C   UNL A   1      43.095  15.733  41.844  1.00  0.00     0.065 A 
ATOM     19  C   UNL A   1      44.501  15.533  43.910  1.00  0.00     0.099 C 
ATOM     20  C   UNL A   1      41.915  15.042  42.463  1.00  0.00     0.310 C 
ATOM     21  C   UNL A   1      43.175  15.059  44.548  1.00  0.00     0.267 C 
ATOM     22  N   UNL A   1      42.298  14.255  43.663  1.00  0.00    -0.333 N 
ATOM     23  C   UNL A   1      42.930  12.988  43.288  1.00  0.00     0.333 C 
ATOM     24  H   UNL A   1      41.451  14.024  44.180  1.00  0.00     0.348 HD
BRANCH  10  25
ATOM     25  C   UNL A   1      48.469  18.255  41.188  1.00  0.00     0.052 A 
ATOM     26  C   UNL A   1      51.053  18.892  42.069  1.00  0.00     0.119 A 
ATOM     27  C   UNL A   1      50.867  18.223  40.858  1.00  0.00     0.048 A 
ATOM     28  C   UNL A   1      49.942  19.207  42.857  1.00  0.00     0.048 A 
ATOM     29  C   UNL A   1      49.584  17.888  40.421  1.00  0.00     0.030 A 
ATOM     30  C   UNL A   1      48.652  18.886  42.420  1.00  0.00     0.030 A 
BRANCH  26  31
ATOM     31  O   UNL A   1      52.357  19.169  42.372  1.00  0.00    -0.497 OA
ATOM     32  C   UNL A   1      53.341  18.329  41.781  1.00  0.00     0.278 C 
ENDBRANCH  26  31
ENDBRANCH  10  25
ENDBRANCH   8   9
ENDBRANCH   7   8
ENDBRANCH   4   7
ENDBRANCH   2   3
ENDBRANCH   1   2
BRANCH   1  33
ATOM     33  C   UNL A   1      45.146  24.768  38.451  1.00  0.00     0.023 C 
BRANCH  33  34
ATOM     34  C   UNL A   1      43.978  25.762  38.241  1.00  0.00     0.116 C 
BRANCH  34  35
ATOM     35  N   UNL A   1      42.804  25.112  37.682  1.00  0.00    -0.352 N 
ATOM     36  C   UNL A   1      42.230  25.048  36.434  1.00  0.00     0.251 C 
ATOM     37  H   UNL A   1      42.302  24.597  38.354  1.00  0.00     0.163 HD
ATOM     38  O   UNL A   1      41.093  24.568  36.395  1.00  0.00    -0.269 OA
BRANCH  36  39
ATOM     39  C   UNL A   1      42.844  25.489  35.146  1.00  0.00     0.039 A 
ATOM     40  C   UNL A   1      42.351  26.682  34.576  1.00  0.00     0.014 A 
ATOM     41  C   UNL A   1      43.727  24.724  34.390  1.00  0.00     0.014 A 
ATOM     42  C   UNL A   1      42.753  27.124  33.300  1.00  0.00     0.010 A 
ATOM     43  C   UNL A   1      44.120  25.167  33.104  1.00  0.00     0.010 A 
ATOM     44  C   UNL A   1      43.661  26.381  32.544  1.00  0.00    -0.014 A 
BRANCH  44  45
ATOM     45  C   UNL A   1      44.283  27.001  31.325  1.00  0.00     0.031 A 
ATOM     46  C   UNL A   1      44.361  26.067  30.162  1.00  0.00     0.074 A 
ATOM     47  C   UNL A   1      44.400  28.322  31.023  1.00  0.00     0.049 A 
ATOM     48  N   UNL A   1      43.316  25.830  29.426  1.00  0.00    -0.248 NA
ATOM     49  C   UNL A   1      45.475  25.156  29.915  1.00  0.00     0.031 C 
ATOM     50  C   UNL A   1      43.503  29.362  31.534  1.00  0.00     0.029 A 
ATOM     51  N   UNL A   1      45.143  28.980  30.050  1.00  0.00    -0.354 N 
ATOM     52  C   UNL A   1      43.588  24.713  28.664  1.00  0.00     0.074 A 
ATOM     53  C   UNL A   1      44.951  24.342  28.981  1.00  0.00     0.031 C 
ATOM     54  C   UNL A   1      43.626  30.465  30.760  1.00  0.00     0.029 A 
ATOM     55  C   UNL A   1      44.716  30.292  29.791  1.00  0.00     0.049 A 
ATOM     56  H   UNL A   1      45.903  28.562  29.583  1.00  0.00     0.167 HD
ATOM     57  C   UNL A   1      42.654  24.168  27.840  1.00  0.00     0.031 A 
ATOM     58  C   UNL A   1      44.713  30.911  28.569  1.00  0.00     0.031 A 
ATOM     59  C   UNL A   1      41.385  24.845  27.830  1.00  0.00     0.049 A 
ATOM     60  C   UNL A   1      43.768  30.043  27.787  1.00  0.00     0.074 A 
ATOM     61  C   UNL A   1      40.171  24.745  28.478  1.00  0.00     0.029 A 
ATOM     62  N   UNL A   1      41.260  25.976  27.058  1.00  0.00    -0.354 N 
ATOM     63  N   UNL A   1      42.471  30.068  27.844  1.00  0.00    -0.248 NA
ATOM     64  C   UNL A   1      44.337  28.873  27.117  1.00  0.00     0.031 C 
ATOM     65  C   UNL A   1      39.596  26.057  28.423  1.00  0.00     0.029 A 
ATOM     66  C   UNL A   1      40.520  26.879  27.782  1.00  0.00     0.049 A 
ATOM     67  H   UNL A   1      41.630  26.112  26.156  1.00  0.00     0.167 HD
ATOM     68  C   UNL A   1      42.061  28.784  27.497  1.00  0.00     0.074 A 
ATOM     69  C   UNL A   1      43.258  28.106  27.029  1.00  0.00     0.031 C 
ATOM     70  C   UNL A   1      40.820  28.294  27.790  1.00  0.00     0.031 A 
BRANCH  57  71
ATOM     71  C   UNL A   1      42.905  23.072  26.881  1.00  0.00    -0.014 A 
ATOM     72  C   UNL A   1      42.502  21.780  27.267  1.00  0.00     0.010 A 
ATOM     73  C   UNL A   1      43.706  23.231  25.741  1.00  0.00     0.010 A 
ATOM     74  C   UNL A   1      42.951  20.658  26.579  1.00  0.00     0.020 A 
ATOM     75  C   UNL A   1      44.148  22.103  25.035  1.00  0.00     0.020 A 
ATOM     76  C   UNL A   1      43.792  20.825  25.478  1.00  0.00     0.054 A 
BRANCH  76  77
ATOM     77  S   UNL A   1      44.451  19.333  24.687  1.00  0.00     0.124 S 
ATOM     78  O   UNL A   1      44.522  19.734  23.284  1.00  0.00    -0.237 OA
ATOM     79  O   UNL A   1      45.737  19.167  25.360  1.00  0.00    -0.237 OA
ATOM     80  O   UNL A   1      43.454  18.311  24.992  1.00  0.00    -0.744 OA
ENDBRANCH  76  77
ENDBRANCH  57  71
BRANCH  58  81
ATOM     81  C   UNL A   1      45.984  31.371  27.907  1.00  0.00    -0.014 A 
ATOM     82  C   UNL A   1      45.954  32.423  26.974  1.00  0.00     0.010 A 
ATOM     83  C   UNL A   1      47.236  30.757  28.142  1.00  0.00     0.010 A 
ATOM     84  C   UNL A   1      47.138  32.947  26.432  1.00  0.00     0.020 A 
ATOM     85  C   UNL A   1      48.427  31.296  27.636  1.00  0.00     0.020 A 
ATOM     86  C   UNL A   1      48.371  32.413  26.809  1.00  0.00     0.054 A 
BRANCH  86  87
ATOM     87  S   UNL A   1      49.891  33.264  26.298  1.00  0.00     0.124 S 
ATOM     88  O   UNL A   1      50.681  32.179  25.727  1.00  0.00    -0.237 OA
ATOM     89  O   UNL A   1      49.386  34.248  25.342  1.00  0.00    -0.237 OA
ATOM     90  O   UNL A   1      50.406  33.827  27.543  1.00  0.00    -0.744 OA
ENDBRANCH  86  87
ENDBRANCH  58  81
BRANCH  70  91
ATOM     91  C   UNL A   1      39.869  29.285  28.401  1.00  0.00    -0.014 A 
ATOM     92  C   UNL A   1      40.139  29.849  29.660  1.00  0.00     0.010 A 
ATOM     93  C   UNL A   1      38.677  29.643  27.744  1.00  0.00     0.010 A 
ATOM     94  C   UNL A   1      39.251  30.756  30.244  1.00  0.00     0.020 A 
ATOM     95  C   UNL A   1      37.794  30.569  28.313  1.00  0.00     0.020 A 
ATOM     96  C   UNL A   1      38.087  31.119  29.561  1.00  0.00     0.054 A 
BRANCH  96  97
ATOM     97  S   UNL A   1      36.984  32.344  30.316  1.00  0.00     0.124 S 
ATOM     98  O   UNL A   1      35.829  31.536  30.699  1.00  0.00    -0.237 OA
ATOM     99  O   UNL A   1      37.787  32.856  31.425  1.00  0.00    -0.237 OA
ATOM    100  O   UNL A   1      36.741  33.304  29.241  1.00  0.00    -0.744 OA
ENDBRANCH  96  97
ENDBRANCH  70  91
ENDBRANCH  44  45
ENDBRANCH  36  39
ENDBRANCH  34  35
ENDBRANCH  33  34
ENDBRANCH   1  33
TORSDOF 18
ENDMDL
MODEL 2
REMARK VINA RESULT:     -11.5      1.643      2.090
REMARK SMILES COc1ccc(-n2c(SCC(=O)NCCCCNC(=O)c3ccc(-c4c5nc(c(-c6ccc(S(=O)(=O)[O-])cc6)c6ccc([nH]6)c(-c6ccc(S(=O)(=O)[O-])cc6)c6nc(c(-c7ccc(S(=O)(=O)[O-])cc7)c7ccc4[nH]7)C=C6)C=C5)cc3)nc3sc4c(c3c2=O)CC[N@H+](C)C4)cc1
REMARK SMILES IDX 15 1 14 2 13 3 11 4 12 5 10 7 9 8 8 9 7 10 87 11 81 12 86 13
REMARK SMILES IDX 88 14 82 15 85 16 83 17 84 18 89 19 93 20 90 21 91 22 92 23
REMARK SMILES IDX 6 25 3 26 4 27 95 28 5 29 94 30 2 31 1 32 16 33 17 34 18 35
REMARK SMILES IDX 19 36 20 38 21 39 22 40 80 41 23 42 79 43 24 44 25 45 26 46
REMARK SMILES IDX 73 47 27 48 78 49 72 50 74 51 28 52 77 53 71 54 70 55 29 57
REMARK SMILES IDX 59 58 40 59 58 60 41 61 44 62 57 63 75 64 42 65 43 66 56 68
REMARK SMILES IDX 76 69 45 70 30 71 31 72 39 73 32 74 38 75 33 76 34 77 35 78
REMARK SMILES IDX 36 79 37 80 60 81 61 82 69 83 62 84 68 85 63 86 64 87 65 88
REMARK SMILES IDX 66 89 67 90 46 91 47 92 55 93 48 94 54 95 49 96 50 97 51 98
REMARK SMILES IDX 52 99 53 100
REMARK H PARENT 13 6 91 24 18 37 74 56 44 67
REMARK Flexibility Score: inf
ROOT
ATOM      1  C   UNL A   1      46.321  24.855  37.944  1.00  0.00     0.023 C 
ENDROOT
BRANCH   1   2
ATOM      2  C   UNL A   1      45.874  23.608  38.712  1.00  0.00     0.116 C 
BRANCH   2   3
ATOM      3  N   UNL A   1      46.363  22.350  38.169  1.00  0.00    -0.355 N 
ATOM      4  C   UNL A   1      46.225  21.088  38.676  1.00  0.00     0.230 C 
ATOM      5  O   UNL A   1      46.036  20.183  37.856  1.00  0.00    -0.274 OA
ATOM      6  H   UNL A   1      46.861  22.417  37.322  1.00  0.00     0.163 HD
BRANCH   4   7
ATOM      7  C   UNL A   1      46.230  20.757  40.163  1.00  0.00     0.178 C 
BRANCH   7   8
ATOM      8  S   UNL A   1      47.095  19.276  40.630  1.00  0.00    -0.077 SA
BRANCH   8   9
ATOM      9  C   UNL A   1      46.095  18.034  41.348  1.00  0.00     0.177 A 
ATOM     10  N   UNL A   1      46.064  17.640  42.693  1.00  0.00    -0.255 N 
ATOM     11  C   UNL A   1      45.140  16.672  43.144  1.00  0.00     0.267 A 
ATOM     12  N   UNL A   1      45.314  17.529  40.435  1.00  0.00    -0.212 NA
ATOM     13  C   UNL A   1      44.217  16.203  42.139  1.00  0.00     0.081 A 
ATOM     14  O   UNL A   1      45.072  16.240  44.296  1.00  0.00    -0.268 OA
ATOM     15  C   UNL A   1      44.390  16.640  40.852  1.00  0.00     0.132 A 
ATOM     16  C   UNL A   1      43.082  15.352  42.275  1.00  0.00    -0.008 A 
ATOM     17  S   UNL A   1      43.248  15.954  39.783  1.00  0.00    -0.114 S 
ATOM     18  C   UNL A   1      42.492  15.106  41.050  1.00  0.00     0.065 A 
ATOM     19  C   UNL A   1      42.547  14.725  43.528  1.00  0.00     0.099 C 
ATOM     20  C   UNL A   1      41.299  14.219  40.842  1.00  0.00     0.310 C 
ATOM     21  C   UNL A   1      41.188  14.034  43.269  1.00  0.00     0.267 C 
ATOM     22  N   UNL A   1      41.086  13.297  41.986  1.00  0.00    -0.333 N 
ATOM     23  C   UNL A   1      42.019  12.168  41.940  1.00  0.00     0.333 C 
ATOM     24  H   UNL A   1      40.146  12.910  41.916  1.00  0.00     0.348 HD
BRANCH  10  25
ATOM     25  C   UNL A   1      46.843  18.198  43.730  1.00  0.00     0.052 A 
ATOM     26  C   UNL A   1      48.175  19.064  46.039  1.00  0.00     0.119 A 
ATOM     27  C   UNL A   1      48.664  17.978  45.309  1.00  0.00     0.048 A 
ATOM     28  C   UNL A   1      46.995  19.690  45.631  1.00  0.00     0.048 A 
ATOM     29  C   UNL A   1      47.996  17.532  44.168  1.00  0.00     0.030 A 
ATOM     30  C   UNL A   1      46.327  19.257  44.480  1.00  0.00     0.030 A 
BRANCH  26  31
ATOM     31  O   UNL A   1      48.930  19.404  47.127  1.00  0.00    -0.497 OA
ATOM     32  C   UNL A   1      50.319  19.615  46.899  1.00  0.00     0.278 C 
ENDBRANCH  26  31
ENDBRANCH  10  25
ENDBRANCH   8   9
ENDBRANCH   7   8
ENDBRANCH   4   7
ENDBRANCH   2   3
ENDBRANCH   1   2
BRANCH   1  33
ATOM     33  C   UNL A   1      45.248  25.623  37.140  1.00  0.00     0.023 C 
BRANCH  33  34
ATOM     34  C   UNL A   1      43.761  25.409  37.513  1.00  0.00     0.116 C 
BRANCH  34  35
ATOM     35  N   UNL A   1      43.140  24.371  36.706  1.00  0.00    -0.352 N 
ATOM     36  C   UNL A   1      42.852  24.221  35.370  1.00  0.00     0.251 C 
ATOM     37  H   UNL A   1      42.861  23.593  37.241  1.00  0.00     0.163 HD
ATOM     38  O   UNL A   1      42.108  23.277  35.089  1.00  0.00    -0.269 OA
BRANCH  36  39
ATOM     39  C   UNL A   1      43.351  25.072  34.249  1.00  0.00     0.039 A 
ATOM     40  C   UNL A   1      44.352  24.520  33.422  1.00  0.00     0.014 A 
ATOM     41  C   UNL A   1      43.033  26.415  34.075  1.00  0.00     0.014 A 
ATOM     42  C   UNL A   1      44.997  25.274  32.422  1.00  0.00     0.010 A 
ATOM     43  C   UNL A   1      43.690  27.173  33.076  1.00  0.00     0.010 A 
ATOM     44  C   UNL A   1      44.665  26.615  32.217  1.00  0.00    -0.014 A 
BRANCH  44  45
ATOM     45  C   UNL A   1      45.155  27.313  30.980  1.00  0.00     0.031 A 
ATOM     46  C   UNL A   1      45.280  26.405  29.800  1.00  0.00     0.074 A 
ATOM     47  C   UNL A   1      45.108  28.641  30.693  1.00  0.00     0.049 A 
ATOM     48  N   UNL A   1      44.234  26.058  29.111  1.00  0.00    -0.248 NA
ATOM     49  C   UNL A   1      46.476  25.627  29.488  1.00  0.00     0.031 C 
ATOM     50  C   UNL A   1      44.126  29.569  31.261  1.00  0.00     0.029 A 
ATOM     51  N   UNL A   1      45.725  29.388  29.696  1.00  0.00    -0.354 N 
ATOM     52  C   UNL A   1      44.593  24.987  28.320  1.00  0.00     0.074 A 
ATOM     53  C   UNL A   1      46.002  24.769  28.568  1.00  0.00     0.031 C 
ATOM     54  C   UNL A   1      44.086  30.686  30.499  1.00  0.00     0.029 A 
ATOM     55  C   UNL A   1      45.141  30.646  29.477  1.00  0.00     0.049 A 
ATOM     56  H   UNL A   1      46.503  29.063  29.188  1.00  0.00     0.167 HD
ATOM     57  C   UNL A   1      43.687  24.348  27.533  1.00  0.00     0.031 A 
ATOM     58  C   UNL A   1      45.010  31.273  28.266  1.00  0.00     0.031 A 
ATOM     59  C   UNL A   1      42.351  24.878  27.593  1.00  0.00     0.049 A 
ATOM     60  C   UNL A   1      44.131  30.312  27.517  1.00  0.00     0.074 A 
ATOM     61  C   UNL A   1      41.188  24.635  28.295  1.00  0.00     0.029 A 
ATOM     62  N   UNL A   1      42.063  25.995  26.844  1.00  0.00    -0.354 N 
ATOM     63  N   UNL A   1      42.844  30.189  27.635  1.00  0.00    -0.248 NA
ATOM     64  C   UNL A   1      44.796  29.219  26.803  1.00  0.00     0.031 C 
ATOM     65  C   UNL A   1      40.468  25.875  28.286  1.00  0.00     0.029 A 
ATOM     66  C   UNL A   1      41.263  26.802  27.615  1.00  0.00     0.049 A 
ATOM     67  H   UNL A   1      42.371  26.181  25.928  1.00  0.00     0.167 HD
ATOM     68  C   UNL A   1      42.565  28.871  27.287  1.00  0.00     0.074 A 
ATOM     69  C   UNL A   1      43.806  28.337  26.754  1.00  0.00     0.031 C 
ATOM     70  C   UNL A   1      41.402  28.241  27.630  1.00  0.00     0.031 A 
BRANCH  57  71
ATOM     71  C   UNL A   1      44.013  23.297  26.547  1.00  0.00    -0.014 A 
ATOM     72  C   UNL A   1      43.156  22.182  26.495  1.00  0.00     0.010 A 
ATOM     73  C   UNL A   1      45.227  23.265  25.846  1.00  0.00     0.010 A 
ATOM     74  C   UNL A   1      43.533  21.024  25.823  1.00  0.00     0.020 A 
ATOM     75  C   UNL A   1      45.604  22.104  25.155  1.00  0.00     0.020 A 
ATOM     76  C   UNL A   1      44.768  20.983  25.175  1.00  0.00     0.054 A 
BRANCH  76  77
ATOM     77  S   UNL A   1      45.272  19.415  24.418  1.00  0.00     0.124 S 
ATOM     78  O   UNL A   1      46.729  19.509  24.457  1.00  0.00    -0.237 OA
ATOM     79  O   UNL A   1      44.680  18.430  25.320  1.00  0.00    -0.237 OA
ATOM     80  O   UNL A   1      44.680  19.471  23.084  1.00  0.00    -0.744 OA
ENDBRANCH  76  77
ENDBRANCH  57  71
BRANCH  58  81
ATOM     81  C   UNL A   1      46.188  31.879  27.553  1.00  0.00    -0.014 A 
ATOM     82  C   UNL A   1      46.010  33.000  26.721  1.00  0.00     0.010 A 
ATOM     83  C   UNL A   1      47.494  31.344  27.637  1.00  0.00     0.010 A 
ATOM     84  C   UNL A   1      47.107  33.654  26.138  1.00  0.00     0.020 A 
ATOM     85  C   UNL A   1      48.600  32.010  27.091  1.00  0.00     0.020 A 
ATOM     86  C   UNL A   1      48.400  33.184  26.372  1.00  0.00     0.054 A 
BRANCH  86  87
ATOM     87  S   UNL A   1      49.811  34.186  25.824  1.00  0.00     0.124 S 
ATOM     88  O   UNL A   1      50.390  34.631  27.087  1.00  0.00    -0.237 OA
ATOM     89  O   UNL A   1      50.605  33.214  25.074  1.00  0.00    -0.237 OA
ATOM     90  O   UNL A   1      49.196  35.233  25.012  1.00  0.00    -0.744 OA
ENDBRANCH  86  87
ENDBRANCH  58  81
BRANCH  70  91
ATOM     91  C   UNL A   1      40.377  29.113  28.300  1.00  0.00    -0.014 A 
ATOM     92  C   UNL A   1      39.147  29.378  27.673  1.00  0.00     0.010 A 
ATOM     93  C   UNL A   1      40.638  29.709  29.549  1.00  0.00     0.010 A 
ATOM     94  C   UNL A   1      38.196  30.203  28.280  1.00  0.00     0.020 A 
ATOM     95  C   UNL A   1      39.681  30.517  30.174  1.00  0.00     0.020 A 
ATOM     96  C   UNL A   1      38.465  30.761  29.533  1.00  0.00     0.054 A 
BRANCH  96  97
ATOM     97  S   UNL A   1      37.189  31.778  30.323  1.00  0.00     0.124 S 
ATOM     98  O   UNL A   1      37.907  32.367  31.449  1.00  0.00    -0.237 OA
ATOM     99  O   UNL A   1      36.818  32.708  29.258  1.00  0.00    -0.237 OA
ATOM    100  O   UNL A   1      36.150  30.815  30.684  1.00  0.00    -0.744 OA
ENDBRANCH  96  97
ENDBRANCH  70  91
ENDBRANCH  44  45
ENDBRANCH  36  39
ENDBRANCH  34  35
ENDBRANCH  33  34
ENDBRANCH   1  33
TORSDOF 18
ENDMDL
MODEL 3
REMARK VINA RESULT:     -11.5      7.714     12.560
REMARK SMILES COc1ccc(-n2c(SCC(=O)NCCCCNC(=O)c3ccc(-c4c5nc(c(-c6ccc(S(=O)(=O)[O-])cc6)c6ccc([nH]6)c(-c6ccc(S(=O)(=O)[O-])cc6)c6nc(c(-c7ccc(S(=O)(=O)[O-])cc7)c7ccc4[nH]7)C=C6)C=C5)cc3)nc3sc4c(c3c2=O)CC[N@H+](C)C4)cc1
REMARK SMILES IDX 15 1 14 2 13 3 11 4 12 5 10 7 9 8 8 9 7 10 87 11 81 12 86 13
REMARK SMILES IDX 88 14 82 15 85 16 83 17 84 18 89 19 93 20 90 21 91 22 92 23
REMARK SMILES IDX 6 25 3 26 4 27 95 28 5 29 94 30 2 31 1 32 16 33 17 34 18 35
REMARK SMILES IDX 19 36 20 38 21 39 22 40 80 41 23 42 79 43 24 44 25 45 26 46
REMARK SMILES IDX 73 47 27 48 78 49 72 50 74 51 28 52 77 53 71 54 70 55 29 57
REMARK SMILES IDX 59 58 40 59 58 60 41 61 44 62 57 63 75 64 42 65 43 66 56 68
REMARK SMILES IDX 76 69 45 70 30 71 31 72 39 73 32 74 38 75 33 76 34 77 35 78
REMARK SMILES IDX 36 79 37 80 60 81 61 82 69 83 62 84 68 85 63 86 64 87 65 88
REMARK SMILES IDX 66 89 67 90 46 91 47 92 55 93 48 94 54 95 49 96 50 97 51 98
REMARK SMILES IDX 52 99 53 100
REMARK H PARENT 13 6 91 24 18 37 74 56 44 67
REMARK Flexibility Score: inf
ROOT
ATOM      1  C   UNL A   1      40.096  32.042  32.774  1.00  0.00     0.023 C 
ENDROOT
BRANCH   1   2
ATOM      2  C   UNL A   1      38.653  32.226  32.291  1.00  0.00     0.116 C 
BRANCH   2   3
ATOM      3  N   UNL A   1      38.169  33.597  32.332  1.00  0.00    -0.355 N 
ATOM      4  C   UNL A   1      37.071  34.135  31.719  1.00  0.00     0.230 C 
ATOM      5  O   UNL A   1      36.441  34.981  32.363  1.00  0.00    -0.274 OA
ATOM      6  H   UNL A   1      38.703  34.222  32.874  1.00  0.00     0.163 HD
BRANCH   4   7
ATOM      7  C   UNL A   1      36.564  33.714  30.346  1.00  0.00     0.178 C 
BRANCH   7   8
ATOM      8  S   UNL A   1      34.990  32.889  30.315  1.00  0.00    -0.077 SA
BRANCH   8   9
ATOM      9  C   UNL A   1      34.787  31.740  29.012  1.00  0.00     0.177 A 
ATOM     10  N   UNL A   1      35.610  30.648  28.704  1.00  0.00    -0.255 N 
ATOM     11  C   UNL A   1      35.273  29.755  27.665  1.00  0.00     0.267 A 
ATOM     12  N   UNL A   1      33.693  32.019  28.359  1.00  0.00    -0.212 NA
ATOM     13  C   UNL A   1      34.007  30.023  27.025  1.00  0.00     0.081 A 
ATOM     14  O   UNL A   1      35.959  28.796  27.303  1.00  0.00    -0.268 OA
ATOM     15  C   UNL A   1      33.325  31.151  27.395  1.00  0.00     0.132 A 
ATOM     16  C   UNL A   1      33.300  29.255  26.055  1.00  0.00    -0.008 A 
ATOM     17  S   UNL A   1      31.878  31.344  26.510  1.00  0.00    -0.114 S 
ATOM     18  C   UNL A   1      32.140  29.893  25.661  1.00  0.00     0.065 A 
ATOM     19  C   UNL A   1      33.700  27.941  25.451  1.00  0.00     0.099 C 
ATOM     20  C   UNL A   1      31.187  29.368  24.627  1.00  0.00     0.310 C 
ATOM     21  C   UNL A   1      32.560  27.354  24.587  1.00  0.00     0.267 C 
ATOM     22  N   UNL A   1      31.819  28.339  23.762  1.00  0.00    -0.333 N 
ATOM     23  C   UNL A   1      32.685  28.952  22.752  1.00  0.00     0.333 C 
ATOM     24  H   UNL A   1      31.082  27.843  23.261  1.00  0.00     0.348 HD
BRANCH  10  25
ATOM     25  C   UNL A   1      36.768  30.268  29.418  1.00  0.00     0.052 A 
ATOM     26  C   UNL A   1      39.072  29.183  30.590  1.00  0.00     0.119 A 
ATOM     27  C   UNL A   1      39.178  30.060  29.510  1.00  0.00     0.048 A 
ATOM     28  C   UNL A   1      37.806  28.819  31.058  1.00  0.00     0.048 A 
ATOM     29  C   UNL A   1      38.034  30.591  28.911  1.00  0.00     0.030 A 
ATOM     30  C   UNL A   1      36.655  29.358  30.471  1.00  0.00     0.030 A 
BRANCH  26  31
ATOM     31  O   UNL A   1      40.268  28.746  31.089  1.00  0.00    -0.497 OA
ATOM     32  C   UNL A   1      41.424  29.481  30.707  1.00  0.00     0.278 C 
ENDBRANCH  26  31
ENDBRANCH  10  25
ENDBRANCH   8   9
ENDBRANCH   7   8
ENDBRANCH   4   7
ENDBRANCH   2   3
ENDBRANCH   1   2
BRANCH   1  33
ATOM     33  C   UNL A   1      40.308  31.552  34.223  1.00  0.00     0.023 C 
BRANCH  33  34
ATOM     34  C   UNL A   1      39.736  30.169  34.620  1.00  0.00     0.116 C 
BRANCH  34  35
ATOM     35  N   UNL A   1      40.466  29.576  35.730  1.00  0.00    -0.352 N 
ATOM     36  C   UNL A   1      41.537  28.723  35.844  1.00  0.00     0.251 C 
ATOM     37  H   UNL A   1      40.108  29.851  36.606  1.00  0.00     0.163 HD
ATOM     38  O   UNL A   1      41.734  28.264  36.973  1.00  0.00    -0.269 OA
BRANCH  36  39
ATOM     39  C   UNL A   1      42.471  28.314  34.753  1.00  0.00     0.039 A 
ATOM     40  C   UNL A   1      43.435  29.260  34.346  1.00  0.00     0.014 A 
ATOM     41  C   UNL A   1      42.343  27.152  33.998  1.00  0.00     0.014 A 
ATOM     42  C   UNL A   1      44.278  29.042  33.238  1.00  0.00     0.010 A 
ATOM     43  C   UNL A   1      43.184  26.941  32.879  1.00  0.00     0.010 A 
ATOM     44  C   UNL A   1      44.180  27.867  32.491  1.00  0.00    -0.014 A 
BRANCH  44  45
ATOM     45  C   UNL A   1      45.259  27.533  31.500  1.00  0.00     0.031 A 
ATOM     46  C   UNL A   1      44.885  26.426  30.570  1.00  0.00     0.074 A 
ATOM     47  C   UNL A   1      46.293  28.315  31.093  1.00  0.00     0.049 A 
ATOM     48  N   UNL A   1      44.109  26.645  29.550  1.00  0.00    -0.248 NA
ATOM     49  C   UNL A   1      45.102  25.009  30.852  1.00  0.00     0.031 C 
ATOM     50  C   UNL A   1      46.272  29.781  31.115  1.00  0.00     0.029 A 
ATOM     51  N   UNL A   1      47.441  28.017  30.368  1.00  0.00    -0.354 N 
ATOM     52  C   UNL A   1      43.679  25.422  29.084  1.00  0.00     0.074 A 
ATOM     53  C   UNL A   1      44.341  24.431  29.906  1.00  0.00     0.031 C 
ATOM     54  C   UNL A   1      47.245  30.246  30.300  1.00  0.00     0.029 A 
ATOM     55  C   UNL A   1      48.075  29.137  29.808  1.00  0.00     0.049 A 
ATOM     56  H   UNL A   1      47.780  27.099  30.257  1.00  0.00     0.167 HD
ATOM     57  C   UNL A   1      42.789  25.322  28.061  1.00  0.00     0.031 A 
ATOM     58  C   UNL A   1      48.709  29.182  28.595  1.00  0.00     0.031 A 
ATOM     59  C   UNL A   1      42.346  26.578  27.517  1.00  0.00     0.049 A 
ATOM     60  C   UNL A   1      47.584  28.871  27.649  1.00  0.00     0.074 A 
ATOM     61  C   UNL A   1      41.300  27.458  27.702  1.00  0.00     0.029 A 
ATOM     62  N   UNL A   1      43.163  27.215  26.612  1.00  0.00    -0.354 N 
ATOM     63  N   UNL A   1      46.668  29.695  27.241  1.00  0.00    -0.248 NA
ATOM     64  C   UNL A   1      47.312  27.457  27.379  1.00  0.00     0.031 C 
ATOM     65  C   UNL A   1      41.793  28.737  27.279  1.00  0.00     0.029 A 
ATOM     66  C   UNL A   1      43.123  28.556  26.906  1.00  0.00     0.049 A 
ATOM     67  H   UNL A   1      43.678  26.790  25.889  1.00  0.00     0.167 HD
ATOM     68  C   UNL A   1      45.565  28.901  26.939  1.00  0.00     0.074 A 
ATOM     69  C   UNL A   1      46.039  27.530  27.015  1.00  0.00     0.031 C 
ATOM     70  C   UNL A   1      44.297  29.398  26.836  1.00  0.00     0.031 A 
BRANCH  57  71
ATOM     71  C   UNL A   1      42.392  24.061  27.402  1.00  0.00    -0.014 A 
ATOM     72  C   UNL A   1      41.513  23.219  28.109  1.00  0.00     0.010 A 
ATOM     73  C   UNL A   1      43.015  23.584  26.240  1.00  0.00     0.010 A 
ATOM     74  C   UNL A   1      41.316  21.900  27.713  1.00  0.00     0.020 A 
ATOM     75  C   UNL A   1      42.807  22.259  25.828  1.00  0.00     0.020 A 
ATOM     76  C   UNL A   1      41.983  21.420  26.586  1.00  0.00     0.054 A 
BRANCH  76  77
ATOM     77  S   UNL A   1      41.795  19.664  26.178  1.00  0.00     0.124 S 
ATOM     78  O   UNL A   1      42.650  19.527  25.003  1.00  0.00    -0.237 OA
ATOM     79  O   UNL A   1      42.281  19.009  27.391  1.00  0.00    -0.237 OA
ATOM     80  O   UNL A   1      40.363  19.520  25.927  1.00  0.00    -0.744 OA
ENDBRANCH  76  77
ENDBRANCH  57  71
BRANCH  58  81
ATOM     81  C   UNL A   1      50.044  28.523  28.371  1.00  0.00    -0.014 A 
ATOM     82  C   UNL A   1      50.924  29.024  27.394  1.00  0.00     0.010 A 
ATOM     83  C   UNL A   1      50.455  27.367  29.073  1.00  0.00     0.010 A 
ATOM     84  C   UNL A   1      52.218  28.502  27.247  1.00  0.00     0.020 A 
ATOM     85  C   UNL A   1      51.757  26.861  28.959  1.00  0.00     0.020 A 
ATOM     86  C   UNL A   1      52.644  27.457  28.068  1.00  0.00     0.054 A 
BRANCH  86  87
ATOM     87  S   UNL A   1      54.392  26.969  28.036  1.00  0.00     0.124 S 
ATOM     88  O   UNL A   1      55.076  28.234  28.281  1.00  0.00    -0.237 OA
ATOM     89  O   UNL A   1      54.459  25.994  29.123  1.00  0.00    -0.237 OA
ATOM     90  O   UNL A   1      54.569  26.410  26.698  1.00  0.00    -0.744 OA
ENDBRANCH  86  87
ENDBRANCH  58  81
BRANCH  70  91
ATOM     91  C   UNL A   1      44.186  30.894  26.940  1.00  0.00    -0.014 A 
ATOM     92  C   UNL A   1      43.979  31.509  28.187  1.00  0.00     0.010 A 
ATOM     93  C   UNL A   1      44.252  31.706  25.792  1.00  0.00     0.010 A 
ATOM     94  C   UNL A   1      43.856  32.897  28.290  1.00  0.00     0.020 A 
ATOM     95  C   UNL A   1      44.152  33.099  25.890  1.00  0.00     0.020 A 
ATOM     96  C   UNL A   1      43.953  33.685  27.140  1.00  0.00     0.054 A 
BRANCH  96  97
ATOM     97  S   UNL A   1      43.849  35.487  27.312  1.00  0.00     0.124 S 
ATOM     98  O   UNL A   1      45.220  35.910  27.038  1.00  0.00    -0.237 OA
ATOM     99  O   UNL A   1      42.865  35.848  26.294  1.00  0.00    -0.237 OA
ATOM    100  O   UNL A   1      43.404  35.681  28.691  1.00  0.00    -0.744 OA
ENDBRANCH  96  97
ENDBRANCH  70  91
ENDBRANCH  44  45
ENDBRANCH  36  39
ENDBRANCH  34  35
ENDBRANCH  33  34
ENDBRANCH   1  33
TORSDOF 18
ENDMDL
