MODEL 1
REMARK VINA RESULT:     -10.9      0.000      0.000
REMARK SMILES CN(Cc1ccnn1C)C(=O)c1c(C(=O)NCCCCNC(=O)c2ccc(-c3c4nc(c(-c5ccc(S(=O)(=O)[O-])cc5)c5ccc([nH]5)c(-c5ccc(S(=O)(=O)[O-])cc5)c5nc(c(-c6ccc(S(=O)(=O)[O-])cc6)c6ccc3[nH]6)C=C5)C=C4)cc2)cnn1C
REMARK SMILES IDX 18 1 17 2 16 3 14 4 15 5 13 7 12 8 86 9 84 10 85 11 87 12
REMARK SMILES IDX 10 13 11 14 2 15 1 16 3 17 4 18 5 19 8 20 6 21 7 22 9 23
REMARK SMILES IDX 19 24 20 25 21 26 22 27 23 29 24 30 25 31 83 32 26 33 82 34
REMARK SMILES IDX 27 35 28 36 29 37 76 38 30 39 81 40 75 41 77 42 31 43 80 44
REMARK SMILES IDX 74 45 73 46 32 48 62 49 43 50 61 51 44 52 47 53 60 54 78 55
REMARK SMILES IDX 45 56 46 57 59 59 79 60 48 61 33 62 34 63 42 64 35 65 41 66
REMARK SMILES IDX 36 67 37 68 38 69 39 70 40 71 63 72 64 73 72 74 65 75 71 76
REMARK SMILES IDX 66 77 67 78 68 79 69 80 70 81 49 82 50 83 58 84 51 85 57 86
REMARK SMILES IDX 52 87 53 88 54 89 55 90 56 91
REMARK H PARENT 16 6 21 28 77 47 47 58
REMARK Flexibility Score: inf
ROOT
ATOM      1  C   UNL A   1      33.366  28.289  27.234  1.00  0.00     0.023 C 
ENDROOT
BRANCH   1   2
ATOM      2  C   UNL A   1      31.868  28.454  26.988  1.00  0.00     0.116 C 
BRANCH   2   3
ATOM      3  N   UNL A   1      31.125  27.222  27.051  1.00  0.00    -0.352 N 
ATOM      4  C   UNL A   1      30.675  26.400  26.053  1.00  0.00     0.255 C 
ATOM      5  O   UNL A   1      29.988  25.437  26.395  1.00  0.00    -0.269 OA
ATOM      6  H   UNL A   1      30.906  26.920  27.962  1.00  0.00     0.163 HD
BRANCH   4   7
ATOM      7  C   UNL A   1      30.911  26.667  24.643  1.00  0.00     0.090 A 
ATOM      8  C   UNL A   1      31.942  26.311  23.772  1.00  0.00     0.138 A 
ATOM      9  N   UNL A   1      31.454  26.602  22.516  1.00  0.00    -0.262 N 
ATOM     10  C   UNL A   1      29.957  27.298  23.808  1.00  0.00     0.149 A 
ATOM     11  N   UNL A   1      30.325  27.332  22.529  1.00  0.00    -0.180 NA
ATOM     12  C   UNL A   1      31.897  26.078  21.243  1.00  0.00     0.174 C 
BRANCH   8  13
ATOM     13  C   UNL A   1      33.145  25.562  24.028  1.00  0.00     0.273 C 
ATOM     14  O   UNL A   1      34.195  26.141  24.295  1.00  0.00    -0.267 OA
BRANCH  13  15
ATOM     15  N   UNL A   1      33.105  24.163  23.893  1.00  0.00    -0.334 N 
ATOM     16  C   UNL A   1      33.772  23.600  22.723  1.00  0.00     0.147 C 
BRANCH  15  17
ATOM     17  C   UNL A   1      32.183  23.278  24.595  1.00  0.00     0.175 C 
BRANCH  17  18
ATOM     18  C   UNL A   1      32.726  22.694  25.859  1.00  0.00     0.057 A 
ATOM     19  C   UNL A   1      32.631  23.234  27.133  1.00  0.00     0.047 A 
ATOM     20  N   UNL A   1      33.357  21.483  26.037  1.00  0.00    -0.271 N 
ATOM     21  C   UNL A   1      33.237  22.303  27.986  1.00  0.00     0.135 A 
ATOM     22  N   UNL A   1      33.696  21.246  27.323  1.00  0.00    -0.181 NA
ATOM     23  C   UNL A   1      33.709  20.473  25.066  1.00  0.00     0.174 C 
ENDBRANCH  17  18
ENDBRANCH  15  17
ENDBRANCH  13  15
ENDBRANCH   8  13
ENDBRANCH   4   7
ENDBRANCH   2   3
ENDBRANCH   1   2
BRANCH   1  24
ATOM     24  C   UNL A   1      34.221  29.553  27.090  1.00  0.00     0.023 C 
BRANCH  24  25
ATOM     25  C   UNL A   1      35.540  29.576  27.861  1.00  0.00     0.116 C 
BRANCH  25  26
ATOM     26  N   UNL A   1      35.403  30.079  29.219  1.00  0.00    -0.352 N 
ATOM     27  C   UNL A   1      36.339  30.288  30.201  1.00  0.00     0.251 C 
ATOM     28  H   UNL A   1      34.481  30.311  29.477  1.00  0.00     0.163 HD
ATOM     29  O   UNL A   1      35.960  30.611  31.326  1.00  0.00    -0.269 OA
BRANCH  27  30
ATOM     30  C   UNL A   1      37.783  30.089  29.938  1.00  0.00     0.039 A 
ATOM     31  C   UNL A   1      38.578  29.548  30.953  1.00  0.00     0.014 A 
ATOM     32  C   UNL A   1      38.362  30.439  28.716  1.00  0.00     0.014 A 
ATOM     33  C   UNL A   1      39.925  29.263  30.708  1.00  0.00     0.010 A 
ATOM     34  C   UNL A   1      39.690  30.101  28.452  1.00  0.00     0.010 A 
ATOM     35  C   UNL A   1      40.478  29.489  29.439  1.00  0.00    -0.014 A 
BRANCH  35  36
ATOM     36  C   UNL A   1      41.851  29.034  29.102  1.00  0.00     0.031 A 
ATOM     37  C   UNL A   1      43.007  29.994  29.110  1.00  0.00     0.074 A 
ATOM     38  C   UNL A   1      42.042  27.768  28.683  1.00  0.00     0.049 A 
ATOM     39  N   UNL A   1      44.236  29.804  28.702  1.00  0.00    -0.248 NA
ATOM     40  C   UNL A   1      42.738  31.349  29.613  1.00  0.00     0.031 C 
ATOM     41  C   UNL A   1      40.999  26.745  28.567  1.00  0.00     0.029 A 
ATOM     42  N   UNL A   1      43.181  27.131  28.256  1.00  0.00    -0.354 N 
ATOM     43  C   UNL A   1      44.873  31.029  28.841  1.00  0.00     0.074 A 
ATOM     44  C   UNL A   1      43.897  31.951  29.387  1.00  0.00     0.031 C 
ATOM     45  C   UNL A   1      41.549  25.607  28.112  1.00  0.00     0.029 A 
ATOM     46  C   UNL A   1      42.973  25.828  27.878  1.00  0.00     0.049 A 
ATOM     47  H   UNL A   1      44.062  27.567  28.224  1.00  0.00     0.167 HD
ATOM     48  C   UNL A   1      46.150  31.363  28.532  1.00  0.00     0.031 A 
ATOM     49  C   UNL A   1      43.824  24.908  27.384  1.00  0.00     0.031 A 
ATOM     50  C   UNL A   1      47.141  30.448  28.035  1.00  0.00     0.049 A 
ATOM     51  C   UNL A   1      45.261  25.266  27.165  1.00  0.00     0.074 A 
ATOM     52  C   UNL A   1      48.473  30.691  27.744  1.00  0.00     0.029 A 
ATOM     53  N   UNL A   1      46.911  29.107  27.768  1.00  0.00    -0.354 N 
ATOM     54  N   UNL A   1      45.850  26.425  27.329  1.00  0.00    -0.248 NA
ATOM     55  C   UNL A   1      46.150  24.191  26.701  1.00  0.00     0.031 C 
ATOM     56  C   UNL A   1      49.049  29.492  27.298  1.00  0.00     0.029 A 
ATOM     57  C   UNL A   1      48.076  28.507  27.321  1.00  0.00     0.049 A 
ATOM     58  H   UNL A   1      46.047  28.650  27.879  1.00  0.00     0.167 HD
ATOM     59  C   UNL A   1      47.180  26.221  26.984  1.00  0.00     0.074 A 
ATOM     60  C   UNL A   1      47.313  24.825  26.618  1.00  0.00     0.031 C 
ATOM     61  C   UNL A   1      48.196  27.117  26.967  1.00  0.00     0.031 A 
BRANCH  48  62
ATOM     62  C   UNL A   1      46.522  32.806  28.706  1.00  0.00    -0.014 A 
ATOM     63  C   UNL A   1      46.332  33.734  27.666  1.00  0.00     0.010 A 
ATOM     64  C   UNL A   1      47.103  33.230  29.913  1.00  0.00     0.010 A 
ATOM     65  C   UNL A   1      46.769  35.052  27.812  1.00  0.00     0.020 A 
ATOM     66  C   UNL A   1      47.532  34.550  30.066  1.00  0.00     0.020 A 
ATOM     67  C   UNL A   1      47.385  35.447  29.004  1.00  0.00     0.054 A 
BRANCH  67  68
ATOM     68  S   UNL A   1      47.992  37.147  29.181  1.00  0.00     0.124 S 
ATOM     69  O   UNL A   1      46.862  37.800  29.837  1.00  0.00    -0.237 OA
ATOM     70  O   UNL A   1      49.189  36.994  30.004  1.00  0.00    -0.237 OA
ATOM     71  O   UNL A   1      48.241  37.560  27.801  1.00  0.00    -0.744 OA
ENDBRANCH  67  68
ENDBRANCH  48  62
BRANCH  49  72
ATOM     72  C   UNL A   1      43.315  23.549  27.077  1.00  0.00    -0.014 A 
ATOM     73  C   UNL A   1      43.116  23.158  25.743  1.00  0.00     0.010 A 
ATOM     74  C   UNL A   1      43.107  22.621  28.111  1.00  0.00     0.010 A 
ATOM     75  C   UNL A   1      42.728  21.850  25.444  1.00  0.00     0.020 A 
ATOM     76  C   UNL A   1      42.727  21.311  27.814  1.00  0.00     0.020 A 
ATOM     77  C   UNL A   1      42.539  20.934  26.481  1.00  0.00     0.054 A 
BRANCH  77  78
ATOM     78  S   UNL A   1      42.145  19.206  26.085  1.00  0.00     0.124 S 
ATOM     79  O   UNL A   1      42.991  18.962  24.922  1.00  0.00    -0.237 OA
ATOM     80  O   UNL A   1      42.525  18.495  27.303  1.00  0.00    -0.237 OA
ATOM     81  O   UNL A   1      40.708  19.246  25.824  1.00  0.00    -0.744 OA
ENDBRANCH  77  78
ENDBRANCH  49  72
BRANCH  61  82
ATOM     82  C   UNL A   1      49.544  26.607  26.551  1.00  0.00    -0.014 A 
ATOM     83  C   UNL A   1      50.418  26.044  27.497  1.00  0.00     0.010 A 
ATOM     84  C   UNL A   1      49.929  26.664  25.201  1.00  0.00     0.010 A 
ATOM     85  C   UNL A   1      51.668  25.562  27.102  1.00  0.00     0.020 A 
ATOM     86  C   UNL A   1      51.176  26.177  24.802  1.00  0.00     0.020 A 
ATOM     87  C   UNL A   1      52.044  25.640  25.757  1.00  0.00     0.054 A 
BRANCH  87  88
ATOM     88  S   UNL A   1      53.654  24.981  25.239  1.00  0.00     0.124 S 
ATOM     89  O   UNL A   1      53.357  23.562  25.069  1.00  0.00    -0.237 OA
ATOM     90  O   UNL A   1      53.933  25.716  24.007  1.00  0.00    -0.237 OA
ATOM     91  O   UNL A   1      54.529  25.309  26.362  1.00  0.00    -0.744 OA
ENDBRANCH  87  88
ENDBRANCH  61  82
ENDBRANCH  35  36
ENDBRANCH  27  30
ENDBRANCH  25  26
ENDBRANCH  24  25
ENDBRANCH   1  24
TORSDOF 18
ENDMDL
MODEL 2
REMARK VINA RESULT:     -10.7      3.031      4.032
REMARK SMILES CN(Cc1ccnn1C)C(=O)c1c(C(=O)NCCCCNC(=O)c2ccc(-c3c4nc(c(-c5ccc(S(=O)(=O)[O-])cc5)c5ccc([nH]5)c(-c5ccc(S(=O)(=O)[O-])cc5)c5nc(c(-c6ccc(S(=O)(=O)[O-])cc6)c6ccc3[nH]6)C=C5)C=C4)cc2)cnn1C
REMARK SMILES IDX 18 1 17 2 16 3 14 4 15 5 13 7 12 8 86 9 84 10 85 11 87 12
REMARK SMILES IDX 10 13 11 14 2 15 1 16 3 17 4 18 5 19 8 20 6 21 7 22 9 23
REMARK SMILES IDX 19 24 20 25 21 26 22 27 23 29 24 30 25 31 83 32 26 33 82 34
REMARK SMILES IDX 27 35 28 36 29 37 76 38 30 39 81 40 75 41 77 42 31 43 80 44
REMARK SMILES IDX 74 45 73 46 32 48 62 49 43 50 61 51 44 52 47 53 60 54 78 55
REMARK SMILES IDX 45 56 46 57 59 59 79 60 48 61 33 62 34 63 42 64 35 65 41 66
REMARK SMILES IDX 36 67 37 68 38 69 39 70 40 71 63 72 64 73 72 74 65 75 71 76
REMARK SMILES IDX 66 77 67 78 68 79 69 80 70 81 49 82 50 83 58 84 51 85 57 86
REMARK SMILES IDX 52 87 53 88 54 89 55 90 56 91
REMARK H PARENT 16 6 21 28 77 47 47 58
REMARK Flexibility Score: inf
ROOT
ATOM      1  C   UNL A   1      32.321  27.356  25.453  1.00  0.00     0.023 C 
ENDROOT
BRANCH   1   2
ATOM      2  C   UNL A   1      30.868  26.924  25.267  1.00  0.00     0.116 C 
BRANCH   2   3
ATOM      3  N   UNL A   1      30.666  26.007  24.175  1.00  0.00    -0.352 N 
ATOM      4  C   UNL A   1      30.731  24.640  24.133  1.00  0.00     0.255 C 
ATOM      5  O   UNL A   1      30.587  24.111  23.031  1.00  0.00    -0.269 OA
ATOM      6  H   UNL A   1      30.442  26.434  23.316  1.00  0.00     0.163 HD
BRANCH   4   7
ATOM      7  C   UNL A   1      31.033  23.828  25.301  1.00  0.00     0.090 A 
ATOM      8  C   UNL A   1      32.073  22.944  25.596  1.00  0.00     0.138 A 
ATOM      9  N   UNL A   1      31.967  22.721  26.951  1.00  0.00    -0.262 N 
ATOM     10  C   UNL A   1      30.302  23.915  26.510  1.00  0.00     0.149 A 
ATOM     11  N   UNL A   1      30.822  23.177  27.489  1.00  0.00    -0.180 NA
ATOM     12  C   UNL A   1      32.984  22.237  27.858  1.00  0.00     0.174 C 
BRANCH   8  13
ATOM     13  C   UNL A   1      33.189  22.534  24.785  1.00  0.00     0.273 C 
ATOM     14  O   UNL A   1      33.175  21.453  24.202  1.00  0.00    -0.267 OA
BRANCH  13  15
ATOM     15  N   UNL A   1      34.323  23.365  24.735  1.00  0.00    -0.334 N 
ATOM     16  C   UNL A   1      34.925  23.570  23.421  1.00  0.00     0.147 C 
BRANCH  15  17
ATOM     17  C   UNL A   1      35.142  23.737  25.883  1.00  0.00     0.175 C 
BRANCH  17  18
ATOM     18  C   UNL A   1      36.537  23.201  25.848  1.00  0.00     0.057 A 
ATOM     19  C   UNL A   1      37.704  23.901  26.114  1.00  0.00     0.047 A 
ATOM     20  N   UNL A   1      36.947  21.905  25.624  1.00  0.00    -0.271 N 
ATOM     21  C   UNL A   1      38.740  22.965  26.008  1.00  0.00     0.135 A 
ATOM     22  N   UNL A   1      38.288  21.755  25.692  1.00  0.00    -0.181 NA
ATOM     23  C   UNL A   1      36.167  20.729  25.318  1.00  0.00     0.174 C 
ENDBRANCH  17  18
ENDBRANCH  15  17
ENDBRANCH  13  15
ENDBRANCH   8  13
ENDBRANCH   4   7
ENDBRANCH   2   3
ENDBRANCH   1   2
BRANCH   1  24
ATOM     24  C   UNL A   1      32.545  28.794  25.932  1.00  0.00     0.023 C 
BRANCH  24  25
ATOM     25  C   UNL A   1      33.454  28.976  27.146  1.00  0.00     0.116 C 
BRANCH  25  26
ATOM     26  N   UNL A   1      33.554  30.358  27.588  1.00  0.00    -0.352 N 
ATOM     27  C   UNL A   1      34.561  31.025  28.241  1.00  0.00     0.251 C 
ATOM     28  H   UNL A   1      32.765  30.910  27.382  1.00  0.00     0.163 HD
ATOM     29  O   UNL A   1      34.363  32.177  28.621  1.00  0.00    -0.269 OA
BRANCH  27  30
ATOM     30  C   UNL A   1      35.856  30.365  28.529  1.00  0.00     0.039 A 
ATOM     31  C   UNL A   1      36.850  30.390  27.547  1.00  0.00     0.014 A 
ATOM     32  C   UNL A   1      36.094  29.715  29.742  1.00  0.00     0.014 A 
ATOM     33  C   UNL A   1      38.114  29.857  27.819  1.00  0.00     0.010 A 
ATOM     34  C   UNL A   1      37.372  29.235  30.035  1.00  0.00     0.010 A 
ATOM     35  C   UNL A   1      38.400  29.322  29.084  1.00  0.00    -0.014 A 
BRANCH  35  36
ATOM     36  C   UNL A   1      39.779  28.911  29.455  1.00  0.00     0.031 A 
ATOM     37  C   UNL A   1      40.712  29.866  30.143  1.00  0.00     0.074 A 
ATOM     38  C   UNL A   1      40.229  27.699  29.076  1.00  0.00     0.049 A 
ATOM     39  N   UNL A   1      41.986  29.726  30.404  1.00  0.00    -0.248 NA
ATOM     40  C   UNL A   1      40.145  31.157  30.562  1.00  0.00     0.031 C 
ATOM     41  C   UNL A   1      39.453  26.693  28.348  1.00  0.00     0.029 A 
ATOM     42  N   UNL A   1      41.463  27.117  29.233  1.00  0.00    -0.354 N 
ATOM     43  C   UNL A   1      42.391  30.930  30.964  1.00  0.00     0.074 A 
ATOM     44  C   UNL A   1      41.220  31.784  31.019  1.00  0.00     0.031 C 
ATOM     45  C   UNL A   1      40.223  25.614  28.133  1.00  0.00     0.029 A 
ATOM     46  C   UNL A   1      41.553  25.863  28.681  1.00  0.00     0.049 A 
ATOM     47  H   UNL A   1      42.211  27.556  29.698  1.00  0.00     0.167 HD
ATOM     48  C   UNL A   1      43.625  31.300  31.384  1.00  0.00     0.031 A 
ATOM     49  C   UNL A   1      42.589  25.006  28.607  1.00  0.00     0.031 A 
ATOM     50  C   UNL A   1      44.783  30.448  31.380  1.00  0.00     0.049 A 
ATOM     51  C   UNL A   1      43.915  25.389  29.189  1.00  0.00     0.074 A 
ATOM     52  C   UNL A   1      46.062  30.725  31.835  1.00  0.00     0.029 A 
ATOM     53  N   UNL A   1      44.801  29.145  30.908  1.00  0.00    -0.354 N 
ATOM     54  N   UNL A   1      44.270  26.525  29.739  1.00  0.00    -0.248 NA
ATOM     55  C   UNL A   1      44.978  24.375  29.145  1.00  0.00     0.031 C 
ATOM     56  C   UNL A   1      46.854  29.585  31.636  1.00  0.00     0.029 A 
ATOM     57  C   UNL A   1      46.064  28.601  31.065  1.00  0.00     0.049 A 
ATOM     58  H   UNL A   1      44.028  28.675  30.518  1.00  0.00     0.167 HD
ATOM     59  C   UNL A   1      45.600  26.364  30.105  1.00  0.00     0.074 A 
ATOM     60  C   UNL A   1      45.982  25.017  29.729  1.00  0.00     0.031 C 
ATOM     61  C   UNL A   1      46.429  27.259  30.694  1.00  0.00     0.031 A 
BRANCH  48  62
ATOM     62  C   UNL A   1      43.772  32.716  31.859  1.00  0.00    -0.014 A 
ATOM     63  C   UNL A   1      43.568  33.053  33.208  1.00  0.00     0.010 A 
ATOM     64  C   UNL A   1      44.083  33.726  30.932  1.00  0.00     0.010 A 
ATOM     65  C   UNL A   1      43.618  34.388  33.614  1.00  0.00     0.020 A 
ATOM     66  C   UNL A   1      44.144  35.061  31.338  1.00  0.00     0.020 A 
ATOM     67  C   UNL A   1      43.886  35.386  32.672  1.00  0.00     0.054 A 
BRANCH  67  68
ATOM     68  S   UNL A   1      43.910  37.126  33.188  1.00  0.00     0.124 S 
ATOM     69  O   UNL A   1      42.715  37.204  34.025  1.00  0.00    -0.237 OA
ATOM     70  O   UNL A   1      45.180  37.249  33.898  1.00  0.00    -0.237 OA
ATOM     71  O   UNL A   1      43.837  37.851  31.921  1.00  0.00    -0.744 OA
ENDBRANCH  67  68
ENDBRANCH  48  62
BRANCH  49  72
ATOM     72  C   UNL A   1      42.388  23.688  27.958  1.00  0.00    -0.014 A 
ATOM     73  C   UNL A   1      42.633  23.538  26.583  1.00  0.00     0.010 A 
ATOM     74  C   UNL A   1      42.030  22.567  28.725  1.00  0.00     0.010 A 
ATOM     75  C   UNL A   1      42.537  22.279  25.985  1.00  0.00     0.020 A 
ATOM     76  C   UNL A   1      41.941  21.307  28.132  1.00  0.00     0.020 A 
ATOM     77  C   UNL A   1      42.194  21.171  26.764  1.00  0.00     0.054 A 
BRANCH  77  78
ATOM     78  S   UNL A   1      42.180  19.520  26.009  1.00  0.00     0.124 S 
ATOM     79  O   UNL A   1      42.691  18.687  27.092  1.00  0.00    -0.237 OA
ATOM     80  O   UNL A   1      40.771  19.325  25.673  1.00  0.00    -0.237 OA
ATOM     81  O   UNL A   1      43.066  19.674  24.858  1.00  0.00    -0.744 OA
ENDBRANCH  77  78
ENDBRANCH  49  72
BRANCH  61  82
ATOM     82  C   UNL A   1      47.829  26.802  30.979  1.00  0.00    -0.014 A 
ATOM     83  C   UNL A   1      48.809  26.836  29.972  1.00  0.00     0.010 A 
ATOM     84  C   UNL A   1      48.175  26.362  32.267  1.00  0.00     0.010 A 
ATOM     85  C   UNL A   1      50.114  26.418  30.245  1.00  0.00     0.020 A 
ATOM     86  C   UNL A   1      49.480  25.949  32.545  1.00  0.00     0.020 A 
ATOM     87  C   UNL A   1      50.440  25.967  31.529  1.00  0.00     0.054 A 
BRANCH  87  88
ATOM     88  S   UNL A   1      52.144  25.459  31.891  1.00  0.00     0.124 S 
ATOM     89  O   UNL A   1      52.007  24.011  32.010  1.00  0.00    -0.237 OA
ATOM     90  O   UNL A   1      52.886  25.926  30.721  1.00  0.00    -0.237 OA
ATOM     91  O   UNL A   1      52.449  26.165  33.133  1.00  0.00    -0.744 OA
ENDBRANCH  87  88
ENDBRANCH  61  82
ENDBRANCH  35  36
ENDBRANCH  27  30
ENDBRANCH  25  26
ENDBRANCH  24  25
ENDBRANCH   1  24
TORSDOF 18
ENDMDL
MODEL 3
REMARK VINA RESULT:     -10.7      2.941      4.324
REMARK SMILES CN(Cc1ccnn1C)C(=O)c1c(C(=O)NCCCCNC(=O)c2ccc(-c3c4nc(c(-c5ccc(S(=O)(=O)[O-])cc5)c5ccc([nH]5)c(-c5ccc(S(=O)(=O)[O-])cc5)c5nc(c(-c6ccc(S(=O)(=O)[O-])cc6)c6ccc3[nH]6)C=C5)C=C4)cc2)cnn1C
REMARK SMILES IDX 18 1 17 2 16 3 14 4 15 5 13 7 12 8 86 9 84 10 85 11 87 12
REMARK SMILES IDX 10 13 11 14 2 15 1 16 3 17 4 18 5 19 8 20 6 21 7 22 9 23
REMARK SMILES IDX 19 24 20 25 21 26 22 27 23 29 24 30 25 31 83 32 26 33 82 34
REMARK SMILES IDX 27 35 28 36 29 37 76 38 30 39 81 40 75 41 77 42 31 43 80 44
REMARK SMILES IDX 74 45 73 46 32 48 62 49 43 50 61 51 44 52 47 53 60 54 78 55
REMARK SMILES IDX 45 56 46 57 59 59 79 60 48 61 33 62 34 63 42 64 35 65 41 66
REMARK SMILES IDX 36 67 37 68 38 69 39 70 40 71 63 72 64 73 72 74 65 75 71 76
REMARK SMILES IDX 66 77 67 78 68 79 69 80 70 81 49 82 50 83 58 84 51 85 57 86
REMARK SMILES IDX 52 87 53 88 54 89 55 90 56 91
REMARK H PARENT 16 6 21 28 77 47 47 58
REMARK Flexibility Score: inf
ROOT
ATOM      1  C   UNL A   1      31.701  27.592  26.960  1.00  0.00     0.023 C 
ENDROOT
BRANCH   1   2
ATOM      2  C   UNL A   1      32.114  26.166  26.603  1.00  0.00     0.116 C 
BRANCH   2   3
ATOM      3  N   UNL A   1      31.126  25.171  26.930  1.00  0.00    -0.352 N 
ATOM      4  C   UNL A   1      31.224  23.808  27.012  1.00  0.00     0.255 C 
ATOM      5  O   UNL A   1      30.185  23.189  27.240  1.00  0.00    -0.269 OA
ATOM      6  H   UNL A   1      30.231  25.530  27.129  1.00  0.00     0.163 HD
BRANCH   4   7
ATOM      7  C   UNL A   1      32.465  23.091  26.767  1.00  0.00     0.090 A 
ATOM      8  C   UNL A   1      33.337  23.051  25.677  1.00  0.00     0.138 A 
ATOM      9  N   UNL A   1      34.470  22.432  26.158  1.00  0.00    -0.262 N 
ATOM     10  C   UNL A   1      33.124  22.329  27.763  1.00  0.00     0.149 A 
ATOM     11  N   UNL A   1      34.305  21.859  27.364  1.00  0.00    -0.180 NA
ATOM     12  C   UNL A   1      35.812  22.483  25.621  1.00  0.00     0.174 C 
BRANCH   8  13
ATOM     13  C   UNL A   1      33.249  23.717  24.404  1.00  0.00     0.273 C 
ATOM     14  O   UNL A   1      33.922  24.720  24.176  1.00  0.00    -0.267 OA
BRANCH  13  15
ATOM     15  N   UNL A   1      32.324  23.238  23.459  1.00  0.00    -0.334 N 
ATOM     16  C   UNL A   1      32.870  22.481  22.337  1.00  0.00     0.147 C 
BRANCH  15  17
ATOM     17  C   UNL A   1      30.956  23.720  23.305  1.00  0.00     0.175 C 
BRANCH  17  18
ATOM     18  C   UNL A   1      30.841  25.190  23.062  1.00  0.00     0.057 A 
ATOM     19  C   UNL A   1      30.088  26.097  23.793  1.00  0.00     0.047 A 
ATOM     20  N   UNL A   1      31.505  25.956  22.130  1.00  0.00    -0.271 N 
ATOM     21  C   UNL A   1      30.345  27.350  23.224  1.00  0.00     0.135 A 
ATOM     22  N   UNL A   1      31.191  27.268  22.201  1.00  0.00    -0.181 NA
ATOM     23  C   UNL A   1      32.446  25.558  21.109  1.00  0.00     0.174 C 
ENDBRANCH  17  18
ENDBRANCH  15  17
ENDBRANCH  13  15
ENDBRANCH   8  13
ENDBRANCH   4   7
ENDBRANCH   2   3
ENDBRANCH   1   2
BRANCH   1  24
ATOM     24  C   UNL A   1      32.220  28.700  26.038  1.00  0.00     0.023 C 
BRANCH  24  25
ATOM     25  C   UNL A   1      33.619  29.237  26.335  1.00  0.00     0.116 C 
BRANCH  25  26
ATOM     26  N   UNL A   1      33.608  30.517  27.026  1.00  0.00    -0.352 N 
ATOM     27  C   UNL A   1      34.499  31.070  27.912  1.00  0.00     0.251 C 
ATOM     28  H   UNL A   1      32.830  31.084  26.822  1.00  0.00     0.163 HD
ATOM     29  O   UNL A   1      34.211  32.131  28.463  1.00  0.00    -0.269 OA
BRANCH  27  30
ATOM     30  C   UNL A   1      35.773  30.390  28.242  1.00  0.00     0.039 A 
ATOM     31  C   UNL A   1      36.801  30.402  27.295  1.00  0.00     0.014 A 
ATOM     32  C   UNL A   1      35.961  29.734  29.462  1.00  0.00     0.014 A 
ATOM     33  C   UNL A   1      38.047  29.849  27.608  1.00  0.00     0.010 A 
ATOM     34  C   UNL A   1      37.221  29.235  29.797  1.00  0.00     0.010 A 
ATOM     35  C   UNL A   1      38.282  29.308  28.881  1.00  0.00    -0.014 A 
BRANCH  35  36
ATOM     36  C   UNL A   1      39.640  28.875  29.299  1.00  0.00     0.031 A 
ATOM     37  C   UNL A   1      40.566  29.817  30.014  1.00  0.00     0.074 A 
ATOM     38  C   UNL A   1      40.083  27.655  28.937  1.00  0.00     0.049 A 
ATOM     39  N   UNL A   1      41.829  29.657  30.317  1.00  0.00    -0.248 NA
ATOM     40  C   UNL A   1      40.007  31.118  30.412  1.00  0.00     0.031 C 
ATOM     41  C   UNL A   1      39.314  26.660  28.186  1.00  0.00     0.029 A 
ATOM     42  N   UNL A   1      41.301  27.053  29.136  1.00  0.00    -0.354 N 
ATOM     43  C   UNL A   1      42.235  30.855  30.887  1.00  0.00     0.074 A 
ATOM     44  C   UNL A   1      41.078  31.728  30.901  1.00  0.00     0.031 C 
ATOM     45  C   UNL A   1      40.073  25.567  27.999  1.00  0.00     0.029 A 
ATOM     46  C   UNL A   1      41.388  25.796  28.590  1.00  0.00     0.049 A 
ATOM     47  H   UNL A   1      42.041  27.481  29.623  1.00  0.00     0.167 HD
ATOM     48  C   UNL A   1      43.461  31.206  31.346  1.00  0.00     0.031 A 
ATOM     49  C   UNL A   1      42.412  24.922  28.552  1.00  0.00     0.031 A 
ATOM     50  C   UNL A   1      44.604  30.335  31.381  1.00  0.00     0.049 A 
ATOM     51  C   UNL A   1      43.725  25.285  29.176  1.00  0.00     0.074 A 
ATOM     52  C   UNL A   1      45.872  30.593  31.877  1.00  0.00     0.029 A 
ATOM     53  N   UNL A   1      44.616  29.031  30.914  1.00  0.00    -0.354 N 
ATOM     54  N   UNL A   1      44.080  26.417  29.734  1.00  0.00    -0.248 NA
ATOM     55  C   UNL A   1      44.771  24.254  29.169  1.00  0.00     0.031 C 
ATOM     56  C   UNL A   1      46.651  29.439  31.707  1.00  0.00     0.029 A 
ATOM     57  C   UNL A   1      45.864  28.466  31.113  1.00  0.00     0.049 A 
ATOM     58  H   UNL A   1      43.849  28.573  30.500  1.00  0.00     0.167 HD
ATOM     59  C   UNL A   1      45.394  26.235  30.143  1.00  0.00     0.074 A 
ATOM     60  C   UNL A   1      45.766  24.881  29.783  1.00  0.00     0.031 C 
ATOM     61  C   UNL A   1      46.219  27.117  30.757  1.00  0.00     0.031 A 
BRANCH  48  62
ATOM     62  C   UNL A   1      43.616  32.621  31.822  1.00  0.00    -0.014 A 
ATOM     63  C   UNL A   1      43.785  33.677  30.910  1.00  0.00     0.010 A 
ATOM     64  C   UNL A   1      43.627  32.889  33.201  1.00  0.00     0.010 A 
ATOM     65  C   UNL A   1      44.020  34.974  31.372  1.00  0.00     0.020 A 
ATOM     66  C   UNL A   1      43.851  34.187  33.666  1.00  0.00     0.020 A 
ATOM     67  C   UNL A   1      44.072  35.217  32.748  1.00  0.00     0.054 A 
BRANCH  67  68
ATOM     68  S   UNL A   1      44.419  36.892  33.353  1.00  0.00     0.124 S 
ATOM     69  O   UNL A   1      44.984  37.525  32.164  1.00  0.00    -0.237 OA
ATOM     70  O   UNL A   1      43.105  37.383  33.758  1.00  0.00    -0.237 OA
ATOM     71  O   UNL A   1      45.359  36.664  34.449  1.00  0.00    -0.744 OA
ENDBRANCH  67  68
ENDBRANCH  48  62
BRANCH  49  72
ATOM     72  C   UNL A   1      42.211  23.606  27.899  1.00  0.00    -0.014 A 
ATOM     73  C   UNL A   1      42.623  23.409  26.571  1.00  0.00     0.010 A 
ATOM     74  C   UNL A   1      41.681  22.527  28.628  1.00  0.00     0.010 A 
ATOM     75  C   UNL A   1      42.522  22.147  25.982  1.00  0.00     0.020 A 
ATOM     76  C   UNL A   1      41.587  21.263  28.044  1.00  0.00     0.020 A 
ATOM     77  C   UNL A   1      42.008  21.080  26.724  1.00  0.00     0.054 A 
BRANCH  77  78
ATOM     78  S   UNL A   1      41.982  19.418  25.996  1.00  0.00     0.124 S 
ATOM     79  O   UNL A   1      42.498  18.600  27.089  1.00  0.00    -0.237 OA
ATOM     80  O   UNL A   1      40.571  19.222  25.673  1.00  0.00    -0.237 OA
ATOM     81  O   UNL A   1      42.861  19.550  24.837  1.00  0.00    -0.744 OA
ENDBRANCH  77  78
ENDBRANCH  49  72
BRANCH  61  82
ATOM     82  C   UNL A   1      47.601  26.638  31.089  1.00  0.00    -0.014 A 
ATOM     83  C   UNL A   1      48.660  26.837  30.186  1.00  0.00     0.010 A 
ATOM     84  C   UNL A   1      47.849  26.011  32.321  1.00  0.00     0.010 A 
ATOM     85  C   UNL A   1      49.948  26.397  30.503  1.00  0.00     0.020 A 
ATOM     86  C   UNL A   1      49.137  25.576  32.644  1.00  0.00     0.020 A 
ATOM     87  C   UNL A   1      50.176  25.760  31.728  1.00  0.00     0.054 A 
BRANCH  87  88
ATOM     88  S   UNL A   1      51.857  25.222  32.154  1.00  0.00     0.124 S 
ATOM     89  O   UNL A   1      52.054  25.852  33.456  1.00  0.00    -0.237 OA
ATOM     90  O   UNL A   1      51.744  23.764  32.174  1.00  0.00    -0.237 OA
ATOM     91  O   UNL A   1      52.669  25.760  31.066  1.00  0.00    -0.744 OA
ENDBRANCH  87  88
ENDBRANCH  61  82
ENDBRANCH  35  36
ENDBRANCH  27  30
ENDBRANCH  25  26
ENDBRANCH  24  25
ENDBRANCH   1  24
TORSDOF 18
ENDMDL
