MODEL 1
REMARK VINA RESULT:     -12.2      0.000      0.000
REMARK SMILES O=C(CCN1C(=O)/C(=C2/C(=O)N(Cc3ccccc3)c3ccccc32)SC1=S)NCCCCNC(=O)c1ccc(-c2c3nc(c(-c4ccc(S(=O)(=O)[O-])cc4)c4ccc([nH]4)c(-c4ccc(S(=O)(=O)[O-])cc4)c4nc(c(-c5ccc(S(=O)(=O)[O-])cc5)c5ccc2[nH]5)C=C4)C=C3)cc1
REMARK SMILES IDX 31 1 30 2 29 3 1 4 2 5 3 7 4 8 5 9 6 10 27 11 7 12 8 13
REMARK SMILES IDX 26 14 28 15 9 16 10 17 25 18 11 19 12 20 20 21 24 22 21 23
REMARK SMILES IDX 23 24 22 25 13 26 14 27 15 28 19 29 16 30 18 31 17 32 32 33
REMARK SMILES IDX 33 34 34 35 35 36 36 38 37 39 38 40 96 41 39 42 95 43 40 44
REMARK SMILES IDX 41 45 42 46 89 47 43 48 94 49 88 50 90 51 44 52 93 53 87 54
REMARK SMILES IDX 86 55 45 57 75 58 56 59 74 60 57 61 60 62 73 63 91 64 58 65
REMARK SMILES IDX 59 66 72 68 92 69 61 70 46 71 47 72 55 73 48 74 54 75 49 76
REMARK SMILES IDX 50 77 51 78 52 79 53 80 76 81 77 82 85 83 78 84 84 85 79 86
REMARK SMILES IDX 80 87 81 88 82 89 83 90 62 91 63 92 71 93 64 94 70 95 65 96
REMARK SMILES IDX 66 97 67 98 68 99 69 100
REMARK H PARENT 29 6 34 37 90 56 60 67
REMARK Flexibility Score: inf
ROOT
ATOM      1  C   UNL A   1      37.744  21.990  25.678  1.00  0.00     0.023 C 
ENDROOT
BRANCH   1   2
ATOM      2  C   UNL A   1      37.408  23.452  25.383  1.00  0.00     0.116 C 
BRANCH   2   3
ATOM      3  N   UNL A   1      36.141  23.624  24.690  1.00  0.00    -0.356 N 
ATOM      4  O   UNL A   1      36.831  22.803  22.657  1.00  0.00    -0.275 OA
ATOM      5  C   UNL A   1      35.938  23.219  23.388  1.00  0.00     0.221 C 
ATOM      6  H   UNL A   1      35.395  24.049  25.171  1.00  0.00     0.163 HD
BRANCH   5   7
ATOM      7  C   UNL A   1      34.502  23.323  22.907  1.00  0.00     0.122 C 
BRANCH   7   8
ATOM      8  C   UNL A   1      33.588  22.285  23.576  1.00  0.00     0.137 C 
BRANCH   8   9
ATOM      9  N   UNL A   1      32.794  22.879  24.658  1.00  0.00    -0.292 N 
ATOM     10  C   UNL A   1      31.770  23.743  24.314  1.00  0.00     0.267 C 
ATOM     11  C   UNL A   1      32.932  22.636  26.004  1.00  0.00     0.148 C 
ATOM     12  O   UNL A   1      31.200  23.745  23.237  1.00  0.00    -0.268 OA
ATOM     13  C   UNL A   1      31.493  24.656  25.453  1.00  0.00     0.093 C 
ATOM     14  S   UNL A   1      31.900  23.759  26.886  1.00  0.00    -0.053 SA
ATOM     15  S   UNL A   1      33.932  21.539  26.759  1.00  0.00    -0.052 S 
ATOM     16  C   UNL A   1      31.268  25.981  25.346  1.00  0.00     0.069 C 
ATOM     17  C   UNL A   1      31.232  26.901  26.546  1.00  0.00     0.260 C 
ATOM     18  C   UNL A   1      31.171  26.876  24.180  1.00  0.00     0.012 A 
ATOM     19  O   UNL A   1      31.095  26.556  27.694  1.00  0.00    -0.269 OA
ATOM     20  N   UNL A   1      31.380  28.198  26.064  1.00  0.00    -0.303 N 
ATOM     21  C   UNL A   1      31.141  28.188  24.684  1.00  0.00     0.052 A 
ATOM     22  C   UNL A   1      31.082  26.676  22.813  1.00  0.00     0.011 A 
ATOM     23  C   UNL A   1      30.831  29.263  23.877  1.00  0.00     0.027 A 
ATOM     24  C   UNL A   1      30.896  27.778  21.975  1.00  0.00     0.001 A 
ATOM     25  C   UNL A   1      30.737  29.059  22.506  1.00  0.00     0.002 A 
BRANCH  20  26
ATOM     26  C   UNL A   1      31.620  29.377  26.905  1.00  0.00     0.161 C 
BRANCH  26  27
ATOM     27  C   UNL A   1      33.072  29.803  27.172  1.00  0.00    -0.028 A 
ATOM     28  C   UNL A   1      34.141  28.896  27.167  1.00  0.00     0.005 A 
ATOM     29  C   UNL A   1      33.419  31.159  27.331  1.00  0.00     0.005 A 
ATOM     30  C   UNL A   1      35.465  29.290  27.391  1.00  0.00     0.000 A 
ATOM     31  C   UNL A   1      34.745  31.565  27.561  1.00  0.00     0.000 A 
ATOM     32  C   UNL A   1      35.768  30.626  27.602  1.00  0.00     0.000 A 
ENDBRANCH  26  27
ENDBRANCH  20  26
ENDBRANCH   8   9
ENDBRANCH   7   8
ENDBRANCH   5   7
ENDBRANCH   2   3
ENDBRANCH   1   2
BRANCH   1  33
ATOM     33  C   UNL A   1      39.207  21.709  26.025  1.00  0.00     0.023 C 
BRANCH  33  34
ATOM     34  C   UNL A   1      39.988  22.801  26.767  1.00  0.00     0.116 C 
BRANCH  34  35
ATOM     35  N   UNL A   1      41.254  23.164  26.149  1.00  0.00    -0.352 N 
ATOM     36  C   UNL A   1      42.065  24.275  26.309  1.00  0.00     0.251 C 
ATOM     37  H   UNL A   1      41.594  22.503  25.503  1.00  0.00     0.163 HD
ATOM     38  O   UNL A   1      43.062  24.369  25.591  1.00  0.00    -0.269 OA
BRANCH  36  39
ATOM     39  C   UNL A   1      41.740  25.402  27.235  1.00  0.00     0.039 A 
ATOM     40  C   UNL A   1      42.485  26.575  27.289  1.00  0.00     0.014 A 
ATOM     41  C   UNL A   1      40.625  25.285  28.080  1.00  0.00     0.014 A 
ATOM     42  C   UNL A   1      42.237  27.517  28.308  1.00  0.00     0.010 A 
ATOM     43  C   UNL A   1      40.347  26.260  29.061  1.00  0.00     0.010 A 
ATOM     44  C   UNL A   1      41.195  27.362  29.246  1.00  0.00    -0.014 A 
BRANCH  44  45
ATOM     45  C   UNL A   1      41.026  28.323  30.400  1.00  0.00     0.031 A 
ATOM     46  C   UNL A   1      39.913  29.367  30.431  1.00  0.00     0.074 A 
ATOM     47  C   UNL A   1      41.841  28.253  31.476  1.00  0.00     0.049 A 
ATOM     48  N   UNL A   1      39.650  30.280  31.340  1.00  0.00    -0.248 NA
ATOM     49  C   UNL A   1      38.973  29.394  29.302  1.00  0.00     0.031 C 
ATOM     50  C   UNL A   1      42.928  27.289  31.648  1.00  0.00     0.029 A 
ATOM     51  N   UNL A   1      41.871  28.988  32.644  1.00  0.00    -0.354 N 
ATOM     52  C   UNL A   1      38.537  30.988  30.885  1.00  0.00     0.074 A 
ATOM     53  C   UNL A   1      38.181  30.417  29.605  1.00  0.00     0.031 C 
ATOM     54  C   UNL A   1      43.467  27.441  32.865  1.00  0.00     0.029 A 
ATOM     55  C   UNL A   1      42.841  28.580  33.532  1.00  0.00     0.049 A 
ATOM     56  H   UNL A   1      41.256  29.734  32.825  1.00  0.00     0.167 HD
ATOM     57  C   UNL A   1      37.865  32.011  31.473  1.00  0.00     0.031 A 
ATOM     58  C   UNL A   1      43.219  29.061  34.737  1.00  0.00     0.031 A 
ATOM     59  C   UNL A   1      38.186  32.571  32.765  1.00  0.00     0.049 A 
ATOM     60  C   UNL A   1      42.516  30.255  35.326  1.00  0.00     0.074 A 
ATOM     61  C   UNL A   1      37.525  33.587  33.441  1.00  0.00     0.029 A 
ATOM     62  N   UNL A   1      39.234  32.175  33.579  1.00  0.00    -0.354 N 
ATOM     63  N   UNL A   1      41.465  30.895  34.877  1.00  0.00    -0.248 NA
ATOM     64  C   UNL A   1      43.053  30.794  36.585  1.00  0.00     0.031 C 
ATOM     65  C   UNL A   1      38.225  33.868  34.613  1.00  0.00     0.029 A 
ATOM     66  C   UNL A   1      39.262  32.959  34.724  1.00  0.00     0.049 A 
ATOM     67  H   UNL A   1      39.864  31.447  33.376  1.00  0.00     0.167 HD
ATOM     68  C   UNL A   1      41.198  31.890  35.813  1.00  0.00     0.074 A 
ATOM     69  C   UNL A   1      42.183  31.756  36.864  1.00  0.00     0.031 C 
ATOM     70  C   UNL A   1      40.224  32.831  35.791  1.00  0.00     0.031 A 
BRANCH  57  71
ATOM     71  C   UNL A   1      36.678  32.635  30.764  1.00  0.00    -0.014 A 
ATOM     72  C   UNL A   1      36.896  33.670  29.829  1.00  0.00     0.010 A 
ATOM     73  C   UNL A   1      35.364  32.371  31.186  1.00  0.00     0.010 A 
ATOM     74  C   UNL A   1      35.837  34.469  29.386  1.00  0.00     0.020 A 
ATOM     75  C   UNL A   1      34.296  33.149  30.719  1.00  0.00     0.020 A 
ATOM     76  C   UNL A   1      34.545  34.215  29.849  1.00  0.00     0.054 A 
BRANCH  76  77
ATOM     77  S   UNL A   1      33.197  35.320  29.337  1.00  0.00     0.124 S 
ATOM     78  O   UNL A   1      32.496  35.558  30.593  1.00  0.00    -0.237 OA
ATOM     79  O   UNL A   1      33.919  36.465  28.787  1.00  0.00    -0.237 OA
ATOM     80  O   UNL A   1      32.463  34.528  28.351  1.00  0.00    -0.744 OA
ENDBRANCH  76  77
ENDBRANCH  57  71
BRANCH  58  81
ATOM     81  C   UNL A   1      44.331  28.396  35.479  1.00  0.00    -0.014 A 
ATOM     82  C   UNL A   1      45.670  28.772  35.256  1.00  0.00     0.010 A 
ATOM     83  C   UNL A   1      44.061  27.353  36.384  1.00  0.00     0.010 A 
ATOM     84  C   UNL A   1      46.715  28.076  35.866  1.00  0.00     0.020 A 
ATOM     85  C   UNL A   1      45.104  26.685  37.033  1.00  0.00     0.020 A 
ATOM     86  C   UNL A   1      46.426  27.030  36.744  1.00  0.00     0.054 A 
BRANCH  86  87
ATOM     87  S   UNL A   1      47.803  26.121  37.498  1.00  0.00     0.124 S 
ATOM     88  O   UNL A   1      48.734  27.200  37.815  1.00  0.00    -0.237 OA
ATOM     89  O   UNL A   1      47.169  25.479  38.647  1.00  0.00    -0.237 OA
ATOM     90  O   UNL A   1      48.234  25.212  36.440  1.00  0.00    -0.744 OA
ENDBRANCH  86  87
ENDBRANCH  58  81
BRANCH  70  91
ATOM     91  C   UNL A   1      40.126  33.808  36.938  1.00  0.00    -0.014 A 
ATOM     92  C   UNL A   1      39.222  33.564  37.990  1.00  0.00     0.010 A 
ATOM     93  C   UNL A   1      40.816  35.034  36.908  1.00  0.00     0.010 A 
ATOM     94  C   UNL A   1      38.971  34.541  38.959  1.00  0.00     0.020 A 
ATOM     95  C   UNL A   1      40.597  36.000  37.897  1.00  0.00     0.020 A 
ATOM     96  C   UNL A   1      39.653  35.759  38.899  1.00  0.00     0.054 A 
BRANCH  96  97
ATOM     97  S   UNL A   1      39.271  37.035  40.131  1.00  0.00     0.124 S 
ATOM     98  O   UNL A   1      40.600  37.426  40.593  1.00  0.00    -0.237 OA
ATOM     99  O   UNL A   1      38.559  38.038  39.341  1.00  0.00    -0.237 OA
ATOM    100  O   UNL A   1      38.451  36.330  41.114  1.00  0.00    -0.744 OA
ENDBRANCH  96  97
ENDBRANCH  70  91
ENDBRANCH  44  45
ENDBRANCH  36  39
ENDBRANCH  34  35
ENDBRANCH  33  34
ENDBRANCH   1  33
TORSDOF 18
ENDMDL
MODEL 2
REMARK VINA RESULT:     -11.8      0.710      7.731
REMARK SMILES O=C(CCN1C(=O)/C(=C2/C(=O)N(Cc3ccccc3)c3ccccc32)SC1=S)NCCCCNC(=O)c1ccc(-c2c3nc(c(-c4ccc(S(=O)(=O)[O-])cc4)c4ccc([nH]4)c(-c4ccc(S(=O)(=O)[O-])cc4)c4nc(c(-c5ccc(S(=O)(=O)[O-])cc5)c5ccc2[nH]5)C=C4)C=C3)cc1
REMARK SMILES IDX 31 1 30 2 29 3 1 4 2 5 3 7 4 8 5 9 6 10 27 11 7 12 8 13
REMARK SMILES IDX 26 14 28 15 9 16 10 17 25 18 11 19 12 20 20 21 24 22 21 23
REMARK SMILES IDX 23 24 22 25 13 26 14 27 15 28 19 29 16 30 18 31 17 32 32 33
REMARK SMILES IDX 33 34 34 35 35 36 36 38 37 39 38 40 96 41 39 42 95 43 40 44
REMARK SMILES IDX 41 45 42 46 89 47 43 48 94 49 88 50 90 51 44 52 93 53 87 54
REMARK SMILES IDX 86 55 45 57 75 58 56 59 74 60 57 61 60 62 73 63 91 64 58 65
REMARK SMILES IDX 59 66 72 68 92 69 61 70 46 71 47 72 55 73 48 74 54 75 49 76
REMARK SMILES IDX 50 77 51 78 52 79 53 80 76 81 77 82 85 83 78 84 84 85 79 86
REMARK SMILES IDX 80 87 81 88 82 89 83 90 62 91 63 92 71 93 64 94 70 95 65 96
REMARK SMILES IDX 66 97 67 98 68 99 69 100
REMARK H PARENT 29 6 34 37 90 56 60 67
REMARK Flexibility Score: inf
ROOT
ATOM      1  C   UNL A   1      38.359  22.021  26.011  1.00  0.00     0.023 C 
ENDROOT
BRANCH   1   2
ATOM      2  C   UNL A   1      37.849  23.462  26.041  1.00  0.00     0.116 C 
BRANCH   2   3
ATOM      3  N   UNL A   1      36.782  23.716  25.086  1.00  0.00    -0.356 N 
ATOM      4  O   UNL A   1      36.976  21.737  23.933  1.00  0.00    -0.275 OA
ATOM      5  C   UNL A   1      36.387  22.792  24.142  1.00  0.00     0.221 C 
ATOM      6  H   UNL A   1      36.322  24.585  25.114  1.00  0.00     0.163 HD
BRANCH   5   7
ATOM      7  C   UNL A   1      35.143  23.175  23.360  1.00  0.00     0.122 C 
BRANCH   7   8
ATOM      8  C   UNL A   1      33.937  22.291  23.714  1.00  0.00     0.137 C 
BRANCH   8   9
ATOM      9  N   UNL A   1      33.109  22.900  24.763  1.00  0.00    -0.292 N 
ATOM     10  C   UNL A   1      32.058  23.711  24.372  1.00  0.00     0.267 C 
ATOM     11  C   UNL A   1      33.239  22.717  26.119  1.00  0.00     0.148 C 
ATOM     12  O   UNL A   1      31.502  23.647  23.290  1.00  0.00    -0.268 OA
ATOM     13  C   UNL A   1      31.734  24.658  25.469  1.00  0.00     0.093 C 
ATOM     14  S   UNL A   1      32.155  23.835  26.943  1.00  0.00    -0.053 SA
ATOM     15  S   UNL A   1      34.268  21.689  26.929  1.00  0.00    -0.052 S 
ATOM     16  C   UNL A   1      31.462  25.968  25.306  1.00  0.00     0.069 C 
ATOM     17  C   UNL A   1      31.377  26.935  26.467  1.00  0.00     0.260 C 
ATOM     18  C   UNL A   1      31.347  26.811  24.103  1.00  0.00     0.012 A 
ATOM     19  O   UNL A   1      31.239  26.632  27.626  1.00  0.00    -0.269 OA
ATOM     20  N   UNL A   1      31.484  28.215  25.933  1.00  0.00    -0.303 N 
ATOM     21  C   UNL A   1      31.263  28.140  24.552  1.00  0.00     0.052 A 
ATOM     22  C   UNL A   1      31.283  26.553  22.745  1.00  0.00     0.011 A 
ATOM     23  C   UNL A   1      30.924  29.170  23.699  1.00  0.00     0.027 A 
ATOM     24  C   UNL A   1      31.067  27.612  21.860  1.00  0.00     0.001 A 
ATOM     25  C   UNL A   1      30.855  28.907  22.336  1.00  0.00     0.002 A 
BRANCH  20  26
ATOM     26  C   UNL A   1      31.670  29.436  26.728  1.00  0.00     0.161 C 
BRANCH  26  27
ATOM     27  C   UNL A   1      33.101  29.854  27.104  1.00  0.00    -0.028 A 
ATOM     28  C   UNL A   1      34.191  28.977  27.026  1.00  0.00     0.005 A 
ATOM     29  C   UNL A   1      33.407  31.184  27.448  1.00  0.00     0.005 A 
ATOM     30  C   UNL A   1      35.496  29.366  27.350  1.00  0.00     0.000 A 
ATOM     31  C   UNL A   1      34.713  31.585  27.780  1.00  0.00     0.000 A 
ATOM     32  C   UNL A   1      35.758  30.669  27.742  1.00  0.00     0.000 A 
ENDBRANCH  26  27
ENDBRANCH  20  26
ENDBRANCH   8   9
ENDBRANCH   7   8
ENDBRANCH   5   7
ENDBRANCH   2   3
ENDBRANCH   1   2
BRANCH   1  33
ATOM     33  C   UNL A   1      39.864  21.852  26.225  1.00  0.00     0.023 C 
BRANCH  33  34
ATOM     34  C   UNL A   1      40.633  23.023  26.854  1.00  0.00     0.116 C 
BRANCH  34  35
ATOM     35  N   UNL A   1      41.056  24.044  25.909  1.00  0.00    -0.352 N 
ATOM     36  C   UNL A   1      41.311  25.395  26.074  1.00  0.00     0.251 C 
ATOM     37  H   UNL A   1      41.183  23.718  24.988  1.00  0.00     0.163 HD
ATOM     38  O   UNL A   1      41.584  26.057  25.073  1.00  0.00    -0.269 OA
BRANCH  36  39
ATOM     39  C   UNL A   1      41.177  26.101  27.385  1.00  0.00     0.039 A 
ATOM     40  C   UNL A   1      40.025  26.043  28.161  1.00  0.00     0.014 A 
ATOM     41  C   UNL A   1      42.264  26.848  27.866  1.00  0.00     0.014 A 
ATOM     42  C   UNL A   1      39.897  26.876  29.291  1.00  0.00     0.010 A 
ATOM     43  C   UNL A   1      42.149  27.636  29.031  1.00  0.00     0.010 A 
ATOM     44  C   UNL A   1      40.935  27.727  29.727  1.00  0.00    -0.014 A 
BRANCH  44  45
ATOM     45  C   UNL A   1      40.730  28.697  30.867  1.00  0.00     0.031 A 
ATOM     46  C   UNL A   1      41.630  28.704  32.099  1.00  0.00     0.074 A 
ATOM     47  C   UNL A   1      39.756  29.633  30.804  1.00  0.00     0.049 A 
ATOM     48  N   UNL A   1      41.569  29.460  33.173  1.00  0.00    -0.248 NA
ATOM     49  C   UNL A   1      42.742  27.744  32.136  1.00  0.00     0.031 C 
ATOM     50  C   UNL A   1      38.831  29.812  29.686  1.00  0.00     0.029 A 
ATOM     51  N   UNL A   1      39.393  30.628  31.688  1.00  0.00    -0.354 N 
ATOM     52  C   UNL A   1      42.614  29.056  34.006  1.00  0.00     0.074 A 
ATOM     53  C   UNL A   1      43.285  27.971  33.326  1.00  0.00     0.031 C 
ATOM     54  C   UNL A   1      38.062  30.885  29.914  1.00  0.00     0.029 A 
ATOM     55  C   UNL A   1      38.359  31.420  31.240  1.00  0.00     0.049 A 
ATOM     56  H   UNL A   1      39.833  30.760  32.559  1.00  0.00     0.167 HD
ATOM     57  C   UNL A   1      42.989  29.541  35.218  1.00  0.00     0.031 A 
ATOM     58  C   UNL A   1      37.695  32.445  31.816  1.00  0.00     0.031 A 
ATOM     59  C   UNL A   1      42.350  30.646  35.895  1.00  0.00     0.049 A 
ATOM     60  C   UNL A   1      38.071  32.905  33.200  1.00  0.00     0.074 A 
ATOM     61  C   UNL A   1      42.700  31.216  37.111  1.00  0.00     0.029 A 
ATOM     62  N   UNL A   1      41.252  31.351  35.432  1.00  0.00    -0.354 N 
ATOM     63  N   UNL A   1      39.066  32.510  33.956  1.00  0.00    -0.248 NA
ATOM     64  C   UNL A   1      37.233  33.948  33.810  1.00  0.00     0.031 C 
ATOM     65  C   UNL A   1      41.762  32.199  37.425  1.00  0.00     0.029 A 
ATOM     66  C   UNL A   1      40.887  32.315  36.360  1.00  0.00     0.049 A 
ATOM     67  H   UNL A   1      40.799  31.192  34.573  1.00  0.00     0.167 HD
ATOM     68  C   UNL A   1      38.989  33.278  35.115  1.00  0.00     0.074 A 
ATOM     69  C   UNL A   1      37.866  34.174  34.954  1.00  0.00     0.031 C 
ATOM     70  C   UNL A   1      39.782  33.231  36.212  1.00  0.00     0.031 A 
BRANCH  57  71
ATOM     71  C   UNL A   1      44.164  28.918  35.944  1.00  0.00    -0.014 A 
ATOM     72  C   UNL A   1      45.476  29.307  35.601  1.00  0.00     0.010 A 
ATOM     73  C   UNL A   1      43.988  27.800  36.778  1.00  0.00     0.010 A 
ATOM     74  C   UNL A   1      46.580  28.556  36.017  1.00  0.00     0.020 A 
ATOM     75  C   UNL A   1      45.092  27.063  37.225  1.00  0.00     0.020 A 
ATOM     76  C   UNL A   1      46.379  27.425  36.813  1.00  0.00     0.054 A 
BRANCH  76  77
ATOM     77  S   UNL A   1      47.813  26.408  37.267  1.00  0.00     0.124 S 
ATOM     78  O   UNL A   1      47.296  25.053  37.111  1.00  0.00    -0.237 OA
ATOM     79  O   UNL A   1      48.816  26.820  36.287  1.00  0.00    -0.237 OA
ATOM     80  O   UNL A   1      48.098  26.815  38.643  1.00  0.00    -0.744 OA
ENDBRANCH  76  77
ENDBRANCH  57  71
BRANCH  58  81
ATOM     81  C   UNL A   1      36.591  33.120  31.069  1.00  0.00    -0.014 A 
ATOM     82  C   UNL A   1      36.868  33.903  29.932  1.00  0.00     0.010 A 
ATOM     83  C   UNL A   1      35.262  33.018  31.516  1.00  0.00     0.010 A 
ATOM     84  C   UNL A   1      35.853  34.623  29.300  1.00  0.00     0.020 A 
ATOM     85  C   UNL A   1      34.235  33.701  30.858  1.00  0.00     0.020 A 
ATOM     86  C   UNL A   1      34.542  34.525  29.774  1.00  0.00     0.054 A 
BRANCH  86  87
ATOM     87  S   UNL A   1      33.248  35.496  28.955  1.00  0.00     0.124 S 
ATOM     88  O   UNL A   1      34.034  36.490  28.228  1.00  0.00    -0.237 OA
ATOM     89  O   UNL A   1      32.576  34.498  28.127  1.00  0.00    -0.237 OA
ATOM     90  O   UNL A   1      32.454  36.015  30.066  1.00  0.00    -0.744 OA
ENDBRANCH  86  87
ENDBRANCH  58  81
BRANCH  70  91
ATOM     91  C   UNL A   1      39.507  34.181  37.353  1.00  0.00    -0.014 A 
ATOM     92  C   UNL A   1      40.075  35.470  37.343  1.00  0.00     0.010 A 
ATOM     93  C   UNL A   1      38.810  33.757  38.499  1.00  0.00     0.010 A 
ATOM     94  C   UNL A   1      39.998  36.294  38.469  1.00  0.00     0.020 A 
ATOM     95  C   UNL A   1      38.697  34.593  39.615  1.00  0.00     0.020 A 
ATOM     96  C   UNL A   1      39.318  35.845  39.604  1.00  0.00     0.054 A 
BRANCH  96  97
ATOM     97  S   UNL A   1      39.279  36.906  41.076  1.00  0.00     0.124 S 
ATOM     98  O   UNL A   1      40.698  37.117  41.342  1.00  0.00    -0.237 OA
ATOM     99  O   UNL A   1      38.544  38.078  40.605  1.00  0.00    -0.237 OA
ATOM    100  O   UNL A   1      38.573  36.094  42.066  1.00  0.00    -0.744 OA
ENDBRANCH  96  97
ENDBRANCH  70  91
ENDBRANCH  44  45
ENDBRANCH  36  39
ENDBRANCH  34  35
ENDBRANCH  33  34
ENDBRANCH   1  33
TORSDOF 18
ENDMDL
MODEL 3
REMARK VINA RESULT:     -11.2      4.204      4.866
REMARK SMILES O=C(CCN1C(=O)/C(=C2/C(=O)N(Cc3ccccc3)c3ccccc32)SC1=S)NCCCCNC(=O)c1ccc(-c2c3nc(c(-c4ccc(S(=O)(=O)[O-])cc4)c4ccc([nH]4)c(-c4ccc(S(=O)(=O)[O-])cc4)c4nc(c(-c5ccc(S(=O)(=O)[O-])cc5)c5ccc2[nH]5)C=C4)C=C3)cc1
REMARK SMILES IDX 31 1 30 2 29 3 1 4 2 5 3 7 4 8 5 9 6 10 27 11 7 12 8 13
REMARK SMILES IDX 26 14 28 15 9 16 10 17 25 18 11 19 12 20 20 21 24 22 21 23
REMARK SMILES IDX 23 24 22 25 13 26 14 27 15 28 19 29 16 30 18 31 17 32 32 33
REMARK SMILES IDX 33 34 34 35 35 36 36 38 37 39 38 40 96 41 39 42 95 43 40 44
REMARK SMILES IDX 41 45 42 46 89 47 43 48 94 49 88 50 90 51 44 52 93 53 87 54
REMARK SMILES IDX 86 55 45 57 75 58 56 59 74 60 57 61 60 62 73 63 91 64 58 65
REMARK SMILES IDX 59 66 72 68 92 69 61 70 46 71 47 72 55 73 48 74 54 75 49 76
REMARK SMILES IDX 50 77 51 78 52 79 53 80 76 81 77 82 85 83 78 84 84 85 79 86
REMARK SMILES IDX 80 87 81 88 82 89 83 90 62 91 63 92 71 93 64 94 70 95 65 96
REMARK SMILES IDX 66 97 67 98 68 99 69 100
REMARK H PARENT 29 6 34 37 90 56 60 67
REMARK Flexibility Score: inf
ROOT
ATOM      1  C   UNL A   1      37.076  22.603  25.991  1.00  0.00     0.023 C 
ENDROOT
BRANCH   1   2
ATOM      2  C   UNL A   1      36.870  23.944  25.286  1.00  0.00     0.116 C 
BRANCH   2   3
ATOM      3  N   UNL A   1      35.645  24.001  24.503  1.00  0.00    -0.356 N 
ATOM      4  O   UNL A   1      36.397  22.740  22.734  1.00  0.00    -0.275 OA
ATOM      5  C   UNL A   1      35.488  23.331  23.308  1.00  0.00     0.221 C 
ATOM      6  H   UNL A   1      34.896  24.542  24.841  1.00  0.00     0.163 HD
BRANCH   5   7
ATOM      7  C   UNL A   1      34.082  23.372  22.738  1.00  0.00     0.122 C 
BRANCH   7   8
ATOM      8  C   UNL A   1      33.135  22.396  23.452  1.00  0.00     0.137 C 
BRANCH   8   9
ATOM      9  N   UNL A   1      32.443  23.038  24.577  1.00  0.00    -0.292 N 
ATOM     10  C   UNL A   1      31.449  23.956  24.289  1.00  0.00     0.267 C 
ATOM     11  C   UNL A   1      32.649  22.792  25.913  1.00  0.00     0.148 C 
ATOM     12  O   UNL A   1      30.816  23.986  23.249  1.00  0.00    -0.268 OA
ATOM     13  C   UNL A   1      31.293  24.887  25.436  1.00  0.00     0.093 C 
ATOM     14  S   UNL A   1      31.736  23.974  26.848  1.00  0.00    -0.053 SA
ATOM     15  S   UNL A   1      33.631  21.644  26.614  1.00  0.00    -0.052 S 
ATOM     16  C   UNL A   1      31.136  26.222  25.334  1.00  0.00     0.069 C 
ATOM     17  C   UNL A   1      31.224  27.148  26.528  1.00  0.00     0.260 C 
ATOM     18  C   UNL A   1      31.018  27.117  24.170  1.00  0.00     0.012 A 
ATOM     19  O   UNL A   1      31.139  26.815  27.684  1.00  0.00    -0.269 OA
ATOM     20  N   UNL A   1      31.414  28.432  26.028  1.00  0.00    -0.303 N 
ATOM     21  C   UNL A   1      31.091  28.430  24.666  1.00  0.00     0.052 A 
ATOM     22  C   UNL A   1      30.835  26.918  22.813  1.00  0.00     0.011 A 
ATOM     23  C   UNL A   1      30.793  29.518  23.872  1.00  0.00     0.027 A 
ATOM     24  C   UNL A   1      30.659  28.025  21.980  1.00  0.00     0.001 A 
ATOM     25  C   UNL A   1      30.605  29.315  22.511  1.00  0.00     0.002 A 
BRANCH  20  26
ATOM     26  C   UNL A   1      31.770  29.599  26.846  1.00  0.00     0.161 C 
BRANCH  26  27
ATOM     27  C   UNL A   1      33.257  29.879  27.114  1.00  0.00    -0.028 A 
ATOM     28  C   UNL A   1      33.733  31.140  27.499  1.00  0.00     0.005 A 
ATOM     29  C   UNL A   1      34.212  28.845  27.088  1.00  0.00     0.005 A 
ATOM     30  C   UNL A   1      35.085  31.387  27.762  1.00  0.00     0.000 A 
ATOM     31  C   UNL A   1      35.574  29.083  27.345  1.00  0.00     0.000 A 
ATOM     32  C   UNL A   1      36.012  30.360  27.671  1.00  0.00     0.000 A 
ENDBRANCH  26  27
ENDBRANCH  20  26
ENDBRANCH   8   9
ENDBRANCH   7   8
ENDBRANCH   5   7
ENDBRANCH   2   3
ENDBRANCH   1   2
BRANCH   1  33
ATOM     33  C   UNL A   1      38.342  21.841  25.596  1.00  0.00     0.023 C 
BRANCH  33  34
ATOM     34  C   UNL A   1      39.545  21.910  26.546  1.00  0.00     0.116 C 
BRANCH  34  35
ATOM     35  N   UNL A   1      40.837  21.753  25.897  1.00  0.00    -0.352 N 
ATOM     36  C   UNL A   1      41.930  22.599  25.817  1.00  0.00     0.251 C 
ATOM     37  H   UNL A   1      40.955  20.894  25.430  1.00  0.00     0.163 HD
ATOM     38  O   UNL A   1      42.886  22.244  25.125  1.00  0.00    -0.269 OA
BRANCH  36  39
ATOM     39  C   UNL A   1      41.967  23.954  26.448  1.00  0.00     0.039 A 
ATOM     40  C   UNL A   1      41.843  25.131  25.720  1.00  0.00     0.014 A 
ATOM     41  C   UNL A   1      42.120  24.049  27.841  1.00  0.00     0.014 A 
ATOM     42  C   UNL A   1      42.070  26.373  26.347  1.00  0.00     0.010 A 
ATOM     43  C   UNL A   1      42.289  25.299  28.472  1.00  0.00     0.010 A 
ATOM     44  C   UNL A   1      42.345  26.486  27.726  1.00  0.00    -0.014 A 
BRANCH  44  45
ATOM     45  C   UNL A   1      42.703  27.814  28.351  1.00  0.00     0.031 A 
ATOM     46  C   UNL A   1      41.640  28.794  28.840  1.00  0.00     0.074 A 
ATOM     47  C   UNL A   1      43.997  28.156  28.540  1.00  0.00     0.049 A 
ATOM     48  N   UNL A   1      41.788  29.985  29.378  1.00  0.00    -0.248 NA
ATOM     49  C   UNL A   1      40.232  28.392  28.714  1.00  0.00     0.031 C 
ATOM     50  C   UNL A   1      45.148  27.327  28.182  1.00  0.00     0.029 A 
ATOM     51  N   UNL A   1      44.568  29.280  29.101  1.00  0.00    -0.354 N 
ATOM     52  C   UNL A   1      40.504  30.469  29.634  1.00  0.00     0.074 A 
ATOM     53  C   UNL A   1      39.582  29.455  29.174  1.00  0.00     0.031 C 
ATOM     54  C   UNL A   1      46.272  27.930  28.592  1.00  0.00     0.029 A 
ATOM     55  C   UNL A   1      45.944  29.238  29.151  1.00  0.00     0.049 A 
ATOM     56  H   UNL A   1      44.041  30.041  29.434  1.00  0.00     0.167 HD
ATOM     57  C   UNL A   1      40.121  31.641  30.203  1.00  0.00     0.031 A 
ATOM     58  C   UNL A   1      46.857  30.140  29.571  1.00  0.00     0.031 A 
ATOM     59  C   UNL A   1      41.029  32.650  30.699  1.00  0.00     0.049 A 
ATOM     60  C   UNL A   1      46.409  31.471  30.114  1.00  0.00     0.074 A 
ATOM     61  C   UNL A   1      40.711  33.849  31.322  1.00  0.00     0.029 A 
ATOM     62  N   UNL A   1      42.411  32.591  30.643  1.00  0.00    -0.354 N 
ATOM     63  N   UNL A   1      45.192  31.895  30.351  1.00  0.00    -0.248 NA
ATOM     64  C   UNL A   1      47.458  32.447  30.446  1.00  0.00     0.031 C 
ATOM     65  C   UNL A   1      41.892  34.553  31.556  1.00  0.00     0.029 A 
ATOM     66  C   UNL A   1      42.953  33.751  31.176  1.00  0.00     0.049 A 
ATOM     67  H   UNL A   1      42.930  31.838  30.279  1.00  0.00     0.167 HD
ATOM     68  C   UNL A   1      45.333  33.172  30.886  1.00  0.00     0.074 A 
ATOM     69  C   UNL A   1      46.751  33.446  30.959  1.00  0.00     0.031 C 
ATOM     70  C   UNL A   1      44.364  34.036  31.274  1.00  0.00     0.031 A 
BRANCH  57  71
ATOM     71  C   UNL A   1      38.645  31.952  30.362  1.00  0.00    -0.014 A 
ATOM     72  C   UNL A   1      38.052  32.933  29.540  1.00  0.00     0.010 A 
ATOM     73  C   UNL A   1      37.917  31.457  31.458  1.00  0.00     0.010 A 
ATOM     74  C   UNL A   1      36.795  33.462  29.849  1.00  0.00     0.020 A 
ATOM     75  C   UNL A   1      36.643  31.960  31.751  1.00  0.00     0.020 A 
ATOM     76  C   UNL A   1      36.105  32.984  30.965  1.00  0.00     0.054 A 
BRANCH  76  77
ATOM     77  S   UNL A   1      34.516  33.746  31.405  1.00  0.00     0.124 S 
ATOM     78  O   UNL A   1      34.934  34.981  32.059  1.00  0.00    -0.237 OA
ATOM     79  O   UNL A   1      33.871  33.906  30.103  1.00  0.00    -0.237 OA
ATOM     80  O   UNL A   1      33.892  32.755  32.279  1.00  0.00    -0.744 OA
ENDBRANCH  76  77
ENDBRANCH  57  71
BRANCH  58  81
ATOM     81  C   UNL A   1      48.311  29.805  29.497  1.00  0.00    -0.014 A 
ATOM     82  C   UNL A   1      48.972  29.230  30.599  1.00  0.00     0.010 A 
ATOM     83  C   UNL A   1      49.052  30.098  28.338  1.00  0.00     0.010 A 
ATOM     84  C   UNL A   1      50.352  29.019  30.570  1.00  0.00     0.020 A 
ATOM     85  C   UNL A   1      50.426  29.846  28.289  1.00  0.00     0.020 A 
ATOM     86  C   UNL A   1      51.073  29.338  29.417  1.00  0.00     0.054 A 
BRANCH  86  87
ATOM     87  S   UNL A   1      52.869  29.085  29.417  1.00  0.00     0.124 S 
ATOM     88  O   UNL A   1      53.274  29.819  28.221  1.00  0.00    -0.237 OA
ATOM     89  O   UNL A   1      53.273  29.681  30.687  1.00  0.00    -0.237 OA
ATOM     90  O   UNL A   1      53.011  27.634  29.340  1.00  0.00    -0.744 OA
ENDBRANCH  86  87
ENDBRANCH  58  81
BRANCH  70  91
ATOM     91  C   UNL A   1      44.766  35.377  31.841  1.00  0.00    -0.014 A 
ATOM     92  C   UNL A   1      44.918  35.531  33.233  1.00  0.00     0.010 A 
ATOM     93  C   UNL A   1      44.852  36.516  31.020  1.00  0.00     0.010 A 
ATOM     94  C   UNL A   1      45.097  36.797  33.797  1.00  0.00     0.020 A 
ATOM     95  C   UNL A   1      45.069  37.782  31.577  1.00  0.00     0.020 A 
ATOM     96  C   UNL A   1      45.160  37.917  32.964  1.00  0.00     0.054 A 
BRANCH  96  97
ATOM     97  S   UNL A   1      45.334  39.559  33.720  1.00  0.00     0.124 S 
ATOM     98  O   UNL A   1      44.131  40.243  33.253  1.00  0.00    -0.237 OA
ATOM     99  O   UNL A   1      45.369  39.251  35.148  1.00  0.00    -0.237 OA
ATOM    100  O   UNL A   1      46.591  40.060  33.167  1.00  0.00    -0.744 OA
ENDBRANCH  96  97
ENDBRANCH  70  91
ENDBRANCH  44  45
ENDBRANCH  36  39
ENDBRANCH  34  35
ENDBRANCH  33  34
ENDBRANCH   1  33
TORSDOF 18
ENDMDL
