MODEL 1
REMARK VINA RESULT:     -10.5      0.000      0.000
REMARK SMILES C[C@H](C(=O)NCCCCNC(=O)c1ccc(-c2c3nc(c(-c4ccc(S(=O)(=O)[O-])cc4)c4ccc([nH]4)c(-c4ccc(S(=O)(=O)[O-])cc4)c4nc(c(-c5ccc(S(=O)(=O)[O-])cc5)c5ccc2[nH]5)C=C4)C=C3)cc1)[C@@H](C)Nc1cc(F)cc(F)c1F
REMARK SMILES IDX 7 1 6 2 5 3 3 4 4 5 2 7 1 8 73 9 74 10 75 11 76 13 77 14
REMARK SMILES IDX 83 15 78 16 81 17 84 18 79 19 80 20 82 21 8 22 9 23 10 24
REMARK SMILES IDX 11 25 12 27 13 28 14 29 72 30 15 31 71 32 16 33 17 34 18 35
REMARK SMILES IDX 65 36 19 37 70 38 64 39 66 40 20 41 69 42 63 43 62 44 21 46
REMARK SMILES IDX 51 47 32 48 50 49 33 50 36 51 49 52 67 53 34 54 35 55 48 57
REMARK SMILES IDX 68 58 37 59 22 60 23 61 31 62 24 63 30 64 25 65 26 66 27 67
REMARK SMILES IDX 28 68 29 69 52 70 53 71 61 72 54 73 60 74 55 75 56 76 57 77
REMARK SMILES IDX 58 78 59 79 38 80 39 81 47 82 40 83 46 84 41 85 42 86 43 87
REMARK SMILES IDX 44 88 45 89
REMARK H PARENT 5 6 75 12 10 26 66 45 36 56
REMARK Flexibility Score: inf
ROOT
ATOM      1  C   UNL A   1      32.216  26.451  26.606  1.00  0.00     0.023 C 
ENDROOT
BRANCH   1   2
ATOM      2  C   UNL A   1      30.896  26.150  25.908  1.00  0.00     0.116 C 
BRANCH   2   3
ATOM      3  N   UNL A   1      30.143  25.076  26.540  1.00  0.00    -0.356 N 
ATOM      4  C   UNL A   1      30.333  23.748  26.730  1.00  0.00     0.224 C 
ATOM      5  O   UNL A   1      29.568  23.223  27.553  1.00  0.00    -0.275 OA
ATOM      6  H   UNL A   1      29.291  25.391  26.921  1.00  0.00     0.163 HD
BRANCH   4   7
ATOM      7  C   UNL A   1      31.292  22.832  25.955  1.00  0.00     0.097 C 
ATOM      8  C   UNL A   1      31.001  23.056  24.462  1.00  0.00     0.020 C 
BRANCH   7   9
ATOM      9  C   UNL A   1      32.788  22.935  26.270  1.00  0.00     0.088 C 
ATOM     10  C   UNL A   1      33.120  22.326  27.636  1.00  0.00     0.031 C 
BRANCH   9  11
ATOM     11  N   UNL A   1      33.609  22.247  25.270  1.00  0.00    -0.379 N 
ATOM     12  H   UNL A   1      33.155  21.815  24.511  1.00  0.00     0.160 HD
BRANCH  11  13
ATOM     13  C   UNL A   1      34.995  22.169  25.335  1.00  0.00     0.077 A 
ATOM     14  C   UNL A   1      35.591  20.914  25.138  1.00  0.00     0.068 A 
ATOM     15  C   UNL A   1      35.865  23.267  25.493  1.00  0.00     0.182 A 
ATOM     16  C   UNL A   1      36.979  20.776  25.080  1.00  0.00     0.128 A 
ATOM     17  C   UNL A   1      37.251  23.113  25.426  1.00  0.00     0.163 A 
ATOM     18  F   UNL A   1      35.390  24.500  25.736  1.00  0.00    -0.201 F 
ATOM     19  F   UNL A   1      37.507  19.562  24.875  1.00  0.00    -0.207 F 
ATOM     20  C   UNL A   1      37.820  21.869  25.214  1.00  0.00     0.081 A 
ATOM     21  F   UNL A   1      38.049  24.181  25.563  1.00  0.00    -0.204 F 
ENDBRANCH  11  13
ENDBRANCH   9  11
ENDBRANCH   7   9
ENDBRANCH   4   7
ENDBRANCH   2   3
ENDBRANCH   1   2
BRANCH   1  22
ATOM     22  C   UNL A   1      33.274  27.097  25.708  1.00  0.00     0.023 C 
BRANCH  22  23
ATOM     23  C   UNL A   1      34.275  28.009  26.416  1.00  0.00     0.116 C 
BRANCH  23  24
ATOM     24  N   UNL A   1      33.728  29.297  26.815  1.00  0.00    -0.352 N 
ATOM     25  C   UNL A   1      34.329  30.277  27.573  1.00  0.00     0.251 C 
ATOM     26  H   UNL A   1      32.815  29.493  26.504  1.00  0.00     0.163 HD
ATOM     27  O   UNL A   1      33.706  31.285  27.892  1.00  0.00    -0.269 OA
BRANCH  25  28
ATOM     28  C   UNL A   1      35.717  30.076  28.036  1.00  0.00     0.039 A 
ATOM     29  C   UNL A   1      35.933  29.571  29.320  1.00  0.00     0.014 A 
ATOM     30  C   UNL A   1      36.794  30.334  27.185  1.00  0.00     0.014 A 
ATOM     31  C   UNL A   1      37.231  29.260  29.727  1.00  0.00     0.010 A 
ATOM     32  C   UNL A   1      38.078  29.955  27.565  1.00  0.00     0.010 A 
ATOM     33  C   UNL A   1      38.309  29.417  28.840  1.00  0.00    -0.014 A 
BRANCH  33  34
ATOM     34  C   UNL A   1      39.688  29.027  29.231  1.00  0.00     0.031 A 
ATOM     35  C   UNL A   1      40.558  29.997  29.983  1.00  0.00     0.074 A 
ATOM     36  C   UNL A   1      40.175  27.827  28.859  1.00  0.00     0.049 A 
ATOM     37  N   UNL A   1      41.795  29.854  30.385  1.00  0.00    -0.248 NA
ATOM     38  C   UNL A   1      39.973  31.310  30.297  1.00  0.00     0.031 C 
ATOM     39  C   UNL A   1      39.447  26.818  28.086  1.00  0.00     0.029 A 
ATOM     40  N   UNL A   1      41.400  27.252  29.084  1.00  0.00    -0.354 N 
ATOM     41  C   UNL A   1      42.141  31.062  30.980  1.00  0.00     0.074 A 
ATOM     42  C   UNL A   1      41.002  31.944  30.838  1.00  0.00     0.031 C 
ATOM     43  C   UNL A   1      40.225  25.734  27.934  1.00  0.00     0.029 A 
ATOM     44  C   UNL A   1      41.517  25.982  28.568  1.00  0.00     0.049 A 
ATOM     45  H   UNL A   1      42.128  27.704  29.568  1.00  0.00     0.167 HD
ATOM     46  C   UNL A   1      43.293  31.402  31.606  1.00  0.00     0.031 A 
ATOM     47  C   UNL A   1      42.545  25.113  28.606  1.00  0.00     0.031 A 
ATOM     48  C   UNL A   1      44.415  30.517  31.762  1.00  0.00     0.049 A 
ATOM     49  C   UNL A   1      43.809  25.507  29.321  1.00  0.00     0.074 A 
ATOM     50  C   UNL A   1      45.603  30.741  32.436  1.00  0.00     0.029 A 
ATOM     51  N   UNL A   1      44.487  29.235  31.238  1.00  0.00    -0.354 N 
ATOM     52  N   UNL A   1      44.091  26.629  29.939  1.00  0.00    -0.248 NA
ATOM     53  C   UNL A   1      44.887  24.510  29.355  1.00  0.00     0.031 C 
ATOM     54  C   UNL A   1      46.411  29.609  32.284  1.00  0.00     0.029 A 
ATOM     55  C   UNL A   1      45.706  28.662  31.558  1.00  0.00     0.049 A 
ATOM     56  H   UNL A   1      43.778  28.797  30.716  1.00  0.00     0.167 HD
ATOM     57  C   UNL A   1      45.368  26.461  30.463  1.00  0.00     0.074 A 
ATOM     58  C   UNL A   1      45.797  25.126  30.098  1.00  0.00     0.031 C 
ATOM     59  C   UNL A   1      46.117  27.331  31.186  1.00  0.00     0.031 A 
BRANCH  46  60
ATOM     60  C   UNL A   1      43.389  32.799  32.161  1.00  0.00    -0.014 A 
ATOM     61  C   UNL A   1      43.714  33.889  31.333  1.00  0.00     0.010 A 
ATOM     62  C   UNL A   1      43.142  33.027  33.526  1.00  0.00     0.010 A 
ATOM     63  C   UNL A   1      43.846  35.172  31.870  1.00  0.00     0.020 A 
ATOM     64  C   UNL A   1      43.245  34.314  34.063  1.00  0.00     0.020 A 
ATOM     65  C   UNL A   1      43.619  35.375  33.234  1.00  0.00     0.054 A 
BRANCH  65  66
ATOM     66  S   UNL A   1      43.799  37.049  33.909  1.00  0.00     0.124 S 
ATOM     67  O   UNL A   1      44.172  37.812  32.719  1.00  0.00    -0.237 OA
ATOM     68  O   UNL A   1      42.467  37.328  34.438  1.00  0.00    -0.237 OA
ATOM     69  O   UNL A   1      44.849  36.908  34.913  1.00  0.00    -0.744 OA
ENDBRANCH  65  66
ENDBRANCH  46  60
BRANCH  47  70
ATOM     70  C   UNL A   1      42.406  23.766  27.989  1.00  0.00    -0.014 A 
ATOM     71  C   UNL A   1      41.863  22.701  28.730  1.00  0.00     0.010 A 
ATOM     72  C   UNL A   1      42.802  23.543  26.658  1.00  0.00     0.010 A 
ATOM     73  C   UNL A   1      41.734  21.433  28.158  1.00  0.00     0.020 A 
ATOM     74  C   UNL A   1      42.652  22.281  26.075  1.00  0.00     0.020 A 
ATOM     75  C   UNL A   1      42.129  21.231  26.833  1.00  0.00     0.054 A 
BRANCH  75  76
ATOM     76  S   UNL A   1      41.904  19.588  26.093  1.00  0.00     0.124 S 
ATOM     77  O   UNL A   1      42.405  18.711  27.146  1.00  0.00    -0.237 OA
ATOM     78  O   UNL A   1      40.463  19.541  25.860  1.00  0.00    -0.237 OA
ATOM     79  O   UNL A   1      42.720  19.647  24.883  1.00  0.00    -0.744 OA
ENDBRANCH  75  76
ENDBRANCH  47  70
BRANCH  59  80
ATOM     80  C   UNL A   1      47.461  26.853  31.663  1.00  0.00    -0.014 A 
ATOM     81  C   UNL A   1      47.605  26.188  32.892  1.00  0.00     0.010 A 
ATOM     82  C   UNL A   1      48.590  27.038  30.844  1.00  0.00     0.010 A 
ATOM     83  C   UNL A   1      48.863  25.747  33.313  1.00  0.00     0.020 A 
ATOM     84  C   UNL A   1      49.845  26.575  31.250  1.00  0.00     0.020 A 
ATOM     85  C   UNL A   1      49.975  25.947  32.490  1.00  0.00     0.054 A 
BRANCH  85  86
ATOM     86  S   UNL A   1      51.593  25.337  33.039  1.00  0.00     0.124 S 
ATOM     87  O   UNL A   1      51.895  24.329  32.027  1.00  0.00    -0.237 OA
ATOM     88  O   UNL A   1      52.422  26.539  32.994  1.00  0.00    -0.237 OA
ATOM     89  O   UNL A   1      51.330  24.819  34.379  1.00  0.00    -0.744 OA
ENDBRANCH  85  86
ENDBRANCH  59  80
ENDBRANCH  33  34
ENDBRANCH  25  28
ENDBRANCH  23  24
ENDBRANCH  22  23
ENDBRANCH   1  22
TORSDOF 17
ENDMDL
MODEL 2
REMARK VINA RESULT:     -10.3      3.410      5.048
REMARK SMILES C[C@H](C(=O)NCCCCNC(=O)c1ccc(-c2c3nc(c(-c4ccc(S(=O)(=O)[O-])cc4)c4ccc([nH]4)c(-c4ccc(S(=O)(=O)[O-])cc4)c4nc(c(-c5ccc(S(=O)(=O)[O-])cc5)c5ccc2[nH]5)C=C4)C=C3)cc1)[C@@H](C)Nc1cc(F)cc(F)c1F
REMARK SMILES IDX 7 1 6 2 5 3 3 4 4 5 2 7 1 8 73 9 74 10 75 11 76 13 77 14
REMARK SMILES IDX 83 15 78 16 81 17 84 18 79 19 80 20 82 21 8 22 9 23 10 24
REMARK SMILES IDX 11 25 12 27 13 28 14 29 72 30 15 31 71 32 16 33 17 34 18 35
REMARK SMILES IDX 65 36 19 37 70 38 64 39 66 40 20 41 69 42 63 43 62 44 21 46
REMARK SMILES IDX 51 47 32 48 50 49 33 50 36 51 49 52 67 53 34 54 35 55 48 57
REMARK SMILES IDX 68 58 37 59 22 60 23 61 31 62 24 63 30 64 25 65 26 66 27 67
REMARK SMILES IDX 28 68 29 69 52 70 53 71 61 72 54 73 60 74 55 75 56 76 57 77
REMARK SMILES IDX 58 78 59 79 38 80 39 81 47 82 40 83 46 84 41 85 42 86 43 87
REMARK SMILES IDX 44 88 45 89
REMARK H PARENT 5 6 75 12 10 26 66 45 36 56
REMARK Flexibility Score: inf
ROOT
ATOM      1  C   UNL A   1      31.701  27.836  26.589  1.00  0.00     0.023 C 
ENDROOT
BRANCH   1   2
ATOM      2  C   UNL A   1      31.378  26.405  26.179  1.00  0.00     0.116 C 
BRANCH   2   3
ATOM      3  N   UNL A   1      32.517  25.699  25.609  1.00  0.00    -0.356 N 
ATOM      4  C   UNL A   1      33.176  25.732  24.425  1.00  0.00     0.224 C 
ATOM      5  O   UNL A   1      34.271  25.149  24.421  1.00  0.00    -0.275 OA
ATOM      6  H   UNL A   1      32.900  25.041  26.233  1.00  0.00     0.163 HD
BRANCH   4   7
ATOM      7  C   UNL A   1      32.657  26.295  23.093  1.00  0.00     0.097 C 
ATOM      8  C   UNL A   1      31.524  25.361  22.635  1.00  0.00     0.020 C 
BRANCH   7   9
ATOM      9  C   UNL A   1      32.237  27.767  23.056  1.00  0.00     0.088 C 
ATOM     10  C   UNL A   1      33.429  28.686  22.765  1.00  0.00     0.031 C 
BRANCH   9  11
ATOM     11  N   UNL A   1      31.223  28.025  22.030  1.00  0.00    -0.379 N 
ATOM     12  H   UNL A   1      31.384  27.686  21.120  1.00  0.00     0.160 HD
BRANCH  11  13
ATOM     13  C   UNL A   1      30.045  28.722  22.272  1.00  0.00     0.077 A 
ATOM     14  C   UNL A   1      29.917  30.004  21.717  1.00  0.00     0.068 A 
ATOM     15  C   UNL A   1      28.923  28.211  22.955  1.00  0.00     0.182 A 
ATOM     16  C   UNL A   1      28.724  30.721  21.824  1.00  0.00     0.128 A 
ATOM     17  C   UNL A   1      27.734  28.938  23.048  1.00  0.00     0.163 A 
ATOM     18  F   UNL A   1      28.966  27.013  23.562  1.00  0.00    -0.201 F 
ATOM     19  F   UNL A   1      28.638  31.936  21.266  1.00  0.00    -0.207 F 
ATOM     20  C   UNL A   1      27.622  30.194  22.478  1.00  0.00     0.081 A 
ATOM     21  F   UNL A   1      26.681  28.415  23.690  1.00  0.00    -0.204 F 
ENDBRANCH  11  13
ENDBRANCH   9  11
ENDBRANCH   7   9
ENDBRANCH   4   7
ENDBRANCH   2   3
ENDBRANCH   1   2
BRANCH   1  22
ATOM     22  C   UNL A   1      33.149  28.057  27.031  1.00  0.00     0.023 C 
BRANCH  22  23
ATOM     23  C   UNL A   1      33.907  29.158  26.290  1.00  0.00     0.116 C 
BRANCH  23  24
ATOM     24  N   UNL A   1      33.635  30.501  26.781  1.00  0.00    -0.352 N 
ATOM     25  C   UNL A   1      34.359  31.234  27.694  1.00  0.00     0.251 C 
ATOM     26  H   UNL A   1      32.834  30.940  26.414  1.00  0.00     0.163 HD
ATOM     27  O   UNL A   1      33.958  32.333  28.067  1.00  0.00    -0.269 OA
BRANCH  25  28
ATOM     28  C   UNL A   1      35.601  30.662  28.252  1.00  0.00     0.039 A 
ATOM     29  C   UNL A   1      36.829  31.100  27.752  1.00  0.00     0.014 A 
ATOM     30  C   UNL A   1      35.550  29.739  29.299  1.00  0.00     0.014 A 
ATOM     31  C   UNL A   1      38.010  30.662  28.352  1.00  0.00     0.010 A 
ATOM     32  C   UNL A   1      36.725  29.361  29.941  1.00  0.00     0.010 A 
ATOM     33  C   UNL A   1      37.966  29.817  29.473  1.00  0.00    -0.014 A 
BRANCH  33  34
ATOM     34  C   UNL A   1      39.210  29.395  30.166  1.00  0.00     0.031 A 
ATOM     35  C   UNL A   1      39.638  30.087  31.432  1.00  0.00     0.074 A 
ATOM     36  C   UNL A   1      39.984  28.434  29.625  1.00  0.00     0.049 A 
ATOM     37  N   UNL A   1      40.703  29.883  32.162  1.00  0.00    -0.248 NA
ATOM     38  C   UNL A   1      38.770  31.169  31.924  1.00  0.00     0.031 C 
ATOM     39  C   UNL A   1      39.704  27.722  28.376  1.00  0.00     0.029 A 
ATOM     40  N   UNL A   1      41.166  27.888  30.058  1.00  0.00    -0.354 N 
ATOM     41  C   UNL A   1      40.645  30.823  33.186  1.00  0.00     0.074 A 
ATOM     42  C   UNL A   1      39.467  31.630  32.951  1.00  0.00     0.031 C 
ATOM     43  C   UNL A   1      40.665  26.808  28.164  1.00  0.00     0.029 A 
ATOM     44  C   UNL A   1      41.646  26.891  29.242  1.00  0.00     0.049 A 
ATOM     45  H   UNL A   1      41.627  28.183  30.876  1.00  0.00     0.167 HD
ATOM     46  C   UNL A   1      41.482  30.987  34.239  1.00  0.00     0.031 A 
ATOM     47  C   UNL A   1      42.749  26.125  29.352  1.00  0.00     0.031 A 
ATOM     48  C   UNL A   1      42.640  30.170  34.479  1.00  0.00     0.049 A 
ATOM     49  C   UNL A   1      43.655  26.315  30.538  1.00  0.00     0.074 A 
ATOM     50  C   UNL A   1      43.516  30.211  35.550  1.00  0.00     0.029 A 
ATOM     51  N   UNL A   1      43.083  29.161  33.637  1.00  0.00    -0.354 N 
ATOM     52  N   UNL A   1      43.545  27.162  31.533  1.00  0.00    -0.248 NA
ATOM     53  C   UNL A   1      44.829  25.434  30.621  1.00  0.00     0.031 C 
ATOM     54  C   UNL A   1      44.514  29.254  35.334  1.00  0.00     0.029 A 
ATOM     55  C   UNL A   1      44.231  28.584  34.154  1.00  0.00     0.049 A 
ATOM     56  H   UNL A   1      42.648  28.895  32.796  1.00  0.00     0.167 HD
ATOM     57  C   UNL A   1      44.616  26.894  32.378  1.00  0.00     0.074 A 
ATOM     58  C   UNL A   1      45.356  25.801  31.781  1.00  0.00     0.031 C 
ATOM     59  C   UNL A   1      44.955  27.496  33.546  1.00  0.00     0.031 A 
BRANCH  46  60
ATOM     60  C   UNL A   1      41.168  32.101  35.201  1.00  0.00    -0.014 A 
ATOM     61  C   UNL A   1      40.336  31.886  36.316  1.00  0.00     0.010 A 
ATOM     62  C   UNL A   1      41.719  33.379  34.996  1.00  0.00     0.010 A 
ATOM     63  C   UNL A   1      40.015  32.941  37.174  1.00  0.00     0.020 A 
ATOM     64  C   UNL A   1      41.423  34.430  35.868  1.00  0.00     0.020 A 
ATOM     65  C   UNL A   1      40.554  34.209  36.939  1.00  0.00     0.054 A 
BRANCH  65  66
ATOM     66  S   UNL A   1      40.121  35.562  38.067  1.00  0.00     0.124 S 
ATOM     67  O   UNL A   1      41.332  35.676  38.877  1.00  0.00    -0.237 OA
ATOM     68  O   UNL A   1      39.870  36.675  37.155  1.00  0.00    -0.237 OA
ATOM     69  O   UNL A   1      38.945  35.062  38.773  1.00  0.00    -0.744 OA
ENDBRANCH  65  66
ENDBRANCH  46  60
BRANCH  47  70
ATOM     70  C   UNL A   1      43.033  25.077  28.335  1.00  0.00    -0.014 A 
ATOM     71  C   UNL A   1      43.861  25.364  27.236  1.00  0.00     0.010 A 
ATOM     72  C   UNL A   1      42.490  23.786  28.465  1.00  0.00     0.010 A 
ATOM     73  C   UNL A   1      44.129  24.386  26.275  1.00  0.00     0.020 A 
ATOM     74  C   UNL A   1      42.775  22.798  27.517  1.00  0.00     0.020 A 
ATOM     75  C   UNL A   1      43.584  23.108  26.422  1.00  0.00     0.054 A 
BRANCH  75  76
ATOM     76  S   UNL A   1      43.985  21.837  25.189  1.00  0.00     0.124 S 
ATOM     77  O   UNL A   1      43.008  20.797  25.497  1.00  0.00    -0.237 OA
ATOM     78  O   UNL A   1      43.781  22.545  23.928  1.00  0.00    -0.237 OA
ATOM     79  O   UNL A   1      45.375  21.501  25.488  1.00  0.00    -0.744 OA
ENDBRANCH  75  76
ENDBRANCH  47  70
BRANCH  59  80
ATOM     80  C   UNL A   1      46.156  26.959  34.274  1.00  0.00    -0.014 A 
ATOM     81  C   UNL A   1      46.036  25.925  35.218  1.00  0.00     0.010 A 
ATOM     82  C   UNL A   1      47.431  27.474  33.977  1.00  0.00     0.010 A 
ATOM     83  C   UNL A   1      47.167  25.438  35.879  1.00  0.00     0.020 A 
ATOM     84  C   UNL A   1      48.567  26.971  34.616  1.00  0.00     0.020 A 
ATOM     85  C   UNL A   1      48.426  25.967  35.576  1.00  0.00     0.054 A 
BRANCH  85  86
ATOM     86  S   UNL A   1      49.885  25.297  36.420  1.00  0.00     0.124 S 
ATOM     87  O   UNL A   1      49.299  24.727  37.630  1.00  0.00    -0.237 OA
ATOM     88  O   UNL A   1      50.398  24.328  35.454  1.00  0.00    -0.237 OA
ATOM     89  O   UNL A   1      50.732  26.468  36.627  1.00  0.00    -0.744 OA
ENDBRANCH  85  86
ENDBRANCH  59  80
ENDBRANCH  33  34
ENDBRANCH  25  28
ENDBRANCH  23  24
ENDBRANCH  22  23
ENDBRANCH   1  22
TORSDOF 17
ENDMDL
MODEL 3
REMARK VINA RESULT:     -10.1      2.313      2.880
REMARK SMILES C[C@H](C(=O)NCCCCNC(=O)c1ccc(-c2c3nc(c(-c4ccc(S(=O)(=O)[O-])cc4)c4ccc([nH]4)c(-c4ccc(S(=O)(=O)[O-])cc4)c4nc(c(-c5ccc(S(=O)(=O)[O-])cc5)c5ccc2[nH]5)C=C4)C=C3)cc1)[C@@H](C)Nc1cc(F)cc(F)c1F
REMARK SMILES IDX 7 1 6 2 5 3 3 4 4 5 2 7 1 8 73 9 74 10 75 11 76 13 77 14
REMARK SMILES IDX 83 15 78 16 81 17 84 18 79 19 80 20 82 21 8 22 9 23 10 24
REMARK SMILES IDX 11 25 12 27 13 28 14 29 72 30 15 31 71 32 16 33 17 34 18 35
REMARK SMILES IDX 65 36 19 37 70 38 64 39 66 40 20 41 69 42 63 43 62 44 21 46
REMARK SMILES IDX 51 47 32 48 50 49 33 50 36 51 49 52 67 53 34 54 35 55 48 57
REMARK SMILES IDX 68 58 37 59 22 60 23 61 31 62 24 63 30 64 25 65 26 66 27 67
REMARK SMILES IDX 28 68 29 69 52 70 53 71 61 72 54 73 60 74 55 75 56 76 57 77
REMARK SMILES IDX 58 78 59 79 38 80 39 81 47 82 40 83 46 84 41 85 42 86 43 87
REMARK SMILES IDX 44 88 45 89
REMARK H PARENT 5 6 75 12 10 26 66 45 36 56
REMARK Flexibility Score: inf
ROOT
ATOM      1  C   UNL A   1      31.976  28.012  27.173  1.00  0.00     0.023 C 
ENDROOT
BRANCH   1   2
ATOM      2  C   UNL A   1      31.085  27.188  26.251  1.00  0.00     0.116 C 
BRANCH   2   3
ATOM      3  N   UNL A   1      30.813  25.851  26.758  1.00  0.00    -0.356 N 
ATOM      4  C   UNL A   1      31.050  24.589  26.323  1.00  0.00     0.224 C 
ATOM      5  O   UNL A   1      30.890  23.704  27.177  1.00  0.00    -0.275 OA
ATOM      6  H   UNL A   1      30.344  25.867  27.624  1.00  0.00     0.163 HD
BRANCH   4   7
ATOM      7  C   UNL A   1      31.367  24.152  24.885  1.00  0.00     0.097 C 
ATOM      8  C   UNL A   1      30.536  25.056  23.959  1.00  0.00     0.020 C 
BRANCH   7   9
ATOM      9  C   UNL A   1      32.838  24.095  24.463  1.00  0.00     0.088 C 
ATOM     10  C   UNL A   1      33.312  25.433  23.886  1.00  0.00     0.031 C 
BRANCH   9  11
ATOM     11  N   UNL A   1      33.720  23.763  25.585  1.00  0.00    -0.379 N 
ATOM     12  H   UNL A   1      33.589  24.239  26.438  1.00  0.00     0.160 HD
BRANCH  11  13
ATOM     13  C   UNL A   1      34.732  22.814  25.513  1.00  0.00     0.077 A 
ATOM     14  C   UNL A   1      34.375  21.501  25.172  1.00  0.00     0.068 A 
ATOM     15  C   UNL A   1      36.109  23.079  25.664  1.00  0.00     0.182 A 
ATOM     16  C   UNL A   1      35.347  20.518  24.973  1.00  0.00     0.128 A 
ATOM     17  C   UNL A   1      37.068  22.086  25.455  1.00  0.00     0.163 A 
ATOM     18  F   UNL A   1      36.545  24.294  26.037  1.00  0.00    -0.201 F 
ATOM     19  F   UNL A   1      34.964  19.279  24.634  1.00  0.00    -0.207 F 
ATOM     20  C   UNL A   1      36.697  20.801  25.103  1.00  0.00     0.081 A 
ATOM     21  F   UNL A   1      38.369  22.377  25.590  1.00  0.00    -0.204 F 
ENDBRANCH  11  13
ENDBRANCH   9  11
ENDBRANCH   7   9
ENDBRANCH   4   7
ENDBRANCH   2   3
ENDBRANCH   1   2
BRANCH   1  22
ATOM     22  C   UNL A   1      33.469  27.936  26.844  1.00  0.00     0.023 C 
BRANCH  22  23
ATOM     23  C   UNL A   1      34.038  29.128  26.076  1.00  0.00     0.116 C 
BRANCH  23  24
ATOM     24  N   UNL A   1      33.690  30.423  26.643  1.00  0.00    -0.352 N 
ATOM     25  C   UNL A   1      34.349  31.125  27.626  1.00  0.00     0.251 C 
ATOM     26  H   UNL A   1      32.881  30.849  26.277  1.00  0.00     0.163 HD
ATOM     27  O   UNL A   1      33.886  32.177  28.055  1.00  0.00    -0.269 OA
BRANCH  25  28
ATOM     28  C   UNL A   1      35.597  30.571  28.190  1.00  0.00     0.039 A 
ATOM     29  C   UNL A   1      36.820  31.001  27.670  1.00  0.00     0.014 A 
ATOM     30  C   UNL A   1      35.558  29.675  29.260  1.00  0.00     0.014 A 
ATOM     31  C   UNL A   1      38.007  30.583  28.272  1.00  0.00     0.010 A 
ATOM     32  C   UNL A   1      36.738  29.318  29.903  1.00  0.00     0.010 A 
ATOM     33  C   UNL A   1      37.975  29.767  29.415  1.00  0.00    -0.014 A 
BRANCH  33  34
ATOM     34  C   UNL A   1      39.225  29.367  30.109  1.00  0.00     0.031 A 
ATOM     35  C   UNL A   1      39.643  30.073  31.370  1.00  0.00     0.074 A 
ATOM     36  C   UNL A   1      40.012  28.414  29.573  1.00  0.00     0.049 A 
ATOM     37  N   UNL A   1      40.713  29.889  32.101  1.00  0.00    -0.248 NA
ATOM     38  C   UNL A   1      38.760  31.145  31.856  1.00  0.00     0.031 C 
ATOM     39  C   UNL A   1      39.742  27.690  28.328  1.00  0.00     0.029 A 
ATOM     40  N   UNL A   1      41.203  27.889  30.008  1.00  0.00    -0.354 N 
ATOM     41  C   UNL A   1      40.641  30.834  33.119  1.00  0.00     0.074 A 
ATOM     42  C   UNL A   1      39.452  31.623  32.880  1.00  0.00     0.031 C 
ATOM     43  C   UNL A   1      40.716  26.790  28.121  1.00  0.00     0.029 A 
ATOM     44  C   UNL A   1      41.697  26.893  29.198  1.00  0.00     0.049 A 
ATOM     45  H   UNL A   1      41.660  28.195  30.824  1.00  0.00     0.167 HD
ATOM     46  C   UNL A   1      41.477  31.017  34.169  1.00  0.00     0.031 A 
ATOM     47  C   UNL A   1      42.811  26.145  29.312  1.00  0.00     0.031 A 
ATOM     48  C   UNL A   1      42.647  30.218  34.414  1.00  0.00     0.049 A 
ATOM     49  C   UNL A   1      43.715  26.355  30.495  1.00  0.00     0.074 A 
ATOM     50  C   UNL A   1      43.523  30.279  35.483  1.00  0.00     0.029 A 
ATOM     51  N   UNL A   1      43.104  29.211  33.577  1.00  0.00    -0.354 N 
ATOM     52  N   UNL A   1      43.593  27.206  31.485  1.00  0.00    -0.248 NA
ATOM     53  C   UNL A   1      44.901  25.492  30.582  1.00  0.00     0.031 C 
ATOM     54  C   UNL A   1      44.535  29.335  35.272  1.00  0.00     0.029 A 
ATOM     55  C   UNL A   1      44.260  28.654  34.097  1.00  0.00     0.049 A 
ATOM     56  H   UNL A   1      42.672  28.933  32.739  1.00  0.00     0.167 HD
ATOM     57  C   UNL A   1      44.669  26.959  32.331  1.00  0.00     0.074 A 
ATOM     58  C   UNL A   1      45.424  25.873  31.740  1.00  0.00     0.031 C 
ATOM     59  C   UNL A   1      45.000  27.573  33.495  1.00  0.00     0.031 A 
BRANCH  46  60
ATOM     60  C   UNL A   1      41.147  32.133  35.126  1.00  0.00    -0.014 A 
ATOM     61  C   UNL A   1      41.664  33.428  34.937  1.00  0.00     0.010 A 
ATOM     62  C   UNL A   1      40.303  31.886  36.223  1.00  0.00     0.010 A 
ATOM     63  C   UNL A   1      41.388  34.441  35.858  1.00  0.00     0.020 A 
ATOM     64  C   UNL A   1      40.001  32.905  37.132  1.00  0.00     0.020 A 
ATOM     65  C   UNL A   1      40.565  34.170  36.955  1.00  0.00     0.054 A 
BRANCH  65  66
ATOM     66  S   UNL A   1      40.224  35.503  38.138  1.00  0.00     0.124 S 
ATOM     67  O   UNL A   1      39.864  36.607  37.249  1.00  0.00    -0.237 OA
ATOM     68  O   UNL A   1      39.127  34.956  38.932  1.00  0.00    -0.237 OA
ATOM     69  O   UNL A   1      41.487  35.665  38.852  1.00  0.00    -0.744 OA
ENDBRANCH  65  66
ENDBRANCH  46  60
BRANCH  47  70
ATOM     70  C   UNL A   1      43.109  25.094  28.301  1.00  0.00    -0.014 A 
ATOM     71  C   UNL A   1      43.983  25.368  27.234  1.00  0.00     0.010 A 
ATOM     72  C   UNL A   1      42.534  23.815  28.404  1.00  0.00     0.010 A 
ATOM     73  C   UNL A   1      44.264  24.387  26.279  1.00  0.00     0.020 A 
ATOM     74  C   UNL A   1      42.832  22.825  27.463  1.00  0.00     0.020 A 
ATOM     75  C   UNL A   1      43.687  23.121  26.400  1.00  0.00     0.054 A 
BRANCH  75  76
ATOM     76  S   UNL A   1      44.106  21.846  25.177  1.00  0.00     0.124 S 
ATOM     77  O   UNL A   1      45.514  21.598  25.468  1.00  0.00    -0.237 OA
ATOM     78  O   UNL A   1      43.187  20.764  25.521  1.00  0.00    -0.237 OA
ATOM     79  O   UNL A   1      43.834  22.500  23.898  1.00  0.00    -0.744 OA
ENDBRANCH  75  76
ENDBRANCH  47  70
BRANCH  59  80
ATOM     80  C   UNL A   1      46.210  27.059  34.225  1.00  0.00    -0.014 A 
ATOM     81  C   UNL A   1      46.120  25.972  35.112  1.00  0.00     0.010 A 
ATOM     82  C   UNL A   1      47.464  27.649  33.987  1.00  0.00     0.010 A 
ATOM     83  C   UNL A   1      47.259  25.507  35.776  1.00  0.00     0.020 A 
ATOM     84  C   UNL A   1      48.609  27.170  34.629  1.00  0.00     0.020 A 
ATOM     85  C   UNL A   1      48.496  26.112  35.532  1.00  0.00     0.054 A 
BRANCH  85  86
ATOM     86  S   UNL A   1      49.967  25.471  36.378  1.00  0.00     0.124 S 
ATOM     87  O   UNL A   1      51.043  26.181  35.693  1.00  0.00    -0.237 OA
ATOM     88  O   UNL A   1      49.737  25.866  37.765  1.00  0.00    -0.237 OA
ATOM     89  O   UNL A   1      49.909  24.033  36.129  1.00  0.00    -0.744 OA
ENDBRANCH  85  86
ENDBRANCH  59  80
ENDBRANCH  33  34
ENDBRANCH  25  28
ENDBRANCH  23  24
ENDBRANCH  22  23
ENDBRANCH   1  22
TORSDOF 17
ENDMDL
