MODEL 1
REMARK VINA RESULT:     -10.0      0.000      0.000
REMARK SMILES [NH3+][C@@H](CC(=O)NCCCCNC(=O)c1ccc(-c2c3nc(c(-c4ccc(S(=O)(=O)[O-])cc4)c4ccc([nH]4)c(-c4ccc(S(=O)(=O)[O-])cc4)c4nc(c(-c5ccc(S(=O)(=O)[O-])cc5)c5ccc2[nH]5)C=C4)C=C3)cc1)[NH+]1CCOCC1
REMARK SMILES IDX 9 1 8 2 7 3 6 4 4 5 5 6 3 8 2 9 1 10 74 14 75 15 79 16 76 18
REMARK SMILES IDX 78 19 77 20 10 21 11 22 12 23 13 25 14 26 15 27 73 28 16 29
REMARK SMILES IDX 72 30 17 31 18 32 19 33 66 34 20 35 71 36 65 37 67 38 21 39
REMARK SMILES IDX 70 40 64 41 63 42 22 44 52 45 33 46 51 47 34 48 37 49 50 50
REMARK SMILES IDX 68 51 35 52 36 53 49 55 69 56 38 57 23 58 24 59 32 60 25 61
REMARK SMILES IDX 31 62 26 63 27 64 28 65 29 66 30 67 53 68 54 69 62 70 55 71
REMARK SMILES IDX 61 72 56 73 57 74 58 75 59 76 60 77 39 78 40 79 48 80 41 81
REMARK SMILES IDX 47 82 42 83 43 84 44 85 45 86 46 87
REMARK H PARENT 6 7 1 11 1 12 1 13 74 17 11 24 67 43 37 54
REMARK Flexibility Score: inf
ROOT
ATOM      1  C   UNL A   1      32.840  27.509  26.886  1.00  0.00     0.023 C 
ENDROOT
BRANCH   1   2
ATOM      2  C   UNL A   1      31.552  27.699  26.092  1.00  0.00     0.023 C 
BRANCH   2   3
ATOM      3  C   UNL A   1      31.391  26.773  24.887  1.00  0.00     0.116 C 
BRANCH   3   4
ATOM      4  N   UNL A   1      29.996  26.648  24.525  1.00  0.00    -0.356 N 
ATOM      5  C   UNL A   1      29.268  27.342  23.605  1.00  0.00     0.232 C 
ATOM      6  O   UNL A   1      28.068  27.079  23.506  1.00  0.00    -0.275 OA
ATOM      7  H   UNL A   1      29.497  25.957  25.018  1.00  0.00     0.163 HD
BRANCH   5   8
ATOM      8  C   UNL A   1      29.942  28.312  22.652  1.00  0.00     0.232 C 
BRANCH   8   9
ATOM      9  C   UNL A   1      29.793  29.825  22.907  1.00  0.00     0.389 C 
BRANCH   9  10
ATOM     10  N   UNL A   1      30.527  30.310  24.061  1.00  0.00    -0.308 N 
ATOM     11  H   UNL A   1      30.799  31.281  23.908  1.00  0.00     0.349 HD
ATOM     12  H   UNL A   1      31.362  29.741  24.198  1.00  0.00     0.349 HD
ATOM     13  H   UNL A   1      29.935  30.250  24.890  1.00  0.00     0.349 HD
ENDBRANCH   9  10
BRANCH   9  14
ATOM     14  N   UNL A   1      28.407  30.283  22.880  1.00  0.00    -0.282 N 
ATOM     15  C   UNL A   1      27.897  30.396  21.495  1.00  0.00     0.296 C 
ATOM     16  C   UNL A   1      28.034  31.528  23.580  1.00  0.00     0.296 C 
ATOM     17  H   UNL A   1      27.973  29.537  23.425  1.00  0.00     0.353 HD
ATOM     18  C   UNL A   1      28.369  31.683  20.796  1.00  0.00     0.222 C 
ATOM     19  C   UNL A   1      28.428  32.826  22.852  1.00  0.00     0.222 C 
ATOM     20  O   UNL A   1      27.928  32.846  21.508  1.00  0.00    -0.370 OA
ENDBRANCH   9  14
ENDBRANCH   8   9
ENDBRANCH   5   8
ENDBRANCH   3   4
ENDBRANCH   2   3
ENDBRANCH   1   2
BRANCH   1  21
ATOM     21  C   UNL A   1      33.935  28.511  26.563  1.00  0.00     0.116 C 
BRANCH  21  22
ATOM     22  N   UNL A   1      33.711  29.816  27.168  1.00  0.00    -0.352 N 
ATOM     23  C   UNL A   1      34.552  30.541  27.975  1.00  0.00     0.251 C 
ATOM     24  H   UNL A   1      32.843  30.233  26.973  1.00  0.00     0.163 HD
ATOM     25  O   UNL A   1      34.152  31.577  28.499  1.00  0.00    -0.269 OA
BRANCH  23  26
ATOM     26  C   UNL A   1      35.919  30.045  28.236  1.00  0.00     0.039 A 
ATOM     27  C   UNL A   1      36.869  30.126  27.217  1.00  0.00     0.014 A 
ATOM     28  C   UNL A   1      36.269  29.531  29.489  1.00  0.00     0.014 A 
ATOM     29  C   UNL A   1      38.184  29.739  27.474  1.00  0.00     0.010 A 
ATOM     30  C   UNL A   1      37.598  29.238  29.769  1.00  0.00     0.010 A 
ATOM     31  C   UNL A   1      38.565  29.320  28.760  1.00  0.00    -0.014 A 
BRANCH  31  32
ATOM     32  C   UNL A   1      39.972  28.950  29.050  1.00  0.00     0.031 A 
ATOM     33  C   UNL A   1      40.886  29.925  29.741  1.00  0.00     0.074 A 
ATOM     34  C   UNL A   1      40.431  27.743  28.663  1.00  0.00     0.049 A 
ATOM     35  N   UNL A   1      42.127  29.762  30.121  1.00  0.00    -0.248 NA
ATOM     36  C   UNL A   1      40.347  31.268  30.020  1.00  0.00     0.031 C 
ATOM     37  C   UNL A   1      39.662  26.741  27.922  1.00  0.00     0.029 A 
ATOM     38  N   UNL A   1      41.654  27.150  28.850  1.00  0.00    -0.354 N 
ATOM     39  C   UNL A   1      42.518  30.978  30.670  1.00  0.00     0.074 A 
ATOM     40  C   UNL A   1      41.406  31.888  30.517  1.00  0.00     0.031 C 
ATOM     41  C   UNL A   1      40.412  25.639  27.763  1.00  0.00     0.029 A 
ATOM     42  C   UNL A   1      41.722  25.865  28.364  1.00  0.00     0.049 A 
ATOM     43  H   UNL A   1      42.410  27.601  29.291  1.00  0.00     0.167 HD
ATOM     44  C   UNL A   1      43.686  31.301  31.275  1.00  0.00     0.031 A 
ATOM     45  C   UNL A   1      42.722  24.965  28.414  1.00  0.00     0.031 A 
ATOM     46  C   UNL A   1      44.784  30.385  31.437  1.00  0.00     0.049 A 
ATOM     47  C   UNL A   1      43.996  25.332  29.124  1.00  0.00     0.074 A 
ATOM     48  C   UNL A   1      45.990  30.592  32.082  1.00  0.00     0.029 A 
ATOM     49  N   UNL A   1      44.806  29.087  30.951  1.00  0.00    -0.354 N 
ATOM     50  N   UNL A   1      44.318  26.462  29.707  1.00  0.00    -0.248 NA
ATOM     51  C   UNL A   1      45.030  24.292  29.204  1.00  0.00     0.031 C 
ATOM     52  C   UNL A   1      46.760  29.431  31.947  1.00  0.00     0.029 A 
ATOM     53  C   UNL A   1      46.010  28.483  31.269  1.00  0.00     0.049 A 
ATOM     54  H   UNL A   1      44.074  28.658  30.451  1.00  0.00     0.167 HD
ATOM     55  C   UNL A   1      45.582  26.261  30.250  1.00  0.00     0.074 A 
ATOM     56  C   UNL A   1      45.955  24.894  29.941  1.00  0.00     0.031 C 
ATOM     57  C   UNL A   1      46.364  27.124  30.945  1.00  0.00     0.031 A 
BRANCH  44  58
ATOM     58  C   UNL A   1      43.826  32.704  31.808  1.00  0.00    -0.014 A 
ATOM     59  C   UNL A   1      44.330  33.740  31.000  1.00  0.00     0.010 A 
ATOM     60  C   UNL A   1      43.430  32.996  33.125  1.00  0.00     0.010 A 
ATOM     61  C   UNL A   1      44.479  35.031  31.513  1.00  0.00     0.020 A 
ATOM     62  C   UNL A   1      43.548  34.293  33.633  1.00  0.00     0.020 A 
ATOM     63  C   UNL A   1      44.090  35.299  32.829  1.00  0.00     0.054 A 
BRANCH  63  64
ATOM     64  S   UNL A   1      44.278  36.987  33.464  1.00  0.00     0.124 S 
ATOM     65  O   UNL A   1      45.121  36.774  34.638  1.00  0.00    -0.237 OA
ATOM     66  O   UNL A   1      44.919  37.680  32.349  1.00  0.00    -0.237 OA
ATOM     67  O   UNL A   1      42.908  37.405  33.749  1.00  0.00    -0.744 OA
ENDBRANCH  63  64
ENDBRANCH  44  58
BRANCH  45  68
ATOM     68  C   UNL A   1      42.535  23.613  27.821  1.00  0.00    -0.014 A 
ATOM     69  C   UNL A   1      42.877  23.369  26.479  1.00  0.00     0.010 A 
ATOM     70  C   UNL A   1      42.033  22.556  28.601  1.00  0.00     0.010 A 
ATOM     71  C   UNL A   1      42.701  22.098  25.922  1.00  0.00     0.020 A 
ATOM     72  C   UNL A   1      41.880  21.277  28.056  1.00  0.00     0.020 A 
ATOM     73  C   UNL A   1      42.205  21.060  26.715  1.00  0.00     0.054 A 
BRANCH  73  74
ATOM     74  S   UNL A   1      42.035  19.407  25.987  1.00  0.00     0.124 S 
ATOM     75  O   UNL A   1      40.597  19.325  25.754  1.00  0.00    -0.237 OA
ATOM     76  O   UNL A   1      42.867  19.501  24.790  1.00  0.00    -0.237 OA
ATOM     77  O   UNL A   1      42.553  18.522  27.027  1.00  0.00    -0.744 OA
ENDBRANCH  73  74
ENDBRANCH  45  68
BRANCH  57  78
ATOM     78  C   UNL A   1      47.683  26.601  31.447  1.00  0.00    -0.014 A 
ATOM     79  C   UNL A   1      48.872  26.796  30.723  1.00  0.00     0.010 A 
ATOM     80  C   UNL A   1      47.731  25.921  32.678  1.00  0.00     0.010 A 
ATOM     81  C   UNL A   1      50.078  26.270  31.194  1.00  0.00     0.020 A 
ATOM     82  C   UNL A   1      48.940  25.421  33.166  1.00  0.00     0.020 A 
ATOM     83  C   UNL A   1      50.102  25.579  32.410  1.00  0.00     0.054 A 
BRANCH  83  84
ATOM     84  S   UNL A   1      51.679  24.910  33.004  1.00  0.00     0.124 S 
ATOM     85  O   UNL A   1      52.556  25.141  31.859  1.00  0.00    -0.237 OA
ATOM     86  O   UNL A   1      51.954  25.730  34.182  1.00  0.00    -0.237 OA
ATOM     87  O   UNL A   1      51.376  23.509  33.285  1.00  0.00    -0.744 OA
ENDBRANCH  83  84
ENDBRANCH  57  78
ENDBRANCH  31  32
ENDBRANCH  23  26
ENDBRANCH  21  22
ENDBRANCH   1  21
TORSDOF 17
ENDMDL
MODEL 2
REMARK VINA RESULT:      -9.6      2.307      3.117
REMARK SMILES [NH3+][C@@H](CC(=O)NCCCCNC(=O)c1ccc(-c2c3nc(c(-c4ccc(S(=O)(=O)[O-])cc4)c4ccc([nH]4)c(-c4ccc(S(=O)(=O)[O-])cc4)c4nc(c(-c5ccc(S(=O)(=O)[O-])cc5)c5ccc2[nH]5)C=C4)C=C3)cc1)[NH+]1CCOCC1
REMARK SMILES IDX 9 1 8 2 7 3 6 4 4 5 5 6 3 8 2 9 1 10 74 14 75 15 79 16 76 18
REMARK SMILES IDX 78 19 77 20 10 21 11 22 12 23 13 25 14 26 15 27 73 28 16 29
REMARK SMILES IDX 72 30 17 31 18 32 19 33 66 34 20 35 71 36 65 37 67 38 21 39
REMARK SMILES IDX 70 40 64 41 63 42 22 44 52 45 33 46 51 47 34 48 37 49 50 50
REMARK SMILES IDX 68 51 35 52 36 53 49 55 69 56 38 57 23 58 24 59 32 60 25 61
REMARK SMILES IDX 31 62 26 63 27 64 28 65 29 66 30 67 53 68 54 69 62 70 55 71
REMARK SMILES IDX 61 72 56 73 57 74 58 75 59 76 60 77 39 78 40 79 48 80 41 81
REMARK SMILES IDX 47 82 42 83 43 84 44 85 45 86 46 87
REMARK H PARENT 6 7 1 11 1 12 1 13 74 17 11 24 67 43 37 54
REMARK Flexibility Score: inf
ROOT
ATOM      1  C   UNL A   1      33.154  27.476  26.706  1.00  0.00     0.023 C 
ENDROOT
BRANCH   1   2
ATOM      2  C   UNL A   1      31.648  27.691  26.597  1.00  0.00     0.023 C 
BRANCH   2   3
ATOM      3  C   UNL A   1      30.900  26.638  25.782  1.00  0.00     0.116 C 
BRANCH   3   4
ATOM      4  N   UNL A   1      30.593  25.485  26.599  1.00  0.00    -0.356 N 
ATOM      5  C   UNL A   1      31.196  24.264  26.647  1.00  0.00     0.232 C 
ATOM      6  O   UNL A   1      30.719  23.417  27.405  1.00  0.00    -0.275 OA
ATOM      7  H   UNL A   1      29.832  25.600  27.214  1.00  0.00     0.163 HD
BRANCH   5   8
ATOM      8  C   UNL A   1      32.483  24.004  25.887  1.00  0.00     0.232 C 
BRANCH   8   9
ATOM      9  C   UNL A   1      32.401  23.356  24.490  1.00  0.00     0.389 C 
BRANCH   9  10
ATOM     10  N   UNL A   1      31.892  21.996  24.493  1.00  0.00    -0.308 N 
ATOM     11  H   UNL A   1      31.384  21.822  23.626  1.00  0.00     0.349 HD
ATOM     12  H   UNL A   1      31.265  21.869  25.286  1.00  0.00     0.349 HD
ATOM     13  H   UNL A   1      32.672  21.342  24.567  1.00  0.00     0.349 HD
ENDBRANCH   9  10
BRANCH   9  14
ATOM     14  N   UNL A   1      33.626  23.504  23.710  1.00  0.00    -0.282 N 
ATOM     15  C   UNL A   1      34.290  24.799  23.978  1.00  0.00     0.296 C 
ATOM     16  C   UNL A   1      33.584  23.335  22.244  1.00  0.00     0.296 C 
ATOM     17  H   UNL A   1      34.141  22.692  24.051  1.00  0.00     0.353 HD
ATOM     18  C   UNL A   1      33.631  25.967  23.224  1.00  0.00     0.222 C 
ATOM     19  C   UNL A   1      33.002  24.532  21.468  1.00  0.00     0.222 C 
ATOM     20  O   UNL A   1      33.674  25.753  21.807  1.00  0.00    -0.370 OA
ENDBRANCH   9  14
ENDBRANCH   8   9
ENDBRANCH   5   8
ENDBRANCH   3   4
ENDBRANCH   2   3
ENDBRANCH   1   2
BRANCH   1  21
ATOM     21  C   UNL A   1      33.995  28.643  26.216  1.00  0.00     0.116 C 
BRANCH  21  22
ATOM     22  N   UNL A   1      33.713  29.885  26.920  1.00  0.00    -0.352 N 
ATOM     23  C   UNL A   1      34.491  30.547  27.836  1.00  0.00     0.251 C 
ATOM     24  H   UNL A   1      32.849  30.306  26.711  1.00  0.00     0.163 HD
ATOM     25  O   UNL A   1      34.042  31.527  28.424  1.00  0.00    -0.269 OA
BRANCH  23  26
ATOM     26  C   UNL A   1      35.850  30.049  28.133  1.00  0.00     0.039 A 
ATOM     27  C   UNL A   1      36.838  30.169  27.155  1.00  0.00     0.014 A 
ATOM     28  C   UNL A   1      36.154  29.495  29.380  1.00  0.00     0.014 A 
ATOM     29  C   UNL A   1      38.145  29.779  27.450  1.00  0.00     0.010 A 
ATOM     30  C   UNL A   1      37.473  29.198  29.702  1.00  0.00     0.010 A 
ATOM     31  C   UNL A   1      38.478  29.319  28.735  1.00  0.00    -0.014 A 
BRANCH  31  32
ATOM     32  C   UNL A   1      39.875  28.946  29.066  1.00  0.00     0.031 A 
ATOM     33  C   UNL A   1      40.766  29.915  29.794  1.00  0.00     0.074 A 
ATOM     34  C   UNL A   1      40.346  27.742  28.685  1.00  0.00     0.049 A 
ATOM     35  N   UNL A   1      41.995  29.749  30.211  1.00  0.00    -0.248 NA
ATOM     36  C   UNL A   1      40.220  31.256  30.066  1.00  0.00     0.031 C 
ATOM     37  C   UNL A   1      39.600  26.745  27.912  1.00  0.00     0.029 A 
ATOM     38  N   UNL A   1      41.561  27.146  28.907  1.00  0.00    -0.354 N 
ATOM     39  C   UNL A   1      42.368  30.961  30.782  1.00  0.00     0.074 A 
ATOM     40  C   UNL A   1      41.263  31.872  30.601  1.00  0.00     0.031 C 
ATOM     41  C   UNL A   1      40.354  25.645  27.769  1.00  0.00     0.029 A 
ATOM     42  C   UNL A   1      41.645  25.866  28.414  1.00  0.00     0.049 A 
ATOM     43  H   UNL A   1      42.303  27.594  29.375  1.00  0.00     0.167 HD
ATOM     44  C   UNL A   1      43.517  31.278  31.426  1.00  0.00     0.031 A 
ATOM     45  C   UNL A   1      42.642  24.964  28.489  1.00  0.00     0.031 A 
ATOM     46  C   UNL A   1      44.609  30.360  31.616  1.00  0.00     0.049 A 
ATOM     47  C   UNL A   1      43.893  25.325  29.241  1.00  0.00     0.074 A 
ATOM     48  C   UNL A   1      45.794  30.561  32.301  1.00  0.00     0.029 A 
ATOM     49  N   UNL A   1      44.646  29.065  31.121  1.00  0.00    -0.354 N 
ATOM     50  N   UNL A   1      44.197  26.451  29.843  1.00  0.00    -0.248 NA
ATOM     51  C   UNL A   1      44.924  24.284  29.347  1.00  0.00     0.031 C 
ATOM     52  C   UNL A   1      46.567  29.401  32.182  1.00  0.00     0.029 A 
ATOM     53  C   UNL A   1      45.839  28.458  31.473  1.00  0.00     0.049 A 
ATOM     54  H   UNL A   1      43.930  28.641  30.596  1.00  0.00     0.167 HD
ATOM     55  C   UNL A   1      45.443  26.244  30.424  1.00  0.00     0.074 A 
ATOM     56  C   UNL A   1      45.825  24.879  30.117  1.00  0.00     0.031 C 
ATOM     57  C   UNL A   1      46.203  27.102  31.150  1.00  0.00     0.031 A 
BRANCH  44  58
ATOM     58  C   UNL A   1      43.641  32.676  31.975  1.00  0.00    -0.014 A 
ATOM     59  C   UNL A   1      44.266  33.694  31.230  1.00  0.00     0.010 A 
ATOM     60  C   UNL A   1      43.108  32.984  33.238  1.00  0.00     0.010 A 
ATOM     61  C   UNL A   1      44.397  34.981  31.759  1.00  0.00     0.020 A 
ATOM     62  C   UNL A   1      43.209  34.277  33.758  1.00  0.00     0.020 A 
ATOM     63  C   UNL A   1      43.870  35.264  33.023  1.00  0.00     0.054 A 
BRANCH  63  64
ATOM     64  S   UNL A   1      44.039  36.946  33.678  1.00  0.00     0.124 S 
ATOM     65  O   UNL A   1      43.067  36.943  34.768  1.00  0.00    -0.237 OA
ATOM     66  O   UNL A   1      45.441  36.992  34.087  1.00  0.00    -0.237 OA
ATOM     67  O   UNL A   1      43.696  37.798  32.541  1.00  0.00    -0.744 OA
ENDBRANCH  63  64
ENDBRANCH  44  58
BRANCH  45  68
ATOM     68  C   UNL A   1      42.473  23.617  27.879  1.00  0.00    -0.014 A 
ATOM     69  C   UNL A   1      42.923  23.364  26.571  1.00  0.00     0.010 A 
ATOM     70  C   UNL A   1      41.881  22.573  28.612  1.00  0.00     0.010 A 
ATOM     71  C   UNL A   1      42.764  22.097  25.999  1.00  0.00     0.020 A 
ATOM     72  C   UNL A   1      41.744  21.298  28.054  1.00  0.00     0.020 A 
ATOM     73  C   UNL A   1      42.177  21.073  26.745  1.00  0.00     0.054 A 
BRANCH  73  74
ATOM     74  S   UNL A   1      42.029  19.423  26.003  1.00  0.00     0.124 S 
ATOM     75  O   UNL A   1      42.541  18.565  27.066  1.00  0.00    -0.237 OA
ATOM     76  O   UNL A   1      40.596  19.322  25.740  1.00  0.00    -0.237 OA
ATOM     77  O   UNL A   1      42.868  19.511  24.809  1.00  0.00    -0.744 OA
ENDBRANCH  73  74
ENDBRANCH  45  68
BRANCH  57  78
ATOM     78  C   UNL A   1      47.504  26.574  31.691  1.00  0.00    -0.014 A 
ATOM     79  C   UNL A   1      48.701  26.689  30.961  1.00  0.00     0.010 A 
ATOM     80  C   UNL A   1      47.530  25.972  32.962  1.00  0.00     0.010 A 
ATOM     81  C   UNL A   1      49.890  26.160  31.469  1.00  0.00     0.020 A 
ATOM     82  C   UNL A   1      48.723  25.469  33.486  1.00  0.00     0.020 A 
ATOM     83  C   UNL A   1      49.891  25.546  32.726  1.00  0.00     0.054 A 
BRANCH  83  84
ATOM     84  S   UNL A   1      51.446  24.871  33.368  1.00  0.00     0.124 S 
ATOM     85  O   UNL A   1      51.047  23.528  33.778  1.00  0.00    -0.237 OA
ATOM     86  O   UNL A   1      52.331  24.938  32.207  1.00  0.00    -0.237 OA
ATOM     87  O   UNL A   1      51.792  25.779  34.459  1.00  0.00    -0.744 OA
ENDBRANCH  83  84
ENDBRANCH  57  78
ENDBRANCH  31  32
ENDBRANCH  23  26
ENDBRANCH  21  22
ENDBRANCH   1  21
TORSDOF 17
ENDMDL
MODEL 3
REMARK VINA RESULT:      -9.5      5.551     10.721
REMARK SMILES [NH3+][C@@H](CC(=O)NCCCCNC(=O)c1ccc(-c2c3nc(c(-c4ccc(S(=O)(=O)[O-])cc4)c4ccc([nH]4)c(-c4ccc(S(=O)(=O)[O-])cc4)c4nc(c(-c5ccc(S(=O)(=O)[O-])cc5)c5ccc2[nH]5)C=C4)C=C3)cc1)[NH+]1CCOCC1
REMARK SMILES IDX 9 1 8 2 7 3 6 4 4 5 5 6 3 8 2 9 1 10 74 14 75 15 79 16 76 18
REMARK SMILES IDX 78 19 77 20 10 21 11 22 12 23 13 25 14 26 15 27 73 28 16 29
REMARK SMILES IDX 72 30 17 31 18 32 19 33 66 34 20 35 71 36 65 37 67 38 21 39
REMARK SMILES IDX 70 40 64 41 63 42 22 44 52 45 33 46 51 47 34 48 37 49 50 50
REMARK SMILES IDX 68 51 35 52 36 53 49 55 69 56 38 57 23 58 24 59 32 60 25 61
REMARK SMILES IDX 31 62 26 63 27 64 28 65 29 66 30 67 53 68 54 69 62 70 55 71
REMARK SMILES IDX 61 72 56 73 57 74 58 75 59 76 60 77 39 78 40 79 48 80 41 81
REMARK SMILES IDX 47 82 42 83 43 84 44 85 45 86 46 87
REMARK H PARENT 6 7 1 11 1 12 1 13 74 17 11 24 67 43 37 54
REMARK Flexibility Score: inf
ROOT
ATOM      1  C   UNL A   1      38.324  21.161  25.146  1.00  0.00     0.023 C 
ENDROOT
BRANCH   1   2
ATOM      2  C   UNL A   1      37.682  22.544  25.112  1.00  0.00     0.023 C 
BRANCH   2   3
ATOM      3  C   UNL A   1      36.207  22.565  24.715  1.00  0.00     0.116 C 
BRANCH   3   4
ATOM      4  N   UNL A   1      35.368  22.291  25.860  1.00  0.00    -0.356 N 
ATOM      5  C   UNL A   1      34.536  21.238  26.100  1.00  0.00     0.232 C 
ATOM      6  O   UNL A   1      33.882  21.250  27.146  1.00  0.00    -0.275 OA
ATOM      7  H   UNL A   1      35.403  22.967  26.576  1.00  0.00     0.163 HD
BRANCH   5   8
ATOM      8  C   UNL A   1      34.512  20.039  25.171  1.00  0.00     0.232 C 
BRANCH   8   9
ATOM      9  C   UNL A   1      33.260  19.140  25.153  1.00  0.00     0.389 C 
BRANCH   9  10
ATOM     10  N   UNL A   1      32.821  18.704  26.466  1.00  0.00    -0.308 N 
ATOM     11  H   UNL A   1      32.873  17.687  26.522  1.00  0.00     0.349 HD
ATOM     12  H   UNL A   1      31.859  19.005  26.620  1.00  0.00     0.349 HD
ATOM     13  H   UNL A   1      33.424  19.115  27.180  1.00  0.00     0.349 HD
ENDBRANCH   9  10
BRANCH   9  14
ATOM     14  N   UNL A   1      33.347  18.045  24.190  1.00  0.00    -0.282 N 
ATOM     15  C   UNL A   1      32.359  16.982  24.483  1.00  0.00     0.296 C 
ATOM     16  C   UNL A   1      34.643  17.379  23.955  1.00  0.00     0.296 C 
ATOM     17  H   UNL A   1      33.160  18.563  23.331  1.00  0.00     0.353 HD
ATOM     18  C   UNL A   1      32.813  16.055  25.625  1.00  0.00     0.222 C 
ATOM     19  C   UNL A   1      35.071  16.385  25.052  1.00  0.00     0.222 C 
ATOM     20  O   UNL A   1      34.050  15.408  25.302  1.00  0.00    -0.370 OA
ENDBRANCH   9  14
ENDBRANCH   8   9
ENDBRANCH   5   8
ENDBRANCH   3   4
ENDBRANCH   2   3
ENDBRANCH   1   2
BRANCH   1  21
ATOM     21  C   UNL A   1      39.269  20.932  26.314  1.00  0.00     0.116 C 
BRANCH  21  22
ATOM     22  N   UNL A   1      40.238  19.875  26.064  1.00  0.00    -0.352 N 
ATOM     23  C   UNL A   1      41.607  19.958  26.034  1.00  0.00     0.251 C 
ATOM     24  H   UNL A   1      39.861  18.982  25.895  1.00  0.00     0.163 HD
ATOM     25  O   UNL A   1      42.271  18.985  25.688  1.00  0.00    -0.269 OA
BRANCH  23  26
ATOM     26  C   UNL A   1      42.268  21.233  26.382  1.00  0.00     0.039 A 
ATOM     27  C   UNL A   1      42.511  22.163  25.370  1.00  0.00     0.014 A 
ATOM     28  C   UNL A   1      42.617  21.523  27.705  1.00  0.00     0.014 A 
ATOM     29  C   UNL A   1      43.058  23.403  25.696  1.00  0.00     0.010 A 
ATOM     30  C   UNL A   1      43.071  22.793  28.039  1.00  0.00     0.010 A 
ATOM     31  C   UNL A   1      43.314  23.739  27.036  1.00  0.00    -0.014 A 
BRANCH  31  32
ATOM     32  C   UNL A   1      43.854  25.074  27.392  1.00  0.00     0.031 A 
ATOM     33  C   UNL A   1      45.307  25.390  27.165  1.00  0.00     0.074 A 
ATOM     34  C   UNL A   1      43.035  25.992  27.945  1.00  0.00     0.049 A 
ATOM     35  N   UNL A   1      45.945  26.514  27.367  1.00  0.00    -0.248 NA
ATOM     36  C   UNL A   1      46.163  24.297  26.674  1.00  0.00     0.031 C 
ATOM     37  C   UNL A   1      41.625  25.779  28.279  1.00  0.00     0.029 A 
ATOM     38  N   UNL A   1      43.269  27.292  28.313  1.00  0.00    -0.354 N 
ATOM     39  C   UNL A   1      47.272  26.259  27.039  1.00  0.00     0.074 A 
ATOM     40  C   UNL A   1      47.360  24.861  26.687  1.00  0.00     0.031 C 
ATOM     41  C   UNL A   1      41.107  26.922  28.754  1.00  0.00     0.029 A 
ATOM     42  C   UNL A   1      42.152  27.940  28.785  1.00  0.00     0.049 A 
ATOM     43  H   UNL A   1      44.153  27.721  28.245  1.00  0.00     0.167 HD
ATOM     44  C   UNL A   1      48.318  27.119  27.004  1.00  0.00     0.031 A 
ATOM     45  C   UNL A   1      41.984  29.217  29.180  1.00  0.00     0.031 A 
ATOM     46  C   UNL A   1      48.221  28.514  27.341  1.00  0.00     0.049 A 
ATOM     47  C   UNL A   1      43.150  30.162  29.097  1.00  0.00     0.074 A 
ATOM     48  C   UNL A   1      49.205  29.485  27.287  1.00  0.00     0.029 A 
ATOM     49  N   UNL A   1      47.067  29.137  27.793  1.00  0.00    -0.354 N 
ATOM     50  N   UNL A   1      44.381  29.922  28.709  1.00  0.00    -0.248 NA
ATOM     51  C   UNL A   1      42.898  31.557  29.480  1.00  0.00     0.031 C 
ATOM     52  C   UNL A   1      48.657  30.687  27.749  1.00  0.00     0.029 A 
ATOM     53  C   UNL A   1      47.317  30.477  28.035  1.00  0.00     0.049 A 
ATOM     54  H   UNL A   1      46.199  28.693  27.924  1.00  0.00     0.167 HD
ATOM     55  C   UNL A   1      45.043  31.142  28.773  1.00  0.00     0.074 A 
ATOM     56  C   UNL A   1      44.070  32.121  29.220  1.00  0.00     0.031 C 
ATOM     57  C   UNL A   1      46.337  31.432  28.487  1.00  0.00     0.031 A 
BRANCH  44  58
ATOM     58  C   UNL A   1      49.655  26.567  26.580  1.00  0.00    -0.014 A 
ATOM     59  C   UNL A   1      50.075  26.634  25.238  1.00  0.00     0.010 A 
ATOM     60  C   UNL A   1      50.513  25.995  27.536  1.00  0.00     0.010 A 
ATOM     61  C   UNL A   1      51.307  26.098  24.853  1.00  0.00     0.020 A 
ATOM     62  C   UNL A   1      51.759  25.484  27.160  1.00  0.00     0.020 A 
ATOM     63  C   UNL A   1      52.139  25.522  25.816  1.00  0.00     0.054 A 
BRANCH  63  64
ATOM     64  S   UNL A   1      53.739  24.848  25.291  1.00  0.00     0.124 S 
ATOM     65  O   UNL A   1      54.564  25.077  26.475  1.00  0.00    -0.237 OA
ATOM     66  O   UNL A   1      53.421  23.451  25.007  1.00  0.00    -0.237 OA
ATOM     67  O   UNL A   1      54.089  25.655  24.123  1.00  0.00    -0.744 OA
ENDBRANCH  63  64
ENDBRANCH  44  58
BRANCH  45  68
ATOM     68  C   UNL A   1      40.647  29.683  29.637  1.00  0.00    -0.014 A 
ATOM     69  C   UNL A   1      39.653  30.025  28.703  1.00  0.00     0.010 A 
ATOM     70  C   UNL A   1      40.353  29.768  31.010  1.00  0.00     0.010 A 
ATOM     71  C   UNL A   1      38.396  30.463  29.134  1.00  0.00     0.020 A 
ATOM     72  C   UNL A   1      39.090  30.179  31.444  1.00  0.00     0.020 A 
ATOM     73  C   UNL A   1      38.122  30.536  30.501  1.00  0.00     0.054 A 
BRANCH  73  74
ATOM     74  S   UNL A   1      36.468  31.055  31.037  1.00  0.00     0.124 S 
ATOM     75  O   UNL A   1      36.080  29.964  31.924  1.00  0.00    -0.237 OA
ATOM     76  O   UNL A   1      36.734  32.337  31.686  1.00  0.00    -0.237 OA
ATOM     77  O   UNL A   1      35.717  31.144  29.787  1.00  0.00    -0.744 OA
ENDBRANCH  73  74
ENDBRANCH  45  68
BRANCH  57  78
ATOM     78  C   UNL A   1      46.761  32.870  28.613  1.00  0.00    -0.014 A 
ATOM     79  C   UNL A   1      47.290  33.376  29.813  1.00  0.00     0.010 A 
ATOM     80  C   UNL A   1      46.645  33.724  27.500  1.00  0.00     0.010 A 
ATOM     81  C   UNL A   1      47.644  34.723  29.915  1.00  0.00     0.020 A 
ATOM     82  C   UNL A   1      47.026  35.064  27.590  1.00  0.00     0.020 A 
ATOM     83  C   UNL A   1      47.502  35.561  28.804  1.00  0.00     0.054 A 
BRANCH  83  84
ATOM     84  S   UNL A   1      47.973  37.305  28.958  1.00  0.00     0.124 S 
ATOM     85  O   UNL A   1      47.613  37.832  27.644  1.00  0.00    -0.237 OA
ATOM     86  O   UNL A   1      47.143  37.766  30.069  1.00  0.00    -0.237 OA
ATOM     87  O   UNL A   1      49.405  37.253  29.239  1.00  0.00    -0.744 OA
ENDBRANCH  83  84
ENDBRANCH  57  78
ENDBRANCH  31  32
ENDBRANCH  23  26
ENDBRANCH  21  22
ENDBRANCH   1  21
TORSDOF 17
ENDMDL
