MODEL 1
REMARK VINA RESULT:     -13.0      0.000      0.000
REMARK SMILES Cc1c(N[C@@H]2CC[C@@H]([NH3+])C2)cccc1C(=O)NCCCCNC(=O)c1ccc(-c2c3nc(c(-c4ccc(S(=O)(=O)[O-])cc4)c4ccc([nH]4)c(-c4ccc(S(=O)(=O)[O-])cc4)c4nc(c(-c5ccc(S(=O)(=O)[O-])cc5)c5ccc2[nH]5)C=C4)C=C3)cc1
REMARK SMILES IDX 19 1 18 2 17 3 15 4 16 5 14 7 1 8 2 9 3 10 11 11 13 12 12 13
REMARK SMILES IDX 4 14 5 16 6 17 10 18 7 19 8 20 9 21 20 25 21 26 22 27 23 28
REMARK SMILES IDX 24 30 25 31 26 32 84 33 27 34 83 35 28 36 29 37 30 38 77 39
REMARK SMILES IDX 31 40 82 41 76 42 78 43 32 44 81 45 75 46 74 47 33 49 63 50
REMARK SMILES IDX 44 51 62 52 45 53 48 54 61 55 79 56 46 57 47 58 60 60 80 61
REMARK SMILES IDX 49 62 34 63 35 64 43 65 36 66 42 67 37 68 38 69 39 70 40 71
REMARK SMILES IDX 41 72 64 73 65 74 73 75 66 76 72 77 67 78 68 79 69 80 70 81
REMARK SMILES IDX 71 82 50 83 51 84 59 85 52 86 58 87 53 88 54 89 55 90 56 91
REMARK SMILES IDX 57 92
REMARK H PARENT 17 6 4 15 9 22 9 23 9 24 22 29 78 48 48 59
REMARK Flexibility Score: inf
ROOT
ATOM      1  C   UNL A   1      32.206  30.219  25.938  1.00  0.00     0.023 C 
ENDROOT
BRANCH   1   2
ATOM      2  C   UNL A   1      32.758  29.396  24.756  1.00  0.00     0.116 C 
BRANCH   2   3
ATOM      3  N   UNL A   1      31.820  29.385  23.643  1.00  0.00    -0.352 N 
ATOM      4  C   UNL A   1      31.230  28.413  22.877  1.00  0.00     0.251 C 
ATOM      5  O   UNL A   1      30.474  28.816  21.985  1.00  0.00    -0.269 OA
ATOM      6  H   UNL A   1      31.543  30.291  23.376  1.00  0.00     0.163 HD
BRANCH   4   7
ATOM      7  C   UNL A   1      31.350  26.930  23.074  1.00  0.00     0.044 A 
ATOM      8  C   UNL A   1      33.493  26.522  21.753  1.00  0.00     0.047 C 
ATOM      9  C   UNL A   1      32.412  26.082  22.698  1.00  0.00    -0.015 A 
ATOM     10  C   UNL A   1      32.409  24.706  23.058  1.00  0.00     0.038 A 
ATOM     11  C   UNL A   1      31.207  24.143  23.480  1.00  0.00     0.026 A 
ATOM     12  C   UNL A   1      30.188  26.324  23.585  1.00  0.00     0.014 A 
ATOM     13  C   UNL A   1      30.096  24.942  23.734  1.00  0.00     0.003 A 
BRANCH  10  14
ATOM     14  N   UNL A   1      33.578  23.986  22.909  1.00  0.00    -0.382 N 
ATOM     15  H   UNL A   1      33.862  23.860  21.975  1.00  0.00     0.160 HD
BRANCH  14  16
ATOM     16  C   UNL A   1      34.457  23.385  23.887  1.00  0.00     0.085 C 
ATOM     17  C   UNL A   1      34.518  24.127  25.223  1.00  0.00     0.031 C 
ATOM     18  C   UNL A   1      35.891  23.167  23.421  1.00  0.00     0.089 C 
ATOM     19  C   UNL A   1      36.004  24.221  25.565  1.00  0.00     0.067 C 
ATOM     20  C   UNL A   1      36.694  23.146  24.722  1.00  0.00     0.182 C 
BRANCH  20  21
ATOM     21  N   UNL A   1      36.642  21.840  25.381  1.00  0.00    -0.355 N 
ATOM     22  H   UNL A   1      36.520  21.971  26.386  1.00  0.00     0.344 HD
ATOM     23  H   UNL A   1      37.511  21.336  25.207  1.00  0.00     0.344 HD
ATOM     24  H   UNL A   1      35.857  21.303  25.011  1.00  0.00     0.344 HD
ENDBRANCH  20  21
ENDBRANCH  14  16
ENDBRANCH  10  14
ENDBRANCH   4   7
ENDBRANCH   2   3
ENDBRANCH   1   2
BRANCH   1  25
ATOM     25  C   UNL A   1      32.965  30.060  27.253  1.00  0.00     0.023 C 
BRANCH  25  26
ATOM     26  C   UNL A   1      34.458  29.914  27.031  1.00  0.00     0.116 C 
BRANCH  26  27
ATOM     27  N   UNL A   1      35.243  31.074  27.435  1.00  0.00    -0.352 N 
ATOM     28  C   UNL A   1      36.479  31.074  28.058  1.00  0.00     0.251 C 
ATOM     29  H   UNL A   1      34.849  31.957  27.243  1.00  0.00     0.163 HD
ATOM     30  O   UNL A   1      36.956  32.082  28.566  1.00  0.00    -0.269 OA
BRANCH  28  31
ATOM     31  C   UNL A   1      37.261  29.823  27.986  1.00  0.00     0.039 A 
ATOM     32  C   UNL A   1      37.284  29.018  29.130  1.00  0.00     0.014 A 
ATOM     33  C   UNL A   1      38.209  29.670  26.980  1.00  0.00     0.014 A 
ATOM     34  C   UNL A   1      38.390  28.206  29.368  1.00  0.00     0.010 A 
ATOM     35  C   UNL A   1      39.363  28.980  27.283  1.00  0.00     0.010 A 
ATOM     36  C   UNL A   1      39.474  28.283  28.497  1.00  0.00    -0.014 A 
BRANCH  36  37
ATOM     37  C   UNL A   1      40.797  27.735  28.787  1.00  0.00     0.031 A 
ATOM     38  C   UNL A   1      41.071  26.310  28.483  1.00  0.00     0.074 A 
ATOM     39  C   UNL A   1      41.799  28.541  29.205  1.00  0.00     0.049 A 
ATOM     40  N   UNL A   1      42.055  25.628  28.967  1.00  0.00    -0.248 NA
ATOM     41  C   UNL A   1      40.187  25.508  27.641  1.00  0.00     0.031 C 
ATOM     42  C   UNL A   1      43.228  28.234  29.191  1.00  0.00     0.029 A 
ATOM     43  N   UNL A   1      41.724  29.732  29.933  1.00  0.00    -0.354 N 
ATOM     44  C   UNL A   1      42.127  24.450  28.254  1.00  0.00     0.074 A 
ATOM     45  C   UNL A   1      40.880  24.374  27.536  1.00  0.00     0.031 C 
ATOM     46  C   UNL A   1      43.841  28.998  30.107  1.00  0.00     0.029 A 
ATOM     47  C   UNL A   1      42.804  29.709  30.834  1.00  0.00     0.049 A 
ATOM     48  H   UNL A   1      41.051  30.443  29.835  1.00  0.00     0.167 HD
ATOM     49  C   UNL A   1      43.302  23.757  28.224  1.00  0.00     0.031 A 
ATOM     50  C   UNL A   1      42.669  29.725  32.193  1.00  0.00     0.031 A 
ATOM     51  C   UNL A   1      44.259  24.288  29.195  1.00  0.00     0.049 A 
ATOM     52  C   UNL A   1      43.288  28.516  32.864  1.00  0.00     0.074 A 
ATOM     53  C   UNL A   1      45.391  25.079  29.082  1.00  0.00     0.029 A 
ATOM     54  N   UNL A   1      43.937  24.255  30.548  1.00  0.00    -0.354 N 
ATOM     55  N   UNL A   1      43.671  27.447  32.221  1.00  0.00    -0.248 NA
ATOM     56  C   UNL A   1      43.479  28.387  34.307  1.00  0.00     0.031 C 
ATOM     57  C   UNL A   1      45.681  25.611  30.368  1.00  0.00     0.029 A 
ATOM     58  C   UNL A   1      44.751  25.112  31.264  1.00  0.00     0.049 A 
ATOM     59  H   UNL A   1      43.228  23.698  30.942  1.00  0.00     0.167 HD
ATOM     60  C   UNL A   1      44.128  26.509  33.107  1.00  0.00     0.074 A 
ATOM     61  C   UNL A   1      44.001  27.149  34.403  1.00  0.00     0.031 C 
ATOM     62  C   UNL A   1      44.557  25.279  32.699  1.00  0.00     0.031 A 
BRANCH  49  63
ATOM     63  C   UNL A   1      43.682  22.799  27.106  1.00  0.00    -0.014 A 
ATOM     64  C   UNL A   1      42.837  21.710  26.805  1.00  0.00     0.010 A 
ATOM     65  C   UNL A   1      44.891  22.844  26.385  1.00  0.00     0.010 A 
ATOM     66  C   UNL A   1      43.218  20.685  25.920  1.00  0.00     0.020 A 
ATOM     67  C   UNL A   1      45.296  21.821  25.513  1.00  0.00     0.020 A 
ATOM     68  C   UNL A   1      44.463  20.735  25.299  1.00  0.00     0.054 A 
BRANCH  68  69
ATOM     69  S   UNL A   1      44.989  19.372  24.229  1.00  0.00     0.124 S 
ATOM     70  O   UNL A   1      46.444  19.422  24.350  1.00  0.00    -0.237 OA
ATOM     71  O   UNL A   1      44.342  18.219  24.849  1.00  0.00    -0.237 OA
ATOM     72  O   UNL A   1      44.468  19.741  22.915  1.00  0.00    -0.744 OA
ENDBRANCH  68  69
ENDBRANCH  49  63
BRANCH  50  73
ATOM     73  C   UNL A   1      41.475  30.464  32.683  1.00  0.00    -0.014 A 
ATOM     74  C   UNL A   1      40.286  29.720  32.842  1.00  0.00     0.010 A 
ATOM     75  C   UNL A   1      41.626  31.670  33.391  1.00  0.00     0.010 A 
ATOM     76  C   UNL A   1      39.363  30.064  33.831  1.00  0.00     0.020 A 
ATOM     77  C   UNL A   1      40.696  32.018  34.381  1.00  0.00     0.020 A 
ATOM     78  C   UNL A   1      39.617  31.169  34.643  1.00  0.00     0.054 A 
BRANCH  78  79
ATOM     79  S   UNL A   1      38.648  31.336  36.172  1.00  0.00     0.124 S 
ATOM     80  O   UNL A   1      38.402  29.946  36.541  1.00  0.00    -0.237 OA
ATOM     81  O   UNL A   1      39.582  32.063  37.031  1.00  0.00    -0.237 OA
ATOM     82  O   UNL A   1      37.475  32.091  35.743  1.00  0.00    -0.744 OA
ENDBRANCH  78  79
ENDBRANCH  50  73
BRANCH  62  83
ATOM     83  C   UNL A   1      44.904  24.123  33.603  1.00  0.00    -0.014 A 
ATOM     84  C   UNL A   1      44.031  23.065  33.899  1.00  0.00     0.010 A 
ATOM     85  C   UNL A   1      46.232  24.015  34.084  1.00  0.00     0.010 A 
ATOM     86  C   UNL A   1      44.445  21.980  34.687  1.00  0.00     0.020 A 
ATOM     87  C   UNL A   1      46.666  22.919  34.833  1.00  0.00     0.020 A 
ATOM     88  C   UNL A   1      45.759  21.916  35.153  1.00  0.00     0.054 A 
BRANCH  88  89
ATOM     89  S   UNL A   1      46.308  20.483  36.114  1.00  0.00     0.124 S 
ATOM     90  O   UNL A   1      47.760  20.617  36.050  1.00  0.00    -0.237 OA
ATOM     91  O   UNL A   1      45.715  20.721  37.428  1.00  0.00    -0.237 OA
ATOM     92  O   UNL A   1      45.749  19.348  35.383  1.00  0.00    -0.744 OA
ENDBRANCH  88  89
ENDBRANCH  62  83
ENDBRANCH  36  37
ENDBRANCH  28  31
ENDBRANCH  26  27
ENDBRANCH  25  26
ENDBRANCH   1  25
TORSDOF 17
ENDMDL
MODEL 2
REMARK VINA RESULT:     -12.8      4.974     11.460
REMARK SMILES Cc1c(N[C@@H]2CC[C@@H]([NH3+])C2)cccc1C(=O)NCCCCNC(=O)c1ccc(-c2c3nc(c(-c4ccc(S(=O)(=O)[O-])cc4)c4ccc([nH]4)c(-c4ccc(S(=O)(=O)[O-])cc4)c4nc(c(-c5ccc(S(=O)(=O)[O-])cc5)c5ccc2[nH]5)C=C4)C=C3)cc1
REMARK SMILES IDX 19 1 18 2 17 3 15 4 16 5 14 7 1 8 2 9 3 10 11 11 13 12 12 13
REMARK SMILES IDX 4 14 5 16 6 17 10 18 7 19 8 20 9 21 20 25 21 26 22 27 23 28
REMARK SMILES IDX 24 30 25 31 26 32 84 33 27 34 83 35 28 36 29 37 30 38 77 39
REMARK SMILES IDX 31 40 82 41 76 42 78 43 32 44 81 45 75 46 74 47 33 49 63 50
REMARK SMILES IDX 44 51 62 52 45 53 48 54 61 55 79 56 46 57 47 58 60 60 80 61
REMARK SMILES IDX 49 62 34 63 35 64 43 65 36 66 42 67 37 68 38 69 39 70 40 71
REMARK SMILES IDX 41 72 64 73 65 74 73 75 66 76 72 77 67 78 68 79 69 80 70 81
REMARK SMILES IDX 71 82 50 83 51 84 59 85 52 86 58 87 53 88 54 89 55 90 56 91
REMARK SMILES IDX 57 92
REMARK H PARENT 17 6 4 15 9 22 9 23 9 24 22 29 78 48 48 59
REMARK Flexibility Score: inf
ROOT
ATOM      1  C   UNL A   1      36.290  22.340  24.804  1.00  0.00     0.023 C 
ENDROOT
BRANCH   1   2
ATOM      2  C   UNL A   1      35.257  21.625  25.698  1.00  0.00     0.116 C 
BRANCH   2   3
ATOM      3  N   UNL A   1      34.383  20.770  24.907  1.00  0.00    -0.352 N 
ATOM      4  C   UNL A   1      33.145  20.909  24.333  1.00  0.00     0.251 C 
ATOM      5  O   UNL A   1      32.717  19.917  23.732  1.00  0.00    -0.269 OA
ATOM      6  H   UNL A   1      34.773  19.881  24.746  1.00  0.00     0.163 HD
BRANCH   4   7
ATOM      7  C   UNL A   1      32.316  22.159  24.297  1.00  0.00     0.044 A 
ATOM      8  C   UNL A   1      33.505  23.373  22.395  1.00  0.00     0.047 C 
ATOM      9  C   UNL A   1      32.368  23.214  23.363  1.00  0.00    -0.015 A 
ATOM     10  C   UNL A   1      31.431  24.283  23.417  1.00  0.00     0.038 A 
ATOM     11  C   UNL A   1      30.693  24.446  24.588  1.00  0.00     0.026 A 
ATOM     12  C   UNL A   1      31.483  22.327  25.418  1.00  0.00     0.014 A 
ATOM     13  C   UNL A   1      30.723  23.482  25.590  1.00  0.00     0.003 A 
BRANCH  10  14
ATOM     14  N   UNL A   1      31.348  25.139  22.337  1.00  0.00    -0.382 N 
ATOM     15  H   UNL A   1      31.079  24.706  21.495  1.00  0.00     0.160 HD
BRANCH  14  16
ATOM     16  C   UNL A   1      31.590  26.560  22.227  1.00  0.00     0.085 C 
ATOM     17  C   UNL A   1      32.768  27.067  23.061  1.00  0.00     0.031 C 
ATOM     18  C   UNL A   1      30.392  27.446  22.545  1.00  0.00     0.089 C 
ATOM     19  C   UNL A   1      32.254  28.323  23.762  1.00  0.00     0.067 C 
ATOM     20  C   UNL A   1      31.026  28.772  22.966  1.00  0.00     0.182 C 
BRANCH  20  21
ATOM     21  N   UNL A   1      31.409  29.591  21.816  1.00  0.00    -0.355 N 
ATOM     22  H   UNL A   1      31.243  29.068  20.955  1.00  0.00     0.344 HD
ATOM     23  H   UNL A   1      32.398  29.831  21.882  1.00  0.00     0.344 HD
ATOM     24  H   UNL A   1      30.852  30.446  21.806  1.00  0.00     0.344 HD
ENDBRANCH  20  21
ENDBRANCH  14  16
ENDBRANCH  10  14
ENDBRANCH   4   7
ENDBRANCH   2   3
ENDBRANCH   1   2
BRANCH   1  25
ATOM     25  C   UNL A   1      37.742  22.213  25.255  1.00  0.00     0.023 C 
BRANCH  25  26
ATOM     26  C   UNL A   1      38.156  23.358  26.158  1.00  0.00     0.116 C 
BRANCH  26  27
ATOM     27  N   UNL A   1      39.371  23.112  26.926  1.00  0.00    -0.352 N 
ATOM     28  C   UNL A   1      40.202  24.055  27.507  1.00  0.00     0.251 C 
ATOM     29  H   UNL A   1      39.629  22.168  27.044  1.00  0.00     0.163 HD
ATOM     30  O   UNL A   1      41.316  23.772  27.931  1.00  0.00    -0.269 OA
BRANCH  28  31
ATOM     31  C   UNL A   1      39.641  25.408  27.700  1.00  0.00     0.039 A 
ATOM     32  C   UNL A   1      40.130  26.425  26.875  1.00  0.00     0.014 A 
ATOM     33  C   UNL A   1      38.962  25.701  28.878  1.00  0.00     0.014 A 
ATOM     34  C   UNL A   1      40.134  27.737  27.342  1.00  0.00     0.010 A 
ATOM     35  C   UNL A   1      39.095  26.971  29.397  1.00  0.00     0.010 A 
ATOM     36  C   UNL A   1      39.720  27.981  28.649  1.00  0.00    -0.014 A 
BRANCH  36  37
ATOM     37  C   UNL A   1      39.958  29.233  29.362  1.00  0.00     0.031 A 
ATOM     38  C   UNL A   1      38.963  30.327  29.253  1.00  0.00     0.074 A 
ATOM     39  C   UNL A   1      41.003  29.354  30.213  1.00  0.00     0.049 A 
ATOM     40  N   UNL A   1      39.188  31.562  29.553  1.00  0.00    -0.248 NA
ATOM     41  C   UNL A   1      37.623  30.111  28.713  1.00  0.00     0.031 C 
ATOM     42  C   UNL A   1      41.172  30.374  31.246  1.00  0.00     0.029 A 
ATOM     43  N   UNL A   1      42.240  28.704  30.184  1.00  0.00    -0.354 N 
ATOM     44  C   UNL A   1      37.969  32.207  29.577  1.00  0.00     0.074 A 
ATOM     45  C   UNL A   1      37.056  31.299  28.932  1.00  0.00     0.031 C 
ATOM     46  C   UNL A   1      42.479  30.494  31.521  1.00  0.00     0.029 A 
ATOM     47  C   UNL A   1      43.195  29.661  30.569  1.00  0.00     0.049 A 
ATOM     48  H   UNL A   1      42.409  27.765  29.942  1.00  0.00     0.167 HD
ATOM     49  C   UNL A   1      37.838  33.365  30.288  1.00  0.00     0.031 A 
ATOM     50  C   UNL A   1      44.222  30.084  29.775  1.00  0.00     0.031 A 
ATOM     51  C   UNL A   1      39.139  33.871  30.727  1.00  0.00     0.049 A 
ATOM     52  C   UNL A   1      44.193  31.577  29.513  1.00  0.00     0.074 A 
ATOM     53  C   UNL A   1      39.796  33.874  31.947  1.00  0.00     0.029 A 
ATOM     54  N   UNL A   1      40.086  34.223  29.770  1.00  0.00    -0.354 N 
ATOM     55  N   UNL A   1      43.170  32.340  29.783  1.00  0.00    -0.248 NA
ATOM     56  C   UNL A   1      45.282  32.319  28.883  1.00  0.00     0.031 C 
ATOM     57  C   UNL A   1      41.173  34.125  31.699  1.00  0.00     0.029 A 
ATOM     58  C   UNL A   1      41.342  34.312  30.338  1.00  0.00     0.049 A 
ATOM     59  H   UNL A   1      39.888  34.387  28.820  1.00  0.00     0.167 HD
ATOM     60  C   UNL A   1      43.424  33.621  29.375  1.00  0.00     0.074 A 
ATOM     61  C   UNL A   1      44.767  33.562  28.829  1.00  0.00     0.031 C 
ATOM     62  C   UNL A   1      42.501  34.618  29.508  1.00  0.00     0.031 A 
BRANCH  49  63
ATOM     63  C   UNL A   1      36.511  33.866  30.835  1.00  0.00    -0.014 A 
ATOM     64  C   UNL A   1      35.424  34.062  29.957  1.00  0.00     0.010 A 
ATOM     65  C   UNL A   1      36.290  34.262  32.169  1.00  0.00     0.010 A 
ATOM     66  C   UNL A   1      34.238  34.700  30.361  1.00  0.00     0.020 A 
ATOM     67  C   UNL A   1      35.121  34.917  32.585  1.00  0.00     0.020 A 
ATOM     68  C   UNL A   1      34.105  35.150  31.672  1.00  0.00     0.054 A 
BRANCH  68  69
ATOM     69  S   UNL A   1      32.613  36.049  32.167  1.00  0.00     0.124 S 
ATOM     70  O   UNL A   1      32.251  36.755  30.941  1.00  0.00    -0.237 OA
ATOM     71  O   UNL A   1      31.714  34.969  32.564  1.00  0.00    -0.237 OA
ATOM     72  O   UNL A   1      33.071  36.905  33.259  1.00  0.00    -0.744 OA
ENDBRANCH  68  69
ENDBRANCH  49  63
BRANCH  50  73
ATOM     73  C   UNL A   1      44.730  29.055  28.829  1.00  0.00    -0.014 A 
ATOM     74  C   UNL A   1      44.073  28.952  27.584  1.00  0.00     0.010 A 
ATOM     75  C   UNL A   1      46.043  28.563  28.952  1.00  0.00     0.010 A 
ATOM     76  C   UNL A   1      44.776  28.558  26.444  1.00  0.00     0.020 A 
ATOM     77  C   UNL A   1      46.746  28.162  27.808  1.00  0.00     0.020 A 
ATOM     78  C   UNL A   1      46.129  28.238  26.556  1.00  0.00     0.054 A 
BRANCH  78  79
ATOM     79  S   UNL A   1      47.107  28.155  25.026  1.00  0.00     0.124 S 
ATOM     80  O   UNL A   1      46.765  26.835  24.506  1.00  0.00    -0.237 OA
ATOM     81  O   UNL A   1      46.569  29.289  24.275  1.00  0.00    -0.237 OA
ATOM     82  O   UNL A   1      48.479  28.311  25.498  1.00  0.00    -0.744 OA
ENDBRANCH  78  79
ENDBRANCH  50  73
BRANCH  62  83
ATOM     83  C   UNL A   1      42.615  36.007  28.930  1.00  0.00    -0.014 A 
ATOM     84  C   UNL A   1      43.304  37.062  29.548  1.00  0.00     0.010 A 
ATOM     85  C   UNL A   1      42.117  36.239  27.626  1.00  0.00     0.010 A 
ATOM     86  C   UNL A   1      43.438  38.309  28.917  1.00  0.00     0.020 A 
ATOM     87  C   UNL A   1      42.282  37.462  26.972  1.00  0.00     0.020 A 
ATOM     88  C   UNL A   1      42.922  38.503  27.635  1.00  0.00     0.054 A 
BRANCH  88  89
ATOM     89  S   UNL A   1      43.154  40.092  26.800  1.00  0.00     0.124 S 
ATOM     90  O   UNL A   1      41.816  40.353  26.276  1.00  0.00    -0.237 OA
ATOM     91  O   UNL A   1      43.587  40.974  27.881  1.00  0.00    -0.237 OA
ATOM     92  O   UNL A   1      44.175  39.803  25.795  1.00  0.00    -0.744 OA
ENDBRANCH  88  89
ENDBRANCH  62  83
ENDBRANCH  36  37
ENDBRANCH  28  31
ENDBRANCH  26  27
ENDBRANCH  25  26
ENDBRANCH   1  25
TORSDOF 17
ENDMDL
MODEL 3
REMARK VINA RESULT:     -12.4      1.908      2.579
REMARK SMILES Cc1c(N[C@@H]2CC[C@@H]([NH3+])C2)cccc1C(=O)NCCCCNC(=O)c1ccc(-c2c3nc(c(-c4ccc(S(=O)(=O)[O-])cc4)c4ccc([nH]4)c(-c4ccc(S(=O)(=O)[O-])cc4)c4nc(c(-c5ccc(S(=O)(=O)[O-])cc5)c5ccc2[nH]5)C=C4)C=C3)cc1
REMARK SMILES IDX 19 1 18 2 17 3 15 4 16 5 14 7 1 8 2 9 3 10 11 11 13 12 12 13
REMARK SMILES IDX 4 14 5 16 6 17 10 18 7 19 8 20 9 21 20 25 21 26 22 27 23 28
REMARK SMILES IDX 24 30 25 31 26 32 84 33 27 34 83 35 28 36 29 37 30 38 77 39
REMARK SMILES IDX 31 40 82 41 76 42 78 43 32 44 81 45 75 46 74 47 33 49 63 50
REMARK SMILES IDX 44 51 62 52 45 53 48 54 61 55 79 56 46 57 47 58 60 60 80 61
REMARK SMILES IDX 49 62 34 63 35 64 43 65 36 66 42 67 37 68 38 69 39 70 40 71
REMARK SMILES IDX 41 72 64 73 65 74 73 75 66 76 72 77 67 78 68 79 69 80 70 81
REMARK SMILES IDX 71 82 50 83 51 84 59 85 52 86 58 87 53 88 54 89 55 90 56 91
REMARK SMILES IDX 57 92
REMARK H PARENT 17 6 4 15 9 22 9 23 9 24 22 29 78 48 48 59
REMARK Flexibility Score: inf
ROOT
ATOM      1  C   UNL A   1      32.179  28.825  27.260  1.00  0.00     0.023 C 
ENDROOT
BRANCH   1   2
ATOM      2  C   UNL A   1      32.606  27.425  26.776  1.00  0.00     0.116 C 
BRANCH   2   3
ATOM      3  N   UNL A   1      31.500  26.481  26.860  1.00  0.00    -0.352 N 
ATOM      4  C   UNL A   1      31.212  25.266  26.295  1.00  0.00     0.251 C 
ATOM      5  O   UNL A   1      30.127  24.767  26.616  1.00  0.00    -0.269 OA
ATOM      6  H   UNL A   1      30.789  26.790  27.467  1.00  0.00     0.163 HD
BRANCH   4   7
ATOM      7  C   UNL A   1      32.115  24.462  25.405  1.00  0.00     0.044 A 
ATOM      8  C   UNL A   1      33.268  23.043  27.183  1.00  0.00     0.047 C 
ATOM      9  C   UNL A   1      32.945  23.377  25.755  1.00  0.00    -0.015 A 
ATOM     10  C   UNL A   1      33.661  22.657  24.760  1.00  0.00     0.038 A 
ATOM     11  C   UNL A   1      33.799  23.240  23.502  1.00  0.00     0.026 A 
ATOM     12  C   UNL A   1      32.218  24.960  24.093  1.00  0.00     0.014 A 
ATOM     13  C   UNL A   1      33.092  24.391  23.169  1.00  0.00     0.003 A 
BRANCH  10  14
ATOM     14  N   UNL A   1      34.236  21.451  25.109  1.00  0.00    -0.382 N 
ATOM     15  H   UNL A   1      35.164  21.520  25.430  1.00  0.00     0.160 HD
BRANCH  14  16
ATOM     16  C   UNL A   1      33.712  20.104  25.084  1.00  0.00     0.085 C 
ATOM     17  C   UNL A   1      34.746  19.029  24.743  1.00  0.00     0.031 C 
ATOM     18  C   UNL A   1      32.516  19.892  24.164  1.00  0.00     0.089 C 
ATOM     19  C   UNL A   1      34.072  18.136  23.704  1.00  0.00     0.067 C 
ATOM     20  C   UNL A   1      32.571  18.399  23.839  1.00  0.00     0.182 C 
BRANCH  20  21
ATOM     21  N   UNL A   1      31.981  17.582  24.899  1.00  0.00    -0.355 N 
ATOM     22  H   UNL A   1      30.972  17.514  24.755  1.00  0.00     0.344 HD
ATOM     23  H   UNL A   1      32.166  18.013  25.805  1.00  0.00     0.344 HD
ATOM     24  H   UNL A   1      32.390  16.648  24.877  1.00  0.00     0.344 HD
ENDBRANCH  20  21
ENDBRANCH  14  16
ENDBRANCH  10  14
ENDBRANCH   4   7
ENDBRANCH   2   3
ENDBRANCH   1   2
BRANCH   1  25
ATOM     25  C   UNL A   1      33.079  29.973  26.810  1.00  0.00     0.023 C 
BRANCH  25  26
ATOM     26  C   UNL A   1      34.542  29.684  27.083  1.00  0.00     0.116 C 
BRANCH  26  27
ATOM     27  N   UNL A   1      35.329  30.856  27.449  1.00  0.00    -0.352 N 
ATOM     28  C   UNL A   1      36.538  30.877  28.124  1.00  0.00     0.251 C 
ATOM     29  H   UNL A   1      34.958  31.730  27.187  1.00  0.00     0.163 HD
ATOM     30  O   UNL A   1      37.009  31.908  28.590  1.00  0.00    -0.269 OA
BRANCH  28  31
ATOM     31  C   UNL A   1      37.301  29.612  28.162  1.00  0.00     0.039 A 
ATOM     32  C   UNL A   1      37.381  28.952  29.393  1.00  0.00     0.014 A 
ATOM     33  C   UNL A   1      38.188  29.322  27.132  1.00  0.00     0.014 A 
ATOM     34  C   UNL A   1      38.490  28.156  29.667  1.00  0.00     0.010 A 
ATOM     35  C   UNL A   1      39.349  28.653  27.453  1.00  0.00     0.010 A 
ATOM     36  C   UNL A   1      39.523  28.108  28.734  1.00  0.00    -0.014 A 
BRANCH  36  37
ATOM     37  C   UNL A   1      40.854  27.576  29.015  1.00  0.00     0.031 A 
ATOM     38  C   UNL A   1      41.161  26.170  28.656  1.00  0.00     0.074 A 
ATOM     39  C   UNL A   1      41.835  28.385  29.476  1.00  0.00     0.049 A 
ATOM     40  N   UNL A   1      42.155  25.490  29.122  1.00  0.00    -0.248 NA
ATOM     41  C   UNL A   1      40.302  25.385  27.774  1.00  0.00     0.031 C 
ATOM     42  C   UNL A   1      43.270  28.108  29.464  1.00  0.00     0.029 A 
ATOM     43  N   UNL A   1      41.728  29.543  30.251  1.00  0.00    -0.354 N 
ATOM     44  C   UNL A   1      42.258  24.344  28.363  1.00  0.00     0.074 A 
ATOM     45  C   UNL A   1      41.020  24.271  27.630  1.00  0.00     0.031 C 
ATOM     46  C   UNL A   1      43.859  28.847  30.417  1.00  0.00     0.029 A 
ATOM     47  C   UNL A   1      42.799  29.506  31.161  1.00  0.00     0.049 A 
ATOM     48  H   UNL A   1      41.041  30.244  30.175  1.00  0.00     0.167 HD
ATOM     49  C   UNL A   1      43.448  23.677  28.317  1.00  0.00     0.031 A 
ATOM     50  C   UNL A   1      42.652  29.464  32.519  1.00  0.00     0.031 A 
ATOM     51  C   UNL A   1      44.385  24.187  29.319  1.00  0.00     0.049 A 
ATOM     52  C   UNL A   1      43.290  28.241  33.146  1.00  0.00     0.074 A 
ATOM     53  C   UNL A   1      45.500  25.006  29.249  1.00  0.00     0.029 A 
ATOM     54  N   UNL A   1      44.050  24.092  30.666  1.00  0.00    -0.354 N 
ATOM     55  N   UNL A   1      43.702  27.208  32.464  1.00  0.00    -0.248 NA
ATOM     56  C   UNL A   1      43.470  28.057  34.585  1.00  0.00     0.031 C 
ATOM     57  C   UNL A   1      45.767  25.491  30.558  1.00  0.00     0.029 A 
ATOM     58  C   UNL A   1      44.840  24.936  31.424  1.00  0.00     0.049 A 
ATOM     59  H   UNL A   1      43.349  23.506  31.030  1.00  0.00     0.167 HD
ATOM     60  C   UNL A   1      44.169  26.243  33.316  1.00  0.00     0.074 A 
ATOM     61  C   UNL A   1      44.017  26.828  34.636  1.00  0.00     0.031 C 
ATOM     62  C   UNL A   1      44.629  25.040  32.862  1.00  0.00     0.031 A 
BRANCH  49  63
ATOM     63  C   UNL A   1      43.858  22.773  27.165  1.00  0.00    -0.014 A 
ATOM     64  C   UNL A   1      42.971  21.772  26.715  1.00  0.00     0.010 A 
ATOM     65  C   UNL A   1      45.125  22.779  26.550  1.00  0.00     0.010 A 
ATOM     66  C   UNL A   1      43.359  20.786  25.791  1.00  0.00     0.020 A 
ATOM     67  C   UNL A   1      45.536  21.793  25.640  1.00  0.00     0.020 A 
ATOM     68  C   UNL A   1      44.654  20.787  25.278  1.00  0.00     0.054 A 
BRANCH  68  69
ATOM     69  S   UNL A   1      45.178  19.467  24.156  1.00  0.00     0.124 S 
ATOM     70  O   UNL A   1      44.663  18.270  24.817  1.00  0.00    -0.237 OA
ATOM     71  O   UNL A   1      44.516  19.834  22.907  1.00  0.00    -0.237 OA
ATOM     72  O   UNL A   1      46.635  19.583  24.140  1.00  0.00    -0.744 OA
ENDBRANCH  68  69
ENDBRANCH  49  63
BRANCH  50  73
ATOM     73  C   UNL A   1      41.438  30.157  33.026  1.00  0.00    -0.014 A 
ATOM     74  C   UNL A   1      41.532  31.551  33.217  1.00  0.00     0.010 A 
ATOM     75  C   UNL A   1      40.168  29.573  32.865  1.00  0.00     0.010 A 
ATOM     76  C   UNL A   1      40.412  32.366  33.049  1.00  0.00     0.020 A 
ATOM     77  C   UNL A   1      39.041  30.391  32.702  1.00  0.00     0.020 A 
ATOM     78  C   UNL A   1      39.190  31.781  32.718  1.00  0.00     0.054 A 
BRANCH  78  79
ATOM     79  S   UNL A   1      37.875  32.868  32.088  1.00  0.00     0.124 S 
ATOM     80  O   UNL A   1      36.813  31.922  31.765  1.00  0.00    -0.237 OA
ATOM     81  O   UNL A   1      37.627  33.726  33.246  1.00  0.00    -0.237 OA
ATOM     82  O   UNL A   1      38.504  33.525  30.946  1.00  0.00    -0.744 OA
ENDBRANCH  78  79
ENDBRANCH  50  73
BRANCH  62  83
ATOM     83  C   UNL A   1      44.992  23.856  33.723  1.00  0.00    -0.014 A 
ATOM     84  C   UNL A   1      44.116  22.799  34.017  1.00  0.00     0.010 A 
ATOM     85  C   UNL A   1      46.332  23.721  34.157  1.00  0.00     0.010 A 
ATOM     86  C   UNL A   1      44.544  21.688  34.761  1.00  0.00     0.020 A 
ATOM     87  C   UNL A   1      46.778  22.600  34.861  1.00  0.00     0.020 A 
ATOM     88  C   UNL A   1      45.871  21.598  35.182  1.00  0.00     0.054 A 
BRANCH  88  89
ATOM     89  S   UNL A   1      46.434  20.133  36.085  1.00  0.00     0.124 S 
ATOM     90  O   UNL A   1      45.850  19.052  35.296  1.00  0.00    -0.237 OA
ATOM     91  O   UNL A   1      47.890  20.243  36.017  1.00  0.00    -0.237 OA
ATOM     92  O   UNL A   1      45.865  20.315  37.419  1.00  0.00    -0.744 OA
ENDBRANCH  88  89
ENDBRANCH  62  83
ENDBRANCH  36  37
ENDBRANCH  28  31
ENDBRANCH  26  27
ENDBRANCH  25  26
ENDBRANCH   1  25
TORSDOF 17
ENDMDL
