MODEL 1
REMARK VINA RESULT:     -12.5      0.000      0.000
REMARK SMILES Cc1ccc(S(=O)(=O)Nc2cc3c(cc2C(=O)NCCCCNC(=O)c2ccc(-c4c5nc(c(-c6ccc(S(=O)(=O)[O-])cc6)c6ccc([nH]6)c(-c6ccc(S(=O)(=O)[O-])cc6)c6nc(c(-c7ccc(S(=O)(=O)[O-])cc7)c7ccc4[nH]7)C=C6)C=C5)cc2)OCCO3)s1
REMARK SMILES IDX 20 1 19 2 18 3 16 4 17 5 15 7 10 8 11 9 12 10 14 11 13 12
REMARK SMILES IDX 89 13 86 14 88 15 87 16 9 17 6 19 7 20 8 21 5 22 1 23 2 24
REMARK SMILES IDX 3 25 90 26 4 27 21 28 22 29 23 30 24 31 25 33 26 34 27 35
REMARK SMILES IDX 85 36 28 37 84 38 29 39 30 40 31 41 78 42 32 43 83 44 77 45
REMARK SMILES IDX 79 46 33 47 82 48 76 49 75 50 34 52 64 53 45 54 63 55 46 56
REMARK SMILES IDX 49 57 62 58 80 59 47 60 48 61 61 63 81 64 50 65 35 66 36 67
REMARK SMILES IDX 44 68 37 69 43 70 38 71 39 72 40 73 41 74 42 75 65 76 66 77
REMARK SMILES IDX 74 78 67 79 73 80 68 81 69 82 70 83 71 84 72 85 51 86 52 87
REMARK SMILES IDX 60 88 53 89 59 90 54 91 55 92 56 93 57 94 58 95
REMARK H PARENT 18 6 9 18 23 32 79 51 49 62
REMARK Flexibility Score: inf
ROOT
ATOM      1  C   UNL A   1      37.664  24.061  26.461  1.00  0.00     0.023 C 
ENDROOT
BRANCH   1   2
ATOM      2  C   UNL A   1      36.295  23.512  26.083  1.00  0.00     0.116 C 
BRANCH   2   3
ATOM      3  N   UNL A   1      35.883  23.752  24.710  1.00  0.00    -0.352 N 
ATOM      4  C   UNL A   1      34.882  23.185  23.951  1.00  0.00     0.253 C 
ATOM      5  O   UNL A   1      34.618  23.681  22.859  1.00  0.00    -0.269 OA
ATOM      6  H   UNL A   1      36.411  24.438  24.239  1.00  0.00     0.163 HD
BRANCH   4   7
ATOM      7  C   UNL A   1      34.152  21.977  24.418  1.00  0.00     0.067 A 
ATOM      8  C   UNL A   1      32.794  22.053  24.793  1.00  0.00     0.066 A 
ATOM      9  C   UNL A   1      32.096  20.882  25.116  1.00  0.00     0.078 A 
ATOM     10  C   UNL A   1      32.739  19.645  25.047  1.00  0.00     0.163 A 
ATOM     11  C   UNL A   1      34.814  20.746  24.478  1.00  0.00     0.066 A 
ATOM     12  C   UNL A   1      34.094  19.582  24.719  1.00  0.00     0.162 A 
ATOM     13  O   UNL A   1      31.978  18.532  25.295  1.00  0.00    -0.486 OA
ATOM     14  O   UNL A   1      34.781  18.404  24.577  1.00  0.00    -0.486 OA
ATOM     15  C   UNL A   1      32.778  17.346  25.417  1.00  0.00     0.271 C 
ATOM     16  C   UNL A   1      33.875  17.316  24.365  1.00  0.00     0.271 C 
BRANCH   8  17
ATOM     17  N   UNL A   1      32.123  23.316  24.865  1.00  0.00    -0.278 N 
ATOM     18  H   UNL A   1      31.708  23.708  24.063  1.00  0.00     0.180 HD
BRANCH  17  19
ATOM     19  S   UNL A   1      32.052  24.122  26.344  1.00  0.00     0.271 S 
ATOM     20  O   UNL A   1      33.017  23.507  27.222  1.00  0.00    -0.200 OA
ATOM     21  O   UNL A   1      30.651  24.184  26.724  1.00  0.00    -0.200 OA
BRANCH  19  22
ATOM     22  C   UNL A   1      32.511  25.822  26.099  1.00  0.00     0.140 A 
ATOM     23  C   UNL A   1      31.899  29.673  25.648  1.00  0.00     0.056 C 
ATOM     24  C   UNL A   1      32.379  28.267  25.786  1.00  0.00     0.003 A 
ATOM     25  C   UNL A   1      33.668  27.795  25.647  1.00  0.00     0.016 A 
ATOM     26  S   UNL A   1      31.283  27.005  26.163  1.00  0.00    -0.127 S 
ATOM     27  C   UNL A   1      33.746  26.391  25.845  1.00  0.00     0.034 A 
ENDBRANCH  19  22
ENDBRANCH  17  19
ENDBRANCH   8  17
ENDBRANCH   4   7
ENDBRANCH   2   3
ENDBRANCH   1   2
BRANCH   1  28
ATOM     28  C   UNL A   1      38.838  23.095  26.411  1.00  0.00     0.023 C 
BRANCH  28  29
ATOM     29  C   UNL A   1      40.153  23.631  26.954  1.00  0.00     0.116 C 
BRANCH  29  30
ATOM     30  N   UNL A   1      40.980  24.271  25.945  1.00  0.00    -0.352 N 
ATOM     31  C   UNL A   1      41.479  25.550  25.901  1.00  0.00     0.251 C 
ATOM     32  H   UNL A   1      41.218  23.703  25.177  1.00  0.00     0.163 HD
ATOM     33  O   UNL A   1      42.096  25.923  24.908  1.00  0.00    -0.269 OA
BRANCH  31  34
ATOM     34  C   UNL A   1      41.242  26.485  27.024  1.00  0.00     0.039 A 
ATOM     35  C   UNL A   1      40.334  26.118  28.020  1.00  0.00     0.014 A 
ATOM     36  C   UNL A   1      41.903  27.713  27.101  1.00  0.00     0.014 A 
ATOM     37  C   UNL A   1      40.131  26.956  29.119  1.00  0.00     0.010 A 
ATOM     38  C   UNL A   1      41.767  28.507  28.237  1.00  0.00     0.010 A 
ATOM     39  C   UNL A   1      40.865  28.145  29.248  1.00  0.00    -0.014 A 
BRANCH  39  40
ATOM     40  C   UNL A   1      40.672  29.045  30.412  1.00  0.00     0.031 A 
ATOM     41  C   UNL A   1      41.549  28.897  31.627  1.00  0.00     0.074 A 
ATOM     42  C   UNL A   1      39.676  29.952  30.402  1.00  0.00     0.049 A 
ATOM     43  N   UNL A   1      41.518  29.563  32.753  1.00  0.00    -0.248 NA
ATOM     44  C   UNL A   1      42.571  27.839  31.583  1.00  0.00     0.031 C 
ATOM     45  C   UNL A   1      38.717  30.150  29.312  1.00  0.00     0.029 A 
ATOM     46  N   UNL A   1      39.304  30.878  31.343  1.00  0.00    -0.354 N 
ATOM     47  C   UNL A   1      42.490  28.984  33.560  1.00  0.00     0.074 A 
ATOM     48  C   UNL A   1      43.060  27.884  32.814  1.00  0.00     0.031 C 
ATOM     49  C   UNL A   1      37.885  31.153  29.636  1.00  0.00     0.029 A 
ATOM     50  C   UNL A   1      38.235  31.654  30.960  1.00  0.00     0.049 A 
ATOM     51  H   UNL A   1      39.758  30.976  32.211  1.00  0.00     0.167 HD
ATOM     52  C   UNL A   1      42.893  29.347  34.801  1.00  0.00     0.031 A 
ATOM     53  C   UNL A   1      37.617  32.665  31.600  1.00  0.00     0.031 A 
ATOM     54  C   UNL A   1      42.349  30.462  35.528  1.00  0.00     0.049 A 
ATOM     55  C   UNL A   1      38.126  33.101  32.945  1.00  0.00     0.074 A 
ATOM     56  C   UNL A   1      42.729  30.956  36.763  1.00  0.00     0.029 A 
ATOM     57  N   UNL A   1      41.311  31.263  35.076  1.00  0.00    -0.354 N 
ATOM     58  N   UNL A   1      39.096  32.586  33.664  1.00  0.00    -0.248 NA
ATOM     59  C   UNL A   1      37.479  34.272  33.551  1.00  0.00     0.031 C 
ATOM     60  C   UNL A   1      41.902  32.043  37.070  1.00  0.00     0.029 A 
ATOM     61  C   UNL A   1      41.036  32.249  36.008  1.00  0.00     0.049 A 
ATOM     62  H   UNL A   1      40.839  31.148  34.220  1.00  0.00     0.167 HD
ATOM     63  C   UNL A   1      39.193  33.387  34.796  1.00  0.00     0.074 A 
ATOM     64  C   UNL A   1      38.191  34.426  34.659  1.00  0.00     0.031 C 
ATOM     65  C   UNL A   1      40.037  33.275  35.851  1.00  0.00     0.031 A 
BRANCH  52  66
ATOM     66  C   UNL A   1      43.975  28.518  35.441  1.00  0.00    -0.014 A 
ATOM     67  C   UNL A   1      45.333  28.848  35.278  1.00  0.00     0.010 A 
ATOM     68  C   UNL A   1      43.633  27.390  36.207  1.00  0.00     0.010 A 
ATOM     69  C   UNL A   1      46.330  28.031  35.817  1.00  0.00     0.020 A 
ATOM     70  C   UNL A   1      44.627  26.584  36.771  1.00  0.00     0.020 A 
ATOM     71  C   UNL A   1      45.970  26.896  36.551  1.00  0.00     0.054 A 
BRANCH  71  72
ATOM     72  S   UNL A   1      47.281  25.843  37.230  1.00  0.00     0.124 S 
ATOM     73  O   UNL A   1      46.826  24.511  36.841  1.00  0.00    -0.237 OA
ATOM     74  O   UNL A   1      48.475  26.325  36.537  1.00  0.00    -0.237 OA
ATOM     75  O   UNL A   1      47.242  26.124  38.663  1.00  0.00    -0.744 OA
ENDBRANCH  71  72
ENDBRANCH  52  66
BRANCH  53  76
ATOM     76  C   UNL A   1      36.483  33.369  30.943  1.00  0.00    -0.014 A 
ATOM     77  C   UNL A   1      35.268  33.547  31.627  1.00  0.00     0.010 A 
ATOM     78  C   UNL A   1      36.625  33.898  29.648  1.00  0.00     0.010 A 
ATOM     79  C   UNL A   1      34.210  34.233  31.024  1.00  0.00     0.020 A 
ATOM     80  C   UNL A   1      35.577  34.603  29.049  1.00  0.00     0.020 A 
ATOM     81  C   UNL A   1      34.372  34.760  29.739  1.00  0.00     0.054 A 
BRANCH  81  82
ATOM     82  S   UNL A   1      33.013  35.712  29.004  1.00  0.00     0.124 S 
ATOM     83  O   UNL A   1      32.375  34.718  28.145  1.00  0.00    -0.237 OA
ATOM     84  O   UNL A   1      32.242  36.122  30.176  1.00  0.00    -0.237 OA
ATOM     85  O   UNL A   1      33.697  36.799  28.307  1.00  0.00    -0.744 OA
ENDBRANCH  81  82
ENDBRANCH  53  76
BRANCH  65  86
ATOM     86  C   UNL A   1      39.941  34.328  36.921  1.00  0.00    -0.014 A 
ATOM     87  C   UNL A   1      40.646  35.540  36.816  1.00  0.00     0.010 A 
ATOM     88  C   UNL A   1      39.103  34.112  38.030  1.00  0.00     0.010 A 
ATOM     89  C   UNL A   1      40.546  36.502  37.826  1.00  0.00     0.020 A 
ATOM     90  C   UNL A   1      38.983  35.080  39.029  1.00  0.00     0.020 A 
ATOM     91  C   UNL A   1      39.720  36.262  38.929  1.00  0.00     0.054 A 
BRANCH  91  92
ATOM     92  S   UNL A   1      39.585  37.532  40.217  1.00  0.00     0.124 S 
ATOM     93  O   UNL A   1      39.780  36.749  41.435  1.00  0.00    -0.237 OA
ATOM     94  O   UNL A   1      40.669  38.452  39.881  1.00  0.00    -0.237 OA
ATOM     95  O   UNL A   1      38.240  38.071  40.030  1.00  0.00    -0.744 OA
ENDBRANCH  91  92
ENDBRANCH  65  86
ENDBRANCH  39  40
ENDBRANCH  31  34
ENDBRANCH  29  30
ENDBRANCH  28  29
ENDBRANCH   1  28
TORSDOF 17
ENDMDL
MODEL 2
REMARK VINA RESULT:     -12.3      6.129     12.172
REMARK SMILES Cc1ccc(S(=O)(=O)Nc2cc3c(cc2C(=O)NCCCCNC(=O)c2ccc(-c4c5nc(c(-c6ccc(S(=O)(=O)[O-])cc6)c6ccc([nH]6)c(-c6ccc(S(=O)(=O)[O-])cc6)c6nc(c(-c7ccc(S(=O)(=O)[O-])cc7)c7ccc4[nH]7)C=C6)C=C5)cc2)OCCO3)s1
REMARK SMILES IDX 20 1 19 2 18 3 16 4 17 5 15 7 10 8 11 9 12 10 14 11 13 12
REMARK SMILES IDX 89 13 86 14 88 15 87 16 9 17 6 19 7 20 8 21 5 22 1 23 2 24
REMARK SMILES IDX 3 25 90 26 4 27 21 28 22 29 23 30 24 31 25 33 26 34 27 35
REMARK SMILES IDX 85 36 28 37 84 38 29 39 30 40 31 41 78 42 32 43 83 44 77 45
REMARK SMILES IDX 79 46 33 47 82 48 76 49 75 50 34 52 64 53 45 54 63 55 46 56
REMARK SMILES IDX 49 57 62 58 80 59 47 60 48 61 61 63 81 64 50 65 35 66 36 67
REMARK SMILES IDX 44 68 37 69 43 70 38 71 39 72 40 73 41 74 42 75 65 76 66 77
REMARK SMILES IDX 74 78 67 79 73 80 68 81 69 82 70 83 71 84 72 85 51 86 52 87
REMARK SMILES IDX 60 88 53 89 59 90 54 91 55 92 56 93 57 94 58 95
REMARK H PARENT 18 6 9 18 23 32 79 51 49 62
REMARK Flexibility Score: inf
ROOT
ATOM      1  C   UNL A   1      34.817  29.284  26.982  1.00  0.00     0.023 C 
ENDROOT
BRANCH   1   2
ATOM      2  C   UNL A   1      33.860  28.774  25.913  1.00  0.00     0.116 C 
BRANCH   2   3
ATOM      3  N   UNL A   1      32.854  27.831  26.374  1.00  0.00    -0.352 N 
ATOM      4  C   UNL A   1      31.680  27.402  25.793  1.00  0.00     0.253 C 
ATOM      5  O   UNL A   1      31.080  26.462  26.305  1.00  0.00    -0.269 OA
ATOM      6  H   UNL A   1      33.044  27.429  27.253  1.00  0.00     0.163 HD
BRANCH   4   7
ATOM      7  C   UNL A   1      31.123  28.077  24.591  1.00  0.00     0.067 A 
ATOM      8  C   UNL A   1      31.070  27.412  23.348  1.00  0.00     0.066 A 
ATOM      9  C   UNL A   1      30.434  28.024  22.260  1.00  0.00     0.078 A 
ATOM     10  C   UNL A   1      29.841  29.278  22.414  1.00  0.00     0.163 A 
ATOM     11  C   UNL A   1      30.638  29.385  24.693  1.00  0.00     0.066 A 
ATOM     12  C   UNL A   1      29.937  29.949  23.634  1.00  0.00     0.162 A 
ATOM     13  O   UNL A   1      29.165  29.784  21.334  1.00  0.00    -0.486 OA
ATOM     14  O   UNL A   1      29.335  31.156  23.878  1.00  0.00    -0.486 OA
ATOM     15  C   UNL A   1      28.791  31.157  21.525  1.00  0.00     0.271 C 
ATOM     16  C   UNL A   1      28.282  31.393  22.938  1.00  0.00     0.271 C 
BRANCH   8  17
ATOM     17  N   UNL A   1      31.673  26.124  23.179  1.00  0.00    -0.278 N 
ATOM     18  H   UNL A   1      31.157  25.304  23.356  1.00  0.00     0.180 HD
BRANCH  17  19
ATOM     19  S   UNL A   1      33.277  26.032  22.672  1.00  0.00     0.271 S 
ATOM     20  O   UNL A   1      33.961  27.198  23.176  1.00  0.00    -0.200 OA
ATOM     21  O   UNL A   1      33.254  25.755  21.245  1.00  0.00    -0.200 OA
BRANCH  19  22
ATOM     22  C   UNL A   1      34.027  24.584  23.382  1.00  0.00     0.140 A 
ATOM     23  C   UNL A   1      35.904  22.497  26.126  1.00  0.00     0.056 C 
ATOM     24  C   UNL A   1      35.201  23.076  24.944  1.00  0.00     0.003 A 
ATOM     25  C   UNL A   1      34.949  22.471  23.729  1.00  0.00     0.016 A 
ATOM     26  S   UNL A   1      34.590  24.676  24.991  1.00  0.00    -0.127 S 
ATOM     27  C   UNL A   1      34.257  23.334  22.838  1.00  0.00     0.034 A 
ENDBRANCH  19  22
ENDBRANCH  17  19
ENDBRANCH   8  17
ENDBRANCH   4   7
ENDBRANCH   2   3
ENDBRANCH   1   2
BRANCH   1  28
ATOM     28  C   UNL A   1      34.483  30.618  27.633  1.00  0.00     0.023 C 
BRANCH  28  29
ATOM     29  C   UNL A   1      35.607  31.259  28.432  1.00  0.00     0.116 C 
BRANCH  29  30
ATOM     30  N   UNL A   1      35.532  30.988  29.858  1.00  0.00    -0.352 N 
ATOM     31  C   UNL A   1      36.476  30.455  30.702  1.00  0.00     0.251 C 
ATOM     32  H   UNL A   1      34.676  31.223  30.284  1.00  0.00     0.163 HD
ATOM     33  O   UNL A   1      36.181  30.231  31.872  1.00  0.00    -0.269 OA
BRANCH  31  34
ATOM     34  C   UNL A   1      37.826  30.117  30.196  1.00  0.00     0.039 A 
ATOM     35  C   UNL A   1      38.811  29.748  31.115  1.00  0.00     0.014 A 
ATOM     36  C   UNL A   1      38.125  30.163  28.832  1.00  0.00     0.014 A 
ATOM     37  C   UNL A   1      40.077  29.371  30.661  1.00  0.00     0.010 A 
ATOM     38  C   UNL A   1      39.357  29.706  28.375  1.00  0.00     0.010 A 
ATOM     39  C   UNL A   1      40.352  29.323  29.286  1.00  0.00    -0.014 A 
BRANCH  39  40
ATOM     40  C   UNL A   1      41.688  28.917  28.783  1.00  0.00     0.031 A 
ATOM     41  C   UNL A   1      42.791  29.936  28.680  1.00  0.00     0.074 A 
ATOM     42  C   UNL A   1      41.893  27.653  28.365  1.00  0.00     0.049 A 
ATOM     43  N   UNL A   1      44.014  29.787  28.238  1.00  0.00    -0.248 NA
ATOM     44  C   UNL A   1      42.468  31.310  29.096  1.00  0.00     0.031 C 
ATOM     45  C   UNL A   1      40.886  26.588  28.353  1.00  0.00     0.029 A 
ATOM     46  N   UNL A   1      43.020  27.049  27.867  1.00  0.00    -0.354 N 
ATOM     47  C   UNL A   1      44.591  31.050  28.293  1.00  0.00     0.074 A 
ATOM     48  C   UNL A   1      43.572  31.962  28.763  1.00  0.00     0.031 C 
ATOM     49  C   UNL A   1      41.449  25.457  27.897  1.00  0.00     0.029 A 
ATOM     50  C   UNL A   1      42.846  25.720  27.566  1.00  0.00     0.049 A 
ATOM     51  H   UNL A   1      43.872  27.525  27.737  1.00  0.00     0.167 HD
ATOM     52  C   UNL A   1      45.861  31.419  28.000  1.00  0.00     0.031 A 
ATOM     53  C   UNL A   1      43.718  24.811  27.088  1.00  0.00     0.031 A 
ATOM     54  C   UNL A   1      46.883  30.506  27.564  1.00  0.00     0.049 A 
ATOM     55  C   UNL A   1      45.141  25.222  26.841  1.00  0.00     0.074 A 
ATOM     56  C   UNL A   1      48.217  30.762  27.305  1.00  0.00     0.029 A 
ATOM     57  N   UNL A   1      46.681  29.153  27.334  1.00  0.00    -0.354 N 
ATOM     58  N   UNL A   1      45.689  26.409  26.966  1.00  0.00    -0.248 NA
ATOM     59  C   UNL A   1      46.071  24.168  26.417  1.00  0.00     0.031 C 
ATOM     60  C   UNL A   1      48.817  29.567  26.891  1.00  0.00     0.029 A 
ATOM     61  C   UNL A   1      47.866  28.561  26.934  1.00  0.00     0.049 A 
ATOM     62  H   UNL A   1      45.822  28.683  27.438  1.00  0.00     0.167 HD
ATOM     63  C   UNL A   1      47.035  26.238  26.662  1.00  0.00     0.074 A 
ATOM     64  C   UNL A   1      47.218  24.832  26.359  1.00  0.00     0.031 C 
ATOM     65  C   UNL A   1      48.029  27.159  26.639  1.00  0.00     0.031 A 
BRANCH  52  66
ATOM     66  C   UNL A   1      46.203  32.879  28.145  1.00  0.00    -0.014 A 
ATOM     67  C   UNL A   1      46.668  33.396  29.369  1.00  0.00     0.010 A 
ATOM     68  C   UNL A   1      46.048  33.746  27.051  1.00  0.00     0.010 A 
ATOM     69  C   UNL A   1      46.913  34.764  29.511  1.00  0.00     0.020 A 
ATOM     70  C   UNL A   1      46.318  35.112  27.181  1.00  0.00     0.020 A 
ATOM     71  C   UNL A   1      46.725  35.616  28.418  1.00  0.00     0.054 A 
BRANCH  71  72
ATOM     72  S   UNL A   1      47.037  37.390  28.630  1.00  0.00     0.124 S 
ATOM     73  O   UNL A   1      46.149  37.719  29.742  1.00  0.00    -0.237 OA
ATOM     74  O   UNL A   1      48.465  37.434  28.935  1.00  0.00    -0.237 OA
ATOM     75  O   UNL A   1      46.661  37.963  27.340  1.00  0.00    -0.744 OA
ENDBRANCH  71  72
ENDBRANCH  52  66
BRANCH  53  76
ATOM     76  C   UNL A   1      43.274  23.408  26.872  1.00  0.00    -0.014 A 
ATOM     77  C   UNL A   1      43.138  22.901  25.567  1.00  0.00     0.010 A 
ATOM     78  C   UNL A   1      43.025  22.560  27.965  1.00  0.00     0.010 A 
ATOM     79  C   UNL A   1      42.750  21.575  25.360  1.00  0.00     0.020 A 
ATOM     80  C   UNL A   1      42.658  21.227  27.762  1.00  0.00     0.020 A 
ATOM     81  C   UNL A   1      42.515  20.744  26.459  1.00  0.00     0.054 A 
BRANCH  81  82
ATOM     82  S   UNL A   1      42.085  19.005  26.168  1.00  0.00     0.124 S 
ATOM     83  O   UNL A   1      40.689  19.102  25.753  1.00  0.00    -0.237 OA
ATOM     84  O   UNL A   1      43.030  18.615  25.123  1.00  0.00    -0.237 OA
ATOM     85  O   UNL A   1      42.313  18.376  27.467  1.00  0.00    -0.744 OA
ENDBRANCH  81  82
ENDBRANCH  53  76
BRANCH  65  86
ATOM     86  C   UNL A   1      49.413  26.668  26.316  1.00  0.00    -0.014 A 
ATOM     87  C   UNL A   1      50.226  26.081  27.300  1.00  0.00     0.010 A 
ATOM     88  C   UNL A   1      49.889  26.765  24.996  1.00  0.00     0.010 A 
ATOM     89  C   UNL A   1      51.512  25.637  26.978  1.00  0.00     0.020 A 
ATOM     90  C   UNL A   1      51.164  26.301  24.665  1.00  0.00     0.020 A 
ATOM     91  C   UNL A   1      51.974  25.756  25.663  1.00  0.00     0.054 A 
BRANCH  91  92
ATOM     92  S   UNL A   1      53.636  25.152  25.259  1.00  0.00     0.124 S 
ATOM     93  O   UNL A   1      54.449  25.789  26.292  1.00  0.00    -0.237 OA
ATOM     94  O   UNL A   1      53.493  23.703  25.376  1.00  0.00    -0.237 OA
ATOM     95  O   UNL A   1      53.859  25.641  23.900  1.00  0.00    -0.744 OA
ENDBRANCH  91  92
ENDBRANCH  65  86
ENDBRANCH  39  40
ENDBRANCH  31  34
ENDBRANCH  29  30
ENDBRANCH  28  29
ENDBRANCH   1  28
TORSDOF 17
ENDMDL
MODEL 3
REMARK VINA RESULT:     -12.2      1.542      3.859
REMARK SMILES Cc1ccc(S(=O)(=O)Nc2cc3c(cc2C(=O)NCCCCNC(=O)c2ccc(-c4c5nc(c(-c6ccc(S(=O)(=O)[O-])cc6)c6ccc([nH]6)c(-c6ccc(S(=O)(=O)[O-])cc6)c6nc(c(-c7ccc(S(=O)(=O)[O-])cc7)c7ccc4[nH]7)C=C6)C=C5)cc2)OCCO3)s1
REMARK SMILES IDX 20 1 19 2 18 3 16 4 17 5 15 7 10 8 11 9 12 10 14 11 13 12
REMARK SMILES IDX 89 13 86 14 88 15 87 16 9 17 6 19 7 20 8 21 5 22 1 23 2 24
REMARK SMILES IDX 3 25 90 26 4 27 21 28 22 29 23 30 24 31 25 33 26 34 27 35
REMARK SMILES IDX 85 36 28 37 84 38 29 39 30 40 31 41 78 42 32 43 83 44 77 45
REMARK SMILES IDX 79 46 33 47 82 48 76 49 75 50 34 52 64 53 45 54 63 55 46 56
REMARK SMILES IDX 49 57 62 58 80 59 47 60 48 61 61 63 81 64 50 65 35 66 36 67
REMARK SMILES IDX 44 68 37 69 43 70 38 71 39 72 40 73 41 74 42 75 65 76 66 77
REMARK SMILES IDX 74 78 67 79 73 80 68 81 69 82 70 83 71 84 72 85 51 86 52 87
REMARK SMILES IDX 60 88 53 89 59 90 54 91 55 92 56 93 57 94 58 95
REMARK H PARENT 18 6 9 18 23 32 79 51 49 62
REMARK Flexibility Score: inf
ROOT
ATOM      1  C   UNL A   1      38.633  23.321  26.472  1.00  0.00     0.023 C 
ENDROOT
BRANCH   1   2
ATOM      2  C   UNL A   1      37.467  22.681  25.731  1.00  0.00     0.116 C 
BRANCH   2   3
ATOM      3  N   UNL A   1      36.289  22.408  26.538  1.00  0.00    -0.352 N 
ATOM      4  C   UNL A   1      34.947  22.553  26.261  1.00  0.00     0.253 C 
ATOM      5  O   UNL A   1      34.130  22.089  27.051  1.00  0.00    -0.269 OA
ATOM      6  H   UNL A   1      36.484  22.058  27.438  1.00  0.00     0.163 HD
BRANCH   4   7
ATOM      7  C   UNL A   1      34.485  23.285  25.053  1.00  0.00     0.067 A 
ATOM      8  C   UNL A   1      33.966  22.590  23.941  1.00  0.00     0.066 A 
ATOM      9  C   UNL A   1      33.428  23.306  22.863  1.00  0.00     0.078 A 
ATOM     10  C   UNL A   1      33.390  24.700  22.902  1.00  0.00     0.163 A 
ATOM     11  C   UNL A   1      34.555  24.682  25.018  1.00  0.00     0.066 A 
ATOM     12  C   UNL A   1      33.946  25.383  23.985  1.00  0.00     0.162 A 
ATOM     13  O   UNL A   1      32.776  25.337  21.853  1.00  0.00    -0.486 OA
ATOM     14  O   UNL A   1      33.898  26.746  24.120  1.00  0.00    -0.486 OA
ATOM     15  C   UNL A   1      32.989  26.756  21.883  1.00  0.00     0.271 C 
ATOM     16  C   UNL A   1      32.865  27.298  23.298  1.00  0.00     0.271 C 
BRANCH   8  17
ATOM     17  N   UNL A   1      33.997  21.159  23.891  1.00  0.00    -0.278 N 
ATOM     18  H   UNL A   1      34.856  20.678  23.883  1.00  0.00     0.180 HD
BRANCH  17  19
ATOM     19  S   UNL A   1      32.542  20.310  23.846  1.00  0.00     0.271 S 
ATOM     20  O   UNL A   1      31.910  20.595  22.581  1.00  0.00    -0.200 OA
ATOM     21  O   UNL A   1      31.849  20.593  25.092  1.00  0.00    -0.200 OA
BRANCH  19  22
ATOM     22  C   UNL A   1      32.885  18.567  23.927  1.00  0.00     0.140 A 
ATOM     23  C   UNL A   1      33.101  15.028  25.612  1.00  0.00     0.056 C 
ATOM     24  C   UNL A   1      33.120  16.258  24.767  1.00  0.00     0.003 A 
ATOM     25  C   UNL A   1      33.621  16.399  23.489  1.00  0.00     0.016 A 
ATOM     26  S   UNL A   1      32.466  17.728  25.353  1.00  0.00    -0.127 S 
ATOM     27  C   UNL A   1      33.469  17.724  23.000  1.00  0.00     0.034 A 
ENDBRANCH  19  22
ENDBRANCH  17  19
ENDBRANCH   8  17
ENDBRANCH   4   7
ENDBRANCH   2   3
ENDBRANCH   1   2
BRANCH   1  28
ATOM     28  C   UNL A   1      39.907  22.500  26.603  1.00  0.00     0.023 C 
BRANCH  28  29
ATOM     29  C   UNL A   1      41.138  23.265  27.066  1.00  0.00     0.116 C 
BRANCH  29  30
ATOM     30  N   UNL A   1      41.809  23.985  25.997  1.00  0.00    -0.352 N 
ATOM     31  C   UNL A   1      42.121  25.319  25.897  1.00  0.00     0.251 C 
ATOM     32  H   UNL A   1      42.082  23.433  25.229  1.00  0.00     0.163 HD
ATOM     33  O   UNL A   1      42.624  25.745  24.862  1.00  0.00    -0.269 OA
BRANCH  31  34
ATOM     34  C   UNL A   1      41.818  26.244  27.012  1.00  0.00     0.039 A 
ATOM     35  C   UNL A   1      40.825  25.885  27.927  1.00  0.00     0.014 A 
ATOM     36  C   UNL A   1      42.499  27.455  27.160  1.00  0.00     0.014 A 
ATOM     37  C   UNL A   1      40.555  26.713  29.020  1.00  0.00     0.010 A 
ATOM     38  C   UNL A   1      42.291  28.236  28.293  1.00  0.00     0.010 A 
ATOM     39  C   UNL A   1      41.304  27.883  29.224  1.00  0.00    -0.014 A 
BRANCH  39  40
ATOM     40  C   UNL A   1      41.040  28.771  30.383  1.00  0.00     0.031 A 
ATOM     41  C   UNL A   1      41.874  28.644  31.630  1.00  0.00     0.074 A 
ATOM     42  C   UNL A   1      40.019  29.648  30.339  1.00  0.00     0.049 A 
ATOM     43  N   UNL A   1      41.781  29.303  32.757  1.00  0.00    -0.248 NA
ATOM     44  C   UNL A   1      42.929  27.617  31.622  1.00  0.00     0.031 C 
ATOM     45  C   UNL A   1      39.096  29.822  29.213  1.00  0.00     0.029 A 
ATOM     46  N   UNL A   1      39.583  30.559  31.268  1.00  0.00    -0.354 N 
ATOM     47  C   UNL A   1      42.739  28.750  33.598  1.00  0.00     0.074 A 
ATOM     48  C   UNL A   1      43.369  27.671  32.871  1.00  0.00     0.031 C 
ATOM     49  C   UNL A   1      38.223  30.799  29.509  1.00  0.00     0.029 A 
ATOM     50  C   UNL A   1      38.507  31.304  30.848  1.00  0.00     0.049 A 
ATOM     51  H   UNL A   1      40.001  30.666  32.153  1.00  0.00     0.167 HD
ATOM     52  C   UNL A   1      43.083  29.120  34.855  1.00  0.00     0.031 A 
ATOM     53  C   UNL A   1      37.835  32.293  31.467  1.00  0.00     0.031 A 
ATOM     54  C   UNL A   1      42.479  30.214  35.564  1.00  0.00     0.049 A 
ATOM     55  C   UNL A   1      38.280  32.738  32.831  1.00  0.00     0.074 A 
ATOM     56  C   UNL A   1      42.797  30.714  36.814  1.00  0.00     0.029 A 
ATOM     57  N   UNL A   1      41.435  30.987  35.076  1.00  0.00    -0.354 N 
ATOM     58  N   UNL A   1      39.237  32.249  33.585  1.00  0.00    -0.248 NA
ATOM     59  C   UNL A   1      37.575  33.886  33.416  1.00  0.00     0.031 C 
ATOM     60  C   UNL A   1      41.927  31.775  37.093  1.00  0.00     0.029 A 
ATOM     61  C   UNL A   1      41.096  31.959  36.000  1.00  0.00     0.049 A 
ATOM     62  H   UNL A   1      41.000  30.862  34.202  1.00  0.00     0.167 HD
ATOM     63  C   UNL A   1      39.267  33.047  34.723  1.00  0.00     0.074 A 
ATOM     64  C   UNL A   1      38.240  34.057  34.551  1.00  0.00     0.031 C 
ATOM     65  C   UNL A   1      40.073  32.956  35.809  1.00  0.00     0.031 A 
BRANCH  52  66
ATOM     66  C   UNL A   1      44.165  28.320  35.533  1.00  0.00    -0.014 A 
ATOM     67  C   UNL A   1      45.518  28.687  35.416  1.00  0.00     0.010 A 
ATOM     68  C   UNL A   1      43.827  27.183  36.287  1.00  0.00     0.010 A 
ATOM     69  C   UNL A   1      46.518  27.897  35.989  1.00  0.00     0.020 A 
ATOM     70  C   UNL A   1      44.822  26.405  36.886  1.00  0.00     0.020 A 
ATOM     71  C   UNL A   1      46.163  26.753  36.712  1.00  0.00     0.054 A 
BRANCH  71  72
ATOM     72  S   UNL A   1      47.478  25.736  37.437  1.00  0.00     0.124 S 
ATOM     73  O   UNL A   1      47.018  24.386  37.127  1.00  0.00    -0.237 OA
ATOM     74  O   UNL A   1      48.667  26.176  36.709  1.00  0.00    -0.237 OA
ATOM     75  O   UNL A   1      47.452  26.096  38.853  1.00  0.00    -0.744 OA
ENDBRANCH  71  72
ENDBRANCH  52  66
BRANCH  53  76
ATOM     76  C   UNL A   1      36.706  32.966  30.769  1.00  0.00    -0.014 A 
ATOM     77  C   UNL A   1      35.378  32.674  31.127  1.00  0.00     0.010 A 
ATOM     78  C   UNL A   1      36.953  33.928  29.774  1.00  0.00     0.010 A 
ATOM     79  C   UNL A   1      34.316  33.325  30.494  1.00  0.00     0.020 A 
ATOM     80  C   UNL A   1      35.894  34.596  29.154  1.00  0.00     0.020 A 
ATOM     81  C   UNL A   1      34.580  34.285  29.513  1.00  0.00     0.054 A 
BRANCH  81  82
ATOM     82  S   UNL A   1      33.189  35.172  28.757  1.00  0.00     0.124 S 
ATOM     83  O   UNL A   1      32.453  35.638  29.928  1.00  0.00    -0.237 OA
ATOM     84  O   UNL A   1      33.860  36.210  27.978  1.00  0.00    -0.237 OA
ATOM     85  O   UNL A   1      32.521  34.144  27.963  1.00  0.00    -0.744 OA
ENDBRANCH  81  82
ENDBRANCH  53  76
BRANCH  65  86
ATOM     86  C   UNL A   1      39.905  34.001  36.877  1.00  0.00    -0.014 A 
ATOM     87  C   UNL A   1      38.968  33.840  37.913  1.00  0.00     0.010 A 
ATOM     88  C   UNL A   1      40.724  35.145  36.860  1.00  0.00     0.010 A 
ATOM     89  C   UNL A   1      38.825  34.828  38.892  1.00  0.00     0.020 A 
ATOM     90  C   UNL A   1      40.600  36.122  37.850  1.00  0.00     0.020 A 
ATOM     91  C   UNL A   1      39.638  35.966  38.850  1.00  0.00     0.054 A 
BRANCH  91  92
ATOM     92  S   UNL A   1      39.453  37.225  40.142  1.00  0.00     0.124 S 
ATOM     93  O   UNL A   1      40.819  37.727  40.272  1.00  0.00    -0.237 OA
ATOM     94  O   UNL A   1      38.494  38.156  39.554  1.00  0.00    -0.237 OA
ATOM     95  O   UNL A   1      38.954  36.470  41.289  1.00  0.00    -0.744 OA
ENDBRANCH  91  92
ENDBRANCH  65  86
ENDBRANCH  39  40
ENDBRANCH  31  34
ENDBRANCH  29  30
ENDBRANCH  28  29
ENDBRANCH   1  28
TORSDOF 17
ENDMDL
