MODEL 1
REMARK VINA RESULT:     -12.6      0.000      0.000
REMARK SMILES CSc1ccc(/C=C2\C(C)=C(CC(=O)NCCCCNC(=O)c3ccc(-c4c5nc(c(-c6ccc(S(=O)(=O)[O-])cc6)c6ccc([nH]6)c(-c6ccc(S(=O)(=O)[O-])cc6)c6nc(c(-c7ccc(S(=O)(=O)[O-])cc7)c7ccc4[nH]7)C=C6)C=C5)cc3)c3cc(F)ccc32)cc1
REMARK SMILES IDX 17 1 16 2 15 3 13 4 14 5 12 7 11 8 7 9 8 10 9 11 89 12 10 13
REMARK SMILES IDX 83 14 88 15 84 16 87 17 85 18 86 19 6 20 3 21 4 22 91 23
REMARK SMILES IDX 5 24 90 25 2 26 1 27 18 28 19 29 20 30 21 31 22 33 23 34
REMARK SMILES IDX 24 35 82 36 25 37 81 38 26 39 27 40 28 41 75 42 29 43 80 44
REMARK SMILES IDX 74 45 76 46 30 47 79 48 73 49 72 50 31 52 61 53 42 54 60 55
REMARK SMILES IDX 43 56 46 57 59 58 77 59 44 60 45 61 58 63 78 64 47 65 32 66
REMARK SMILES IDX 33 67 41 68 34 69 40 70 35 71 36 72 37 73 38 74 39 75 62 76
REMARK SMILES IDX 63 77 71 78 64 79 70 80 65 81 66 82 67 83 68 84 69 85 48 86
REMARK SMILES IDX 49 87 57 88 50 89 56 90 51 91 52 92 53 93 54 94 55 95
REMARK H PARENT 15 6 20 32 76 51 46 62
REMARK Flexibility Score: inf
ROOT
ATOM      1  C   UNL A   1      39.202  22.052  26.152  1.00  0.00     0.023 C 
ENDROOT
BRANCH   1   2
ATOM      2  C   UNL A   1      37.768  21.791  25.697  1.00  0.00     0.116 C 
BRANCH   2   3
ATOM      3  N   UNL A   1      37.592  22.082  24.290  1.00  0.00    -0.356 N 
ATOM      4  C   UNL A   1      36.789  23.040  23.738  1.00  0.00     0.224 C 
ATOM      5  O   UNL A   1      36.678  23.105  22.515  1.00  0.00    -0.275 OA
ATOM      6  H   UNL A   1      38.108  21.530  23.661  1.00  0.00     0.163 HD
BRANCH   4   7
ATOM      7  C   UNL A   1      36.053  23.999  24.655  1.00  0.00     0.136 C 
BRANCH   7   8
ATOM      8  C   UNL A   1      34.579  24.009  24.303  1.00  0.00    -0.027 C 
ATOM      9  C   UNL A   1      33.587  20.994  25.601  1.00  0.00     0.017 C 
ATOM     10  C   UNL A   1      33.532  22.293  25.267  1.00  0.00    -0.014 C 
ATOM     11  C   UNL A   1      33.892  22.881  23.964  1.00  0.00    -0.039 C 
ATOM     12  C   UNL A   1      33.130  23.477  26.069  1.00  0.00    -0.010 A 
ATOM     13  C   UNL A   1      32.601  23.023  23.118  1.00  0.00     0.045 C 
ATOM     14  C   UNL A   1      33.733  24.556  25.382  1.00  0.00    -0.011 A 
ATOM     15  C   UNL A   1      31.956  23.677  26.778  1.00  0.00     0.012 A 
ATOM     16  C   UNL A   1      33.203  25.836  25.372  1.00  0.00     0.048 A 
ATOM     17  C   UNL A   1      31.391  24.963  26.745  1.00  0.00     0.040 A 
ATOM     18  C   UNL A   1      32.006  26.015  26.043  1.00  0.00     0.123 A 
ATOM     19  F   UNL A   1      31.358  27.180  25.913  1.00  0.00    -0.207 F 
BRANCH   9  20
ATOM     20  C   UNL A   1      33.664  19.809  24.693  1.00  0.00    -0.025 A 
ATOM     21  C   UNL A   1      33.712  17.032  24.500  1.00  0.00     0.007 A 
ATOM     22  C   UNL A   1      32.525  17.711  24.268  1.00  0.00     0.015 A 
ATOM     23  C   UNL A   1      34.912  17.742  24.513  1.00  0.00     0.015 A 
ATOM     24  C   UNL A   1      32.523  19.101  24.299  1.00  0.00     0.009 A 
ATOM     25  C   UNL A   1      34.888  19.137  24.609  1.00  0.00     0.009 A 
BRANCH  21  26
ATOM     26  S   UNL A   1      33.657  15.344  25.067  1.00  0.00    -0.130 SA
ATOM     27  C   UNL A   1      32.105  15.480  26.024  1.00  0.00     0.091 C 
ENDBRANCH  21  26
ENDBRANCH   9  20
ENDBRANCH   7   8
ENDBRANCH   4   7
ENDBRANCH   2   3
ENDBRANCH   1   2
BRANCH   1  28
ATOM     28  C   UNL A   1      39.390  23.137  27.197  1.00  0.00     0.023 C 
BRANCH  28  29
ATOM     29  C   UNL A   1      39.368  24.536  26.634  1.00  0.00     0.116 C 
BRANCH  29  30
ATOM     30  N   UNL A   1      40.495  24.815  25.756  1.00  0.00    -0.352 N 
ATOM     31  C   UNL A   1      41.461  25.784  25.912  1.00  0.00     0.251 C 
ATOM     32  H   UNL A   1      40.576  24.244  24.959  1.00  0.00     0.163 HD
ATOM     33  O   UNL A   1      42.296  25.980  25.056  1.00  0.00    -0.269 OA
BRANCH  31  34
ATOM     34  C   UNL A   1      41.402  26.604  27.139  1.00  0.00     0.039 A 
ATOM     35  C   UNL A   1      41.869  27.916  27.088  1.00  0.00     0.014 A 
ATOM     36  C   UNL A   1      40.783  26.101  28.287  1.00  0.00     0.014 A 
ATOM     37  C   UNL A   1      41.670  28.746  28.188  1.00  0.00     0.010 A 
ATOM     38  C   UNL A   1      40.492  26.960  29.334  1.00  0.00     0.010 A 
ATOM     39  C   UNL A   1      40.956  28.282  29.305  1.00  0.00    -0.014 A 
BRANCH  39  40
ATOM     40  C   UNL A   1      40.721  29.153  30.478  1.00  0.00     0.031 A 
ATOM     41  C   UNL A   1      41.561  28.973  31.712  1.00  0.00     0.074 A 
ATOM     42  C   UNL A   1      39.729  30.062  30.450  1.00  0.00     0.049 A 
ATOM     43  N   UNL A   1      41.496  29.607  32.853  1.00  0.00    -0.248 NA
ATOM     44  C   UNL A   1      42.587  27.916  31.670  1.00  0.00     0.031 C 
ATOM     45  C   UNL A   1      38.810  30.284  29.330  1.00  0.00     0.029 A 
ATOM     46  N   UNL A   1      39.326  30.970  31.395  1.00  0.00    -0.354 N 
ATOM     47  C   UNL A   1      42.461  29.020  33.663  1.00  0.00     0.074 A 
ATOM     48  C   UNL A   1      43.043  27.931  32.912  1.00  0.00     0.031 C 
ATOM     49  C   UNL A   1      37.970  31.283  29.643  1.00  0.00     0.029 A 
ATOM     50  C   UNL A   1      38.268  31.750  30.994  1.00  0.00     0.049 A 
ATOM     51  H   UNL A   1      39.753  31.055  32.278  1.00  0.00     0.167 HD
ATOM     52  C   UNL A   1      42.852  29.376  34.909  1.00  0.00     0.031 A 
ATOM     53  C   UNL A   1      37.612  32.731  31.643  1.00  0.00     0.031 A 
ATOM     54  C   UNL A   1      42.273  30.465  35.645  1.00  0.00     0.049 A 
ATOM     55  C   UNL A   1      38.068  33.120  33.021  1.00  0.00     0.074 A 
ATOM     56  C   UNL A   1      42.621  30.941  36.896  1.00  0.00     0.029 A 
ATOM     57  N   UNL A   1      41.223  31.252  35.193  1.00  0.00    -0.354 N 
ATOM     58  N   UNL A   1      39.029  32.598  33.749  1.00  0.00    -0.248 NA
ATOM     59  C   UNL A   1      37.370  34.244  33.658  1.00  0.00     0.031 C 
ATOM     60  C   UNL A   1      41.749  31.987  37.220  1.00  0.00     0.029 A 
ATOM     61  C   UNL A   1      40.899  32.201  36.146  1.00  0.00     0.049 A 
ATOM     62  H   UNL A   1      40.775  31.148  34.322  1.00  0.00     0.167 HD
ATOM     63  C   UNL A   1      39.065  33.346  34.920  1.00  0.00     0.074 A 
ATOM     64  C   UNL A   1      38.043  34.365  34.795  1.00  0.00     0.031 C 
ATOM     65  C   UNL A   1      39.872  33.203  36.002  1.00  0.00     0.031 A 
BRANCH  52  66
ATOM     66  C   UNL A   1      43.959  28.570  35.537  1.00  0.00    -0.014 A 
ATOM     67  C   UNL A   1      45.309  28.924  35.351  1.00  0.00     0.010 A 
ATOM     68  C   UNL A   1      43.651  27.442  36.318  1.00  0.00     0.010 A 
ATOM     69  C   UNL A   1      46.330  28.133  35.884  1.00  0.00     0.020 A 
ATOM     70  C   UNL A   1      44.669  26.668  36.883  1.00  0.00     0.020 A 
ATOM     71  C   UNL A   1      46.003  27.005  36.641  1.00  0.00     0.054 A 
BRANCH  71  72
ATOM     72  S   UNL A   1      47.347  25.996  37.320  1.00  0.00     0.124 S 
ATOM     73  O   UNL A   1      46.628  24.815  37.793  1.00  0.00    -0.237 OA
ATOM     74  O   UNL A   1      48.207  25.783  36.158  1.00  0.00    -0.237 OA
ATOM     75  O   UNL A   1      47.919  26.839  38.367  1.00  0.00    -0.744 OA
ENDBRANCH  71  72
ENDBRANCH  52  66
BRANCH  53  76
ATOM     76  C   UNL A   1      36.475  33.421  30.977  1.00  0.00    -0.014 A 
ATOM     77  C   UNL A   1      35.222  33.515  31.609  1.00  0.00     0.010 A 
ATOM     78  C   UNL A   1      36.653  34.025  29.718  1.00  0.00     0.010 A 
ATOM     79  C   UNL A   1      34.167  34.193  30.990  1.00  0.00     0.020 A 
ATOM     80  C   UNL A   1      35.608  34.727  29.111  1.00  0.00     0.020 A 
ATOM     81  C   UNL A   1      34.369  34.799  29.747  1.00  0.00     0.054 A 
BRANCH  81  82
ATOM     82  S   UNL A   1      33.005  35.734  28.997  1.00  0.00     0.124 S 
ATOM     83  O   UNL A   1      33.717  36.789  28.283  1.00  0.00    -0.237 OA
ATOM     84  O   UNL A   1      32.357  34.727  28.159  1.00  0.00    -0.237 OA
ATOM     85  O   UNL A   1      32.220  36.173  30.149  1.00  0.00    -0.744 OA
ENDBRANCH  81  82
ENDBRANCH  53  76
BRANCH  65  86
ATOM     86  C   UNL A   1      39.704  34.193  37.123  1.00  0.00    -0.014 A 
ATOM     87  C   UNL A   1      38.959  33.875  38.273  1.00  0.00     0.010 A 
ATOM     88  C   UNL A   1      40.346  35.442  37.044  1.00  0.00     0.010 A 
ATOM     89  C   UNL A   1      38.830  34.805  39.308  1.00  0.00     0.020 A 
ATOM     90  C   UNL A   1      40.243  36.362  38.089  1.00  0.00     0.020 A 
ATOM     91  C   UNL A   1      39.471  36.043  39.208  1.00  0.00     0.054 A 
BRANCH  91  92
ATOM     92  S   UNL A   1      39.317  37.220  40.579  1.00  0.00     0.124 S 
ATOM     93  O   UNL A   1      38.826  36.366  41.658  1.00  0.00    -0.237 OA
ATOM     94  O   UNL A   1      40.685  37.708  40.739  1.00  0.00    -0.237 OA
ATOM     95  O   UNL A   1      38.364  38.208  40.084  1.00  0.00    -0.744 OA
ENDBRANCH  91  92
ENDBRANCH  65  86
ENDBRANCH  39  40
ENDBRANCH  31  34
ENDBRANCH  29  30
ENDBRANCH  28  29
ENDBRANCH   1  28
TORSDOF 17
ENDMDL
MODEL 2
REMARK VINA RESULT:     -12.4      6.057     11.628
REMARK SMILES CSc1ccc(/C=C2\C(C)=C(CC(=O)NCCCCNC(=O)c3ccc(-c4c5nc(c(-c6ccc(S(=O)(=O)[O-])cc6)c6ccc([nH]6)c(-c6ccc(S(=O)(=O)[O-])cc6)c6nc(c(-c7ccc(S(=O)(=O)[O-])cc7)c7ccc4[nH]7)C=C6)C=C5)cc3)c3cc(F)ccc32)cc1
REMARK SMILES IDX 17 1 16 2 15 3 13 4 14 5 12 7 11 8 7 9 8 10 9 11 89 12 10 13
REMARK SMILES IDX 83 14 88 15 84 16 87 17 85 18 86 19 6 20 3 21 4 22 91 23
REMARK SMILES IDX 5 24 90 25 2 26 1 27 18 28 19 29 20 30 21 31 22 33 23 34
REMARK SMILES IDX 24 35 82 36 25 37 81 38 26 39 27 40 28 41 75 42 29 43 80 44
REMARK SMILES IDX 74 45 76 46 30 47 79 48 73 49 72 50 31 52 61 53 42 54 60 55
REMARK SMILES IDX 43 56 46 57 59 58 77 59 44 60 45 61 58 63 78 64 47 65 32 66
REMARK SMILES IDX 33 67 41 68 34 69 40 70 35 71 36 72 37 73 38 74 39 75 62 76
REMARK SMILES IDX 63 77 71 78 64 79 70 80 65 81 66 82 67 83 68 84 69 85 48 86
REMARK SMILES IDX 49 87 57 88 50 89 56 90 51 91 52 92 53 93 54 94 55 95
REMARK H PARENT 15 6 20 32 76 51 46 62
REMARK Flexibility Score: inf
ROOT
ATOM      1  C   UNL A   1      34.804  30.470  27.925  1.00  0.00     0.023 C 
ENDROOT
BRANCH   1   2
ATOM      2  C   UNL A   1      33.770  30.094  26.867  1.00  0.00     0.116 C 
BRANCH   2   3
ATOM      3  N   UNL A   1      32.599  29.481  27.458  1.00  0.00    -0.356 N 
ATOM      4  C   UNL A   1      32.175  28.190  27.304  1.00  0.00     0.224 C 
ATOM      5  O   UNL A   1      31.104  27.843  27.802  1.00  0.00    -0.275 OA
ATOM      6  H   UNL A   1      32.047  30.056  28.034  1.00  0.00     0.163 HD
BRANCH   4   7
ATOM      7  C   UNL A   1      33.039  27.221  26.520  1.00  0.00     0.136 C 
BRANCH   7   8
ATOM      8  C   UNL A   1      32.743  27.358  25.041  1.00  0.00    -0.027 C 
ATOM      9  C   UNL A   1      31.364  24.291  24.373  1.00  0.00     0.017 C 
ATOM     10  C   UNL A   1      31.553  25.619  24.315  1.00  0.00    -0.014 C 
ATOM     11  C   UNL A   1      32.842  26.317  24.166  1.00  0.00    -0.039 C 
ATOM     12  C   UNL A   1      30.575  26.734  24.398  1.00  0.00    -0.010 A 
ATOM     13  C   UNL A   1      33.059  26.627  22.664  1.00  0.00     0.045 C 
ATOM     14  C   UNL A   1      31.373  27.840  24.771  1.00  0.00    -0.011 A 
ATOM     15  C   UNL A   1      29.429  26.931  23.644  1.00  0.00     0.012 A 
ATOM     16  C   UNL A   1      31.072  29.144  24.413  1.00  0.00     0.048 A 
ATOM     17  C   UNL A   1      29.132  28.245  23.246  1.00  0.00     0.040 A 
ATOM     18  C   UNL A   1      29.951  29.325  23.622  1.00  0.00     0.123 A 
ATOM     19  F   UNL A   1      29.717  30.535  23.097  1.00  0.00    -0.207 F 
BRANCH   9  20
ATOM     20  C   UNL A   1      32.302  23.205  23.952  1.00  0.00    -0.025 A 
ATOM     21  C   UNL A   1      32.831  20.472  23.937  1.00  0.00     0.007 A 
ATOM     22  C   UNL A   1      32.282  21.067  22.810  1.00  0.00     0.015 A 
ATOM     23  C   UNL A   1      33.395  21.277  24.926  1.00  0.00     0.015 A 
ATOM     24  C   UNL A   1      32.083  22.442  22.800  1.00  0.00     0.009 A 
ATOM     25  C   UNL A   1      33.130  22.650  24.934  1.00  0.00     0.009 A 
BRANCH  21  26
ATOM     26  S   UNL A   1      32.542  18.741  24.240  1.00  0.00    -0.130 SA
ATOM     27  C   UNL A   1      34.293  18.254  24.445  1.00  0.00     0.091 C 
ENDBRANCH  21  26
ENDBRANCH   9  20
ENDBRANCH   7   8
ENDBRANCH   4   7
ENDBRANCH   2   3
ENDBRANCH   1   2
BRANCH   1  28
ATOM     28  C   UNL A   1      35.081  31.953  28.099  1.00  0.00     0.023 C 
BRANCH  28  29
ATOM     29  C   UNL A   1      36.064  32.265  29.200  1.00  0.00     0.116 C 
BRANCH  29  30
ATOM     30  N   UNL A   1      35.776  31.557  30.439  1.00  0.00    -0.352 N 
ATOM     31  C   UNL A   1      36.584  30.661  31.102  1.00  0.00     0.251 C 
ATOM     32  H   UNL A   1      34.901  31.741  30.851  1.00  0.00     0.163 HD
ATOM     33  O   UNL A   1      36.188  30.062  32.078  1.00  0.00    -0.269 OA
BRANCH  31  34
ATOM     34  C   UNL A   1      37.930  30.426  30.542  1.00  0.00     0.039 A 
ATOM     35  C   UNL A   1      39.014  30.362  31.416  1.00  0.00     0.014 A 
ATOM     36  C   UNL A   1      38.085  30.159  29.179  1.00  0.00     0.014 A 
ATOM     37  C   UNL A   1      40.259  29.981  30.921  1.00  0.00     0.010 A 
ATOM     38  C   UNL A   1      39.297  29.677  28.713  1.00  0.00     0.010 A 
ATOM     39  C   UNL A   1      40.401  29.609  29.574  1.00  0.00    -0.014 A 
BRANCH  39  40
ATOM     40  C   UNL A   1      41.712  29.187  29.031  1.00  0.00     0.031 A 
ATOM     41  C   UNL A   1      42.817  30.198  28.901  1.00  0.00     0.074 A 
ATOM     42  C   UNL A   1      41.888  27.919  28.614  1.00  0.00     0.049 A 
ATOM     43  N   UNL A   1      44.023  30.042  28.423  1.00  0.00    -0.248 NA
ATOM     44  C   UNL A   1      42.515  31.574  29.332  1.00  0.00     0.031 C 
ATOM     45  C   UNL A   1      40.867  26.867  28.635  1.00  0.00     0.029 A 
ATOM     46  N   UNL A   1      42.991  27.300  28.087  1.00  0.00    -0.354 N 
ATOM     47  C   UNL A   1      44.615  31.297  28.487  1.00  0.00     0.074 A 
ATOM     48  C   UNL A   1      43.614  32.217  28.976  1.00  0.00     0.031 C 
ATOM     49  C   UNL A   1      41.402  25.728  28.170  1.00  0.00     0.029 A 
ATOM     50  C   UNL A   1      42.790  25.975  27.787  1.00  0.00     0.049 A 
ATOM     51  H   UNL A   1      43.848  27.762  27.936  1.00  0.00     0.167 HD
ATOM     52  C   UNL A   1      45.890  31.648  28.196  1.00  0.00     0.031 A 
ATOM     53  C   UNL A   1      43.628  25.061  27.264  1.00  0.00     0.031 A 
ATOM     54  C   UNL A   1      46.882  30.725  27.717  1.00  0.00     0.049 A 
ATOM     55  C   UNL A   1      45.044  25.467  26.958  1.00  0.00     0.074 A 
ATOM     56  C   UNL A   1      48.214  30.963  27.432  1.00  0.00     0.029 A 
ATOM     57  N   UNL A   1      46.647  29.383  27.455  1.00  0.00    -0.354 N 
ATOM     58  N   UNL A   1      45.609  26.645  27.088  1.00  0.00    -0.248 NA
ATOM     59  C   UNL A   1      45.941  24.417  26.457  1.00  0.00     0.031 C 
ATOM     60  C   UNL A   1      48.774  29.773  26.952  1.00  0.00     0.029 A 
ATOM     61  C   UNL A   1      47.806  28.781  26.997  1.00  0.00     0.049 A 
ATOM     62  H   UNL A   1      45.783  28.927  27.577  1.00  0.00     0.167 HD
ATOM     63  C   UNL A   1      46.935  26.473  26.707  1.00  0.00     0.074 A 
ATOM     64  C   UNL A   1      47.089  25.074  26.360  1.00  0.00     0.031 C 
ATOM     65  C   UNL A   1      47.935  27.388  26.651  1.00  0.00     0.031 A 
BRANCH  52  66
ATOM     66  C   UNL A   1      46.265  33.094  28.394  1.00  0.00    -0.014 A 
ATOM     67  C   UNL A   1      46.757  33.551  29.632  1.00  0.00     0.010 A 
ATOM     68  C   UNL A   1      46.123  34.009  27.336  1.00  0.00     0.010 A 
ATOM     69  C   UNL A   1      47.042  34.905  29.826  1.00  0.00     0.020 A 
ATOM     70  C   UNL A   1      46.440  35.359  27.516  1.00  0.00     0.020 A 
ATOM     71  C   UNL A   1      46.874  35.802  28.767  1.00  0.00     0.054 A 
BRANCH  71  72
ATOM     72  S   UNL A   1      47.249  37.554  29.046  1.00  0.00     0.124 S 
ATOM     73  O   UNL A   1      48.614  37.490  29.564  1.00  0.00    -0.237 OA
ATOM     74  O   UNL A   1      47.111  38.128  27.711  1.00  0.00    -0.237 OA
ATOM     75  O   UNL A   1      46.236  37.976  30.011  1.00  0.00    -0.744 OA
ENDBRANCH  71  72
ENDBRANCH  52  66
BRANCH  53  76
ATOM     76  C   UNL A   1      43.149  23.673  27.024  1.00  0.00    -0.014 A 
ATOM     77  C   UNL A   1      42.740  23.266  25.742  1.00  0.00     0.010 A 
ATOM     78  C   UNL A   1      43.138  22.737  28.075  1.00  0.00     0.010 A 
ATOM     79  C   UNL A   1      42.320  21.951  25.517  1.00  0.00     0.020 A 
ATOM     80  C   UNL A   1      42.746  21.415  27.846  1.00  0.00     0.020 A 
ATOM     81  C   UNL A   1      42.331  21.032  26.571  1.00  0.00     0.054 A 
BRANCH  81  82
ATOM     82  S   UNL A   1      41.851  19.314  26.239  1.00  0.00     0.124 S 
ATOM     83  O   UNL A   1      42.146  18.664  27.512  1.00  0.00    -0.237 OA
ATOM     84  O   UNL A   1      40.433  19.442  25.907  1.00  0.00    -0.237 OA
ATOM     85  O   UNL A   1      42.711  18.929  25.122  1.00  0.00    -0.744 OA
ENDBRANCH  81  82
ENDBRANCH  53  76
BRANCH  65  86
ATOM     86  C   UNL A   1      49.294  26.899  26.228  1.00  0.00    -0.014 A 
ATOM     87  C   UNL A   1      49.773  27.109  24.922  1.00  0.00     0.010 A 
ATOM     88  C   UNL A   1      50.124  26.265  27.170  1.00  0.00     0.010 A 
ATOM     89  C   UNL A   1      51.044  26.659  24.557  1.00  0.00     0.020 A 
ATOM     90  C   UNL A   1      51.407  25.841  26.817  1.00  0.00     0.020 A 
ATOM     91  C   UNL A   1      51.852  26.027  25.507  1.00  0.00     0.054 A 
BRANCH  91  92
ATOM     92  S   UNL A   1      53.512  25.483  25.019  1.00  0.00     0.124 S 
ATOM     93  O   UNL A   1      54.365  26.331  25.848  1.00  0.00    -0.237 OA
ATOM     94  O   UNL A   1      53.503  24.066  25.372  1.00  0.00    -0.237 OA
ATOM     95  O   UNL A   1      53.561  25.762  23.586  1.00  0.00    -0.744 OA
ENDBRANCH  91  92
ENDBRANCH  65  86
ENDBRANCH  39  40
ENDBRANCH  31  34
ENDBRANCH  29  30
ENDBRANCH  28  29
ENDBRANCH   1  28
TORSDOF 17
ENDMDL
MODEL 3
REMARK VINA RESULT:     -12.2      2.573      8.512
REMARK SMILES CSc1ccc(/C=C2\C(C)=C(CC(=O)NCCCCNC(=O)c3ccc(-c4c5nc(c(-c6ccc(S(=O)(=O)[O-])cc6)c6ccc([nH]6)c(-c6ccc(S(=O)(=O)[O-])cc6)c6nc(c(-c7ccc(S(=O)(=O)[O-])cc7)c7ccc4[nH]7)C=C6)C=C5)cc3)c3cc(F)ccc32)cc1
REMARK SMILES IDX 17 1 16 2 15 3 13 4 14 5 12 7 11 8 7 9 8 10 9 11 89 12 10 13
REMARK SMILES IDX 83 14 88 15 84 16 87 17 85 18 86 19 6 20 3 21 4 22 91 23
REMARK SMILES IDX 5 24 90 25 2 26 1 27 18 28 19 29 20 30 21 31 22 33 23 34
REMARK SMILES IDX 24 35 82 36 25 37 81 38 26 39 27 40 28 41 75 42 29 43 80 44
REMARK SMILES IDX 74 45 76 46 30 47 79 48 73 49 72 50 31 52 61 53 42 54 60 55
REMARK SMILES IDX 43 56 46 57 59 58 77 59 44 60 45 61 58 63 78 64 47 65 32 66
REMARK SMILES IDX 33 67 41 68 34 69 40 70 35 71 36 72 37 73 38 74 39 75 62 76
REMARK SMILES IDX 63 77 71 78 64 79 70 80 65 81 66 82 67 83 68 84 69 85 48 86
REMARK SMILES IDX 49 87 57 88 50 89 56 90 51 91 52 92 53 93 54 94 55 95
REMARK H PARENT 15 6 20 32 76 51 46 62
REMARK Flexibility Score: inf
ROOT
ATOM      1  C   UNL A   1      32.490  29.929  27.196  1.00  0.00     0.023 C 
ENDROOT
BRANCH   1   2
ATOM      2  C   UNL A   1      33.779  29.240  26.757  1.00  0.00     0.116 C 
BRANCH   2   3
ATOM      3  N   UNL A   1      34.089  29.517  25.370  1.00  0.00    -0.356 N 
ATOM      4  C   UNL A   1      34.009  28.651  24.315  1.00  0.00     0.224 C 
ATOM      5  O   UNL A   1      34.395  29.014  23.205  1.00  0.00    -0.275 OA
ATOM      6  H   UNL A   1      34.390  30.430  25.163  1.00  0.00     0.163 HD
BRANCH   4   7
ATOM      7  C   UNL A   1      33.446  27.262  24.547  1.00  0.00     0.136 C 
BRANCH   7   8
ATOM      8  C   UNL A   1      32.459  26.924  23.448  1.00  0.00    -0.027 C 
ATOM      9  C   UNL A   1      31.571  23.734  24.338  1.00  0.00     0.017 C 
ATOM     10  C   UNL A   1      31.440  24.988  23.877  1.00  0.00    -0.014 C 
ATOM     11  C   UNL A   1      32.335  25.671  22.924  1.00  0.00    -0.039 C 
ATOM     12  C   UNL A   1      30.421  26.024  24.182  1.00  0.00    -0.010 A 
ATOM     13  C   UNL A   1      31.743  25.515  21.501  1.00  0.00     0.045 C 
ATOM     14  C   UNL A   1      31.062  27.230  23.814  1.00  0.00    -0.011 A 
ATOM     15  C   UNL A   1      29.041  25.923  24.102  1.00  0.00     0.012 A 
ATOM     16  C   UNL A   1      30.374  28.345  23.363  1.00  0.00     0.048 A 
ATOM     17  C   UNL A   1      28.336  27.035  23.613  1.00  0.00     0.040 A 
ATOM     18  C   UNL A   1      29.001  28.218  23.244  1.00  0.00     0.123 A 
ATOM     19  F   UNL A   1      28.310  29.196  22.643  1.00  0.00    -0.207 F 
BRANCH   9  20
ATOM     20  C   UNL A   1      32.389  22.620  23.768  1.00  0.00    -0.025 A 
ATOM     21  C   UNL A   1      32.814  19.871  23.663  1.00  0.00     0.007 A 
ATOM     22  C   UNL A   1      32.110  20.492  22.641  1.00  0.00     0.015 A 
ATOM     23  C   UNL A   1      33.559  20.649  24.548  1.00  0.00     0.015 A 
ATOM     24  C   UNL A   1      31.959  21.873  22.666  1.00  0.00     0.009 A 
ATOM     25  C   UNL A   1      33.347  22.030  24.600  1.00  0.00     0.009 A 
BRANCH  21  26
ATOM     26  S   UNL A   1      32.518  18.148  24.007  1.00  0.00    -0.130 SA
ATOM     27  C   UNL A   1      32.755  18.238  25.818  1.00  0.00     0.091 C 
ENDBRANCH  21  26
ENDBRANCH   9  20
ENDBRANCH   7   8
ENDBRANCH   4   7
ENDBRANCH   2   3
ENDBRANCH   1   2
BRANCH   1  28
ATOM     28  C   UNL A   1      32.389  31.416  26.905  1.00  0.00     0.023 C 
BRANCH  28  29
ATOM     29  C   UNL A   1      33.408  32.252  27.639  1.00  0.00     0.116 C 
BRANCH  29  30
ATOM     30  N   UNL A   1      32.956  33.613  27.887  1.00  0.00    -0.352 N 
ATOM     31  C   UNL A   1      33.448  34.504  28.815  1.00  0.00     0.251 C 
ATOM     32  H   UNL A   1      32.214  33.933  27.327  1.00  0.00     0.163 HD
ATOM     33  O   UNL A   1      32.919  35.580  28.992  1.00  0.00    -0.269 OA
BRANCH  31  34
ATOM     34  C   UNL A   1      34.611  34.072  29.615  1.00  0.00     0.039 A 
ATOM     35  C   UNL A   1      34.387  33.312  30.762  1.00  0.00     0.014 A 
ATOM     36  C   UNL A   1      35.908  34.327  29.160  1.00  0.00     0.014 A 
ATOM     37  C   UNL A   1      35.477  32.764  31.432  1.00  0.00     0.010 A 
ATOM     38  C   UNL A   1      36.978  33.691  29.766  1.00  0.00     0.010 A 
ATOM     39  C   UNL A   1      36.776  32.926  30.921  1.00  0.00    -0.014 A 
BRANCH  39  40
ATOM     40  C   UNL A   1      37.947  32.339  31.611  1.00  0.00     0.031 A 
ATOM     41  C   UNL A   1      38.391  32.909  32.929  1.00  0.00     0.074 A 
ATOM     42  C   UNL A   1      38.633  31.336  31.031  1.00  0.00     0.049 A 
ATOM     43  N   UNL A   1      39.406  32.563  33.677  1.00  0.00    -0.248 NA
ATOM     44  C   UNL A   1      37.612  34.042  33.460  1.00  0.00     0.031 C 
ATOM     45  C   UNL A   1      38.331  30.743  29.725  1.00  0.00     0.029 A 
ATOM     46  N   UNL A   1      39.730  30.639  31.466  1.00  0.00    -0.354 N 
ATOM     47  C   UNL A   1      39.391  33.439  34.755  1.00  0.00     0.074 A 
ATOM     48  C   UNL A   1      38.318  34.380  34.527  1.00  0.00     0.031 C 
ATOM     49  C   UNL A   1      39.204  29.753  29.480  1.00  0.00     0.029 A 
ATOM     50  C   UNL A   1      40.146  29.664  30.593  1.00  0.00     0.049 A 
ATOM     51  H   UNL A   1      40.178  30.820  32.324  1.00  0.00     0.167 HD
ATOM     52  C   UNL A   1      40.181  33.442  35.855  1.00  0.00     0.031 A 
ATOM     53  C   UNL A   1      41.170  28.794  30.679  1.00  0.00     0.031 A 
ATOM     54  C   UNL A   1      41.241  32.499  36.077  1.00  0.00     0.049 A 
ATOM     55  C   UNL A   1      42.029  28.805  31.913  1.00  0.00     0.074 A 
ATOM     56  C   UNL A   1      42.074  32.382  37.175  1.00  0.00     0.029 A 
ATOM     57  N   UNL A   1      41.613  31.506  35.182  1.00  0.00    -0.354 N 
ATOM     58  N   UNL A   1      41.960  29.597  32.957  1.00  0.00    -0.248 NA
ATOM     59  C   UNL A   1      43.087  27.790  31.993  1.00  0.00     0.031 C 
ATOM     60  C   UNL A   1      42.982  31.347  36.922  1.00  0.00     0.029 A 
ATOM     61  C   UNL A   1      42.673  30.780  35.694  1.00  0.00     0.049 A 
ATOM     62  H   UNL A   1      41.184  31.343  34.310  1.00  0.00     0.167 HD
ATOM     63  C   UNL A   1      42.951  29.162  33.829  1.00  0.00     0.074 A 
ATOM     64  C   UNL A   1      43.591  28.026  33.197  1.00  0.00     0.031 C 
ATOM     65  C   UNL A   1      43.300  29.656  35.044  1.00  0.00     0.031 A 
BRANCH  52  66
ATOM     66  C   UNL A   1      39.911  34.503  36.889  1.00  0.00    -0.014 A 
ATOM     67  C   UNL A   1      40.502  35.778  36.791  1.00  0.00     0.010 A 
ATOM     68  C   UNL A   1      39.061  34.227  37.975  1.00  0.00     0.010 A 
ATOM     69  C   UNL A   1      40.297  36.734  37.789  1.00  0.00     0.020 A 
ATOM     70  C   UNL A   1      38.825  35.193  38.958  1.00  0.00     0.020 A 
ATOM     71  C   UNL A   1      39.465  36.432  38.871  1.00  0.00     0.054 A 
BRANCH  71  72
ATOM     72  S   UNL A   1      39.216  37.691  40.152  1.00  0.00     0.124 S 
ATOM     73  O   UNL A   1      40.512  38.366  40.165  1.00  0.00    -0.237 OA
ATOM     74  O   UNL A   1      38.105  38.475  39.620  1.00  0.00    -0.237 OA
ATOM     75  O   UNL A   1      38.908  36.912  41.349  1.00  0.00    -0.744 OA
ENDBRANCH  71  72
ENDBRANCH  52  66
BRANCH  53  76
ATOM     76  C   UNL A   1      41.415  27.832  29.570  1.00  0.00    -0.014 A 
ATOM     77  C   UNL A   1      40.618  26.683  29.427  1.00  0.00     0.010 A 
ATOM     78  C   UNL A   1      42.426  28.086  28.624  1.00  0.00     0.010 A 
ATOM     79  C   UNL A   1      40.833  25.800  28.365  1.00  0.00     0.020 A 
ATOM     80  C   UNL A   1      42.624  27.219  27.545  1.00  0.00     0.020 A 
ATOM     81  C   UNL A   1      41.832  26.077  27.427  1.00  0.00     0.054 A 
BRANCH  81  82
ATOM     82  S   UNL A   1      42.046  24.954  26.017  1.00  0.00     0.124 S 
ATOM     83  O   UNL A   1      43.339  24.344  26.308  1.00  0.00    -0.237 OA
ATOM     84  O   UNL A   1      40.887  24.072  26.139  1.00  0.00    -0.237 OA
ATOM     85  O   UNL A   1      42.019  25.849  24.862  1.00  0.00    -0.744 OA
ENDBRANCH  81  82
ENDBRANCH  53  76
BRANCH  65  86
ATOM     86  C   UNL A   1      44.404  28.950  35.784  1.00  0.00    -0.014 A 
ATOM     87  C   UNL A   1      45.746  29.351  35.650  1.00  0.00     0.010 A 
ATOM     88  C   UNL A   1      44.084  27.904  36.668  1.00  0.00     0.010 A 
ATOM     89  C   UNL A   1      46.752  28.690  36.360  1.00  0.00     0.020 A 
ATOM     90  C   UNL A   1      45.083  27.261  37.401  1.00  0.00     0.020 A 
ATOM     91  C   UNL A   1      46.414  27.648  37.229  1.00  0.00     0.054 A 
BRANCH  91  92
ATOM     92  S   UNL A   1      47.734  26.829  38.165  1.00  0.00     0.124 S 
ATOM     93  O   UNL A   1      46.977  26.087  39.171  1.00  0.00    -0.237 OA
ATOM     94  O   UNL A   1      48.392  26.014  37.147  1.00  0.00    -0.237 OA
ATOM     95  O   UNL A   1      48.534  27.938  38.680  1.00  0.00    -0.744 OA
ENDBRANCH  91  92
ENDBRANCH  65  86
ENDBRANCH  39  40
ENDBRANCH  31  34
ENDBRANCH  29  30
ENDBRANCH  28  29
ENDBRANCH   1  28
TORSDOF 17
ENDMDL
