MODEL 1
REMARK VINA RESULT:     -12.2      0.000      0.000
REMARK SMILES CS(=O)(=O)c1ccc(-c2cc(Cl)cc3c2O[C@H](C(F)(F)F)C(C(=O)NCCCCNC(=O)c2ccc(-c4c5nc(c(-c6ccc(S(=O)(=O)[O-])cc6)c6ccc([nH]6)c(-c6ccc(S(=O)(=O)[O-])cc6)c6nc(c(-c7ccc(S(=O)(=O)[O-])cc7)c7ccc4[nH]7)C=C6)C=C5)cc2)=C3)cc1
REMARK SMILES IDX 28 1 27 2 26 3 25 4 23 5 24 6 22 8 9 9 10 10 15 11 11 12
REMARK SMILES IDX 14 13 16 14 12 15 13 16 93 17 17 18 8 19 5 20 6 21 95 22
REMARK SMILES IDX 7 23 94 24 2 25 1 26 3 27 4 28 18 29 19 30 20 31 21 32 29 33
REMARK SMILES IDX 30 34 31 35 32 37 33 38 34 39 92 40 35 41 91 42 36 43 37 44
REMARK SMILES IDX 38 45 85 46 39 47 90 48 84 49 86 50 40 51 89 52 83 53 82 54
REMARK SMILES IDX 41 56 71 57 52 58 70 59 53 60 56 61 69 62 87 63 54 64 55 65
REMARK SMILES IDX 68 67 88 68 57 69 42 70 43 71 51 72 44 73 50 74 45 75 46 76
REMARK SMILES IDX 47 77 48 78 49 79 72 80 73 81 81 82 74 83 80 84 75 85 76 86
REMARK SMILES IDX 77 87 78 88 79 89 58 90 59 91 67 92 60 93 66 94 61 95 62 96
REMARK SMILES IDX 63 97 64 98 65 99
REMARK H PARENT 25 7 30 36 86 55 56 66
REMARK Flexibility Score: inf
ROOT
ATOM      1  C   UNL A   1      37.960  20.148  25.153  1.00  0.00     0.023 C 
ENDROOT
BRANCH   1   2
ATOM      2  C   UNL A   1      37.016  21.254  24.658  1.00  0.00     0.023 C 
BRANCH   2   3
ATOM      3  C   UNL A   1      35.821  21.552  25.576  1.00  0.00     0.116 C 
BRANCH   3   4
ATOM      4  N   UNL A   1      35.693  22.982  25.757  1.00  0.00    -0.352 N 
ATOM      5  C   UNL A   1      34.878  23.852  25.118  1.00  0.00     0.251 C 
ATOM      6  O   UNL A   1      35.285  24.992  24.919  1.00  0.00    -0.270 OA
ATOM      7  H   UNL A   1      36.281  23.377  26.440  1.00  0.00     0.163 HD
BRANCH   5   8
ATOM      8  C   UNL A   1      33.481  23.422  24.803  1.00  0.00     0.067 C 
ATOM      9  C   UNL A   1      31.767  27.070  24.179  1.00  0.00     0.026 A 
ATOM     10  C   UNL A   1      32.250  27.919  25.208  1.00  0.00     0.033 A 
ATOM     11  C   UNL A   1      32.005  25.694  24.347  1.00  0.00     0.135 A 
ATOM     12  C   UNL A   1      32.738  27.426  26.415  1.00  0.00     0.042 A 
ATOM     13  C   UNL A   1      32.379  25.211  25.625  1.00  0.00     0.019 A 
ATOM     14  O   UNL A   1      31.948  24.776  23.306  1.00  0.00    -0.475 OA
ATOM     15  Cl  UNL A   1      33.315  28.517  27.611  1.00  0.00    -0.084 Cl
ATOM     16  C   UNL A   1      32.724  26.069  26.664  1.00  0.00     0.032 A 
ATOM     17  C   UNL A   1      32.607  23.756  25.772  1.00  0.00     0.025 C 
ATOM     18  C   UNL A   1      33.014  23.723  23.383  1.00  0.00     0.314 C 
BRANCH   9  19
ATOM     19  C   UNL A   1      30.830  27.723  23.220  1.00  0.00    -0.015 A 
ATOM     20  C   UNL A   1      29.044  29.737  22.345  1.00  0.00     0.067 A 
ATOM     21  C   UNL A   1      30.389  29.800  21.983  1.00  0.00     0.021 A 
ATOM     22  C   UNL A   1      28.560  28.632  23.048  1.00  0.00     0.021 A 
ATOM     23  C   UNL A   1      31.266  28.783  22.393  1.00  0.00     0.010 A 
ATOM     24  C   UNL A   1      29.445  27.625  23.463  1.00  0.00     0.010 A 
BRANCH  20  25
ATOM     25  S   UNL A   1      27.990  31.151  22.089  1.00  0.00     0.175 S 
ATOM     26  C   UNL A   1      29.047  32.535  22.398  1.00  0.00     0.163 C 
ATOM     27  O   UNL A   1      26.966  31.136  23.114  1.00  0.00    -0.224 OA
ATOM     28  O   UNL A   1      27.625  31.175  20.681  1.00  0.00    -0.224 OA
ENDBRANCH  20  25
ENDBRANCH   9  19
BRANCH  18  29
ATOM     29  C   UNL A   1      32.552  22.399  22.735  1.00  0.00     0.429 C 
ATOM     30  F   UNL A   1      32.905  22.302  21.434  1.00  0.00    -0.167 F 
ATOM     31  F   UNL A   1      33.075  21.328  23.381  1.00  0.00    -0.167 F 
ATOM     32  F   UNL A   1      31.202  22.240  22.779  1.00  0.00    -0.167 F 
ENDBRANCH  18  29
ENDBRANCH   5   8
ENDBRANCH   3   4
ENDBRANCH   2   3
ENDBRANCH   1   2
BRANCH   1  33
ATOM     33  C   UNL A   1      39.278  20.644  25.735  1.00  0.00     0.116 C 
BRANCH  33  34
ATOM     34  N   UNL A   1      40.223  19.557  25.935  1.00  0.00    -0.352 N 
ATOM     35  C   UNL A   1      41.582  19.616  26.125  1.00  0.00     0.251 C 
ATOM     36  H   UNL A   1      39.835  18.652  25.933  1.00  0.00     0.163 HD
ATOM     37  O   UNL A   1      42.252  18.588  26.068  1.00  0.00    -0.269 OA
BRANCH  35  38
ATOM     38  C   UNL A   1      42.235  20.920  26.376  1.00  0.00     0.039 A 
ATOM     39  C   UNL A   1      42.567  21.731  25.289  1.00  0.00     0.014 A 
ATOM     40  C   UNL A   1      42.511  21.343  27.679  1.00  0.00     0.014 A 
ATOM     41  C   UNL A   1      43.113  22.997  25.513  1.00  0.00     0.010 A 
ATOM     42  C   UNL A   1      42.983  22.635  27.902  1.00  0.00     0.010 A 
ATOM     43  C   UNL A   1      43.292  23.475  26.822  1.00  0.00    -0.014 A 
BRANCH  43  44
ATOM     44  C   UNL A   1      43.788  24.853  27.080  1.00  0.00     0.031 A 
ATOM     45  C   UNL A   1      45.245  25.184  26.893  1.00  0.00     0.074 A 
ATOM     46  C   UNL A   1      42.938  25.793  27.543  1.00  0.00     0.049 A 
ATOM     47  N   UNL A   1      45.869  26.312  27.117  1.00  0.00    -0.248 NA
ATOM     48  C   UNL A   1      46.119  24.101  26.413  1.00  0.00     0.031 C 
ATOM     49  C   UNL A   1      41.510  25.590  27.804  1.00  0.00     0.029 A 
ATOM     50  N   UNL A   1      43.151  27.106  27.881  1.00  0.00    -0.354 N 
ATOM     51  C   UNL A   1      47.207  26.071  26.823  1.00  0.00     0.074 A 
ATOM     52  C   UNL A   1      47.311  24.676  26.454  1.00  0.00     0.031 C 
ATOM     53  C   UNL A   1      40.972  26.743  28.233  1.00  0.00     0.029 A 
ATOM     54  C   UNL A   1      42.020  27.754  28.323  1.00  0.00     0.049 A 
ATOM     55  H   UNL A   1      44.030  27.544  27.814  1.00  0.00     0.167 HD
ATOM     56  C   UNL A   1      48.249  26.935  26.837  1.00  0.00     0.031 A 
ATOM     57  C   UNL A   1      41.845  29.017  28.761  1.00  0.00     0.031 A 
ATOM     58  C   UNL A   1      48.140  28.323  27.201  1.00  0.00     0.049 A 
ATOM     59  C   UNL A   1      43.024  29.952  28.790  1.00  0.00     0.074 A 
ATOM     60  C   UNL A   1      49.127  29.294  27.196  1.00  0.00     0.029 A 
ATOM     61  N   UNL A   1      46.977  28.940  27.640  1.00  0.00    -0.354 N 
ATOM     62  N   UNL A   1      44.267  29.723  28.440  1.00  0.00    -0.248 NA
ATOM     63  C   UNL A   1      42.773  31.321  29.263  1.00  0.00     0.031 C 
ATOM     64  C   UNL A   1      48.578  30.480  27.692  1.00  0.00     0.029 A 
ATOM     65  C   UNL A   1      47.230  30.269  27.937  1.00  0.00     0.049 A 
ATOM     66  H   UNL A   1      46.101  28.498  27.728  1.00  0.00     0.167 HD
ATOM     67  C   UNL A   1      44.939  30.927  28.622  1.00  0.00     0.074 A 
ATOM     68  C   UNL A   1      43.962  31.884  29.096  1.00  0.00     0.031 C 
ATOM     69  C   UNL A   1      46.249  31.213  28.411  1.00  0.00     0.031 A 
BRANCH  56  70
ATOM     70  C   UNL A   1      49.607  26.400  26.458  1.00  0.00    -0.014 A 
ATOM     71  C   UNL A   1      50.081  26.486  25.137  1.00  0.00     0.010 A 
ATOM     72  C   UNL A   1      50.440  25.843  27.446  1.00  0.00     0.010 A 
ATOM     73  C   UNL A   1      51.342  25.987  24.802  1.00  0.00     0.020 A 
ATOM     74  C   UNL A   1      51.715  25.372  27.123  1.00  0.00     0.020 A 
ATOM     75  C   UNL A   1      52.152  25.432  25.797  1.00  0.00     0.054 A 
BRANCH  75  76
ATOM     76  S   UNL A   1      53.794  24.815  25.337  1.00  0.00     0.124 S 
ATOM     77  O   UNL A   1      53.515  23.412  25.041  1.00  0.00    -0.237 OA
ATOM     78  O   UNL A   1      54.135  25.644  24.184  1.00  0.00    -0.237 OA
ATOM     79  O   UNL A   1      54.601  25.049  26.531  1.00  0.00    -0.744 OA
ENDBRANCH  75  76
ENDBRANCH  56  70
BRANCH  57  80
ATOM     80  C   UNL A   1      40.496  29.473  29.199  1.00  0.00    -0.014 A 
ATOM     81  C   UNL A   1      40.181  29.574  30.565  1.00  0.00     0.010 A 
ATOM     82  C   UNL A   1      39.518  29.819  28.246  1.00  0.00     0.010 A 
ATOM     83  C   UNL A   1      38.910  29.991  30.971  1.00  0.00     0.020 A 
ATOM     84  C   UNL A   1      38.257  30.268  28.649  1.00  0.00     0.020 A 
ATOM     85  C   UNL A   1      37.957  30.340  30.010  1.00  0.00     0.054 A 
BRANCH  85  86
ATOM     86  S   UNL A   1      36.332  30.927  30.562  1.00  0.00     0.124 S 
ATOM     87  O   UNL A   1      36.641  32.270  31.044  1.00  0.00    -0.237 OA
ATOM     88  O   UNL A   1      35.540  30.861  29.336  1.00  0.00    -0.237 OA
ATOM     89  O   UNL A   1      35.952  29.964  31.593  1.00  0.00    -0.744 OA
ENDBRANCH  85  86
ENDBRANCH  57  80
BRANCH  69  90
ATOM     90  C   UNL A   1      46.699  32.630  28.655  1.00  0.00    -0.014 A 
ATOM     91  C   UNL A   1      47.095  33.065  29.931  1.00  0.00     0.010 A 
ATOM     92  C   UNL A   1      46.778  33.525  27.571  1.00  0.00     0.010 A 
ATOM     93  C   UNL A   1      47.533  34.379  30.126  1.00  0.00     0.020 A 
ATOM     94  C   UNL A   1      47.246  34.828  27.755  1.00  0.00     0.020 A 
ATOM     95  C   UNL A   1      47.607  35.251  29.035  1.00  0.00     0.054 A 
BRANCH  95  96
ATOM     96  S   UNL A   1      48.220  36.936  29.307  1.00  0.00     0.124 S 
ATOM     97  O   UNL A   1      47.187  37.501  30.171  1.00  0.00    -0.237 OA
ATOM     98  O   UNL A   1      49.515  36.706  29.944  1.00  0.00    -0.237 OA
ATOM     99  O   UNL A   1      48.286  37.504  27.962  1.00  0.00    -0.744 OA
ENDBRANCH  95  96
ENDBRANCH  69  90
ENDBRANCH  43  44
ENDBRANCH  35  38
ENDBRANCH  33  34
ENDBRANCH   1  33
TORSDOF 17
ENDMDL
MODEL 2
REMARK VINA RESULT:     -12.0      5.934     12.310
REMARK SMILES CS(=O)(=O)c1ccc(-c2cc(Cl)cc3c2O[C@H](C(F)(F)F)C(C(=O)NCCCCNC(=O)c2ccc(-c4c5nc(c(-c6ccc(S(=O)(=O)[O-])cc6)c6ccc([nH]6)c(-c6ccc(S(=O)(=O)[O-])cc6)c6nc(c(-c7ccc(S(=O)(=O)[O-])cc7)c7ccc4[nH]7)C=C6)C=C5)cc2)=C3)cc1
REMARK SMILES IDX 28 1 27 2 26 3 25 4 23 5 24 6 22 8 9 9 10 10 15 11 11 12
REMARK SMILES IDX 14 13 16 14 12 15 13 16 93 17 17 18 8 19 5 20 6 21 95 22
REMARK SMILES IDX 7 23 94 24 2 25 1 26 3 27 4 28 18 29 19 30 20 31 21 32 29 33
REMARK SMILES IDX 30 34 31 35 32 37 33 38 34 39 92 40 35 41 91 42 36 43 37 44
REMARK SMILES IDX 38 45 85 46 39 47 90 48 84 49 86 50 40 51 89 52 83 53 82 54
REMARK SMILES IDX 41 56 71 57 52 58 70 59 53 60 56 61 69 62 87 63 54 64 55 65
REMARK SMILES IDX 68 67 88 68 57 69 42 70 43 71 51 72 44 73 50 74 45 75 46 76
REMARK SMILES IDX 47 77 48 78 49 79 72 80 73 81 81 82 74 83 80 84 75 85 76 86
REMARK SMILES IDX 77 87 78 88 79 89 58 90 59 91 67 92 60 93 66 94 61 95 62 96
REMARK SMILES IDX 63 97 64 98 65 99
REMARK H PARENT 25 7 30 36 86 55 56 66
REMARK Flexibility Score: inf
ROOT
ATOM      1  C   UNL A   1      35.137  32.660  29.281  1.00  0.00     0.023 C 
ENDROOT
BRANCH   1   2
ATOM      2  C   UNL A   1      36.660  32.854  29.245  1.00  0.00     0.023 C 
BRANCH   2   3
ATOM      3  C   UNL A   1      37.158  34.213  29.759  1.00  0.00     0.116 C 
BRANCH   3   4
ATOM      4  N   UNL A   1      38.185  34.007  30.758  1.00  0.00    -0.352 N 
ATOM      5  C   UNL A   1      38.083  34.041  32.106  1.00  0.00     0.251 C 
ATOM      6  O   UNL A   1      39.039  34.456  32.752  1.00  0.00    -0.270 OA
ATOM      7  H   UNL A   1      39.084  33.814  30.407  1.00  0.00     0.163 HD
BRANCH   5   8
ATOM      8  C   UNL A   1      36.864  33.454  32.744  1.00  0.00     0.067 C 
ATOM      9  C   UNL A   1      38.510  32.067  36.209  1.00  0.00     0.026 A 
ATOM     10  C   UNL A   1      39.737  31.452  35.850  1.00  0.00     0.033 A 
ATOM     11  C   UNL A   1      37.637  32.375  35.150  1.00  0.00     0.135 A 
ATOM     12  C   UNL A   1      39.988  30.981  34.564  1.00  0.00     0.042 A 
ATOM     13  C   UNL A   1      37.851  31.775  33.884  1.00  0.00     0.019 A 
ATOM     14  O   UNL A   1      36.595  33.287  35.259  1.00  0.00    -0.475 OA
ATOM     15  Cl  UNL A   1      41.503  30.256  34.202  1.00  0.00    -0.084 Cl
ATOM     16  C   UNL A   1      39.009  31.062  33.594  1.00  0.00     0.032 A 
ATOM     17  C   UNL A   1      36.906  32.109  32.796  1.00  0.00     0.025 C 
ATOM     18  C   UNL A   1      36.416  34.134  34.034  1.00  0.00     0.314 C 
BRANCH   9  19
ATOM     19  C   UNL A   1      38.198  32.032  37.667  1.00  0.00    -0.015 A 
ATOM     20  C   UNL A   1      36.628  32.530  39.968  1.00  0.00     0.067 A 
ATOM     21  C   UNL A   1      36.536  31.298  39.321  1.00  0.00     0.021 A 
ATOM     22  C   UNL A   1      37.565  33.474  39.546  1.00  0.00     0.021 A 
ATOM     23  C   UNL A   1      37.338  31.044  38.198  1.00  0.00     0.010 A 
ATOM     24  C   UNL A   1      38.357  33.215  38.416  1.00  0.00     0.010 A 
BRANCH  20  25
ATOM     25  S   UNL A   1      35.420  32.976  41.201  1.00  0.00     0.175 S 
ATOM     26  C   UNL A   1      35.422  31.605  42.318  1.00  0.00     0.163 C 
ATOM     27  O   UNL A   1      34.122  33.023  40.558  1.00  0.00    -0.224 OA
ATOM     28  O   UNL A   1      35.932  34.134  41.916  1.00  0.00    -0.224 OA
ENDBRANCH  20  25
ENDBRANCH   9  19
BRANCH  18  29
ATOM     29  C   UNL A   1      34.946  34.578  33.860  1.00  0.00     0.429 C 
ATOM     30  F   UNL A   1      34.553  35.464  34.802  1.00  0.00    -0.167 F 
ATOM     31  F   UNL A   1      34.747  35.154  32.649  1.00  0.00    -0.167 F 
ATOM     32  F   UNL A   1      34.075  33.535  33.927  1.00  0.00    -0.167 F 
ENDBRANCH  18  29
ENDBRANCH   5   8
ENDBRANCH   3   4
ENDBRANCH   2   3
ENDBRANCH   1   2
BRANCH   1  33
ATOM     33  C   UNL A   1      34.491  32.400  27.926  1.00  0.00     0.116 C 
BRANCH  33  34
ATOM     34  N   UNL A   1      33.831  31.106  27.881  1.00  0.00    -0.352 N 
ATOM     35  C   UNL A   1      34.384  29.850  27.936  1.00  0.00     0.251 C 
ATOM     36  H   UNL A   1      32.850  31.133  27.800  1.00  0.00     0.163 HD
ATOM     37  O   UNL A   1      33.695  28.868  27.674  1.00  0.00    -0.269 OA
BRANCH  35  38
ATOM     38  C   UNL A   1      35.812  29.688  28.288  1.00  0.00     0.039 A 
ATOM     39  C   UNL A   1      36.150  29.333  29.595  1.00  0.00     0.014 A 
ATOM     40  C   UNL A   1      36.811  29.877  27.330  1.00  0.00     0.014 A 
ATOM     41  C   UNL A   1      37.489  29.102  29.924  1.00  0.00     0.010 A 
ATOM     42  C   UNL A   1      38.134  29.570  27.639  1.00  0.00     0.010 A 
ATOM     43  C   UNL A   1      38.488  29.181  28.940  1.00  0.00    -0.014 A 
BRANCH  43  44
ATOM     44  C   UNL A   1      39.905  28.851  29.250  1.00  0.00     0.031 A 
ATOM     45  C   UNL A   1      40.800  29.875  29.897  1.00  0.00     0.074 A 
ATOM     46  C   UNL A   1      40.404  27.650  28.893  1.00  0.00     0.049 A 
ATOM     47  N   UNL A   1      42.071  29.787  30.195  1.00  0.00    -0.248 NA
ATOM     48  C   UNL A   1      40.194  31.174  30.232  1.00  0.00     0.031 C 
ATOM     49  C   UNL A   1      39.651  26.584  28.225  1.00  0.00     0.029 A 
ATOM     50  N   UNL A   1      41.663  27.123  29.037  1.00  0.00    -0.354 N 
ATOM     51  C   UNL A   1      42.420  31.020  30.735  1.00  0.00     0.074 A 
ATOM     52  C   UNL A   1      41.241  31.855  30.676  1.00  0.00     0.031 C 
ATOM     53  C   UNL A   1      40.456  25.524  28.044  1.00  0.00     0.029 A 
ATOM     54  C   UNL A   1      41.789  25.847  28.539  1.00  0.00     0.049 A 
ATOM     55  H   UNL A   1      42.407  27.612  29.458  1.00  0.00     0.167 HD
ATOM     56  C   UNL A   1      43.608  31.415  31.253  1.00  0.00     0.031 A 
ATOM     57  C   UNL A   1      42.860  25.030  28.475  1.00  0.00     0.031 A 
ATOM     58  C   UNL A   1      44.778  30.580  31.314  1.00  0.00     0.049 A 
ATOM     59  C   UNL A   1      44.175  25.500  29.036  1.00  0.00     0.074 A 
ATOM     60  C   UNL A   1      46.014  30.870  31.867  1.00  0.00     0.029 A 
ATOM     61  N   UNL A   1      44.864  29.294  30.799  1.00  0.00    -0.354 N 
ATOM     62  N   UNL A   1      44.465  26.645  29.607  1.00  0.00    -0.248 NA
ATOM     63  C   UNL A   1      45.304  24.564  28.954  1.00  0.00     0.031 C 
ATOM     64  C   UNL A   1      46.864  29.786  31.632  1.00  0.00     0.029 A 
ATOM     65  C   UNL A   1      46.139  28.790  30.996  1.00  0.00     0.049 A 
ATOM     66  H   UNL A   1      44.126  28.811  30.360  1.00  0.00     0.167 HD
ATOM     67  C   UNL A   1      45.802  26.553  29.980  1.00  0.00     0.074 A 
ATOM     68  C   UNL A   1      46.257  25.237  29.584  1.00  0.00     0.031 C 
ATOM     69  C   UNL A   1      46.581  27.477  30.597  1.00  0.00     0.031 A 
BRANCH  56  70
ATOM     70  C   UNL A   1      43.704  32.822  31.786  1.00  0.00    -0.014 A 
ATOM     71  C   UNL A   1      43.953  33.911  30.931  1.00  0.00     0.010 A 
ATOM     72  C   UNL A   1      43.498  33.066  33.157  1.00  0.00     0.010 A 
ATOM     73  C   UNL A   1      44.037  35.209  31.440  1.00  0.00     0.020 A 
ATOM     74  C   UNL A   1      43.548  34.367  33.666  1.00  0.00     0.020 A 
ATOM     75  C   UNL A   1      43.835  35.429  32.806  1.00  0.00     0.054 A 
BRANCH  75  76
ATOM     76  S   UNL A   1      43.926  37.128  33.434  1.00  0.00     0.124 S 
ATOM     77  O   UNL A   1      42.623  37.280  34.077  1.00  0.00    -0.237 OA
ATOM     78  O   UNL A   1      45.070  37.072  34.341  1.00  0.00    -0.237 OA
ATOM     79  O   UNL A   1      44.125  37.933  32.233  1.00  0.00    -0.744 OA
ENDBRANCH  75  76
ENDBRANCH  56  70
BRANCH  57  80
ATOM     80  C   UNL A   1      42.729  23.677  27.866  1.00  0.00    -0.014 A 
ATOM     81  C   UNL A   1      42.338  22.574  28.646  1.00  0.00     0.010 A 
ATOM     82  C   UNL A   1      42.988  23.486  26.495  1.00  0.00     0.010 A 
ATOM     83  C   UNL A   1      42.228  21.303  28.072  1.00  0.00     0.020 A 
ATOM     84  C   UNL A   1      42.847  22.223  25.912  1.00  0.00     0.020 A 
ATOM     85  C   UNL A   1      42.480  21.137  26.708  1.00  0.00     0.054 A 
BRANCH  85  86
ATOM     86  S   UNL A   1      42.280  19.489  25.976  1.00  0.00     0.124 S 
ATOM     87  O   UNL A   1      40.847  19.448  25.703  1.00  0.00    -0.237 OA
ATOM     88  O   UNL A   1      43.147  19.559  24.802  1.00  0.00    -0.237 OA
ATOM     89  O   UNL A   1      42.744  18.589  27.029  1.00  0.00    -0.744 OA
ENDBRANCH  85  86
ENDBRANCH  57  80
BRANCH  69  90
ATOM     90  C   UNL A   1      48.000  27.087  30.920  1.00  0.00    -0.014 A 
ATOM     91  C   UNL A   1      48.314  26.360  32.082  1.00  0.00     0.010 A 
ATOM     92  C   UNL A   1      49.028  27.406  30.013  1.00  0.00     0.010 A 
ATOM     93  C   UNL A   1      49.636  25.988  32.346  1.00  0.00     0.020 A 
ATOM     94  C   UNL A   1      50.344  27.008  30.257  1.00  0.00     0.020 A 
ATOM     95  C   UNL A   1      50.642  26.313  31.430  1.00  0.00     0.054 A 
BRANCH  95  96
ATOM     96  S   UNL A   1      52.340  25.779  31.776  1.00  0.00     0.124 S 
ATOM     97  O   UNL A   1      52.994  25.990  30.487  1.00  0.00    -0.237 OA
ATOM     98  O   UNL A   1      52.750  26.687  32.845  1.00  0.00    -0.237 OA
ATOM     99  O   UNL A   1      52.191  24.381  32.177  1.00  0.00    -0.744 OA
ENDBRANCH  95  96
ENDBRANCH  69  90
ENDBRANCH  43  44
ENDBRANCH  35  38
ENDBRANCH  33  34
ENDBRANCH   1  33
TORSDOF 17
ENDMDL
MODEL 3
REMARK VINA RESULT:     -11.9      0.556      7.859
REMARK SMILES CS(=O)(=O)c1ccc(-c2cc(Cl)cc3c2O[C@H](C(F)(F)F)C(C(=O)NCCCCNC(=O)c2ccc(-c4c5nc(c(-c6ccc(S(=O)(=O)[O-])cc6)c6ccc([nH]6)c(-c6ccc(S(=O)(=O)[O-])cc6)c6nc(c(-c7ccc(S(=O)(=O)[O-])cc7)c7ccc4[nH]7)C=C6)C=C5)cc2)=C3)cc1
REMARK SMILES IDX 28 1 27 2 26 3 25 4 23 5 24 6 22 8 9 9 10 10 15 11 11 12
REMARK SMILES IDX 14 13 16 14 12 15 13 16 93 17 17 18 8 19 5 20 6 21 95 22
REMARK SMILES IDX 7 23 94 24 2 25 1 26 3 27 4 28 18 29 19 30 20 31 21 32 29 33
REMARK SMILES IDX 30 34 31 35 32 37 33 38 34 39 92 40 35 41 91 42 36 43 37 44
REMARK SMILES IDX 38 45 85 46 39 47 90 48 84 49 86 50 40 51 89 52 83 53 82 54
REMARK SMILES IDX 41 56 71 57 52 58 70 59 53 60 56 61 69 62 87 63 54 64 55 65
REMARK SMILES IDX 68 67 88 68 57 69 42 70 43 71 51 72 44 73 50 74 45 75 46 76
REMARK SMILES IDX 47 77 48 78 49 79 72 80 73 81 81 82 74 83 80 84 75 85 76 86
REMARK SMILES IDX 77 87 78 88 79 89 58 90 59 91 67 92 60 93 66 94 61 95 62 96
REMARK SMILES IDX 63 97 64 98 65 99
REMARK H PARENT 25 7 30 36 86 55 56 66
REMARK Flexibility Score: inf
ROOT
ATOM      1  C   UNL A   1      37.882  19.816  25.276  1.00  0.00     0.023 C 
ENDROOT
BRANCH   1   2
ATOM      2  C   UNL A   1      36.867  20.742  24.588  1.00  0.00     0.023 C 
BRANCH   2   3
ATOM      3  C   UNL A   1      35.813  21.361  25.519  1.00  0.00     0.116 C 
BRANCH   3   4
ATOM      4  N   UNL A   1      35.857  22.803  25.410  1.00  0.00    -0.352 N 
ATOM      5  C   UNL A   1      35.033  23.633  24.731  1.00  0.00     0.251 C 
ATOM      6  O   UNL A   1      35.508  24.650  24.237  1.00  0.00    -0.270 OA
ATOM      7  H   UNL A   1      36.590  23.242  25.899  1.00  0.00     0.163 HD
BRANCH   5   8
ATOM      8  C   UNL A   1      33.567  23.336  24.725  1.00  0.00     0.067 C 
ATOM      9  C   UNL A   1      32.116  27.070  23.962  1.00  0.00     0.026 A 
ATOM     10  C   UNL A   1      32.863  27.962  24.774  1.00  0.00     0.033 A 
ATOM     11  C   UNL A   1      32.251  25.702  24.257  1.00  0.00     0.135 A 
ATOM     12  C   UNL A   1      33.523  27.547  25.928  1.00  0.00     0.042 A 
ATOM     13  C   UNL A   1      32.814  25.317  25.499  1.00  0.00     0.019 A 
ATOM     14  O   UNL A   1      31.911  24.691  23.367  1.00  0.00    -0.475 OA
ATOM     15  Cl  UNL A   1      34.416  28.685  26.855  1.00  0.00    -0.084 Cl
ATOM     16  C   UNL A   1      33.429  26.235  26.344  1.00  0.00     0.032 A 
ATOM     17  C   UNL A   1      32.928  23.870  25.785  1.00  0.00     0.025 C 
ATOM     18  C   UNL A   1      32.869  23.537  23.385  1.00  0.00     0.314 C 
BRANCH   9  19
ATOM     19  C   UNL A   1      31.079  27.722  23.111  1.00  0.00    -0.015 A 
ATOM     20  C   UNL A   1      29.119  29.667  22.491  1.00  0.00     0.067 A 
ATOM     21  C   UNL A   1      30.431  29.842  22.052  1.00  0.00     0.021 A 
ATOM     22  C   UNL A   1      28.751  28.489  23.143  1.00  0.00     0.021 A 
ATOM     23  C   UNL A   1      31.393  28.860  22.335  1.00  0.00     0.010 A 
ATOM     24  C   UNL A   1      29.722  27.517  23.432  1.00  0.00     0.010 A 
BRANCH  20  25
ATOM     25  S   UNL A   1      27.965  31.022  22.399  1.00  0.00     0.175 S 
ATOM     26  C   UNL A   1      28.946  32.446  22.772  1.00  0.00     0.163 C 
ATOM     27  O   UNL A   1      26.997  30.858  23.465  1.00  0.00    -0.224 OA
ATOM     28  O   UNL A   1      27.528  31.132  21.016  1.00  0.00    -0.224 OA
ENDBRANCH  20  25
ENDBRANCH   9  19
BRANCH  18  29
ATOM     29  C   UNL A   1      32.170  22.213  23.001  1.00  0.00     0.429 C 
ATOM     30  F   UNL A   1      32.440  21.210  23.865  1.00  0.00    -0.167 F 
ATOM     31  F   UNL A   1      30.823  22.363  22.958  1.00  0.00    -0.167 F 
ATOM     32  F   UNL A   1      32.538  21.768  21.770  1.00  0.00    -0.167 F 
ENDBRANCH  18  29
ENDBRANCH   5   8
ENDBRANCH   3   4
ENDBRANCH   2   3
ENDBRANCH   1   2
BRANCH   1  33
ATOM     33  C   UNL A   1      39.160  20.501  25.743  1.00  0.00     0.116 C 
BRANCH  33  34
ATOM     34  N   UNL A   1      40.209  19.540  26.044  1.00  0.00    -0.352 N 
ATOM     35  C   UNL A   1      41.524  19.767  26.369  1.00  0.00     0.251 C 
ATOM     36  H   UNL A   1      39.938  18.593  26.011  1.00  0.00     0.163 HD
ATOM     37  O   UNL A   1      42.318  18.831  26.387  1.00  0.00    -0.269 OA
BRANCH  35  38
ATOM     38  C   UNL A   1      41.981  21.140  26.673  1.00  0.00     0.039 A 
ATOM     39  C   UNL A   1      42.270  21.480  27.997  1.00  0.00     0.014 A 
ATOM     40  C   UNL A   1      42.133  22.086  25.656  1.00  0.00     0.014 A 
ATOM     41  C   UNL A   1      42.775  22.749  28.290  1.00  0.00     0.010 A 
ATOM     42  C   UNL A   1      42.710  23.322  25.940  1.00  0.00     0.010 A 
ATOM     43  C   UNL A   1      43.035  23.668  27.260  1.00  0.00    -0.014 A 
BRANCH  43  44
ATOM     44  C   UNL A   1      43.656  24.990  27.543  1.00  0.00     0.031 A 
ATOM     45  C   UNL A   1      42.818  26.130  28.056  1.00  0.00     0.074 A 
ATOM     46  C   UNL A   1      44.966  25.181  27.279  1.00  0.00     0.049 A 
ATOM     47  N   UNL A   1      43.172  27.364  28.310  1.00  0.00    -0.248 NA
ATOM     48  C   UNL A   1      41.391  25.855  28.293  1.00  0.00     0.031 C 
ATOM     49  C   UNL A   1      45.880  24.169  26.743  1.00  0.00     0.029 A 
ATOM     50  N   UNL A   1      45.755  26.296  27.421  1.00  0.00    -0.354 N 
ATOM     51  C   UNL A   1      42.013  28.014  28.719  1.00  0.00     0.074 A 
ATOM     52  C   UNL A   1      40.936  27.052  28.630  1.00  0.00     0.031 C 
ATOM     53  C   UNL A   1      47.108  24.700  26.629  1.00  0.00     0.029 A 
ATOM     54  C   UNL A   1      47.061  26.100  27.038  1.00  0.00     0.049 A 
ATOM     55  H   UNL A   1      45.418  27.154  27.765  1.00  0.00     0.167 HD
ATOM     56  C   UNL A   1      41.861  29.289  29.151  1.00  0.00     0.031 A 
ATOM     57  C   UNL A   1      48.106  26.952  27.009  1.00  0.00     0.031 A 
ATOM     58  C   UNL A   1      42.936  30.242  29.242  1.00  0.00     0.049 A 
ATOM     59  C   UNL A   1      47.907  28.370  27.471  1.00  0.00     0.074 A 
ATOM     60  C   UNL A   1      42.894  31.542  29.717  1.00  0.00     0.029 A 
ATOM     61  N   UNL A   1      44.244  30.004  28.846  1.00  0.00    -0.354 N 
ATOM     62  N   UNL A   1      46.818  28.946  27.922  1.00  0.00    -0.248 NA
ATOM     63  C   UNL A   1      49.082  29.252  27.432  1.00  0.00     0.031 C 
ATOM     64  C   UNL A   1      44.161  32.109  29.550  1.00  0.00     0.029 A 
ATOM     65  C   UNL A   1      45.011  31.141  29.038  1.00  0.00     0.049 A 
ATOM     66  H   UNL A   1      44.578  29.151  28.483  1.00  0.00     0.167 HD
ATOM     67  C   UNL A   1      47.185  30.247  28.248  1.00  0.00     0.074 A 
ATOM     68  C   UNL A   1      48.598  30.368  27.958  1.00  0.00     0.031 C 
ATOM     69  C   UNL A   1      46.418  31.251  28.745  1.00  0.00     0.031 A 
BRANCH  56  70
ATOM     70  C   UNL A   1      40.476  29.733  29.547  1.00  0.00    -0.014 A 
ATOM     71  C   UNL A   1      40.092  29.802  30.899  1.00  0.00     0.010 A 
ATOM     72  C   UNL A   1      39.558  30.130  28.557  1.00  0.00     0.010 A 
ATOM     73  C   UNL A   1      38.805  30.218  31.250  1.00  0.00     0.020 A 
ATOM     74  C   UNL A   1      38.281  30.578  28.905  1.00  0.00     0.020 A 
ATOM     75  C   UNL A   1      37.907  30.602  30.251  1.00  0.00     0.054 A 
BRANCH  75  76
ATOM     76  S   UNL A   1      36.251  31.160  30.739  1.00  0.00     0.124 S 
ATOM     77  O   UNL A   1      35.942  30.253  31.841  1.00  0.00    -0.237 OA
ATOM     78  O   UNL A   1      36.482  32.552  31.117  1.00  0.00    -0.237 OA
ATOM     79  O   UNL A   1      35.450  30.970  29.533  1.00  0.00    -0.744 OA
ENDBRANCH  75  76
ENDBRANCH  56  70
BRANCH  57  80
ATOM     80  C   UNL A   1      49.438  26.483  26.533  1.00  0.00    -0.014 A 
ATOM     81  C   UNL A   1      49.856  26.730  25.214  1.00  0.00     0.010 A 
ATOM     82  C   UNL A   1      50.300  25.790  27.404  1.00  0.00     0.010 A 
ATOM     83  C   UNL A   1      51.102  26.276  24.769  1.00  0.00     0.020 A 
ATOM     84  C   UNL A   1      51.560  25.365  26.972  1.00  0.00     0.020 A 
ATOM     85  C   UNL A   1      51.947  25.601  25.652  1.00  0.00     0.054 A 
BRANCH  85  86
ATOM     86  S   UNL A   1      53.579  25.068  25.065  1.00  0.00     0.124 S 
ATOM     87  O   UNL A   1      53.574  25.536  23.683  1.00  0.00    -0.237 OA
ATOM     88  O   UNL A   1      54.484  25.773  25.970  1.00  0.00    -0.237 OA
ATOM     89  O   UNL A   1      53.548  23.617  25.236  1.00  0.00    -0.744 OA
ENDBRANCH  85  86
ENDBRANCH  57  80
BRANCH  69  90
ATOM     90  C   UNL A   1      47.098  32.561  29.046  1.00  0.00    -0.014 A 
ATOM     91  C   UNL A   1      47.149  33.597  28.097  1.00  0.00     0.010 A 
ATOM     92  C   UNL A   1      47.645  32.777  30.325  1.00  0.00     0.010 A 
ATOM     93  C   UNL A   1      47.764  34.812  28.410  1.00  0.00     0.020 A 
ATOM     94  C   UNL A   1      48.231  34.001  30.653  1.00  0.00     0.020 A 
ATOM     95  C   UNL A   1      48.300  35.007  29.688  1.00  0.00     0.054 A 
BRANCH  95  96
ATOM     96  S   UNL A   1      49.051  36.610  30.083  1.00  0.00     0.124 S 
ATOM     97  O   UNL A   1      49.509  36.402  31.454  1.00  0.00    -0.237 OA
ATOM     98  O   UNL A   1      50.106  36.725  29.078  1.00  0.00    -0.237 OA
ATOM     99  O   UNL A   1      47.949  37.558  29.932  1.00  0.00    -0.744 OA
ENDBRANCH  95  96
ENDBRANCH  69  90
ENDBRANCH  43  44
ENDBRANCH  35  38
ENDBRANCH  33  34
ENDBRANCH   1  33
TORSDOF 17
ENDMDL
