MODEL 1
REMARK VINA RESULT:     -10.8      0.000      0.000
REMARK SMILES C=Cc1cncc(-c2ccc([C@@H](C)C(=O)NCCCCNC(=O)c3ccc(-c4c5nc(c(-c6ccc(S(=O)(=O)[O-])cc6)c6ccc([nH]6)c(-c6ccc(S(=O)(=O)[O-])cc6)c6nc(c(-c7ccc(S(=O)(=O)[O-])cc7)c7ccc4[nH]7)C=C6)C=C5)cc3)cc2)c1
REMARK SMILES IDX 18 1 17 2 16 3 14 4 15 5 12 7 13 8 11 9 8 10 9 11 85 12
REMARK SMILES IDX 10 13 84 14 7 15 3 16 4 17 86 18 5 19 6 20 2 21 1 22 19 23
REMARK SMILES IDX 20 24 21 25 22 26 23 28 24 29 25 30 83 31 26 32 82 33 27 34
REMARK SMILES IDX 28 35 29 36 76 37 30 38 81 39 75 40 77 41 31 42 80 43 74 44
REMARK SMILES IDX 73 45 32 47 62 48 43 49 61 50 44 51 47 52 60 53 78 54 45 55
REMARK SMILES IDX 46 56 59 58 79 59 48 60 33 61 34 62 42 63 35 64 41 65 36 66
REMARK SMILES IDX 37 67 38 68 39 69 40 70 63 71 64 72 72 73 65 74 71 75 66 76
REMARK SMILES IDX 67 77 68 78 69 79 70 80 49 81 50 82 58 83 51 84 57 85 52 86
REMARK SMILES IDX 53 87 54 88 55 89 56 90
REMARK H PARENT 16 6 21 27 77 46 47 57
REMARK Flexibility Score: inf
ROOT
ATOM      1  C   UNL A   1      31.605  28.367  25.831  1.00  0.00     0.023 C 
ENDROOT
BRANCH   1   2
ATOM      2  C   UNL A   1      32.308  28.217  24.481  1.00  0.00     0.116 C 
BRANCH   2   3
ATOM      3  N   UNL A   1      31.466  28.631  23.377  1.00  0.00    -0.356 N 
ATOM      4  C   UNL A   1      30.466  27.984  22.718  1.00  0.00     0.227 C 
ATOM      5  O   UNL A   1      29.970  28.572  21.748  1.00  0.00    -0.274 OA
ATOM      6  H   UNL A   1      31.651  29.539  23.044  1.00  0.00     0.163 HD
BRANCH   4   7
ATOM      7  C   UNL A   1      29.930  26.602  23.126  1.00  0.00     0.105 C 
ATOM      8  C   UNL A   1      28.734  26.663  24.076  1.00  0.00     0.023 C 
BRANCH   7   9
ATOM      9  C   UNL A   1      31.029  25.611  23.480  1.00  0.00    -0.036 A 
ATOM     10  C   UNL A   1      32.896  23.552  24.151  1.00  0.00    -0.017 A 
ATOM     11  C   UNL A   1      32.910  24.182  22.896  1.00  0.00     0.009 A 
ATOM     12  C   UNL A   1      31.959  24.021  25.085  1.00  0.00     0.009 A 
ATOM     13  C   UNL A   1      32.017  25.213  22.578  1.00  0.00     0.005 A 
ATOM     14  C   UNL A   1      31.032  25.018  24.751  1.00  0.00     0.005 A 
BRANCH  10  15
ATOM     15  C   UNL A   1      33.808  22.428  24.454  1.00  0.00     0.001 A 
ATOM     16  C   UNL A   1      34.294  20.037  24.629  1.00  0.00    -0.007 A 
ATOM     17  C   UNL A   1      35.597  20.385  24.968  1.00  0.00     0.119 A 
ATOM     18  C   UNL A   1      33.397  21.085  24.380  1.00  0.00     0.020 A 
ATOM     19  N   UNL A   1      36.046  21.655  25.066  1.00  0.00    -0.263 NA
ATOM     20  C   UNL A   1      35.144  22.633  24.807  1.00  0.00     0.119 A 
BRANCH  16  21
ATOM     21  C   UNL A   1      33.901  18.624  24.601  1.00  0.00     0.002 C 
ATOM     22  C   UNL A   1      32.647  18.186  24.766  1.00  0.00     0.009 C 
ENDBRANCH  16  21
ENDBRANCH  10  15
ENDBRANCH   7   9
ENDBRANCH   4   7
ENDBRANCH   2   3
ENDBRANCH   1   2
BRANCH   1  23
ATOM     23  C   UNL A   1      32.373  27.805  27.027  1.00  0.00     0.023 C 
BRANCH  23  24
ATOM     24  C   UNL A   1      33.712  28.475  27.316  1.00  0.00     0.116 C 
BRANCH  24  25
ATOM     25  N   UNL A   1      33.612  29.891  27.621  1.00  0.00    -0.352 N 
ATOM     26  C   UNL A   1      34.576  30.727  28.148  1.00  0.00     0.251 C 
ATOM     27  H   UNL A   1      32.742  30.310  27.427  1.00  0.00     0.163 HD
ATOM     28  O   UNL A   1      34.299  31.884  28.422  1.00  0.00    -0.269 OA
BRANCH  26  29
ATOM     29  C   UNL A   1      35.929  30.191  28.418  1.00  0.00     0.039 A 
ATOM     30  C   UNL A   1      36.885  30.237  27.400  1.00  0.00     0.014 A 
ATOM     31  C   UNL A   1      36.263  29.674  29.671  1.00  0.00     0.014 A 
ATOM     32  C   UNL A   1      38.192  29.817  27.660  1.00  0.00     0.010 A 
ATOM     33  C   UNL A   1      37.583  29.334  29.953  1.00  0.00     0.010 A 
ATOM     34  C   UNL A   1      38.559  29.391  28.947  1.00  0.00    -0.014 A 
BRANCH  34  35
ATOM     35  C   UNL A   1      39.952  28.978  29.251  1.00  0.00     0.031 A 
ATOM     36  C   UNL A   1      40.890  29.937  29.934  1.00  0.00     0.074 A 
ATOM     37  C   UNL A   1      40.387  27.760  28.870  1.00  0.00     0.049 A 
ATOM     38  N   UNL A   1      42.144  29.769  30.265  1.00  0.00    -0.248 NA
ATOM     39  C   UNL A   1      40.359  31.272  30.260  1.00  0.00     0.031 C 
ATOM     40  C   UNL A   1      39.593  26.762  28.148  1.00  0.00     0.029 A 
ATOM     41  N   UNL A   1      41.607  27.155  29.037  1.00  0.00    -0.354 N 
ATOM     42  C   UNL A   1      42.555  30.976  30.817  1.00  0.00     0.074 A 
ATOM     43  C   UNL A   1      41.436  31.887  30.724  1.00  0.00     0.031 C 
ATOM     44  C   UNL A   1      40.336  25.657  27.967  1.00  0.00     0.029 A 
ATOM     45  C   UNL A   1      41.663  25.877  28.533  1.00  0.00     0.049 A 
ATOM     46  H   UNL A   1      42.370  27.594  29.477  1.00  0.00     0.167 HD
ATOM     47  C   UNL A   1      43.747  31.294  31.378  1.00  0.00     0.031 A 
ATOM     48  C   UNL A   1      42.669  24.981  28.533  1.00  0.00     0.031 A 
ATOM     49  C   UNL A   1      44.851  30.380  31.491  1.00  0.00     0.049 A 
ATOM     50  C   UNL A   1      43.973  25.345  29.186  1.00  0.00     0.074 A 
ATOM     51  C   UNL A   1      46.077  30.581  32.100  1.00  0.00     0.029 A 
ATOM     52  N   UNL A   1      44.859  29.087  30.990  1.00  0.00    -0.354 N 
ATOM     53  N   UNL A   1      44.316  26.468  29.769  1.00  0.00    -0.248 NA
ATOM     54  C   UNL A   1      45.019  24.313  29.195  1.00  0.00     0.031 C 
ATOM     55  C   UNL A   1      46.843  29.422  31.930  1.00  0.00     0.029 A 
ATOM     56  C   UNL A   1      46.075  28.483  31.260  1.00  0.00     0.049 A 
ATOM     57  H   UNL A   1      44.111  28.661  30.512  1.00  0.00     0.167 HD
ATOM     58  C   UNL A   1      45.612  26.271  30.234  1.00  0.00     0.074 A 
ATOM     59  C   UNL A   1      45.981  24.915  29.882  1.00  0.00     0.031 C 
ATOM     60  C   UNL A   1      46.426  27.135  30.892  1.00  0.00     0.031 A 
BRANCH  47  61
ATOM     61  C   UNL A   1      43.908  32.693  31.913  1.00  0.00    -0.014 A 
ATOM     62  C   UNL A   1      44.377  33.733  31.090  1.00  0.00     0.010 A 
ATOM     63  C   UNL A   1      43.571  32.976  33.248  1.00  0.00     0.010 A 
ATOM     64  C   UNL A   1      44.554  35.020  31.606  1.00  0.00     0.020 A 
ATOM     65  C   UNL A   1      43.718  34.269  33.760  1.00  0.00     0.020 A 
ATOM     66  C   UNL A   1      44.229  35.278  32.940  1.00  0.00     0.054 A 
BRANCH  66  67
ATOM     67  S   UNL A   1      44.456  36.959  33.581  1.00  0.00     0.124 S 
ATOM     68  O   UNL A   1      43.920  36.839  34.935  1.00  0.00    -0.237 OA
ATOM     69  O   UNL A   1      45.903  37.144  33.494  1.00  0.00    -0.237 OA
ATOM     70  O   UNL A   1      43.669  37.787  32.671  1.00  0.00    -0.744 OA
ENDBRANCH  66  67
ENDBRANCH  47  61
BRANCH  48  71
ATOM     71  C   UNL A   1      42.467  23.637  27.925  1.00  0.00    -0.014 A 
ATOM     72  C   UNL A   1      42.878  23.384  26.604  1.00  0.00     0.010 A 
ATOM     73  C   UNL A   1      41.874  22.600  28.667  1.00  0.00     0.010 A 
ATOM     74  C   UNL A   1      42.682  22.126  26.029  1.00  0.00     0.020 A 
ATOM     75  C   UNL A   1      41.699  21.332  28.103  1.00  0.00     0.020 A 
ATOM     76  C   UNL A   1      42.094  21.106  26.784  1.00  0.00     0.054 A 
BRANCH  76  77
ATOM     77  S   UNL A   1      41.897  19.465  26.034  1.00  0.00     0.124 S 
ATOM     78  O   UNL A   1      42.397  18.588  27.088  1.00  0.00    -0.237 OA
ATOM     79  O   UNL A   1      40.459  19.401  25.786  1.00  0.00    -0.237 OA
ATOM     80  O   UNL A   1      42.725  19.539  24.833  1.00  0.00    -0.744 OA
ENDBRANCH  76  77
ENDBRANCH  48  71
BRANCH  60  81
ATOM     81  C   UNL A   1      47.785  26.628  31.289  1.00  0.00    -0.014 A 
ATOM     82  C   UNL A   1      48.882  26.730  30.416  1.00  0.00     0.010 A 
ATOM     83  C   UNL A   1      47.974  26.073  32.569  1.00  0.00     0.010 A 
ATOM     84  C   UNL A   1      50.136  26.248  30.799  1.00  0.00     0.020 A 
ATOM     85  C   UNL A   1      49.232  25.613  32.965  1.00  0.00     0.020 A 
ATOM     86  C   UNL A   1      50.302  25.688  32.069  1.00  0.00     0.054 A 
BRANCH  86  87
ATOM     87  S   UNL A   1      51.944  25.090  32.555  1.00  0.00     0.124 S 
ATOM     88  O   UNL A   1      51.824  23.653  32.320  1.00  0.00    -0.237 OA
ATOM     89  O   UNL A   1      52.831  25.805  31.639  1.00  0.00    -0.237 OA
ATOM     90  O   UNL A   1      52.056  25.485  33.957  1.00  0.00    -0.744 OA
ENDBRANCH  86  87
ENDBRANCH  60  81
ENDBRANCH  34  35
ENDBRANCH  26  29
ENDBRANCH  24  25
ENDBRANCH  23  24
ENDBRANCH   1  23
TORSDOF 17
ENDMDL
MODEL 2
REMARK VINA RESULT:     -10.6      3.711      9.789
REMARK SMILES C=Cc1cncc(-c2ccc([C@@H](C)C(=O)NCCCCNC(=O)c3ccc(-c4c5nc(c(-c6ccc(S(=O)(=O)[O-])cc6)c6ccc([nH]6)c(-c6ccc(S(=O)(=O)[O-])cc6)c6nc(c(-c7ccc(S(=O)(=O)[O-])cc7)c7ccc4[nH]7)C=C6)C=C5)cc3)cc2)c1
REMARK SMILES IDX 18 1 17 2 16 3 14 4 15 5 12 7 13 8 11 9 8 10 9 11 85 12
REMARK SMILES IDX 10 13 84 14 7 15 3 16 4 17 86 18 5 19 6 20 2 21 1 22 19 23
REMARK SMILES IDX 20 24 21 25 22 26 23 28 24 29 25 30 83 31 26 32 82 33 27 34
REMARK SMILES IDX 28 35 29 36 76 37 30 38 81 39 75 40 77 41 31 42 80 43 74 44
REMARK SMILES IDX 73 45 32 47 62 48 43 49 61 50 44 51 47 52 60 53 78 54 45 55
REMARK SMILES IDX 46 56 59 58 79 59 48 60 33 61 34 62 42 63 35 64 41 65 36 66
REMARK SMILES IDX 37 67 38 68 39 69 40 70 63 71 64 72 72 73 65 74 71 75 66 76
REMARK SMILES IDX 67 77 68 78 69 79 70 80 49 81 50 82 58 83 51 84 57 85 52 86
REMARK SMILES IDX 53 87 54 88 55 89 56 90
REMARK H PARENT 16 6 21 27 77 46 47 57
REMARK Flexibility Score: inf
ROOT
ATOM      1  C   UNL A   1      39.234  22.948  26.164  1.00  0.00     0.023 C 
ENDROOT
BRANCH   1   2
ATOM      2  C   UNL A   1      37.808  23.482  26.022  1.00  0.00     0.116 C 
BRANCH   2   3
ATOM      3  N   UNL A   1      36.814  22.458  26.274  1.00  0.00    -0.356 N 
ATOM      4  C   UNL A   1      35.768  22.018  25.522  1.00  0.00     0.227 C 
ATOM      5  O   UNL A   1      35.031  21.169  26.040  1.00  0.00    -0.274 OA
ATOM      6  H   UNL A   1      36.911  22.003  27.141  1.00  0.00     0.163 HD
BRANCH   4   7
ATOM      7  C   UNL A   1      35.480  22.504  24.092  1.00  0.00     0.105 C 
ATOM      8  C   UNL A   1      36.738  22.717  23.252  1.00  0.00     0.023 C 
BRANCH   7   9
ATOM      9  C   UNL A   1      34.427  23.602  24.031  1.00  0.00    -0.036 A 
ATOM     10  C   UNL A   1      32.656  25.838  23.838  1.00  0.00    -0.017 A 
ATOM     11  C   UNL A   1      32.580  24.756  22.945  1.00  0.00     0.009 A 
ATOM     12  C   UNL A   1      33.604  25.744  24.869  1.00  0.00     0.009 A 
ATOM     13  C   UNL A   1      33.426  23.646  23.059  1.00  0.00     0.005 A 
ATOM     14  C   UNL A   1      34.484  24.657  24.953  1.00  0.00     0.005 A 
BRANCH  10  15
ATOM     15  C   UNL A   1      31.794  27.028  23.673  1.00  0.00     0.001 A 
ATOM     16  C   UNL A   1      31.091  29.283  24.311  1.00  0.00    -0.007 A 
ATOM     17  C   UNL A   1      30.191  29.240  23.251  1.00  0.00     0.119 A 
ATOM     18  C   UNL A   1      31.889  28.149  24.516  1.00  0.00     0.020 A 
ATOM     19  N   UNL A   1      30.046  28.189  22.415  1.00  0.00    -0.263 NA
ATOM     20  C   UNL A   1      30.848  27.121  22.648  1.00  0.00     0.119 A 
BRANCH  16  21
ATOM     21  C   UNL A   1      31.129  30.458  25.187  1.00  0.00     0.002 C 
ATOM     22  C   UNL A   1      31.884  30.554  26.288  1.00  0.00     0.009 C 
ENDBRANCH  16  21
ENDBRANCH  10  15
ENDBRANCH   7   9
ENDBRANCH   4   7
ENDBRANCH   2   3
ENDBRANCH   1   2
BRANCH   1  23
ATOM     23  C   UNL A   1      39.341  21.498  26.633  1.00  0.00     0.023 C 
BRANCH  23  24
ATOM     24  C   UNL A   1      39.772  20.497  25.566  1.00  0.00     0.116 C 
BRANCH  24  25
ATOM     25  N   UNL A   1      40.628  19.435  26.065  1.00  0.00    -0.352 N 
ATOM     26  C   UNL A   1      41.882  19.537  26.635  1.00  0.00     0.251 C 
ATOM     27  H   UNL A   1      40.267  18.522  25.987  1.00  0.00     0.163 HD
ATOM     28  O   UNL A   1      42.505  18.529  26.928  1.00  0.00    -0.269 OA
BRANCH  26  29
ATOM     29  C   UNL A   1      42.475  20.877  26.840  1.00  0.00     0.039 A 
ATOM     30  C   UNL A   1      42.872  21.614  25.721  1.00  0.00     0.014 A 
ATOM     31  C   UNL A   1      42.615  21.416  28.121  1.00  0.00     0.014 A 
ATOM     32  C   UNL A   1      43.354  22.916  25.887  1.00  0.00     0.010 A 
ATOM     33  C   UNL A   1      43.016  22.739  28.278  1.00  0.00     0.010 A 
ATOM     34  C   UNL A   1      43.400  23.499  27.163  1.00  0.00    -0.014 A 
BRANCH  34  35
ATOM     35  C   UNL A   1      43.873  24.894  27.354  1.00  0.00     0.031 A 
ATOM     36  C   UNL A   1      45.312  25.245  27.085  1.00  0.00     0.074 A 
ATOM     37  C   UNL A   1      43.022  25.832  27.816  1.00  0.00     0.049 A 
ATOM     38  N   UNL A   1      45.917  26.398  27.212  1.00  0.00    -0.248 NA
ATOM     39  C   UNL A   1      46.195  24.151  26.646  1.00  0.00     0.031 C 
ATOM     40  C   UNL A   1      41.618  25.604  28.170  1.00  0.00     0.029 A 
ATOM     41  N   UNL A   1      43.214  27.167  28.066  1.00  0.00    -0.354 N 
ATOM     42  C   UNL A   1      47.248  26.164  26.888  1.00  0.00     0.074 A 
ATOM     43  C   UNL A   1      47.375  24.749  26.617  1.00  0.00     0.031 C 
ATOM     44  C   UNL A   1      41.068  26.767  28.558  1.00  0.00     0.029 A 
ATOM     45  C   UNL A   1      42.083  27.814  28.506  1.00  0.00     0.049 A 
ATOM     46  H   UNL A   1      44.079  27.619  27.941  1.00  0.00     0.167 HD
ATOM     47  C   UNL A   1      48.270  27.049  26.798  1.00  0.00     0.031 A 
ATOM     48  C   UNL A   1      41.886  29.108  28.826  1.00  0.00     0.031 A 
ATOM     49  C   UNL A   1      48.137  28.459  27.045  1.00  0.00     0.049 A 
ATOM     50  C   UNL A   1      43.027  30.078  28.690  1.00  0.00     0.074 A 
ATOM     51  C   UNL A   1      49.093  29.450  26.917  1.00  0.00     0.029 A 
ATOM     52  N   UNL A   1      46.969  29.079  27.465  1.00  0.00    -0.354 N 
ATOM     53  N   UNL A   1      44.261  29.849  28.310  1.00  0.00    -0.248 NA
ATOM     54  C   UNL A   1      42.742  31.483  29.010  1.00  0.00     0.031 C 
ATOM     55  C   UNL A   1      48.514  30.666  27.300  1.00  0.00     0.029 A 
ATOM     56  C   UNL A   1      47.184  30.437  27.618  1.00  0.00     0.049 A 
ATOM     57  H   UNL A   1      46.114  28.620  27.630  1.00  0.00     0.167 HD
ATOM     58  C   UNL A   1      44.896  31.086  28.325  1.00  0.00     0.074 A 
ATOM     59  C   UNL A   1      43.904  32.060  28.731  1.00  0.00     0.031 C 
ATOM     60  C   UNL A   1      46.186  31.389  28.032  1.00  0.00     0.031 A 
BRANCH  47  61
ATOM     61  C   UNL A   1      49.621  26.507  26.410  1.00  0.00    -0.014 A 
ATOM     62  C   UNL A   1      50.427  25.833  27.346  1.00  0.00     0.010 A 
ATOM     63  C   UNL A   1      50.085  26.657  25.091  1.00  0.00     0.010 A 
ATOM     64  C   UNL A   1      51.692  25.364  26.984  1.00  0.00     0.020 A 
ATOM     65  C   UNL A   1      51.338  26.163  24.716  1.00  0.00     0.020 A 
ATOM     66  C   UNL A   1      52.142  25.537  25.673  1.00  0.00     0.054 A 
BRANCH  66  67
ATOM     67  S   UNL A   1      53.784  24.908  25.226  1.00  0.00     0.124 S 
ATOM     68  O   UNL A   1      53.537  23.471  25.128  1.00  0.00    -0.237 OA
ATOM     69  O   UNL A   1      54.054  25.584  23.960  1.00  0.00    -0.237 OA
ATOM     70  O   UNL A   1      54.629  25.320  26.343  1.00  0.00    -0.744 OA
ENDBRANCH  66  67
ENDBRANCH  47  61
BRANCH  48  71
ATOM     71  C   UNL A   1      40.541  29.567  29.269  1.00  0.00    -0.014 A 
ATOM     72  C   UNL A   1      40.306  29.883  30.619  1.00  0.00     0.010 A 
ATOM     73  C   UNL A   1      39.492  29.702  28.343  1.00  0.00     0.010 A 
ATOM     74  C   UNL A   1      39.043  30.306  31.039  1.00  0.00     0.020 A 
ATOM     75  C   UNL A   1      38.232  30.150  28.755  1.00  0.00     0.020 A 
ATOM     76  C   UNL A   1      38.013  30.438  30.103  1.00  0.00     0.054 A 
BRANCH  76  77
ATOM     77  S   UNL A   1      36.394  31.039  30.661  1.00  0.00     0.124 S 
ATOM     78  O   UNL A   1      36.715  32.382  31.134  1.00  0.00    -0.237 OA
ATOM     79  O   UNL A   1      35.593  30.971  29.442  1.00  0.00    -0.237 OA
ATOM     80  O   UNL A   1      36.016  30.081  31.699  1.00  0.00    -0.744 OA
ENDBRANCH  76  77
ENDBRANCH  48  71
BRANCH  60  81
ATOM     81  C   UNL A   1      46.586  32.837  28.121  1.00  0.00    -0.014 A 
ATOM     82  C   UNL A   1      47.102  33.376  29.312  1.00  0.00     0.010 A 
ATOM     83  C   UNL A   1      46.474  33.660  26.984  1.00  0.00     0.010 A 
ATOM     84  C   UNL A   1      47.463  34.724  29.378  1.00  0.00     0.020 A 
ATOM     85  C   UNL A   1      46.858  35.001  27.039  1.00  0.00     0.020 A 
ATOM     86  C   UNL A   1      47.334  35.529  28.242  1.00  0.00     0.054 A 
BRANCH  86  87
ATOM     87  S   UNL A   1      47.829  37.271  28.344  1.00  0.00     0.124 S 
ATOM     88  O   UNL A   1      49.184  37.169  28.880  1.00  0.00    -0.237 OA
ATOM     89  O   UNL A   1      47.735  37.714  26.954  1.00  0.00    -0.237 OA
ATOM     90  O   UNL A   1      46.843  37.859  29.247  1.00  0.00    -0.744 OA
ENDBRANCH  86  87
ENDBRANCH  60  81
ENDBRANCH  34  35
ENDBRANCH  26  29
ENDBRANCH  24  25
ENDBRANCH  23  24
ENDBRANCH   1  23
TORSDOF 17
ENDMDL
MODEL 3
REMARK VINA RESULT:     -10.3      2.716      8.566
REMARK SMILES C=Cc1cncc(-c2ccc([C@@H](C)C(=O)NCCCCNC(=O)c3ccc(-c4c5nc(c(-c6ccc(S(=O)(=O)[O-])cc6)c6ccc([nH]6)c(-c6ccc(S(=O)(=O)[O-])cc6)c6nc(c(-c7ccc(S(=O)(=O)[O-])cc7)c7ccc4[nH]7)C=C6)C=C5)cc3)cc2)c1
REMARK SMILES IDX 18 1 17 2 16 3 14 4 15 5 12 7 13 8 11 9 8 10 9 11 85 12
REMARK SMILES IDX 10 13 84 14 7 15 3 16 4 17 86 18 5 19 6 20 2 21 1 22 19 23
REMARK SMILES IDX 20 24 21 25 22 26 23 28 24 29 25 30 83 31 26 32 82 33 27 34
REMARK SMILES IDX 28 35 29 36 76 37 30 38 81 39 75 40 77 41 31 42 80 43 74 44
REMARK SMILES IDX 73 45 32 47 62 48 43 49 61 50 44 51 47 52 60 53 78 54 45 55
REMARK SMILES IDX 46 56 59 58 79 59 48 60 33 61 34 62 42 63 35 64 41 65 36 66
REMARK SMILES IDX 37 67 38 68 39 69 40 70 63 71 64 72 72 73 65 74 71 75 66 76
REMARK SMILES IDX 67 77 68 78 69 79 70 80 49 81 50 82 58 83 51 84 57 85 52 86
REMARK SMILES IDX 53 87 54 88 55 89 56 90
REMARK H PARENT 16 6 21 27 77 46 47 57
REMARK Flexibility Score: inf
ROOT
ATOM      1  C   UNL A   1      33.311  28.890  24.733  1.00  0.00     0.023 C 
ENDROOT
BRANCH   1   2
ATOM      2  C   UNL A   1      33.736  28.020  23.549  1.00  0.00     0.116 C 
BRANCH   2   3
ATOM      3  N   UNL A   1      32.678  27.874  22.570  1.00  0.00    -0.356 N 
ATOM      4  C   UNL A   1      31.626  27.011  22.505  1.00  0.00     0.227 C 
ATOM      5  O   UNL A   1      30.919  27.075  21.492  1.00  0.00    -0.274 OA
ATOM      6  H   UNL A   1      32.729  28.510  21.820  1.00  0.00     0.163 HD
BRANCH   4   7
ATOM      7  C   UNL A   1      31.281  26.002  23.612  1.00  0.00     0.105 C 
ATOM      8  C   UNL A   1      30.435  26.593  24.739  1.00  0.00     0.023 C 
BRANCH   7   9
ATOM      9  C   UNL A   1      32.464  25.140  24.030  1.00  0.00    -0.036 A 
ATOM     10  C   UNL A   1      34.850  23.712  24.693  1.00  0.00    -0.017 A 
ATOM     11  C   UNL A   1      34.057  24.322  25.678  1.00  0.00     0.009 A 
ATOM     12  C   UNL A   1      34.386  23.784  23.371  1.00  0.00     0.009 A 
ATOM     13  C   UNL A   1      32.871  24.994  25.357  1.00  0.00     0.005 A 
ATOM     14  C   UNL A   1      33.226  24.499  23.042  1.00  0.00     0.005 A 
BRANCH  10  15
ATOM     15  C   UNL A   1      36.129  23.054  25.040  1.00  0.00     0.001 A 
ATOM     16  C   UNL A   1      38.318  23.042  26.130  1.00  0.00    -0.007 A 
ATOM     17  C   UNL A   1      38.459  21.725  25.704  1.00  0.00     0.119 A 
ATOM     18  C   UNL A   1      37.134  23.704  25.777  1.00  0.00     0.020 A 
ATOM     19  N   UNL A   1      37.534  21.053  24.985  1.00  0.00    -0.263 NA
ATOM     20  C   UNL A   1      36.403  21.732  24.677  1.00  0.00     0.119 A 
BRANCH  16  21
ATOM     21  C   UNL A   1      39.410  23.691  26.864  1.00  0.00     0.002 C 
ATOM     22  C   UNL A   1      39.865  24.923  26.606  1.00  0.00     0.009 C 
ENDBRANCH  16  21
ENDBRANCH  10  15
ENDBRANCH   7   9
ENDBRANCH   4   7
ENDBRANCH   2   3
ENDBRANCH   1   2
BRANCH   1  23
ATOM     23  C   UNL A   1      33.757  28.381  26.104  1.00  0.00     0.023 C 
BRANCH  23  24
ATOM     24  C   UNL A   1      34.734  29.284  26.849  1.00  0.00     0.116 C 
BRANCH  24  25
ATOM     25  N   UNL A   1      34.207  30.604  27.148  1.00  0.00    -0.352 N 
ATOM     26  C   UNL A   1      34.686  31.536  28.049  1.00  0.00     0.251 C 
ATOM     27  H   UNL A   1      33.405  30.870  26.644  1.00  0.00     0.163 HD
ATOM     28  O   UNL A   1      34.072  32.574  28.239  1.00  0.00    -0.269 OA
BRANCH  26  29
ATOM     29  C   UNL A   1      35.921  31.240  28.808  1.00  0.00     0.039 A 
ATOM     30  C   UNL A   1      35.895  30.217  29.760  1.00  0.00     0.014 A 
ATOM     31  C   UNL A   1      37.102  31.944  28.567  1.00  0.00     0.014 A 
ATOM     32  C   UNL A   1      37.071  29.863  30.426  1.00  0.00     0.010 A 
ATOM     33  C   UNL A   1      38.289  31.537  29.169  1.00  0.00     0.010 A 
ATOM     34  C   UNL A   1      38.283  30.499  30.113  1.00  0.00    -0.014 A 
BRANCH  34  35
ATOM     35  C   UNL A   1      39.550  30.109  30.783  1.00  0.00     0.031 A 
ATOM     36  C   UNL A   1      40.392  28.999  30.214  1.00  0.00     0.074 A 
ATOM     37  C   UNL A   1      39.917  30.719  31.928  1.00  0.00     0.049 A 
ATOM     38  N   UNL A   1      41.516  28.503  30.664  1.00  0.00    -0.248 NA
ATOM     39  C   UNL A   1      39.891  28.338  28.997  1.00  0.00     0.031 C 
ATOM     40  C   UNL A   1      39.156  31.769  32.613  1.00  0.00     0.029 A 
ATOM     41  N   UNL A   1      41.024  30.543  32.719  1.00  0.00    -0.354 N 
ATOM     42  C   UNL A   1      41.844  27.464  29.800  1.00  0.00     0.074 A 
ATOM     43  C   UNL A   1      40.772  27.363  28.835  1.00  0.00     0.031 C 
ATOM     44  C   UNL A   1      39.838  32.166  33.700  1.00  0.00     0.029 A 
ATOM     45  C   UNL A   1      41.065  31.385  33.805  1.00  0.00     0.049 A 
ATOM     46  H   UNL A   1      41.723  29.879  32.526  1.00  0.00     0.167 HD
ATOM     47  C   UNL A   1      42.949  26.681  29.792  1.00  0.00     0.031 A 
ATOM     48  C   UNL A   1      41.992  31.516  34.774  1.00  0.00     0.031 A 
ATOM     49  C   UNL A   1      44.025  26.800  30.738  1.00  0.00     0.049 A 
ATOM     50  C   UNL A   1      43.225  30.656  34.729  1.00  0.00     0.074 A 
ATOM     51  C   UNL A   1      45.218  26.101  30.778  1.00  0.00     0.029 A 
ATOM     52  N   UNL A   1      44.040  27.681  31.809  1.00  0.00    -0.354 N 
ATOM     53  N   UNL A   1      43.551  29.730  33.859  1.00  0.00    -0.248 NA
ATOM     54  C   UNL A   1      44.222  30.873  35.785  1.00  0.00     0.031 C 
ATOM     55  C   UNL A   1      45.938  26.531  31.898  1.00  0.00     0.029 A 
ATOM     56  C   UNL A   1      45.214  27.532  32.527  1.00  0.00     0.049 A 
ATOM     57  H   UNL A   1      43.322  28.317  32.027  1.00  0.00     0.167 HD
ATOM     58  C   UNL A   1      44.802  29.267  34.253  1.00  0.00     0.074 A 
ATOM     59  C   UNL A   1      45.181  30.030  35.424  1.00  0.00     0.031 C 
ATOM     60  C   UNL A   1      45.568  28.295  33.696  1.00  0.00     0.031 A 
BRANCH  47  61
ATOM     61  C   UNL A   1      43.044  25.630  28.717  1.00  0.00    -0.014 A 
ATOM     62  C   UNL A   1      42.753  24.282  28.996  1.00  0.00     0.010 A 
ATOM     63  C   UNL A   1      43.409  25.995  27.409  1.00  0.00     0.010 A 
ATOM     64  C   UNL A   1      42.876  23.310  27.999  1.00  0.00     0.020 A 
ATOM     65  C   UNL A   1      43.505  25.030  26.402  1.00  0.00     0.020 A 
ATOM     66  C   UNL A   1      43.257  23.690  26.710  1.00  0.00     0.054 A 
BRANCH  66  67
ATOM     67  S   UNL A   1      43.397  22.410  25.432  1.00  0.00     0.124 S 
ATOM     68  O   UNL A   1      43.784  23.196  24.262  1.00  0.00    -0.237 OA
ATOM     69  O   UNL A   1      44.434  21.532  25.968  1.00  0.00    -0.237 OA
ATOM     70  O   UNL A   1      42.059  21.828  25.375  1.00  0.00    -0.744 OA
ENDBRANCH  66  67
ENDBRANCH  47  61
BRANCH  48  71
ATOM     71  C   UNL A   1      41.806  32.529  35.850  1.00  0.00    -0.014 A 
ATOM     72  C   UNL A   1      41.147  32.186  37.043  1.00  0.00     0.010 A 
ATOM     73  C   UNL A   1      42.297  33.837  35.690  1.00  0.00     0.010 A 
ATOM     74  C   UNL A   1      40.964  33.137  38.050  1.00  0.00     0.020 A 
ATOM     75  C   UNL A   1      42.138  34.785  36.706  1.00  0.00     0.020 A 
ATOM     76  C   UNL A   1      41.462  34.432  37.875  1.00  0.00     0.054 A 
BRANCH  76  77
ATOM     77  S   UNL A   1      41.259  35.637  39.217  1.00  0.00     0.124 S 
ATOM     78  O   UNL A   1      40.072  35.133  39.901  1.00  0.00    -0.237 OA
ATOM     79  O   UNL A   1      42.515  35.510  39.950  1.00  0.00    -0.237 OA
ATOM     80  O   UNL A   1      41.085  36.905  38.511  1.00  0.00    -0.744 OA
ENDBRANCH  76  77
ENDBRANCH  48  71
BRANCH  60  81
ATOM     81  C   UNL A   1      46.901  28.022  34.339  1.00  0.00    -0.014 A 
ATOM     82  C   UNL A   1      47.036  27.049  35.345  1.00  0.00     0.010 A 
ATOM     83  C   UNL A   1      48.040  28.726  33.905  1.00  0.00     0.010 A 
ATOM     84  C   UNL A   1      48.280  26.812  35.935  1.00  0.00     0.020 A 
ATOM     85  C   UNL A   1      49.290  28.474  34.475  1.00  0.00     0.020 A 
ATOM     86  C   UNL A   1      49.398  27.530  35.499  1.00  0.00     0.054 A 
BRANCH  86  87
ATOM     87  S   UNL A   1      51.008  27.191  36.264  1.00  0.00     0.124 S 
ATOM     88  O   UNL A   1      50.895  27.902  37.535  1.00  0.00    -0.237 OA
ATOM     89  O   UNL A   1      51.018  25.733  36.358  1.00  0.00    -0.237 OA
ATOM     90  O   UNL A   1      51.966  27.755  35.317  1.00  0.00    -0.744 OA
ENDBRANCH  86  87
ENDBRANCH  60  81
ENDBRANCH  34  35
ENDBRANCH  26  29
ENDBRANCH  24  25
ENDBRANCH  23  24
ENDBRANCH   1  23
TORSDOF 17
ENDMDL
