MODEL 1
REMARK VINA RESULT:     -11.5      0.000      0.000
REMARK SMILES O=C(NCCCCNC(=O)c1ccc(-c2c3nc(c(-c4ccc(S(=O)(=O)[O-])cc4)c4ccc([nH]4)c(-c4ccc(S(=O)(=O)[O-])cc4)c4nc(c(-c5ccc(S(=O)(=O)[O-])cc5)c5ccc2[nH]5)C=C4)C=C3)cc1)C1=Cc2cc(Cl)cc(Cl)c2O[C@@H]1C(F)(F)F
REMARK SMILES IDX 6 1 5 2 4 3 3 4 1 5 2 6 71 8 72 9 82 10 73 11 81 12 74 13
REMARK SMILES IDX 80 14 75 15 78 16 76 17 77 18 79 19 83 20 84 21 85 22 86 23
REMARK SMILES IDX 7 24 8 25 9 26 10 28 11 29 12 30 70 31 13 32 69 33 14 34
REMARK SMILES IDX 15 35 16 36 63 37 17 38 68 39 62 40 64 41 18 42 67 43 61 44
REMARK SMILES IDX 60 45 19 47 49 48 30 49 48 50 31 51 34 52 47 53 65 54 32 55
REMARK SMILES IDX 33 56 46 58 66 59 35 60 20 61 21 62 29 63 22 64 28 65 23 66
REMARK SMILES IDX 24 67 25 68 26 69 27 70 50 71 51 72 59 73 52 74 58 75 53 76
REMARK SMILES IDX 54 77 55 78 56 79 57 80 36 81 37 82 45 83 38 84 44 85 39 86
REMARK SMILES IDX 40 87 41 88 42 89 43 90
REMARK H PARENT 3 7 8 27 64 46 34 57
REMARK Flexibility Score: inf
ROOT
ATOM      1  C   UNL A   1      33.248  28.012  26.945  1.00  0.00     0.023 C 
ENDROOT
BRANCH   1   2
ATOM      2  C   UNL A   1      31.737  27.833  26.880  1.00  0.00     0.023 C 
BRANCH   2   3
ATOM      3  C   UNL A   1      31.232  26.570  26.197  1.00  0.00     0.116 C 
BRANCH   3   4
ATOM      4  N   UNL A   1      31.438  25.333  26.933  1.00  0.00    -0.352 N 
ATOM      5  O   UNL A   1      32.383  23.360  27.453  1.00  0.00    -0.270 OA
ATOM      6  C   UNL A   1      32.219  24.253  26.623  1.00  0.00     0.251 C 
ATOM      7  H   UNL A   1      30.942  25.262  27.780  1.00  0.00     0.163 HD
BRANCH   6   8
ATOM      8  C   UNL A   1      32.960  24.150  25.330  1.00  0.00     0.067 C 
ATOM      9  C   UNL A   1      34.233  24.561  25.203  1.00  0.00     0.025 C 
ATOM     10  C   UNL A   1      32.454  23.040  24.439  1.00  0.00     0.314 C 
ATOM     11  C   UNL A   1      35.158  23.411  25.044  1.00  0.00     0.020 A 
ATOM     12  O   UNL A   1      33.343  21.892  24.467  1.00  0.00    -0.474 OA
ATOM     13  C   UNL A   1      36.495  23.591  25.419  1.00  0.00     0.032 A 
ATOM     14  C   UNL A   1      34.659  22.121  24.794  1.00  0.00     0.146 A 
ATOM     15  C   UNL A   1      37.304  22.477  25.632  1.00  0.00     0.043 A 
ATOM     16  C   UNL A   1      35.495  21.015  24.989  1.00  0.00     0.085 A 
ATOM     17  Cl  UNL A   1      38.898  22.698  26.239  1.00  0.00    -0.084 Cl
ATOM     18  C   UNL A   1      36.810  21.191  25.432  1.00  0.00     0.045 A 
ATOM     19  Cl  UNL A   1      34.905  19.405  24.792  1.00  0.00    -0.080 Cl
BRANCH  10  20
ATOM     20  C   UNL A   1      32.208  23.520  22.999  1.00  0.00     0.429 C 
ATOM     21  F   UNL A   1      31.284  24.509  22.955  1.00  0.00    -0.167 F 
ATOM     22  F   UNL A   1      33.336  24.010  22.433  1.00  0.00    -0.167 F 
ATOM     23  F   UNL A   1      31.765  22.523  22.195  1.00  0.00    -0.167 F 
ENDBRANCH  10  20
ENDBRANCH   6   8
ENDBRANCH   3   4
ENDBRANCH   2   3
ENDBRANCH   1   2
BRANCH   1  24
ATOM     24  C   UNL A   1      33.814  29.328  26.413  1.00  0.00     0.116 C 
BRANCH  24  25
ATOM     25  N   UNL A   1      33.735  30.455  27.332  1.00  0.00    -0.352 N 
ATOM     26  C   UNL A   1      34.659  30.905  28.257  1.00  0.00     0.251 C 
ATOM     27  H   UNL A   1      32.899  30.974  27.287  1.00  0.00     0.163 HD
ATOM     28  O   UNL A   1      34.408  31.884  28.940  1.00  0.00    -0.269 OA
BRANCH  26  29
ATOM     29  C   UNL A   1      35.924  30.158  28.461  1.00  0.00     0.039 A 
ATOM     30  C   UNL A   1      36.845  30.111  27.411  1.00  0.00     0.014 A 
ATOM     31  C   UNL A   1      36.233  29.568  29.688  1.00  0.00     0.014 A 
ATOM     32  C   UNL A   1      38.120  29.582  27.633  1.00  0.00     0.010 A 
ATOM     33  C   UNL A   1      37.530  29.115  29.931  1.00  0.00     0.010 A 
ATOM     34  C   UNL A   1      38.495  29.140  28.914  1.00  0.00    -0.014 A 
BRANCH  34  35
ATOM     35  C   UNL A   1      39.909  28.784  29.209  1.00  0.00     0.031 A 
ATOM     36  C   UNL A   1      40.828  29.750  29.904  1.00  0.00     0.074 A 
ATOM     37  C   UNL A   1      40.386  27.594  28.789  1.00  0.00     0.049 A 
ATOM     38  N   UNL A   1      42.073  29.580  30.271  1.00  0.00    -0.248 NA
ATOM     39  C   UNL A   1      40.291  31.085  30.202  1.00  0.00     0.031 C 
ATOM     40  C   UNL A   1      39.625  26.594  28.032  1.00  0.00     0.029 A 
ATOM     41  N   UNL A   1      41.623  27.017  28.942  1.00  0.00    -0.354 N 
ATOM     42  C   UNL A   1      42.472  30.788  30.830  1.00  0.00     0.074 A 
ATOM     43  C   UNL A   1      41.353  31.697  30.708  1.00  0.00     0.031 C 
ATOM     44  C   UNL A   1      40.393  25.511  27.836  1.00  0.00     0.029 A 
ATOM     45  C   UNL A   1      41.707  25.747  28.422  1.00  0.00     0.049 A 
ATOM     46  H   UNL A   1      42.378  27.471  29.382  1.00  0.00     0.167 HD
ATOM     47  C   UNL A   1      43.655  31.108  31.410  1.00  0.00     0.031 A 
ATOM     48  C   UNL A   1      42.721  24.859  28.431  1.00  0.00     0.031 A 
ATOM     49  C   UNL A   1      44.768  30.203  31.538  1.00  0.00     0.049 A 
ATOM     50  C   UNL A   1      44.011  25.223  29.109  1.00  0.00     0.074 A 
ATOM     51  C   UNL A   1      45.978  30.410  32.178  1.00  0.00     0.029 A 
ATOM     52  N   UNL A   1      44.810  28.922  31.009  1.00  0.00    -0.354 N 
ATOM     53  N   UNL A   1      44.335  26.339  29.720  1.00  0.00    -0.248 NA
ATOM     54  C   UNL A   1      45.065  24.200  29.115  1.00  0.00     0.031 C 
ATOM     55  C   UNL A   1      46.770  29.268  31.997  1.00  0.00     0.029 A 
ATOM     56  C   UNL A   1      46.034  28.333  31.287  1.00  0.00     0.049 A 
ATOM     57  H   UNL A   1      44.079  28.492  30.510  1.00  0.00     0.167 HD
ATOM     58  C   UNL A   1      45.624  26.144  30.200  1.00  0.00     0.074 A 
ATOM     59  C   UNL A   1      46.012  24.798  29.825  1.00  0.00     0.031 C 
ATOM     60  C   UNL A   1      46.416  27.002  30.891  1.00  0.00     0.031 A 
BRANCH  47  61
ATOM     61  C   UNL A   1      43.801  32.508  31.946  1.00  0.00    -0.014 A 
ATOM     62  C   UNL A   1      43.529  32.801  33.296  1.00  0.00     0.010 A 
ATOM     63  C   UNL A   1      44.223  33.544  31.093  1.00  0.00     0.010 A 
ATOM     64  C   UNL A   1      43.622  34.112  33.768  1.00  0.00     0.020 A 
ATOM     65  C   UNL A   1      44.344  34.853  31.570  1.00  0.00     0.020 A 
ATOM     66  C   UNL A   1      44.019  35.133  32.900  1.00  0.00     0.054 A 
BRANCH  66  67
ATOM     67  S   UNL A   1      44.126  36.827  33.536  1.00  0.00     0.124 S 
ATOM     68  O   UNL A   1      42.717  37.164  33.729  1.00  0.00    -0.237 OA
ATOM     69  O   UNL A   1      44.906  36.665  34.760  1.00  0.00    -0.237 OA
ATOM     70  O   UNL A   1      44.799  37.558  32.464  1.00  0.00    -0.744 OA
ENDBRANCH  66  67
ENDBRANCH  47  61
BRANCH  48  71
ATOM     71  C   UNL A   1      42.531  23.514  27.825  1.00  0.00    -0.014 A 
ATOM     72  C   UNL A   1      42.885  23.289  26.483  1.00  0.00     0.010 A 
ATOM     73  C   UNL A   1      42.027  22.447  28.590  1.00  0.00     0.010 A 
ATOM     74  C   UNL A   1      42.729  22.022  25.913  1.00  0.00     0.020 A 
ATOM     75  C   UNL A   1      41.891  21.173  28.030  1.00  0.00     0.020 A 
ATOM     76  C   UNL A   1      42.236  20.971  26.692  1.00  0.00     0.054 A 
BRANCH  76  77
ATOM     77  S   UNL A   1      42.112  19.318  25.953  1.00  0.00     0.124 S 
ATOM     78  O   UNL A   1      40.676  19.192  25.730  1.00  0.00    -0.237 OA
ATOM     79  O   UNL A   1      42.932  19.445  24.750  1.00  0.00    -0.237 OA
ATOM     80  O   UNL A   1      42.666  18.443  26.984  1.00  0.00    -0.744 OA
ENDBRANCH  76  77
ENDBRANCH  48  71
BRANCH  60  81
ATOM     81  C   UNL A   1      47.775  26.498  31.297  1.00  0.00    -0.014 A 
ATOM     82  C   UNL A   1      48.905  26.730  30.493  1.00  0.00     0.010 A 
ATOM     83  C   UNL A   1      47.923  25.789  32.502  1.00  0.00     0.010 A 
ATOM     84  C   UNL A   1      50.151  26.218  30.863  1.00  0.00     0.020 A 
ATOM     85  C   UNL A   1      49.173  25.299  32.888  1.00  0.00     0.020 A 
ATOM     86  C   UNL A   1      50.276  25.497  32.055  1.00  0.00     0.054 A 
BRANCH  86  87
ATOM     87  S   UNL A   1      51.903  24.845  32.521  1.00  0.00     0.124 S 
ATOM     88  O   UNL A   1      52.061  25.370  33.875  1.00  0.00    -0.237 OA
ATOM     89  O   UNL A   1      51.712  23.399  32.428  1.00  0.00    -0.237 OA
ATOM     90  O   UNL A   1      52.802  25.413  31.520  1.00  0.00    -0.744 OA
ENDBRANCH  86  87
ENDBRANCH  60  81
ENDBRANCH  34  35
ENDBRANCH  26  29
ENDBRANCH  24  25
ENDBRANCH   1  24
TORSDOF 15
ENDMDL
MODEL 2
REMARK VINA RESULT:     -11.5      0.988      8.279
REMARK SMILES O=C(NCCCCNC(=O)c1ccc(-c2c3nc(c(-c4ccc(S(=O)(=O)[O-])cc4)c4ccc([nH]4)c(-c4ccc(S(=O)(=O)[O-])cc4)c4nc(c(-c5ccc(S(=O)(=O)[O-])cc5)c5ccc2[nH]5)C=C4)C=C3)cc1)C1=Cc2cc(Cl)cc(Cl)c2O[C@@H]1C(F)(F)F
REMARK SMILES IDX 6 1 5 2 4 3 3 4 1 5 2 6 71 8 72 9 82 10 73 11 81 12 74 13
REMARK SMILES IDX 80 14 75 15 78 16 76 17 77 18 79 19 83 20 84 21 85 22 86 23
REMARK SMILES IDX 7 24 8 25 9 26 10 28 11 29 12 30 70 31 13 32 69 33 14 34
REMARK SMILES IDX 15 35 16 36 63 37 17 38 68 39 62 40 64 41 18 42 67 43 61 44
REMARK SMILES IDX 60 45 19 47 49 48 30 49 48 50 31 51 34 52 47 53 65 54 32 55
REMARK SMILES IDX 33 56 46 58 66 59 35 60 20 61 21 62 29 63 22 64 28 65 23 66
REMARK SMILES IDX 24 67 25 68 26 69 27 70 50 71 51 72 59 73 52 74 58 75 53 76
REMARK SMILES IDX 54 77 55 78 56 79 57 80 36 81 37 82 45 83 38 84 44 85 39 86
REMARK SMILES IDX 40 87 41 88 42 89 43 90
REMARK H PARENT 3 7 8 27 64 46 34 57
REMARK Flexibility Score: inf
ROOT
ATOM      1  C   UNL A   1      32.233  28.393  26.398  1.00  0.00     0.023 C 
ENDROOT
BRANCH   1   2
ATOM      2  C   UNL A   1      31.326  27.301  26.951  1.00  0.00     0.023 C 
BRANCH   2   3
ATOM      3  C   UNL A   1      31.213  26.029  26.122  1.00  0.00     0.116 C 
BRANCH   3   4
ATOM      4  N   UNL A   1      31.465  24.789  26.837  1.00  0.00    -0.352 N 
ATOM      5  O   UNL A   1      32.497  22.856  27.342  1.00  0.00    -0.270 OA
ATOM      6  C   UNL A   1      32.308  23.757  26.526  1.00  0.00     0.251 C 
ATOM      7  H   UNL A   1      30.952  24.674  27.670  1.00  0.00     0.163 HD
BRANCH   6   8
ATOM      8  C   UNL A   1      33.084  23.720  25.251  1.00  0.00     0.067 C 
ATOM      9  C   UNL A   1      34.313  24.253  25.148  1.00  0.00     0.025 C 
ATOM     10  C   UNL A   1      32.709  22.560  24.358  1.00  0.00     0.314 C 
ATOM     11  C   UNL A   1      35.350  23.198  25.019  1.00  0.00     0.020 A 
ATOM     12  O   UNL A   1      33.706  21.505  24.414  1.00  0.00    -0.474 OA
ATOM     13  C   UNL A   1      36.654  23.510  25.423  1.00  0.00     0.032 A 
ATOM     14  C   UNL A   1      34.985  21.864  24.769  1.00  0.00     0.146 A 
ATOM     15  C   UNL A   1      37.563  22.482  25.662  1.00  0.00     0.043 A 
ATOM     16  C   UNL A   1      35.921  20.846  24.991  1.00  0.00     0.085 A 
ATOM     17  Cl  UNL A   1      39.113  22.862  26.302  1.00  0.00    -0.084 Cl
ATOM     18  C   UNL A   1      37.201  21.152  25.461  1.00  0.00     0.045 A 
ATOM     19  Cl  UNL A   1      35.495  19.185  24.795  1.00  0.00    -0.080 Cl
BRANCH  10  20
ATOM     20  C   UNL A   1      32.450  23.005  22.909  1.00  0.00     0.429 C 
ATOM     21  F   UNL A   1      31.622  22.150  22.265  1.00  0.00    -0.167 F 
ATOM     22  F   UNL A   1      31.872  24.229  22.855  1.00  0.00    -0.167 F 
ATOM     23  F   UNL A   1      33.593  23.077  22.183  1.00  0.00    -0.167 F 
ENDBRANCH  10  20
ENDBRANCH   6   8
ENDBRANCH   3   4
ENDBRANCH   2   3
ENDBRANCH   1   2
BRANCH   1  24
ATOM     24  C   UNL A   1      33.492  28.720  27.200  1.00  0.00     0.116 C 
BRANCH  24  25
ATOM     25  N   UNL A   1      33.543  30.065  27.756  1.00  0.00    -0.352 N 
ATOM     26  C   UNL A   1      34.609  30.753  28.305  1.00  0.00     0.251 C 
ATOM     27  H   UNL A   1      32.691  30.558  27.737  1.00  0.00     0.163 HD
ATOM     28  O   UNL A   1      34.453  31.890  28.717  1.00  0.00    -0.269 OA
BRANCH  26  29
ATOM     29  C   UNL A   1      35.925  30.081  28.450  1.00  0.00     0.039 A 
ATOM     30  C   UNL A   1      36.808  30.109  27.368  1.00  0.00     0.014 A 
ATOM     31  C   UNL A   1      36.313  29.491  29.655  1.00  0.00     0.014 A 
ATOM     32  C   UNL A   1      38.120  29.656  27.535  1.00  0.00     0.010 A 
ATOM     33  C   UNL A   1      37.643  29.115  29.844  1.00  0.00     0.010 A 
ATOM     34  C   UNL A   1      38.567  29.216  28.794  1.00  0.00    -0.014 A 
BRANCH  34  35
ATOM     35  C   UNL A   1      40.010  28.943  29.032  1.00  0.00     0.031 A 
ATOM     36  C   UNL A   1      40.626  27.622  28.661  1.00  0.00     0.074 A 
ATOM     37  C   UNL A   1      40.761  29.880  29.649  1.00  0.00     0.049 A 
ATOM     38  N   UNL A   1      41.873  27.240  28.766  1.00  0.00    -0.248 NA
ATOM     39  C   UNL A   1      39.723  26.591  28.131  1.00  0.00     0.031 C 
ATOM     40  C   UNL A   1      40.272  31.174  30.134  1.00  0.00     0.029 A 
ATOM     41  N   UNL A   1      42.096  29.893  29.969  1.00  0.00    -0.354 N 
ATOM     42  C   UNL A   1      41.904  25.922  28.327  1.00  0.00     0.074 A 
ATOM     43  C   UNL A   1      40.541  25.555  28.004  1.00  0.00     0.031 C 
ATOM     44  C   UNL A   1      41.300  31.874  30.639  1.00  0.00     0.029 A 
ATOM     45  C   UNL A   1      42.514  31.070  30.544  1.00  0.00     0.049 A 
ATOM     46  H   UNL A   1      42.697  29.131  29.802  1.00  0.00     0.167 HD
ATOM     47  C   UNL A   1      42.969  25.095  28.187  1.00  0.00     0.031 A 
ATOM     48  C   UNL A   1      43.739  31.471  30.934  1.00  0.00     0.031 A 
ATOM     49  C   UNL A   1      44.326  25.459  28.502  1.00  0.00     0.049 A 
ATOM     50  C   UNL A   1      44.911  30.552  30.737  1.00  0.00     0.074 A 
ATOM     51  C   UNL A   1      45.482  24.719  28.320  1.00  0.00     0.029 A 
ATOM     52  N   UNL A   1      44.710  26.664  29.071  1.00  0.00    -0.354 N 
ATOM     53  N   UNL A   1      44.933  29.342  30.229  1.00  0.00    -0.248 NA
ATOM     54  C   UNL A   1      46.225  31.060  31.151  1.00  0.00     0.031 C 
ATOM     55  C   UNL A   1      46.560  25.460  28.821  1.00  0.00     0.029 A 
ATOM     56  C   UNL A   1      46.081  26.681  29.270  1.00  0.00     0.049 A 
ATOM     57  H   UNL A   1      44.098  27.401  29.299  1.00  0.00     0.167 HD
ATOM     58  C   UNL A   1      46.267  28.952  30.244  1.00  0.00     0.074 A 
ATOM     59  C   UNL A   1      47.021  30.061  30.794  1.00  0.00     0.031 C 
ATOM     60  C   UNL A   1      46.818  27.781  29.837  1.00  0.00     0.031 A 
BRANCH  47  61
ATOM     61  C   UNL A   1      42.698  23.706  27.672  1.00  0.00    -0.014 A 
ATOM     62  C   UNL A   1      42.350  22.662  28.549  1.00  0.00     0.010 A 
ATOM     63  C   UNL A   1      42.782  23.441  26.292  1.00  0.00     0.010 A 
ATOM     64  C   UNL A   1      42.146  21.367  28.063  1.00  0.00     0.020 A 
ATOM     65  C   UNL A   1      42.552  22.153  25.800  1.00  0.00     0.020 A 
ATOM     66  C   UNL A   1      42.259  21.118  26.693  1.00  0.00     0.054 A 
BRANCH  66  67
ATOM     67  S   UNL A   1      41.997  19.429  26.088  1.00  0.00     0.124 S 
ATOM     68  O   UNL A   1      42.450  18.631  27.225  1.00  0.00    -0.237 OA
ATOM     69  O   UNL A   1      40.560  19.397  25.831  1.00  0.00    -0.237 OA
ATOM     70  O   UNL A   1      42.841  19.353  24.898  1.00  0.00    -0.744 OA
ENDBRANCH  66  67
ENDBRANCH  47  61
BRANCH  48  71
ATOM     71  C   UNL A   1      43.927  32.836  31.496  1.00  0.00    -0.014 A 
ATOM     72  C   UNL A   1      43.926  33.031  32.888  1.00  0.00     0.010 A 
ATOM     73  C   UNL A   1      44.138  33.938  30.649  1.00  0.00     0.010 A 
ATOM     74  C   UNL A   1      44.123  34.306  33.425  1.00  0.00     0.020 A 
ATOM     75  C   UNL A   1      44.358  35.211  31.182  1.00  0.00     0.020 A 
ATOM     76  C   UNL A   1      44.341  35.389  32.568  1.00  0.00     0.054 A 
BRANCH  76  77
ATOM     77  S   UNL A   1      44.668  37.022  33.287  1.00  0.00     0.124 S 
ATOM     78  O   UNL A   1      46.125  37.083  33.254  1.00  0.00    -0.237 OA
ATOM     79  O   UNL A   1      43.976  37.920  32.366  1.00  0.00    -0.237 OA
ATOM     80  O   UNL A   1      44.073  36.931  34.619  1.00  0.00    -0.744 OA
ENDBRANCH  76  77
ENDBRANCH  48  71
BRANCH  60  81
ATOM     81  C   UNL A   1      48.312  27.652  29.960  1.00  0.00    -0.014 A 
ATOM     82  C   UNL A   1      48.903  27.125  31.122  1.00  0.00     0.010 A 
ATOM     83  C   UNL A   1      49.136  28.059  28.895  1.00  0.00     0.010 A 
ATOM     84  C   UNL A   1      50.293  27.053  31.237  1.00  0.00     0.020 A 
ATOM     85  C   UNL A   1      50.526  27.963  28.996  1.00  0.00     0.020 A 
ATOM     86  C   UNL A   1      51.097  27.481  30.176  1.00  0.00     0.054 A 
BRANCH  86  87
ATOM     87  S   UNL A   1      52.900  27.374  30.342  1.00  0.00     0.124 S 
ATOM     88  O   UNL A   1      53.259  26.539  29.199  1.00  0.00    -0.237 OA
ATOM     89  O   UNL A   1      53.317  28.772  30.253  1.00  0.00    -0.237 OA
ATOM     90  O   UNL A   1      53.091  26.757  31.652  1.00  0.00    -0.744 OA
ENDBRANCH  86  87
ENDBRANCH  60  81
ENDBRANCH  34  35
ENDBRANCH  26  29
ENDBRANCH  24  25
ENDBRANCH   1  24
TORSDOF 15
ENDMDL
MODEL 3
REMARK VINA RESULT:     -11.3      1.452      2.025
REMARK SMILES O=C(NCCCCNC(=O)c1ccc(-c2c3nc(c(-c4ccc(S(=O)(=O)[O-])cc4)c4ccc([nH]4)c(-c4ccc(S(=O)(=O)[O-])cc4)c4nc(c(-c5ccc(S(=O)(=O)[O-])cc5)c5ccc2[nH]5)C=C4)C=C3)cc1)C1=Cc2cc(Cl)cc(Cl)c2O[C@@H]1C(F)(F)F
REMARK SMILES IDX 6 1 5 2 4 3 3 4 1 5 2 6 71 8 72 9 82 10 73 11 81 12 74 13
REMARK SMILES IDX 80 14 75 15 78 16 76 17 77 18 79 19 83 20 84 21 85 22 86 23
REMARK SMILES IDX 7 24 8 25 9 26 10 28 11 29 12 30 70 31 13 32 69 33 14 34
REMARK SMILES IDX 15 35 16 36 63 37 17 38 68 39 62 40 64 41 18 42 67 43 61 44
REMARK SMILES IDX 60 45 19 47 49 48 30 49 48 50 31 51 34 52 47 53 65 54 32 55
REMARK SMILES IDX 33 56 46 58 66 59 35 60 20 61 21 62 29 63 22 64 28 65 23 66
REMARK SMILES IDX 24 67 25 68 26 69 27 70 50 71 51 72 59 73 52 74 58 75 53 76
REMARK SMILES IDX 54 77 55 78 56 79 57 80 36 81 37 82 45 83 38 84 44 85 39 86
REMARK SMILES IDX 40 87 41 88 42 89 43 90
REMARK H PARENT 3 7 8 27 64 46 34 57
REMARK Flexibility Score: inf
ROOT
ATOM      1  C   UNL A   1      32.508  29.145  25.691  1.00  0.00     0.023 C 
ENDROOT
BRANCH   1   2
ATOM      2  C   UNL A   1      31.808  27.799  25.554  1.00  0.00     0.023 C 
BRANCH   2   3
ATOM      3  C   UNL A   1      31.801  26.909  26.790  1.00  0.00     0.116 C 
BRANCH   3   4
ATOM      4  N   UNL A   1      30.885  25.781  26.746  1.00  0.00    -0.352 N 
ATOM      5  O   UNL A   1      30.247  23.630  26.595  1.00  0.00    -0.270 OA
ATOM      6  C   UNL A   1      31.127  24.473  26.424  1.00  0.00     0.251 C 
ATOM      7  H   UNL A   1      29.953  25.989  26.982  1.00  0.00     0.163 HD
BRANCH   6   8
ATOM      8  C   UNL A   1      32.461  24.004  25.944  1.00  0.00     0.067 C 
ATOM      9  C   UNL A   1      33.067  22.923  26.464  1.00  0.00     0.025 C 
ATOM     10  C   UNL A   1      32.749  24.390  24.512  1.00  0.00     0.314 C 
ATOM     11  C   UNL A   1      33.080  21.795  25.499  1.00  0.00     0.020 A 
ATOM     12  O   UNL A   1      32.585  23.259  23.616  1.00  0.00    -0.474 OA
ATOM     13  C   UNL A   1      33.172  20.496  26.013  1.00  0.00     0.032 A 
ATOM     14  C   UNL A   1      32.732  22.002  24.153  1.00  0.00     0.146 A 
ATOM     15  C   UNL A   1      32.830  19.413  25.207  1.00  0.00     0.043 A 
ATOM     16  C   UNL A   1      32.416  20.898  23.351  1.00  0.00     0.085 A 
ATOM     17  Cl  UNL A   1      32.800  17.834  25.888  1.00  0.00    -0.084 Cl
ATOM     18  C   UNL A   1      32.441  19.606  23.884  1.00  0.00     0.045 A 
ATOM     19  Cl  UNL A   1      31.888  21.102  21.721  1.00  0.00    -0.080 Cl
BRANCH  10  20
ATOM     20  C   UNL A   1      34.139  25.030  24.354  1.00  0.00     0.429 C 
ATOM     21  F   UNL A   1      35.057  24.128  23.932  1.00  0.00    -0.167 F 
ATOM     22  F   UNL A   1      34.130  26.036  23.448  1.00  0.00    -0.167 F 
ATOM     23  F   UNL A   1      34.599  25.552  25.517  1.00  0.00    -0.167 F 
ENDBRANCH  10  20
ENDBRANCH   6   8
ENDBRANCH   3   4
ENDBRANCH   2   3
ENDBRANCH   1   2
BRANCH   1  24
ATOM     24  C   UNL A   1      33.648  29.234  26.705  1.00  0.00     0.116 C 
BRANCH  24  25
ATOM     25  N   UNL A   1      33.632  30.415  27.556  1.00  0.00    -0.352 N 
ATOM     26  C   UNL A   1      34.622  30.927  28.374  1.00  0.00     0.251 C 
ATOM     27  H   UNL A   1      32.790  30.927  27.546  1.00  0.00     0.163 HD
ATOM     28  O   UNL A   1      34.417  31.946  29.012  1.00  0.00    -0.269 OA
BRANCH  26  29
ATOM     29  C   UNL A   1      35.907  30.199  28.521  1.00  0.00     0.039 A 
ATOM     30  C   UNL A   1      36.815  30.232  27.460  1.00  0.00     0.014 A 
ATOM     31  C   UNL A   1      36.244  29.550  29.711  1.00  0.00     0.014 A 
ATOM     32  C   UNL A   1      38.103  29.721  27.637  1.00  0.00     0.010 A 
ATOM     33  C   UNL A   1      37.554  29.114  29.913  1.00  0.00     0.010 A 
ATOM     34  C   UNL A   1      38.505  29.218  28.887  1.00  0.00    -0.014 A 
BRANCH  34  35
ATOM     35  C   UNL A   1      39.931  28.879  29.146  1.00  0.00     0.031 A 
ATOM     36  C   UNL A   1      40.861  29.865  29.798  1.00  0.00     0.074 A 
ATOM     37  C   UNL A   1      40.406  27.687  28.730  1.00  0.00     0.049 A 
ATOM     38  N   UNL A   1      42.118  29.711  30.129  1.00  0.00    -0.248 NA
ATOM     39  C   UNL A   1      40.320  31.200  30.090  1.00  0.00     0.031 C 
ATOM     40  C   UNL A   1      39.632  26.668  28.013  1.00  0.00     0.029 A 
ATOM     41  N   UNL A   1      41.652  27.124  28.856  1.00  0.00    -0.354 N 
ATOM     42  C   UNL A   1      42.522  30.932  30.658  1.00  0.00     0.074 A 
ATOM     43  C   UNL A   1      41.391  31.829  30.554  1.00  0.00     0.031 C 
ATOM     44  C   UNL A   1      40.404  25.589  27.811  1.00  0.00     0.029 A 
ATOM     45  C   UNL A   1      41.733  25.846  28.354  1.00  0.00     0.049 A 
ATOM     46  H   UNL A   1      42.416  27.591  29.266  1.00  0.00     0.167 HD
ATOM     47  C   UNL A   1      43.719  31.272  31.197  1.00  0.00     0.031 A 
ATOM     48  C   UNL A   1      42.754  24.968  28.347  1.00  0.00     0.031 A 
ATOM     49  C   UNL A   1      44.843  30.379  31.306  1.00  0.00     0.049 A 
ATOM     50  C   UNL A   1      44.061  25.354  28.980  1.00  0.00     0.074 A 
ATOM     51  C   UNL A   1      46.070  30.607  31.906  1.00  0.00     0.029 A 
ATOM     52  N   UNL A   1      44.882  29.090  30.796  1.00  0.00    -0.354 N 
ATOM     53  N   UNL A   1      44.392  26.482  29.563  1.00  0.00    -0.248 NA
ATOM     54  C   UNL A   1      45.124  24.340  28.971  1.00  0.00     0.031 C 
ATOM     55  C   UNL A   1      46.866  29.469  31.720  1.00  0.00     0.029 A 
ATOM     56  C   UNL A   1      46.118  28.517  31.047  1.00  0.00     0.049 A 
ATOM     57  H   UNL A   1      44.140  28.646  30.326  1.00  0.00     0.167 HD
ATOM     58  C   UNL A   1      45.697  26.307  30.007  1.00  0.00     0.074 A 
ATOM     59  C   UNL A   1      46.086  24.958  29.643  1.00  0.00     0.031 C 
ATOM     60  C   UNL A   1      46.501  27.182  30.661  1.00  0.00     0.031 A 
BRANCH  47  61
ATOM     61  C   UNL A   1      43.867  32.682  31.705  1.00  0.00    -0.014 A 
ATOM     62  C   UNL A   1      44.310  33.716  30.860  1.00  0.00     0.010 A 
ATOM     63  C   UNL A   1      43.551  32.980  33.043  1.00  0.00     0.010 A 
ATOM     64  C   UNL A   1      44.487  35.010  31.357  1.00  0.00     0.020 A 
ATOM     65  C   UNL A   1      43.701  34.280  33.537  1.00  0.00     0.020 A 
ATOM     66  C   UNL A   1      44.192  35.282  32.695  1.00  0.00     0.054 A 
BRANCH  66  67
ATOM     67  S   UNL A   1      44.438  36.967  33.318  1.00  0.00     0.124 S 
ATOM     68  O   UNL A   1      43.067  37.381  33.609  1.00  0.00    -0.237 OA
ATOM     69  O   UNL A   1      45.292  36.760  34.483  1.00  0.00    -0.237 OA
ATOM     70  O   UNL A   1      45.073  37.661  32.199  1.00  0.00    -0.744 OA
ENDBRANCH  66  67
ENDBRANCH  47  61
BRANCH  48  71
ATOM     71  C   UNL A   1      42.560  23.611  27.769  1.00  0.00    -0.014 A 
ATOM     72  C   UNL A   1      43.010  23.328  26.467  1.00  0.00     0.010 A 
ATOM     73  C   UNL A   1      41.953  22.590  28.522  1.00  0.00     0.010 A 
ATOM     74  C   UNL A   1      42.849  22.050  25.925  1.00  0.00     0.020 A 
ATOM     75  C   UNL A   1      41.812  21.304  27.991  1.00  0.00     0.020 A 
ATOM     76  C   UNL A   1      42.254  21.045  26.692  1.00  0.00     0.054 A 
BRANCH  76  77
ATOM     77  S   UNL A   1      42.122  19.374  25.996  1.00  0.00     0.124 S 
ATOM     78  O   UNL A   1      42.650  18.551  27.079  1.00  0.00    -0.237 OA
ATOM     79  O   UNL A   1      40.689  19.246  25.743  1.00  0.00    -0.237 OA
ATOM     80  O   UNL A   1      42.954  19.440  24.796  1.00  0.00    -0.744 OA
ENDBRANCH  76  77
ENDBRANCH  48  71
BRANCH  60  81
ATOM     81  C   UNL A   1      47.876  26.698  31.034  1.00  0.00    -0.014 A 
ATOM     82  C   UNL A   1      48.107  26.035  32.253  1.00  0.00     0.010 A 
ATOM     83  C   UNL A   1      48.950  26.902  30.150  1.00  0.00     0.010 A 
ATOM     84  C   UNL A   1      49.397  25.630  32.603  1.00  0.00     0.020 A 
ATOM     85  C   UNL A   1      50.237  26.474  30.485  1.00  0.00     0.020 A 
ATOM     86  C   UNL A   1      50.456  25.861  31.721  1.00  0.00     0.054 A 
BRANCH  86  87
ATOM     87  S   UNL A   1      52.124  25.323  32.190  1.00  0.00     0.124 S 
ATOM     88  O   UNL A   1      52.919  25.780  31.054  1.00  0.00    -0.237 OA
ATOM     89  O   UNL A   1      52.354  26.036  33.445  1.00  0.00    -0.237 OA
ATOM     90  O   UNL A   1      51.995  23.874  32.321  1.00  0.00    -0.744 OA
ENDBRANCH  86  87
ENDBRANCH  60  81
ENDBRANCH  34  35
ENDBRANCH  26  29
ENDBRANCH  24  25
ENDBRANCH   1  24
TORSDOF 15
ENDMDL
