MODEL 1
REMARK VINA RESULT:     -11.6      0.000      0.000
REMARK SMILES C[C@@H](C(=O)NCCCCNC(=O)c1ccc(-c2c3nc(c(-c4ccc(S(=O)(=O)[O-])cc4)c4ccc([nH]4)c(-c4ccc(S(=O)(=O)[O-])cc4)c4nc(c(-c5ccc(S(=O)(=O)[O-])cc5)c5ccc2[nH]5)C=C4)C=C3)cc1)c1ccc(-c2ccn(C(F)F)c(=O)c2)cc1
REMARK SMILES IDX 7 1 6 2 5 3 3 4 4 5 2 7 1 8 73 9 74 10 88 11 75 12 87 13
REMARK SMILES IDX 76 14 77 15 78 16 86 17 79 18 84 19 80 20 85 21 81 22 82 23
REMARK SMILES IDX 83 24 8 25 9 26 10 27 11 28 12 30 13 31 14 32 72 33 15 34
REMARK SMILES IDX 71 35 16 36 17 37 18 38 65 39 19 40 70 41 64 42 66 43 20 44
REMARK SMILES IDX 69 45 63 46 62 47 21 49 51 50 32 51 50 52 33 53 36 54 49 55
REMARK SMILES IDX 67 56 34 57 35 58 48 60 68 61 37 62 22 63 23 64 31 65 24 66
REMARK SMILES IDX 30 67 25 68 26 69 27 70 28 71 29 72 52 73 53 74 61 75 54 76
REMARK SMILES IDX 60 77 55 78 56 79 57 80 58 81 59 82 38 83 39 84 47 85 40 86
REMARK SMILES IDX 46 87 41 88 42 89 43 90 44 91 45 92
REMARK H PARENT 5 6 10 29 66 48 36 59
REMARK Flexibility Score: inf
ROOT
ATOM      1  C   UNL A   1      34.185  26.730  25.117  1.00  0.00     0.023 C 
ENDROOT
BRANCH   1   2
ATOM      2  C   UNL A   1      34.258  25.247  25.482  1.00  0.00     0.116 C 
BRANCH   2   3
ATOM      3  N   UNL A   1      34.958  24.492  24.465  1.00  0.00    -0.356 N 
ATOM      4  C   UNL A   1      34.506  23.542  23.597  1.00  0.00     0.227 C 
ATOM      5  O   UNL A   1      35.357  23.033  22.867  1.00  0.00    -0.274 OA
ATOM      6  H   UNL A   1      35.917  24.698  24.386  1.00  0.00     0.163 HD
BRANCH   4   7
ATOM      7  C   UNL A   1      33.004  23.202  23.536  1.00  0.00     0.105 C 
ATOM      8  C   UNL A   1      32.663  22.143  22.485  1.00  0.00     0.023 C 
BRANCH   7   9
ATOM      9  C   UNL A   1      32.097  24.405  23.283  1.00  0.00    -0.036 A 
ATOM     10  C   UNL A   1      31.019  24.709  24.129  1.00  0.00     0.005 A 
ATOM     11  C   UNL A   1      32.402  25.296  22.242  1.00  0.00     0.005 A 
ATOM     12  C   UNL A   1      30.251  25.854  23.929  1.00  0.00     0.009 A 
ATOM     13  C   UNL A   1      31.645  26.455  22.055  1.00  0.00     0.009 A 
ATOM     14  C   UNL A   1      30.569  26.746  22.901  1.00  0.00    -0.018 A 
BRANCH  14  15
ATOM     15  C   UNL A   1      29.808  27.996  22.725  1.00  0.00    -0.011 A 
ATOM     16  C   UNL A   1      30.401  29.211  22.206  1.00  0.00     0.027 A 
ATOM     17  C   UNL A   1      28.518  28.006  23.105  1.00  0.00     0.080 A 
ATOM     18  C   UNL A   1      29.684  30.340  22.138  1.00  0.00     0.095 A 
ATOM     19  C   UNL A   1      27.705  29.248  23.022  1.00  0.00     0.255 A 
ATOM     20  N   UNL A   1      28.364  30.370  22.546  1.00  0.00    -0.258 N 
ATOM     21  O   UNL A   1      26.534  29.207  23.388  1.00  0.00    -0.269 OA
BRANCH  20  22
ATOM     22  C   UNL A   1      27.615  31.598  22.516  1.00  0.00     0.451 C 
ATOM     23  F   UNL A   1      27.146  31.923  23.745  1.00  0.00    -0.185 F 
ATOM     24  F   UNL A   1      28.386  32.623  22.077  1.00  0.00    -0.185 F 
ENDBRANCH  20  22
ENDBRANCH  14  15
ENDBRANCH   7   9
ENDBRANCH   4   7
ENDBRANCH   2   3
ENDBRANCH   1   2
BRANCH   1  25
ATOM     25  C   UNL A   1      33.109  27.522  25.865  1.00  0.00     0.023 C 
BRANCH  25  26
ATOM     26  C   UNL A   1      33.523  28.035  27.236  1.00  0.00     0.116 C 
BRANCH  26  27
ATOM     27  N   UNL A   1      33.317  29.466  27.381  1.00  0.00    -0.352 N 
ATOM     28  C   UNL A   1      34.178  30.415  27.867  1.00  0.00     0.251 C 
ATOM     29  H   UNL A   1      32.437  29.800  27.090  1.00  0.00     0.163 HD
ATOM     30  O   UNL A   1      33.772  31.560  28.066  1.00  0.00    -0.269 OA
BRANCH  28  31
ATOM     31  C   UNL A   1      35.581  30.058  28.171  1.00  0.00     0.039 A 
ATOM     32  C   UNL A   1      35.907  29.648  29.464  1.00  0.00     0.014 A 
ATOM     33  C   UNL A   1      36.574  30.142  27.189  1.00  0.00     0.014 A 
ATOM     34  C   UNL A   1      37.225  29.295  29.766  1.00  0.00     0.010 A 
ATOM     35  C   UNL A   1      37.864  29.703  27.467  1.00  0.00     0.010 A 
ATOM     36  C   UNL A   1      38.212  29.307  28.766  1.00  0.00    -0.014 A 
BRANCH  36  37
ATOM     37  C   UNL A   1      39.622  28.965  29.081  1.00  0.00     0.031 A 
ATOM     38  C   UNL A   1      40.500  29.972  29.780  1.00  0.00     0.074 A 
ATOM     39  C   UNL A   1      40.124  27.769  28.715  1.00  0.00     0.049 A 
ATOM     40  N   UNL A   1      41.751  29.862  30.148  1.00  0.00    -0.248 NA
ATOM     41  C   UNL A   1      39.904  31.284  30.084  1.00  0.00     0.031 C 
ATOM     42  C   UNL A   1      39.388  26.724  27.998  1.00  0.00     0.029 A 
ATOM     43  N   UNL A   1      41.370  27.226  28.903  1.00  0.00    -0.354 N 
ATOM     44  C   UNL A   1      42.093  31.091  30.701  1.00  0.00     0.074 A 
ATOM     45  C   UNL A   1      40.939  31.951  30.568  1.00  0.00     0.031 C 
ATOM     46  C   UNL A   1      40.183  25.652  27.849  1.00  0.00     0.029 A 
ATOM     47  C   UNL A   1      41.493  25.944  28.422  1.00  0.00     0.049 A 
ATOM     48  H   UNL A   1      42.107  27.710  29.342  1.00  0.00     0.167 HD
ATOM     49  C   UNL A   1      43.254  31.466  31.290  1.00  0.00     0.031 A 
ATOM     50  C   UNL A   1      42.539  25.096  28.449  1.00  0.00     0.031 A 
ATOM     51  C   UNL A   1      44.395  30.602  31.434  1.00  0.00     0.049 A 
ATOM     52  C   UNL A   1      43.818  25.534  29.110  1.00  0.00     0.074 A 
ATOM     53  C   UNL A   1      45.596  30.862  32.070  1.00  0.00     0.029 A 
ATOM     54  N   UNL A   1      44.476  29.310  30.936  1.00  0.00    -0.354 N 
ATOM     55  N   UNL A   1      44.098  26.676  29.692  1.00  0.00    -0.248 NA
ATOM     56  C   UNL A   1      44.914  24.557  29.138  1.00  0.00     0.031 C 
ATOM     57  C   UNL A   1      46.427  29.749  31.902  1.00  0.00     0.029 A 
ATOM     58  C   UNL A   1      45.717  28.768  31.228  1.00  0.00     0.049 A 
ATOM     59  H   UNL A   1      43.759  28.847  30.446  1.00  0.00     0.167 HD
ATOM     60  C   UNL A   1      45.389  26.538  30.195  1.00  0.00     0.074 A 
ATOM     61  C   UNL A   1      45.827  25.200  29.855  1.00  0.00     0.031 C 
ATOM     62  C   UNL A   1      46.138  27.433  30.886  1.00  0.00     0.031 A 
BRANCH  49  63
ATOM     63  C   UNL A   1      43.350  32.880  31.806  1.00  0.00    -0.014 A 
ATOM     64  C   UNL A   1      43.873  33.918  31.011  1.00  0.00     0.010 A 
ATOM     65  C   UNL A   1      42.887  33.181  33.099  1.00  0.00     0.010 A 
ATOM     66  C   UNL A   1      43.978  35.215  31.518  1.00  0.00     0.020 A 
ATOM     67  C   UNL A   1      42.958  34.484  33.598  1.00  0.00     0.020 A 
ATOM     68  C   UNL A   1      43.521  35.490  32.812  1.00  0.00     0.054 A 
BRANCH  68  69
ATOM     69  S   UNL A   1      43.658  37.186  33.439  1.00  0.00     0.124 S 
ATOM     70  O   UNL A   1      44.874  37.113  34.244  1.00  0.00    -0.237 OA
ATOM     71  O   UNL A   1      43.763  37.973  32.213  1.00  0.00    -0.237 OA
ATOM     72  O   UNL A   1      42.422  37.377  34.195  1.00  0.00    -0.744 OA
ENDBRANCH  68  69
ENDBRANCH  49  63
BRANCH  50  73
ATOM     73  C   UNL A   1      42.408  23.730  27.869  1.00  0.00    -0.014 A 
ATOM     74  C   UNL A   1      42.705  23.500  26.513  1.00  0.00     0.010 A 
ATOM     75  C   UNL A   1      41.989  22.651  28.667  1.00  0.00     0.010 A 
ATOM     76  C   UNL A   1      42.563  22.223  25.962  1.00  0.00     0.020 A 
ATOM     77  C   UNL A   1      41.876  21.366  28.127  1.00  0.00     0.020 A 
ATOM     78  C   UNL A   1      42.152  21.163  26.774  1.00  0.00     0.054 A 
BRANCH  78  79
ATOM     79  S   UNL A   1      42.020  19.505  26.047  1.00  0.00     0.124 S 
ATOM     80  O   UNL A   1      42.534  18.661  27.120  1.00  0.00    -0.237 OA
ATOM     81  O   UNL A   1      40.588  19.392  25.781  1.00  0.00    -0.237 OA
ATOM     82  O   UNL A   1      42.863  19.587  24.856  1.00  0.00    -0.744 OA
ENDBRANCH  78  79
ENDBRANCH  50  73
BRANCH  62  83
ATOM     83  C   UNL A   1      47.487  26.975  31.377  1.00  0.00    -0.014 A 
ATOM     84  C   UNL A   1      47.638  26.277  32.588  1.00  0.00     0.010 A 
ATOM     85  C   UNL A   1      48.624  27.224  30.585  1.00  0.00     0.010 A 
ATOM     86  C   UNL A   1      48.907  25.883  33.022  1.00  0.00     0.020 A 
ATOM     87  C   UNL A   1      49.889  26.800  30.998  1.00  0.00     0.020 A 
ATOM     88  C   UNL A   1      50.026  26.151  32.226  1.00  0.00     0.054 A 
BRANCH  88  89
ATOM     89  S   UNL A   1      51.659  25.618  32.803  1.00  0.00     0.124 S 
ATOM     90  O   UNL A   1      52.361  25.376  31.545  1.00  0.00    -0.237 OA
ATOM     91  O   UNL A   1      52.121  26.773  33.569  1.00  0.00    -0.237 OA
ATOM     92  O   UNL A   1      51.374  24.425  33.597  1.00  0.00    -0.744 OA
ENDBRANCH  88  89
ENDBRANCH  62  83
ENDBRANCH  36  37
ENDBRANCH  28  31
ENDBRANCH  26  27
ENDBRANCH  25  26
ENDBRANCH   1  25
TORSDOF 17
ENDMDL
MODEL 2
REMARK VINA RESULT:     -11.5      4.931      8.738
REMARK SMILES C[C@@H](C(=O)NCCCCNC(=O)c1ccc(-c2c3nc(c(-c4ccc(S(=O)(=O)[O-])cc4)c4ccc([nH]4)c(-c4ccc(S(=O)(=O)[O-])cc4)c4nc(c(-c5ccc(S(=O)(=O)[O-])cc5)c5ccc2[nH]5)C=C4)C=C3)cc1)c1ccc(-c2ccn(C(F)F)c(=O)c2)cc1
REMARK SMILES IDX 7 1 6 2 5 3 3 4 4 5 2 7 1 8 73 9 74 10 88 11 75 12 87 13
REMARK SMILES IDX 76 14 77 15 78 16 86 17 79 18 84 19 80 20 85 21 81 22 82 23
REMARK SMILES IDX 83 24 8 25 9 26 10 27 11 28 12 30 13 31 14 32 72 33 15 34
REMARK SMILES IDX 71 35 16 36 17 37 18 38 65 39 19 40 70 41 64 42 66 43 20 44
REMARK SMILES IDX 69 45 63 46 62 47 21 49 51 50 32 51 50 52 33 53 36 54 49 55
REMARK SMILES IDX 67 56 34 57 35 58 48 60 68 61 37 62 22 63 23 64 31 65 24 66
REMARK SMILES IDX 30 67 25 68 26 69 27 70 28 71 29 72 52 73 53 74 61 75 54 76
REMARK SMILES IDX 60 77 55 78 56 79 57 80 58 81 59 82 38 83 39 84 47 85 40 86
REMARK SMILES IDX 46 87 41 88 42 89 43 90 44 91 45 92
REMARK H PARENT 5 6 10 29 66 48 36 59
REMARK Flexibility Score: inf
ROOT
ATOM      1  C   UNL A   1      34.767  33.059  30.506  1.00  0.00     0.023 C 
ENDROOT
BRANCH   1   2
ATOM      2  C   UNL A   1      34.641  33.971  31.727  1.00  0.00     0.116 C 
BRANCH   2   3
ATOM      3  N   UNL A   1      35.912  34.579  32.058  1.00  0.00    -0.356 N 
ATOM      4  C   UNL A   1      36.733  34.391  33.130  1.00  0.00     0.227 C 
ATOM      5  O   UNL A   1      37.742  35.097  33.165  1.00  0.00    -0.274 OA
ATOM      6  H   UNL A   1      36.237  35.237  31.402  1.00  0.00     0.163 HD
BRANCH   4   7
ATOM      7  C   UNL A   1      36.400  33.311  34.178  1.00  0.00     0.105 C 
ATOM      8  C   UNL A   1      36.057  33.886  35.555  1.00  0.00     0.023 C 
BRANCH   7   9
ATOM      9  C   UNL A   1      37.501  32.271  34.380  1.00  0.00    -0.036 A 
ATOM     10  C   UNL A   1      37.674  31.198  33.492  1.00  0.00     0.005 A 
ATOM     11  C   UNL A   1      38.433  32.441  35.415  1.00  0.00     0.005 A 
ATOM     12  C   UNL A   1      38.733  30.304  33.645  1.00  0.00     0.009 A 
ATOM     13  C   UNL A   1      39.507  31.557  35.556  1.00  0.00     0.009 A 
ATOM     14  C   UNL A   1      39.667  30.486  34.669  1.00  0.00    -0.018 A 
BRANCH  14  15
ATOM     15  C   UNL A   1      40.829  29.589  34.796  1.00  0.00    -0.011 A 
ATOM     16  C   UNL A   1      41.118  28.535  33.845  1.00  0.00     0.027 A 
ATOM     17  C   UNL A   1      41.625  29.739  35.869  1.00  0.00     0.080 A 
ATOM     18  C   UNL A   1      42.143  27.700  34.049  1.00  0.00     0.095 A 
ATOM     19  C   UNL A   1      42.777  28.828  36.102  1.00  0.00     0.255 A 
ATOM     20  N   UNL A   1      42.957  27.830  35.159  1.00  0.00    -0.258 N 
ATOM     21  O   UNL A   1      43.470  29.003  37.100  1.00  0.00    -0.269 OA
BRANCH  20  22
ATOM     22  C   UNL A   1      44.026  26.897  35.397  1.00  0.00     0.451 C 
ATOM     23  F   UNL A   1      44.012  25.886  34.496  1.00  0.00    -0.185 F 
ATOM     24  F   UNL A   1      45.231  27.514  35.316  1.00  0.00    -0.185 F 
ENDBRANCH  20  22
ENDBRANCH  14  15
ENDBRANCH   7   9
ENDBRANCH   4   7
ENDBRANCH   2   3
ENDBRANCH   1   2
BRANCH   1  25
ATOM     25  C   UNL A   1      34.347  33.701  29.181  1.00  0.00     0.023 C 
BRANCH  25  26
ATOM     26  C   UNL A   1      34.768  32.937  27.934  1.00  0.00     0.116 C 
BRANCH  26  27
ATOM     27  N   UNL A   1      33.949  31.759  27.699  1.00  0.00    -0.352 N 
ATOM     28  C   UNL A   1      34.324  30.441  27.679  1.00  0.00     0.251 C 
ATOM     29  H   UNL A   1      32.994  31.933  27.531  1.00  0.00     0.163 HD
ATOM     30  O   UNL A   1      33.522  29.587  27.304  1.00  0.00    -0.269 OA
BRANCH  28  31
ATOM     31  C   UNL A   1      35.691  30.052  28.087  1.00  0.00     0.039 A 
ATOM     32  C   UNL A   1      35.908  29.630  29.400  1.00  0.00     0.014 A 
ATOM     33  C   UNL A   1      36.758  30.118  27.185  1.00  0.00     0.014 A 
ATOM     34  C   UNL A   1      37.191  29.248  29.800  1.00  0.00     0.010 A 
ATOM     35  C   UNL A   1      38.014  29.651  27.559  1.00  0.00     0.010 A 
ATOM     36  C   UNL A   1      38.252  29.242  28.879  1.00  0.00    -0.014 A 
BRANCH  36  37
ATOM     37  C   UNL A   1      39.627  28.869  29.298  1.00  0.00     0.031 A 
ATOM     38  C   UNL A   1      40.441  29.824  30.134  1.00  0.00     0.074 A 
ATOM     39  C   UNL A   1      40.154  27.692  28.909  1.00  0.00     0.049 A 
ATOM     40  N   UNL A   1      41.653  29.680  30.606  1.00  0.00    -0.248 NA
ATOM     41  C   UNL A   1      39.825  31.121  30.460  1.00  0.00     0.031 C 
ATOM     42  C   UNL A   1      39.482  26.698  28.066  1.00  0.00     0.029 A 
ATOM     43  N   UNL A   1      41.376  27.126  29.176  1.00  0.00    -0.354 N 
ATOM     44  C   UNL A   1      41.948  30.871  31.261  1.00  0.00     0.074 A 
ATOM     45  C   UNL A   1      40.815  31.748  31.076  1.00  0.00     0.031 C 
ATOM     46  C   UNL A   1      40.283  25.629  27.926  1.00  0.00     0.029 A 
ATOM     47  C   UNL A   1      41.536  25.874  28.632  1.00  0.00     0.049 A 
ATOM     48  H   UNL A   1      42.072  27.576  29.708  1.00  0.00     0.167 HD
ATOM     49  C   UNL A   1      43.052  31.199  31.974  1.00  0.00     0.031 A 
ATOM     50  C   UNL A   1      42.573  25.016  28.702  1.00  0.00     0.031 A 
ATOM     51  C   UNL A   1      44.172  30.317  32.169  1.00  0.00     0.049 A 
ATOM     52  C   UNL A   1      43.788  25.401  29.501  1.00  0.00     0.074 A 
ATOM     53  C   UNL A   1      45.311  30.527  32.925  1.00  0.00     0.029 A 
ATOM     54  N   UNL A   1      44.293  29.056  31.603  1.00  0.00    -0.354 N 
ATOM     55  N   UNL A   1      44.019  26.504  30.174  1.00  0.00    -0.248 NA
ATOM     56  C   UNL A   1      44.873  24.414  29.570  1.00  0.00     0.031 C 
ATOM     57  C   UNL A   1      46.149  29.418  32.767  1.00  0.00     0.029 A 
ATOM     58  C   UNL A   1      45.499  28.486  31.973  1.00  0.00     0.049 A 
ATOM     59  H   UNL A   1      43.622  28.630  31.024  1.00  0.00     0.167 HD
ATOM     60  C   UNL A   1      45.258  26.324  30.783  1.00  0.00     0.074 A 
ATOM     61  C   UNL A   1      45.719  25.004  30.404  1.00  0.00     0.031 C 
ATOM     62  C   UNL A   1      45.944  27.170  31.591  1.00  0.00     0.031 A 
BRANCH  49  63
ATOM     63  C   UNL A   1      43.107  32.578  32.581  1.00  0.00    -0.014 A 
ATOM     64  C   UNL A   1      43.688  33.661  31.893  1.00  0.00     0.010 A 
ATOM     65  C   UNL A   1      42.545  32.802  33.851  1.00  0.00     0.010 A 
ATOM     66  C   UNL A   1      43.752  34.925  32.484  1.00  0.00     0.020 A 
ATOM     67  C   UNL A   1      42.576  34.073  34.432  1.00  0.00     0.020 A 
ATOM     68  C   UNL A   1      43.198  35.122  33.753  1.00  0.00     0.054 A 
BRANCH  68  69
ATOM     69  S   UNL A   1      43.284  36.776  34.490  1.00  0.00     0.124 S 
ATOM     70  O   UNL A   1      42.012  36.854  35.205  1.00  0.00    -0.237 OA
ATOM     71  O   UNL A   1      44.473  36.689  35.333  1.00  0.00    -0.237 OA
ATOM     72  O   UNL A   1      43.405  37.665  33.337  1.00  0.00    -0.744 OA
ENDBRANCH  68  69
ENDBRANCH  49  63
BRANCH  50  73
ATOM     73  C   UNL A   1      42.489  23.689  28.031  1.00  0.00    -0.014 A 
ATOM     74  C   UNL A   1      41.938  22.584  28.705  1.00  0.00     0.010 A 
ATOM     75  C   UNL A   1      42.955  23.521  26.715  1.00  0.00     0.010 A 
ATOM     76  C   UNL A   1      41.876  21.332  28.084  1.00  0.00     0.020 A 
ATOM     77  C   UNL A   1      42.866  22.279  26.080  1.00  0.00     0.020 A 
ATOM     78  C   UNL A   1      42.339  21.189  26.774  1.00  0.00     0.054 A 
BRANCH  78  79
ATOM     79  S   UNL A   1      42.206  19.565  25.973  1.00  0.00     0.124 S 
ATOM     80  O   UNL A   1      43.154  19.691  24.872  1.00  0.00    -0.237 OA
ATOM     81  O   UNL A   1      42.597  18.653  27.046  1.00  0.00    -0.237 OA
ATOM     82  O   UNL A   1      40.800  19.491  25.584  1.00  0.00    -0.744 OA
ENDBRANCH  78  79
ENDBRANCH  50  73
BRANCH  62  83
ATOM     83  C   UNL A   1      47.241  26.670  32.174  1.00  0.00    -0.014 A 
ATOM     84  C   UNL A   1      48.476  26.897  31.542  1.00  0.00     0.010 A 
ATOM     85  C   UNL A   1      47.219  25.986  33.404  1.00  0.00     0.010 A 
ATOM     86  C   UNL A   1      49.658  26.404  32.101  1.00  0.00     0.020 A 
ATOM     87  C   UNL A   1      48.401  25.522  33.985  1.00  0.00     0.020 A 
ATOM     88  C   UNL A   1      49.612  25.715  33.319  1.00  0.00     0.054 A 
BRANCH  88  89
ATOM     89  S   UNL A   1      51.159  25.096  34.033  1.00  0.00     0.124 S 
ATOM     90  O   UNL A   1      51.717  26.302  34.638  1.00  0.00    -0.237 OA
ATOM     91  O   UNL A   1      50.695  24.078  34.972  1.00  0.00    -0.237 OA
ATOM     92  O   UNL A   1      51.893  24.581  32.878  1.00  0.00    -0.744 OA
ENDBRANCH  88  89
ENDBRANCH  62  83
ENDBRANCH  36  37
ENDBRANCH  28  31
ENDBRANCH  26  27
ENDBRANCH  25  26
ENDBRANCH   1  25
TORSDOF 17
ENDMDL
MODEL 3
REMARK VINA RESULT:     -11.2      4.169      6.015
REMARK SMILES C[C@@H](C(=O)NCCCCNC(=O)c1ccc(-c2c3nc(c(-c4ccc(S(=O)(=O)[O-])cc4)c4ccc([nH]4)c(-c4ccc(S(=O)(=O)[O-])cc4)c4nc(c(-c5ccc(S(=O)(=O)[O-])cc5)c5ccc2[nH]5)C=C4)C=C3)cc1)c1ccc(-c2ccn(C(F)F)c(=O)c2)cc1
REMARK SMILES IDX 7 1 6 2 5 3 3 4 4 5 2 7 1 8 73 9 74 10 88 11 75 12 87 13
REMARK SMILES IDX 76 14 77 15 78 16 86 17 79 18 84 19 80 20 85 21 81 22 82 23
REMARK SMILES IDX 83 24 8 25 9 26 10 27 11 28 12 30 13 31 14 32 72 33 15 34
REMARK SMILES IDX 71 35 16 36 17 37 18 38 65 39 19 40 70 41 64 42 66 43 20 44
REMARK SMILES IDX 69 45 63 46 62 47 21 49 51 50 32 51 50 52 33 53 36 54 49 55
REMARK SMILES IDX 67 56 34 57 35 58 48 60 68 61 37 62 22 63 23 64 31 65 24 66
REMARK SMILES IDX 30 67 25 68 26 69 27 70 28 71 29 72 52 73 53 74 61 75 54 76
REMARK SMILES IDX 60 77 55 78 56 79 57 80 58 81 59 82 38 83 39 84 47 85 40 86
REMARK SMILES IDX 46 87 41 88 42 89 43 90 44 91 45 92
REMARK H PARENT 5 6 10 29 66 48 36 59
REMARK Flexibility Score: inf
ROOT
ATOM      1  C   UNL A   1      33.397  28.761  25.844  1.00  0.00     0.023 C 
ENDROOT
BRANCH   1   2
ATOM      2  C   UNL A   1      31.880  28.560  25.857  1.00  0.00     0.116 C 
BRANCH   2   3
ATOM      3  N   UNL A   1      31.336  28.606  24.517  1.00  0.00    -0.356 N 
ATOM      4  C   UNL A   1      30.892  27.605  23.704  1.00  0.00     0.227 C 
ATOM      5  O   UNL A   1      30.523  27.949  22.580  1.00  0.00    -0.274 OA
ATOM      6  H   UNL A   1      31.276  29.508  24.128  1.00  0.00     0.163 HD
BRANCH   4   7
ATOM      7  C   UNL A   1      30.827  26.157  24.228  1.00  0.00     0.105 C 
ATOM      8  C   UNL A   1      29.898  25.988  25.433  1.00  0.00     0.023 C 
BRANCH   7   9
ATOM      9  C   UNL A   1      32.183  25.565  24.611  1.00  0.00    -0.036 A 
ATOM     10  C   UNL A   1      32.381  24.907  25.834  1.00  0.00     0.005 A 
ATOM     11  C   UNL A   1      33.234  25.583  23.681  1.00  0.00     0.005 A 
ATOM     12  C   UNL A   1      33.602  24.304  26.135  1.00  0.00     0.009 A 
ATOM     13  C   UNL A   1      34.450  24.959  23.973  1.00  0.00     0.009 A 
ATOM     14  C   UNL A   1      34.640  24.310  25.199  1.00  0.00    -0.018 A 
BRANCH  14  15
ATOM     15  C   UNL A   1      35.909  23.614  25.477  1.00  0.00    -0.011 A 
ATOM     16  C   UNL A   1      37.054  24.274  26.070  1.00  0.00     0.027 A 
ATOM     17  C   UNL A   1      36.008  22.321  25.122  1.00  0.00     0.080 A 
ATOM     18  C   UNL A   1      38.208  23.614  26.231  1.00  0.00     0.095 A 
ATOM     19  C   UNL A   1      37.278  21.571  25.308  1.00  0.00     0.255 A 
ATOM     20  N   UNL A   1      38.330  22.291  25.851  1.00  0.00    -0.258 N 
ATOM     21  O   UNL A   1      37.320  20.394  24.962  1.00  0.00    -0.269 OA
BRANCH  20  22
ATOM     22  C   UNL A   1      39.587  21.604  25.981  1.00  0.00     0.451 C 
ATOM     23  F   UNL A   1      40.624  22.392  25.607  1.00  0.00    -0.185 F 
ATOM     24  F   UNL A   1      39.795  21.217  27.264  1.00  0.00    -0.185 F 
ENDBRANCH  20  22
ENDBRANCH  14  15
ENDBRANCH   7   9
ENDBRANCH   4   7
ENDBRANCH   2   3
ENDBRANCH   1   2
BRANCH   1  25
ATOM     25  C   UNL A   1      34.096  28.443  27.168  1.00  0.00     0.023 C 
BRANCH  25  26
ATOM     26  C   UNL A   1      35.309  29.307  27.479  1.00  0.00     0.116 C 
BRANCH  26  27
ATOM     27  N   UNL A   1      35.292  29.824  28.838  1.00  0.00    -0.352 N 
ATOM     28  C   UNL A   1      36.312  29.876  29.751  1.00  0.00     0.251 C 
ATOM     29  H   UNL A   1      34.428  30.185  29.144  1.00  0.00     0.163 HD
ATOM     30  O   UNL A   1      36.072  30.202  30.913  1.00  0.00    -0.269 OA
BRANCH  28  31
ATOM     31  C   UNL A   1      37.690  29.521  29.346  1.00  0.00     0.039 A 
ATOM     32  C   UNL A   1      38.568  29.019  30.308  1.00  0.00     0.014 A 
ATOM     33  C   UNL A   1      38.120  29.696  28.027  1.00  0.00     0.014 A 
ATOM     34  C   UNL A   1      39.869  28.668  29.941  1.00  0.00     0.010 A 
ATOM     35  C   UNL A   1      39.384  29.261  27.645  1.00  0.00     0.010 A 
ATOM     36  C   UNL A   1      40.284  28.773  28.603  1.00  0.00    -0.014 A 
BRANCH  36  37
ATOM     37  C   UNL A   1      41.673  28.433  28.205  1.00  0.00     0.031 A 
ATOM     38  C   UNL A   1      42.729  29.510  28.172  1.00  0.00     0.074 A 
ATOM     39  C   UNL A   1      41.983  27.172  27.846  1.00  0.00     0.049 A 
ATOM     40  N   UNL A   1      43.996  29.414  27.860  1.00  0.00    -0.248 NA
ATOM     41  C   UNL A   1      42.300  30.878  28.507  1.00  0.00     0.031 C 
ATOM     42  C   UNL A   1      41.042  26.049  27.798  1.00  0.00     0.029 A 
ATOM     43  N   UNL A   1      43.178  26.619  27.461  1.00  0.00    -0.354 N 
ATOM     44  C   UNL A   1      44.504  30.706  27.940  1.00  0.00     0.074 A 
ATOM     45  C   UNL A   1      43.399  31.576  28.271  1.00  0.00     0.031 C 
ATOM     46  C   UNL A   1      41.707  24.935  27.451  1.00  0.00     0.029 A 
ATOM     47  C   UNL A   1      43.108  25.268  27.213  1.00  0.00     0.049 A 
ATOM     48  H   UNL A   1      44.008  27.141  27.370  1.00  0.00     0.167 HD
ATOM     49  C   UNL A   1      45.781  31.129  27.777  1.00  0.00     0.031 A 
ATOM     50  C   UNL A   1      44.066  24.395  26.846  1.00  0.00     0.031 A 
ATOM     51  C   UNL A   1      46.881  30.257  27.464  1.00  0.00     0.049 A 
ATOM     52  C   UNL A   1      45.477  24.888  26.673  1.00  0.00     0.074 A 
ATOM     53  C   UNL A   1      48.222  30.574  27.340  1.00  0.00     0.029 A 
ATOM     54  N   UNL A   1      46.767  28.895  27.225  1.00  0.00    -0.354 N 
ATOM     55  N   UNL A   1      45.952  26.102  26.823  1.00  0.00    -0.248 NA
ATOM     56  C   UNL A   1      46.485  23.887  26.304  1.00  0.00     0.031 C 
ATOM     57  C   UNL A   1      48.910  29.416  26.965  1.00  0.00     0.029 A 
ATOM     58  C   UNL A   1      48.011  28.362  26.929  1.00  0.00     0.049 A 
ATOM     59  H   UNL A   1      45.927  28.384  27.259  1.00  0.00     0.167 HD
ATOM     60  C   UNL A   1      47.324  26.001  26.611  1.00  0.00     0.074 A 
ATOM     61  C   UNL A   1      47.599  24.607  26.330  1.00  0.00     0.031 C 
ATOM     62  C   UNL A   1      48.270  26.972  26.655  1.00  0.00     0.031 A 
BRANCH  49  63
ATOM     63  C   UNL A   1      46.050  32.606  27.920  1.00  0.00    -0.014 A 
ATOM     64  C   UNL A   1      46.238  33.200  29.182  1.00  0.00     0.010 A 
ATOM     65  C   UNL A   1      46.142  33.411  26.769  1.00  0.00     0.010 A 
ATOM     66  C   UNL A   1      46.461  34.575  29.294  1.00  0.00     0.020 A 
ATOM     67  C   UNL A   1      46.398  34.781  26.874  1.00  0.00     0.020 A 
ATOM     68  C   UNL A   1      46.536  35.358  28.137  1.00  0.00     0.054 A 
BRANCH  68  69
ATOM     69  S   UNL A   1      46.838  37.137  28.312  1.00  0.00     0.124 S 
ATOM     70  O   UNL A   1      48.157  37.280  27.700  1.00  0.00    -0.237 OA
ATOM     71  O   UNL A   1      45.732  37.725  27.562  1.00  0.00    -0.237 OA
ATOM     72  O   UNL A   1      46.795  37.357  29.756  1.00  0.00    -0.744 OA
ENDBRANCH  68  69
ENDBRANCH  49  63
BRANCH  50  73
ATOM     73  C   UNL A   1      43.731  22.956  26.660  1.00  0.00    -0.014 A 
ATOM     74  C   UNL A   1      43.996  22.315  25.435  1.00  0.00     0.010 A 
ATOM     75  C   UNL A   1      43.150  22.214  27.704  1.00  0.00     0.010 A 
ATOM     76  C   UNL A   1      43.666  20.969  25.252  1.00  0.00     0.020 A 
ATOM     77  C   UNL A   1      42.847  20.860  27.535  1.00  0.00     0.020 A 
ATOM     78  C   UNL A   1      43.095  20.249  26.305  1.00  0.00     0.054 A 
BRANCH  78  79
ATOM     79  S   UNL A   1      42.717  18.492  26.057  1.00  0.00     0.124 S 
ATOM     80  O   UNL A   1      43.586  18.149  24.937  1.00  0.00    -0.237 OA
ATOM     81  O   UNL A   1      43.083  17.907  27.346  1.00  0.00    -0.237 OA
ATOM     82  O   UNL A   1      41.286  18.488  25.764  1.00  0.00    -0.744 OA
ENDBRANCH  78  79
ENDBRANCH  50  73
BRANCH  62  83
ATOM     83  C   UNL A   1      49.704  26.551  26.457  1.00  0.00    -0.014 A 
ATOM     84  C   UNL A   1      50.526  26.184  27.537  1.00  0.00     0.010 A 
ATOM     85  C   UNL A   1      50.225  26.491  25.151  1.00  0.00     0.010 A 
ATOM     86  C   UNL A   1      51.856  25.816  27.320  1.00  0.00     0.020 A 
ATOM     87  C   UNL A   1      51.543  26.089  24.925  1.00  0.00     0.020 A 
ATOM     88  C   UNL A   1      52.358  25.776  26.014  1.00  0.00     0.054 A 
BRANCH  88  89
ATOM     89  S   UNL A   1      54.083  25.282  25.755  1.00  0.00     0.124 S 
ATOM     90  O   UNL A   1      53.939  24.125  24.876  1.00  0.00    -0.237 OA
ATOM     91  O   UNL A   1      54.668  26.471  25.137  1.00  0.00    -0.237 OA
ATOM     92  O   UNL A   1      54.566  24.987  27.102  1.00  0.00    -0.744 OA
ENDBRANCH  88  89
ENDBRANCH  62  83
ENDBRANCH  36  37
ENDBRANCH  28  31
ENDBRANCH  26  27
ENDBRANCH  25  26
ENDBRANCH   1  25
TORSDOF 17
ENDMDL
