MODEL 1
REMARK VINA RESULT:     -10.6      0.000      0.000
REMARK SMILES CC[C@H](NC(=O)c1nn(C)cc1C(=O)NCCCCNC(=O)c1ccc(-c2c3nc(c(-c4ccc(S(=O)(=O)[O-])cc4)c4ccc([nH]4)c(-c4ccc(S(=O)(=O)[O-])cc4)c4nc(c(-c5ccc(S(=O)(=O)[O-])cc5)c5ccc2[nH]5)C=C4)C=C3)cc1)c1ccccc1
REMARK SMILES IDX 17 1 16 2 15 3 13 4 14 5 12 7 7 8 8 9 9 10 11 11 10 12 5 13
REMARK SMILES IDX 4 14 6 16 3 17 2 18 1 19 83 20 84 21 88 22 85 23 87 24 86 25
REMARK SMILES IDX 18 26 19 27 20 28 21 29 22 31 23 32 24 33 82 34 25 35 81 36
REMARK SMILES IDX 26 37 27 38 28 39 75 40 29 41 80 42 74 43 76 44 30 45 79 46
REMARK SMILES IDX 73 47 72 48 31 50 61 51 42 52 60 53 43 54 46 55 59 56 77 57
REMARK SMILES IDX 44 58 45 59 58 61 78 62 47 63 32 64 33 65 41 66 34 67 40 68
REMARK SMILES IDX 35 69 36 70 37 71 38 72 39 73 62 74 63 75 71 76 64 77 70 78
REMARK SMILES IDX 65 79 66 80 67 81 68 82 69 83 48 84 49 85 57 86 50 87 56 88
REMARK SMILES IDX 51 89 52 90 53 91 54 92 55 93
REMARK H PARENT 15 6 4 15 20 30 76 49 46 60
REMARK Flexibility Score: inf
ROOT
ATOM      1  C   UNL A   1      33.536  29.002  24.270  1.00  0.00     0.023 C 
ENDROOT
BRANCH   1   2
ATOM      2  C   UNL A   1      33.872  28.416  22.901  1.00  0.00     0.116 C 
BRANCH   2   3
ATOM      3  N   UNL A   1      32.697  27.989  22.171  1.00  0.00    -0.352 N 
ATOM      4  C   UNL A   1      31.650  27.168  22.488  1.00  0.00     0.255 C 
ATOM      5  O   UNL A   1      30.687  27.223  21.719  1.00  0.00    -0.269 OA
ATOM      6  H   UNL A   1      32.641  28.364  21.264  1.00  0.00     0.163 HD
BRANCH   4   7
ATOM      7  C   UNL A   1      31.619  26.295  23.649  1.00  0.00     0.090 A 
ATOM      8  C   UNL A   1      32.466  25.147  23.887  1.00  0.00     0.162 A 
ATOM      9  N   UNL A   1      32.071  24.487  24.999  1.00  0.00    -0.167 NA
ATOM     10  N   UNL A   1      30.976  25.129  25.401  1.00  0.00    -0.274 N 
ATOM     11  C   UNL A   1      30.761  26.297  24.736  1.00  0.00     0.123 A 
ATOM     12  C   UNL A   1      30.095  24.503  26.358  1.00  0.00     0.173 C 
BRANCH   8  13
ATOM     13  C   UNL A   1      33.510  24.522  23.054  1.00  0.00     0.273 C 
ATOM     14  N   UNL A   1      34.202  23.401  23.430  1.00  0.00    -0.344 N 
ATOM     15  H   UNL A   1      34.753  23.032  22.702  1.00  0.00     0.164 HD
ATOM     16  O   UNL A   1      33.746  24.942  21.916  1.00  0.00    -0.267 OA
BRANCH  14  17
ATOM     17  C   UNL A   1      34.311  22.630  24.670  1.00  0.00     0.112 C 
BRANCH  17  18
ATOM     18  C   UNL A   1      33.816  21.191  24.377  1.00  0.00     0.026 C 
ATOM     19  C   UNL A   1      32.585  21.160  23.481  1.00  0.00     0.006 C 
ENDBRANCH  17  18
BRANCH  17  20
ATOM     20  C   UNL A   1      35.765  22.670  25.179  1.00  0.00    -0.026 A 
ATOM     21  C   UNL A   1      36.333  23.831  25.734  1.00  0.00     0.006 A 
ATOM     22  C   UNL A   1      36.624  21.563  25.011  1.00  0.00     0.006 A 
ATOM     23  C   UNL A   1      37.674  23.865  26.139  1.00  0.00     0.000 A 
ATOM     24  C   UNL A   1      37.967  21.602  25.397  1.00  0.00     0.000 A 
ATOM     25  C   UNL A   1      38.490  22.752  25.970  1.00  0.00     0.000 A 
ENDBRANCH  17  20
ENDBRANCH  14  17
ENDBRANCH   8  13
ENDBRANCH   4   7
ENDBRANCH   2   3
ENDBRANCH   1   2
BRANCH   1  26
ATOM     26  C   UNL A   1      34.218  28.303  25.452  1.00  0.00     0.023 C 
BRANCH  26  27
ATOM     27  C   UNL A   1      33.562  28.505  26.818  1.00  0.00     0.116 C 
BRANCH  27  28
ATOM     28  N   UNL A   1      33.444  29.902  27.205  1.00  0.00    -0.352 N 
ATOM     29  C   UNL A   1      34.356  30.691  27.867  1.00  0.00     0.251 C 
ATOM     30  H   UNL A   1      32.598  30.342  26.962  1.00  0.00     0.163 HD
ATOM     31  O   UNL A   1      34.053  31.834  28.194  1.00  0.00    -0.269 OA
BRANCH  29  32
ATOM     32  C   UNL A   1      35.682  30.140  28.216  1.00  0.00     0.039 A 
ATOM     33  C   UNL A   1      36.699  30.178  27.258  1.00  0.00     0.014 A 
ATOM     34  C   UNL A   1      35.931  29.616  29.488  1.00  0.00     0.014 A 
ATOM     35  C   UNL A   1      37.986  29.756  27.599  1.00  0.00     0.010 A 
ATOM     36  C   UNL A   1      37.228  29.253  29.844  1.00  0.00     0.010 A 
ATOM     37  C   UNL A   1      38.269  29.326  28.906  1.00  0.00    -0.014 A 
BRANCH  37  38
ATOM     38  C   UNL A   1      39.653  28.972  29.317  1.00  0.00     0.031 A 
ATOM     39  C   UNL A   1      40.518  29.983  30.019  1.00  0.00     0.074 A 
ATOM     40  C   UNL A   1      40.155  27.766  28.985  1.00  0.00     0.049 A 
ATOM     41  N   UNL A   1      41.768  29.878  30.392  1.00  0.00    -0.248 NA
ATOM     42  C   UNL A   1      39.908  31.288  30.318  1.00  0.00     0.031 C 
ATOM     43  C   UNL A   1      39.435  26.718  28.255  1.00  0.00     0.029 A 
ATOM     44  N   UNL A   1      41.396  27.222  29.204  1.00  0.00    -0.354 N 
ATOM     45  C   UNL A   1      42.102  31.109  30.944  1.00  0.00     0.074 A 
ATOM     46  C   UNL A   1      40.935  31.956  30.824  1.00  0.00     0.031 C 
ATOM     47  C   UNL A   1      40.242  25.655  28.102  1.00  0.00     0.029 A 
ATOM     48  C   UNL A   1      41.543  25.955  28.689  1.00  0.00     0.049 A 
ATOM     49  H   UNL A   1      42.114  27.693  29.686  1.00  0.00     0.167 HD
ATOM     50  C   UNL A   1      43.269  31.494  31.513  1.00  0.00     0.031 A 
ATOM     51  C   UNL A   1      42.608  25.129  28.682  1.00  0.00     0.031 A 
ATOM     52  C   UNL A   1      44.420  30.641  31.652  1.00  0.00     0.049 A 
ATOM     53  C   UNL A   1      43.886  25.571  29.339  1.00  0.00     0.074 A 
ATOM     54  C   UNL A   1      45.620  30.915  32.284  1.00  0.00     0.029 A 
ATOM     55  N   UNL A   1      44.516  29.352  31.151  1.00  0.00    -0.354 N 
ATOM     56  N   UNL A   1      44.153  26.711  29.933  1.00  0.00    -0.248 NA
ATOM     57  C   UNL A   1      45.000  24.615  29.339  1.00  0.00     0.031 C 
ATOM     58  C   UNL A   1      46.460  29.808  32.125  1.00  0.00     0.029 A 
ATOM     59  C   UNL A   1      45.763  28.825  31.439  1.00  0.00     0.049 A 
ATOM     60  H   UNL A   1      43.802  28.881  30.662  1.00  0.00     0.167 HD
ATOM     61  C   UNL A   1      45.458  26.597  30.398  1.00  0.00     0.074 A 
ATOM     62  C   UNL A   1      45.921  25.273  30.031  1.00  0.00     0.031 C 
ATOM     63  C   UNL A   1      46.207  27.506  31.069  1.00  0.00     0.031 A 
BRANCH  50  64
ATOM     64  C   UNL A   1      43.364  32.906  32.026  1.00  0.00    -0.014 A 
ATOM     65  C   UNL A   1      43.701  33.970  31.170  1.00  0.00     0.010 A 
ATOM     66  C   UNL A   1      43.063  33.181  33.373  1.00  0.00     0.010 A 
ATOM     67  C   UNL A   1      43.772  35.276  31.660  1.00  0.00     0.020 A 
ATOM     68  C   UNL A   1      43.107  34.489  33.861  1.00  0.00     0.020 A 
ATOM     69  C   UNL A   1      43.478  35.527  33.004  1.00  0.00     0.054 A 
BRANCH  69  70
ATOM     70  S   UNL A   1      43.551  37.237  33.606  1.00  0.00     0.124 S 
ATOM     71  O   UNL A   1      43.705  37.987  32.361  1.00  0.00    -0.237 OA
ATOM     72  O   UNL A   1      42.266  37.397  34.280  1.00  0.00    -0.237 OA
ATOM     73  O   UNL A   1      44.718  37.245  34.485  1.00  0.00    -0.744 OA
ENDBRANCH  69  70
ENDBRANCH  50  64
BRANCH  51  74
ATOM     74  C   UNL A   1      42.509  23.792  28.034  1.00  0.00    -0.014 A 
ATOM     75  C   UNL A   1      42.121  22.663  28.778  1.00  0.00     0.010 A 
ATOM     76  C   UNL A   1      42.798  23.642  26.665  1.00  0.00     0.010 A 
ATOM     77  C   UNL A   1      42.048  21.406  28.171  1.00  0.00     0.020 A 
ATOM     78  C   UNL A   1      42.700  22.392  26.049  1.00  0.00     0.020 A 
ATOM     79  C   UNL A   1      42.338  21.278  26.810  1.00  0.00     0.054 A 
BRANCH  79  80
ATOM     80  S   UNL A   1      42.194  19.646  26.032  1.00  0.00     0.124 S 
ATOM     81  O   UNL A   1      43.096  19.771  24.893  1.00  0.00    -0.237 OA
ATOM     82  O   UNL A   1      42.636  18.747  27.096  1.00  0.00    -0.237 OA
ATOM     83  O   UNL A   1      40.773  19.552  25.700  1.00  0.00    -0.744 OA
ENDBRANCH  79  80
ENDBRANCH  51  74
BRANCH  63  84
ATOM     84  C   UNL A   1      47.593  27.091  31.484  1.00  0.00    -0.014 A 
ATOM     85  C   UNL A   1      47.836  26.526  32.747  1.00  0.00     0.010 A 
ATOM     86  C   UNL A   1      48.655  27.218  30.571  1.00  0.00     0.010 A 
ATOM     87  C   UNL A   1      49.126  26.121  33.103  1.00  0.00     0.020 A 
ATOM     88  C   UNL A   1      49.941  26.790  30.913  1.00  0.00     0.020 A 
ATOM     89  C   UNL A   1      50.171  26.257  32.182  1.00  0.00     0.054 A 
BRANCH  89  90
ATOM     90  S   UNL A   1      51.826  25.681  32.648  1.00  0.00     0.124 S 
ATOM     91  O   UNL A   1      51.994  24.512  31.789  1.00  0.00    -0.237 OA
ATOM     92  O   UNL A   1      52.671  26.827  32.321  1.00  0.00    -0.237 OA
ATOM     93  O   UNL A   1      51.704  25.392  34.075  1.00  0.00    -0.744 OA
ENDBRANCH  89  90
ENDBRANCH  63  84
ENDBRANCH  37  38
ENDBRANCH  29  32
ENDBRANCH  27  28
ENDBRANCH  26  27
ENDBRANCH   1  26
TORSDOF 18
ENDMDL
MODEL 2
REMARK VINA RESULT:     -10.6      0.621      8.112
REMARK SMILES CC[C@H](NC(=O)c1nn(C)cc1C(=O)NCCCCNC(=O)c1ccc(-c2c3nc(c(-c4ccc(S(=O)(=O)[O-])cc4)c4ccc([nH]4)c(-c4ccc(S(=O)(=O)[O-])cc4)c4nc(c(-c5ccc(S(=O)(=O)[O-])cc5)c5ccc2[nH]5)C=C4)C=C3)cc1)c1ccccc1
REMARK SMILES IDX 17 1 16 2 15 3 13 4 14 5 12 7 7 8 8 9 9 10 11 11 10 12 5 13
REMARK SMILES IDX 4 14 6 16 3 17 2 18 1 19 83 20 84 21 88 22 85 23 87 24 86 25
REMARK SMILES IDX 18 26 19 27 20 28 21 29 22 31 23 32 24 33 82 34 25 35 81 36
REMARK SMILES IDX 26 37 27 38 28 39 75 40 29 41 80 42 74 43 76 44 30 45 79 46
REMARK SMILES IDX 73 47 72 48 31 50 61 51 42 52 60 53 43 54 46 55 59 56 77 57
REMARK SMILES IDX 44 58 45 59 58 61 78 62 47 63 32 64 33 65 41 66 34 67 40 68
REMARK SMILES IDX 35 69 36 70 37 71 38 72 39 73 62 74 63 75 71 76 64 77 70 78
REMARK SMILES IDX 65 79 66 80 67 81 68 82 69 83 48 84 49 85 57 86 50 87 56 88
REMARK SMILES IDX 51 89 52 90 53 91 54 92 55 93
REMARK H PARENT 15 6 4 15 20 30 76 49 46 60
REMARK Flexibility Score: inf
ROOT
ATOM      1  C   UNL A   1      33.458  29.110  24.609  1.00  0.00     0.023 C 
ENDROOT
BRANCH   1   2
ATOM      2  C   UNL A   1      33.748  28.819  23.139  1.00  0.00     0.116 C 
BRANCH   2   3
ATOM      3  N   UNL A   1      32.560  28.454  22.397  1.00  0.00    -0.352 N 
ATOM      4  C   UNL A   1      31.513  27.616  22.665  1.00  0.00     0.255 C 
ATOM      5  O   UNL A   1      30.538  27.734  21.917  1.00  0.00    -0.269 OA
ATOM      6  H   UNL A   1      32.492  28.899  21.522  1.00  0.00     0.163 HD
BRANCH   4   7
ATOM      7  C   UNL A   1      31.494  26.657  23.756  1.00  0.00     0.090 A 
ATOM      8  C   UNL A   1      32.370  25.517  23.916  1.00  0.00     0.162 A 
ATOM      9  N   UNL A   1      31.982  24.764  24.971  1.00  0.00    -0.167 NA
ATOM     10  N   UNL A   1      30.866  25.344  25.406  1.00  0.00    -0.274 N 
ATOM     11  C   UNL A   1      30.625  26.553  24.830  1.00  0.00     0.123 A 
ATOM     12  C   UNL A   1      29.993  24.623  26.302  1.00  0.00     0.173 C 
BRANCH   8  13
ATOM     13  C   UNL A   1      33.439  24.985  23.051  1.00  0.00     0.273 C 
ATOM     14  N   UNL A   1      34.094  23.808  23.300  1.00  0.00    -0.344 N 
ATOM     15  H   UNL A   1      34.670  23.528  22.553  1.00  0.00     0.164 HD
ATOM     16  O   UNL A   1      33.734  25.549  21.992  1.00  0.00    -0.267 OA
BRANCH  14  17
ATOM     17  C   UNL A   1      34.131  22.873  24.427  1.00  0.00     0.112 C 
BRANCH  17  18
ATOM     18  C   UNL A   1      33.595  21.508  23.928  1.00  0.00     0.026 C 
ATOM     19  C   UNL A   1      32.359  21.045  24.688  1.00  0.00     0.006 C 
ENDBRANCH  17  18
BRANCH  17  20
ATOM     20  C   UNL A   1      35.569  22.786  24.979  1.00  0.00    -0.026 A 
ATOM     21  C   UNL A   1      36.229  23.899  25.527  1.00  0.00     0.006 A 
ATOM     22  C   UNL A   1      36.321  21.598  24.859  1.00  0.00     0.006 A 
ATOM     23  C   UNL A   1      37.556  23.815  25.972  1.00  0.00     0.000 A 
ATOM     24  C   UNL A   1      37.650  21.517  25.285  1.00  0.00     0.000 A 
ATOM     25  C   UNL A   1      38.266  22.625  25.849  1.00  0.00     0.000 A 
ENDBRANCH  17  20
ENDBRANCH  14  17
ENDBRANCH   8  13
ENDBRANCH   4   7
ENDBRANCH   2   3
ENDBRANCH   1   2
BRANCH   1  26
ATOM     26  C   UNL A   1      34.066  28.103  25.595  1.00  0.00     0.023 C 
BRANCH  26  27
ATOM     27  C   UNL A   1      33.668  28.278  27.060  1.00  0.00     0.116 C 
BRANCH  27  28
ATOM     28  N   UNL A   1      33.508  29.668  27.458  1.00  0.00    -0.352 N 
ATOM     29  C   UNL A   1      34.432  30.509  28.032  1.00  0.00     0.251 C 
ATOM     30  H   UNL A   1      32.620  30.059  27.294  1.00  0.00     0.163 HD
ATOM     31  O   UNL A   1      34.098  31.635  28.387  1.00  0.00    -0.269 OA
BRANCH  29  32
ATOM     32  C   UNL A   1      35.814  30.035  28.257  1.00  0.00     0.039 A 
ATOM     33  C   UNL A   1      36.732  30.118  27.207  1.00  0.00     0.014 A 
ATOM     34  C   UNL A   1      36.209  29.536  29.502  1.00  0.00     0.014 A 
ATOM     35  C   UNL A   1      38.067  29.770  27.426  1.00  0.00     0.010 A 
ATOM     36  C   UNL A   1      37.552  29.248  29.735  1.00  0.00     0.010 A 
ATOM     37  C   UNL A   1      38.495  29.368  28.702  1.00  0.00    -0.014 A 
BRANCH  37  38
ATOM     38  C   UNL A   1      39.928  29.093  28.982  1.00  0.00     0.031 A 
ATOM     39  C   UNL A   1      40.526  27.757  28.633  1.00  0.00     0.074 A 
ATOM     40  C   UNL A   1      40.669  30.018  29.624  1.00  0.00     0.049 A 
ATOM     41  N   UNL A   1      41.735  27.312  28.863  1.00  0.00    -0.248 NA
ATOM     42  C   UNL A   1      39.644  26.787  27.963  1.00  0.00     0.031 C 
ATOM     43  C   UNL A   1      40.191  31.331  30.065  1.00  0.00     0.029 A 
ATOM     44  N   UNL A   1      41.980  29.990  30.031  1.00  0.00    -0.354 N 
ATOM     45  C   UNL A   1      41.752  26.004  28.390  1.00  0.00     0.074 A 
ATOM     46  C   UNL A   1      40.423  25.716  27.895  1.00  0.00     0.031 C 
ATOM     47  C   UNL A   1      41.197  31.987  30.667  1.00  0.00     0.029 A 
ATOM     48  C   UNL A   1      42.380  31.132  30.686  1.00  0.00     0.049 A 
ATOM     49  H   UNL A   1      42.579  29.225  29.870  1.00  0.00     0.167 HD
ATOM     50  C   UNL A   1      42.784  25.128  28.358  1.00  0.00     0.031 A 
ATOM     51  C   UNL A   1      43.561  31.453  31.248  1.00  0.00     0.031 A 
ATOM     52  C   UNL A   1      44.110  25.425  28.829  1.00  0.00     0.049 A 
ATOM     53  C   UNL A   1      44.698  30.472  31.179  1.00  0.00     0.074 A 
ATOM     54  C   UNL A   1      45.243  24.631  28.766  1.00  0.00     0.029 A 
ATOM     55  N   UNL A   1      44.484  26.606  29.451  1.00  0.00    -0.354 N 
ATOM     56  N   UNL A   1      44.717  29.271  30.650  1.00  0.00    -0.248 NA
ATOM     57  C   UNL A   1      45.976  30.892  31.769  1.00  0.00     0.031 C 
ATOM     58  C   UNL A   1      46.290  25.314  29.393  1.00  0.00     0.029 A 
ATOM     59  C   UNL A   1      45.823  26.554  29.799  1.00  0.00     0.049 A 
ATOM     60  H   UNL A   1      43.885  27.370  29.621  1.00  0.00     0.167 HD
ATOM     61  C   UNL A   1      46.015  28.803  30.822  1.00  0.00     0.074 A 
ATOM     62  C   UNL A   1      46.755  29.855  31.489  1.00  0.00     0.031 C 
ATOM     63  C   UNL A   1      46.546  27.610  30.460  1.00  0.00     0.031 A 
BRANCH  50  64
ATOM     64  C   UNL A   1      42.519  23.756  27.797  1.00  0.00    -0.014 A 
ATOM     65  C   UNL A   1      42.577  23.513  26.413  1.00  0.00     0.010 A 
ATOM     66  C   UNL A   1      42.256  22.684  28.670  1.00  0.00     0.010 A 
ATOM     67  C   UNL A   1      42.340  22.231  25.910  1.00  0.00     0.020 A 
ATOM     68  C   UNL A   1      42.044  21.395  28.173  1.00  0.00     0.020 A 
ATOM     69  C   UNL A   1      42.071  21.181  26.793  1.00  0.00     0.054 A 
BRANCH  69  70
ATOM     70  S   UNL A   1      41.795  19.522  26.113  1.00  0.00     0.124 S 
ATOM     71  O   UNL A   1      42.659  19.534  24.934  1.00  0.00    -0.237 OA
ATOM     72  O   UNL A   1      42.232  18.651  27.201  1.00  0.00    -0.237 OA
ATOM     73  O   UNL A   1      40.362  19.496  25.834  1.00  0.00    -0.744 OA
ENDBRANCH  69  70
ENDBRANCH  50  64
BRANCH  51  74
ATOM     74  C   UNL A   1      43.733  32.771  31.920  1.00  0.00    -0.014 A 
ATOM     75  C   UNL A   1      44.152  33.897  31.189  1.00  0.00     0.010 A 
ATOM     76  C   UNL A   1      43.473  32.906  33.296  1.00  0.00     0.010 A 
ATOM     77  C   UNL A   1      44.331  35.128  31.827  1.00  0.00     0.020 A 
ATOM     78  C   UNL A   1      43.625  34.141  33.931  1.00  0.00     0.020 A 
ATOM     79  C   UNL A   1      44.066  35.243  33.194  1.00  0.00     0.054 A 
BRANCH  79  80
ATOM     80  S   UNL A   1      44.262  36.860  33.994  1.00  0.00     0.124 S 
ATOM     81  O   UNL A   1      45.180  36.551  35.083  1.00  0.00    -0.237 OA
ATOM     82  O   UNL A   1      44.809  37.682  32.916  1.00  0.00    -0.237 OA
ATOM     83  O   UNL A   1      42.901  37.206  34.398  1.00  0.00    -0.744 OA
ENDBRANCH  79  80
ENDBRANCH  51  74
BRANCH  63  84
ATOM     84  C   UNL A   1      48.007  27.387  30.744  1.00  0.00    -0.014 A 
ATOM     85  C   UNL A   1      48.429  26.726  31.911  1.00  0.00     0.010 A 
ATOM     86  C   UNL A   1      48.967  27.795  29.800  1.00  0.00     0.010 A 
ATOM     87  C   UNL A   1      49.789  26.503  32.143  1.00  0.00     0.020 A 
ATOM     88  C   UNL A   1      50.325  27.550  30.016  1.00  0.00     0.020 A 
ATOM     89  C   UNL A   1      50.729  26.917  31.193  1.00  0.00     0.054 A 
BRANCH  89  90
ATOM     90  S   UNL A   1      52.484  26.575  31.494  1.00  0.00     0.124 S 
ATOM     91  O   UNL A   1      52.876  27.707  32.328  1.00  0.00    -0.237 OA
ATOM     92  O   UNL A   1      52.449  25.280  32.168  1.00  0.00    -0.237 OA
ATOM     93  O   UNL A   1      53.068  26.557  30.154  1.00  0.00    -0.744 OA
ENDBRANCH  89  90
ENDBRANCH  63  84
ENDBRANCH  37  38
ENDBRANCH  29  32
ENDBRANCH  27  28
ENDBRANCH  26  27
ENDBRANCH   1  26
TORSDOF 18
ENDMDL
MODEL 3
REMARK VINA RESULT:     -10.6      4.318     10.068
REMARK SMILES CC[C@H](NC(=O)c1nn(C)cc1C(=O)NCCCCNC(=O)c1ccc(-c2c3nc(c(-c4ccc(S(=O)(=O)[O-])cc4)c4ccc([nH]4)c(-c4ccc(S(=O)(=O)[O-])cc4)c4nc(c(-c5ccc(S(=O)(=O)[O-])cc5)c5ccc2[nH]5)C=C4)C=C3)cc1)c1ccccc1
REMARK SMILES IDX 17 1 16 2 15 3 13 4 14 5 12 7 7 8 8 9 9 10 11 11 10 12 5 13
REMARK SMILES IDX 4 14 6 16 3 17 2 18 1 19 83 20 84 21 88 22 85 23 87 24 86 25
REMARK SMILES IDX 18 26 19 27 20 28 21 29 22 31 23 32 24 33 82 34 25 35 81 36
REMARK SMILES IDX 26 37 27 38 28 39 75 40 29 41 80 42 74 43 76 44 30 45 79 46
REMARK SMILES IDX 73 47 72 48 31 50 61 51 42 52 60 53 43 54 46 55 59 56 77 57
REMARK SMILES IDX 44 58 45 59 58 61 78 62 47 63 32 64 33 65 41 66 34 67 40 68
REMARK SMILES IDX 35 69 36 70 37 71 38 72 39 73 62 74 63 75 71 76 64 77 70 78
REMARK SMILES IDX 65 79 66 80 67 81 68 82 69 83 48 84 49 85 57 86 50 87 56 88
REMARK SMILES IDX 51 89 52 90 53 91 54 92 55 93
REMARK H PARENT 15 6 4 15 20 30 76 49 46 60
REMARK Flexibility Score: inf
ROOT
ATOM      1  C   UNL A   1      37.662  23.678  26.225  1.00  0.00     0.023 C 
ENDROOT
BRANCH   1   2
ATOM      2  C   UNL A   1      36.482  22.818  25.781  1.00  0.00     0.116 C 
BRANCH   2   3
ATOM      3  N   UNL A   1      35.508  22.620  26.834  1.00  0.00    -0.352 N 
ATOM      4  C   UNL A   1      34.356  21.886  26.912  1.00  0.00     0.255 C 
ATOM      5  O   UNL A   1      33.900  21.743  28.050  1.00  0.00    -0.269 OA
ATOM      6  H   UNL A   1      35.716  23.113  27.659  1.00  0.00     0.163 HD
BRANCH   4   7
ATOM      7  C   UNL A   1      33.695  21.281  25.770  1.00  0.00     0.090 A 
ATOM      8  C   UNL A   1      32.424  21.673  25.201  1.00  0.00     0.162 A 
ATOM      9  N   UNL A   1      32.047  20.805  24.234  1.00  0.00    -0.167 NA
ATOM     10  N   UNL A   1      32.985  19.860  24.246  1.00  0.00    -0.274 N 
ATOM     11  C   UNL A   1      34.061  20.177  25.017  1.00  0.00     0.123 A 
ATOM     12  C   UNL A   1      32.734  18.602  23.584  1.00  0.00     0.173 C 
BRANCH   8  13
ATOM     13  C   UNL A   1      31.452  22.702  25.615  1.00  0.00     0.273 C 
ATOM     14  N   UNL A   1      31.697  24.047  25.530  1.00  0.00    -0.344 N 
ATOM     15  H   UNL A   1      30.896  24.592  25.707  1.00  0.00     0.164 HD
ATOM     16  O   UNL A   1      30.315  22.386  25.981  1.00  0.00    -0.267 OA
BRANCH  14  17
ATOM     17  C   UNL A   1      32.881  24.858  25.238  1.00  0.00     0.112 C 
BRANCH  17  18
ATOM     18  C   UNL A   1      33.015  24.963  23.698  1.00  0.00     0.026 C 
ATOM     19  C   UNL A   1      34.301  24.338  23.173  1.00  0.00     0.006 C 
ENDBRANCH  17  18
BRANCH  17  20
ATOM     20  C   UNL A   1      32.748  26.233  25.922  1.00  0.00    -0.026 A 
ATOM     21  C   UNL A   1      33.839  27.108  26.064  1.00  0.00     0.006 A 
ATOM     22  C   UNL A   1      31.537  26.627  26.530  1.00  0.00     0.006 A 
ATOM     23  C   UNL A   1      33.712  28.330  26.739  1.00  0.00     0.000 A 
ATOM     24  C   UNL A   1      31.413  27.836  27.220  1.00  0.00     0.000 A 
ATOM     25  C   UNL A   1      32.500  28.692  27.317  1.00  0.00     0.000 A 
ENDBRANCH  17  20
ENDBRANCH  14  17
ENDBRANCH   8  13
ENDBRANCH   4   7
ENDBRANCH   2   3
ENDBRANCH   1   2
BRANCH   1  26
ATOM     26  C   UNL A   1      38.997  22.930  26.331  1.00  0.00     0.023 C 
BRANCH  26  27
ATOM     27  C   UNL A   1      40.171  23.732  26.893  1.00  0.00     0.116 C 
BRANCH  27  28
ATOM     28  N   UNL A   1      40.946  24.421  25.872  1.00  0.00    -0.352 N 
ATOM     29  C   UNL A   1      41.529  25.665  25.929  1.00  0.00     0.251 C 
ATOM     30  H   UNL A   1      41.068  23.931  25.027  1.00  0.00     0.163 HD
ATOM     31  O   UNL A   1      42.076  26.131  24.934  1.00  0.00    -0.269 OA
BRANCH  29  32
ATOM     32  C   UNL A   1      41.458  26.450  27.179  1.00  0.00     0.039 A 
ATOM     33  C   UNL A   1      42.351  27.509  27.359  1.00  0.00     0.014 A 
ATOM     34  C   UNL A   1      40.499  26.163  28.154  1.00  0.00     0.014 A 
ATOM     35  C   UNL A   1      42.236  28.328  28.485  1.00  0.00     0.010 A 
ATOM     36  C   UNL A   1      40.347  27.016  29.246  1.00  0.00     0.010 A 
ATOM     37  C   UNL A   1      41.209  28.110  29.418  1.00  0.00    -0.014 A 
BRANCH  37  38
ATOM     38  C   UNL A   1      41.005  29.030  30.568  1.00  0.00     0.031 A 
ATOM     39  C   UNL A   1      41.829  28.875  31.818  1.00  0.00     0.074 A 
ATOM     40  C   UNL A   1      40.024  29.952  30.514  1.00  0.00     0.049 A 
ATOM     41  N   UNL A   1      41.746  29.536  32.943  1.00  0.00    -0.248 NA
ATOM     42  C   UNL A   1      42.858  27.823  31.811  1.00  0.00     0.031 C 
ATOM     43  C   UNL A   1      39.121  30.165  29.380  1.00  0.00     0.029 A 
ATOM     44  N   UNL A   1      39.610  30.874  31.443  1.00  0.00    -0.354 N 
ATOM     45  C   UNL A   1      42.693  28.967  33.787  1.00  0.00     0.074 A 
ATOM     46  C   UNL A   1      43.311  27.882  33.056  1.00  0.00     0.031 C 
ATOM     47  C   UNL A   1      38.272  31.164  29.675  1.00  0.00     0.029 A 
ATOM     48  C   UNL A   1      38.545  31.639  31.027  1.00  0.00     0.049 A 
ATOM     49  H   UNL A   1      40.037  30.980  32.325  1.00  0.00     0.167 HD
ATOM     50  C   UNL A   1      43.027  29.323  35.050  1.00  0.00     0.031 A 
ATOM     51  C   UNL A   1      37.858  32.607  31.665  1.00  0.00     0.031 A 
ATOM     52  C   UNL A   1      42.427  30.417  35.765  1.00  0.00     0.049 A 
ATOM     53  C   UNL A   1      38.263  33.000  33.058  1.00  0.00     0.074 A 
ATOM     54  C   UNL A   1      42.754  30.906  37.019  1.00  0.00     0.029 A 
ATOM     55  N   UNL A   1      41.378  31.191  35.295  1.00  0.00    -0.354 N 
ATOM     56  N   UNL A   1      39.221  32.504  33.807  1.00  0.00    -0.248 NA
ATOM     57  C   UNL A   1      37.508  34.090  33.689  1.00  0.00     0.031 C 
ATOM     58  C   UNL A   1      41.871  31.946  37.326  1.00  0.00     0.029 A 
ATOM     59  C   UNL A   1      41.028  32.139  36.242  1.00  0.00     0.049 A 
ATOM     60  H   UNL A   1      40.945  31.082  34.417  1.00  0.00     0.167 HD
ATOM     61  C   UNL A   1      39.197  33.239  34.986  1.00  0.00     0.074 A 
ATOM     62  C   UNL A   1      38.142  34.224  34.846  1.00  0.00     0.031 C 
ATOM     63  C   UNL A   1      39.979  33.112  36.086  1.00  0.00     0.031 A 
BRANCH  50  64
ATOM     64  C   UNL A   1      44.092  28.517  35.744  1.00  0.00    -0.014 A 
ATOM     65  C   UNL A   1      45.439  28.921  35.727  1.00  0.00     0.010 A 
ATOM     66  C   UNL A   1      43.734  27.363  36.467  1.00  0.00     0.010 A 
ATOM     67  C   UNL A   1      46.413  28.168  36.387  1.00  0.00     0.020 A 
ATOM     68  C   UNL A   1      44.700  26.621  37.151  1.00  0.00     0.020 A 
ATOM     69  C   UNL A   1      46.037  27.020  37.092  1.00  0.00     0.054 A 
BRANCH  69  70
ATOM     70  S   UNL A   1      47.319  26.077  37.964  1.00  0.00     0.124 S 
ATOM     71  O   UNL A   1      46.617  25.669  39.179  1.00  0.00    -0.237 OA
ATOM     72  O   UNL A   1      47.622  25.000  37.024  1.00  0.00    -0.237 OA
ATOM     73  O   UNL A   1      48.391  27.049  38.160  1.00  0.00    -0.744 OA
ENDBRANCH  69  70
ENDBRANCH  50  64
BRANCH  51  74
ATOM     74  C   UNL A   1      36.716  33.280  30.986  1.00  0.00    -0.014 A 
ATOM     75  C   UNL A   1      36.908  33.962  29.772  1.00  0.00     0.010 A 
ATOM     76  C   UNL A   1      35.428  33.236  31.550  1.00  0.00     0.010 A 
ATOM     77  C   UNL A   1      35.838  34.610  29.147  1.00  0.00     0.020 A 
ATOM     78  C   UNL A   1      34.351  33.860  30.915  1.00  0.00     0.020 A 
ATOM     79  C   UNL A   1      34.566  34.555  29.723  1.00  0.00     0.054 A 
BRANCH  79  80
ATOM     80  S   UNL A   1      33.182  35.364  28.873  1.00  0.00     0.124 S 
ATOM     81  O   UNL A   1      32.602  34.259  28.118  1.00  0.00    -0.237 OA
ATOM     82  O   UNL A   1      32.377  35.865  29.985  1.00  0.00    -0.237 OA
ATOM     83  O   UNL A   1      33.833  36.398  28.072  1.00  0.00    -0.744 OA
ENDBRANCH  79  80
ENDBRANCH  51  74
BRANCH  63  84
ATOM     84  C   UNL A   1      39.749  34.081  37.215  1.00  0.00    -0.014 A 
ATOM     85  C   UNL A   1      38.938  33.743  38.311  1.00  0.00     0.010 A 
ATOM     86  C   UNL A   1      40.403  35.326  37.202  1.00  0.00     0.010 A 
ATOM     87  C   UNL A   1      38.760  34.645  39.363  1.00  0.00     0.020 A 
ATOM     88  C   UNL A   1      40.249  36.220  38.265  1.00  0.00     0.020 A 
ATOM     89  C   UNL A   1      39.418  35.880  39.333  1.00  0.00     0.054 A 
BRANCH  89  90
ATOM     90  S   UNL A   1      39.210  37.015  40.731  1.00  0.00     0.124 S 
ATOM     91  O   UNL A   1      40.587  37.417  41.003  1.00  0.00    -0.237 OA
ATOM     92  O   UNL A   1      38.349  38.057  40.176  1.00  0.00    -0.237 OA
ATOM     93  O   UNL A   1      38.589  36.186  41.762  1.00  0.00    -0.744 OA
ENDBRANCH  89  90
ENDBRANCH  63  84
ENDBRANCH  37  38
ENDBRANCH  29  32
ENDBRANCH  27  28
ENDBRANCH  26  27
ENDBRANCH   1  26
TORSDOF 18
ENDMDL
