MODEL 1
REMARK VINA RESULT:     -11.4      0.000      0.000
REMARK SMILES CC[C@]1(C(=O)NCCCCNC(=O)c2ccc(-c3c4nc(c(-c5ccc(S(=O)(=O)[O-])cc5)c5ccc([nH]5)c(-c5ccc(S(=O)(=O)[O-])cc5)c5nc(c(-c6ccc(S(=O)(=O)[O-])cc6)c6ccc3[nH]6)C=C5)C=C4)cc2)CC[N@@H+](Cc2ccc(CC(C)C)cc2)C1
REMARK SMILES IDX 8 1 7 2 6 3 4 4 5 5 3 7 74 8 88 9 75 10 76 11 2 13 1 14
REMARK SMILES IDX 77 15 78 16 79 17 87 18 80 19 86 20 81 21 82 22 83 23 84 24
REMARK SMILES IDX 85 25 9 26 10 27 11 28 12 29 13 31 14 32 15 33 73 34 16 35
REMARK SMILES IDX 72 36 17 37 18 38 19 39 66 40 20 41 71 42 65 43 67 44 21 45
REMARK SMILES IDX 70 46 64 47 63 48 22 50 52 51 33 52 51 53 34 54 37 55 50 56
REMARK SMILES IDX 68 57 35 58 36 59 49 61 69 62 38 63 23 64 24 65 32 66 25 67
REMARK SMILES IDX 31 68 26 69 27 70 28 71 29 72 30 73 53 74 54 75 62 76 55 77
REMARK SMILES IDX 61 78 56 79 57 80 58 81 59 82 60 83 39 84 40 85 48 86 41 87
REMARK SMILES IDX 47 88 42 89 43 90 44 91 45 92 46 93
REMARK H PARENT 6 6 76 12 11 30 67 49 37 60
REMARK Flexibility Score: inf
ROOT
ATOM      1  C   UNL A   1      37.154  23.106  25.246  1.00  0.00     0.023 C 
ENDROOT
BRANCH   1   2
ATOM      2  C   UNL A   1      35.621  23.047  25.122  1.00  0.00     0.116 C 
BRANCH   2   3
ATOM      3  N   UNL A   1      35.078  23.168  23.767  1.00  0.00    -0.355 N 
ATOM      4  C   UNL A   1      33.918  22.985  23.090  1.00  0.00     0.232 C 
ATOM      5  O   UNL A   1      33.987  23.367  21.908  1.00  0.00    -0.274 OA
ATOM      6  H   UNL A   1      35.780  23.483  23.152  1.00  0.00     0.163 HD
BRANCH   4   7
ATOM      7  C   UNL A   1      32.577  22.350  23.573  1.00  0.00     0.103 C 
ATOM      8  C   UNL A   1      32.834  21.335  24.739  1.00  0.00     0.084 C 
ATOM      9  C   UNL A   1      31.530  23.295  24.175  1.00  0.00     0.279 C 
ATOM     10  C   UNL A   1      31.823  21.662  25.835  1.00  0.00     0.263 C 
ATOM     11  N   UNL A   1      31.441  23.041  25.616  1.00  0.00    -0.330 N 
ATOM     12  H   UNL A   1      30.467  23.181  25.888  1.00  0.00     0.348 HD
BRANCH   7  13
ATOM     13  C   UNL A   1      32.090  21.525  22.336  1.00  0.00     0.020 C 
ATOM     14  C   UNL A   1      32.135  20.003  22.435  1.00  0.00     0.005 C 
ENDBRANCH   7  13
BRANCH  11  15
ATOM     15  C   UNL A   1      31.946  24.047  26.563  1.00  0.00     0.299 C 
BRANCH  15  16
ATOM     16  C   UNL A   1      32.226  25.479  26.123  1.00  0.00     0.006 A 
ATOM     17  C   UNL A   1      33.529  25.958  25.954  1.00  0.00     0.010 A 
ATOM     18  C   UNL A   1      31.223  26.433  26.011  1.00  0.00     0.010 A 
ATOM     19  C   UNL A   1      33.777  27.328  25.723  1.00  0.00     0.004 A 
ATOM     20  C   UNL A   1      31.438  27.780  25.748  1.00  0.00     0.004 A 
ATOM     21  C   UNL A   1      32.732  28.261  25.672  1.00  0.00    -0.048 A 
BRANCH  21  22
ATOM     22  C   UNL A   1      32.934  29.757  25.624  1.00  0.00     0.038 C 
BRANCH  22  23
ATOM     23  C   UNL A   1      32.549  30.493  26.928  1.00  0.00    -0.013 C 
ATOM     24  C   UNL A   1      33.763  31.117  27.616  1.00  0.00     0.008 C 
ATOM     25  C   UNL A   1      31.507  31.576  26.630  1.00  0.00     0.008 C 
ENDBRANCH  22  23
ENDBRANCH  21  22
ENDBRANCH  15  16
ENDBRANCH  11  15
ENDBRANCH   4   7
ENDBRANCH   2   3
ENDBRANCH   1   2
BRANCH   1  26
ATOM     26  C   UNL A   1      37.682  24.198  26.184  1.00  0.00     0.023 C 
BRANCH  26  27
ATOM     27  C   UNL A   1      39.002  23.853  26.847  1.00  0.00     0.116 C 
BRANCH  27  28
ATOM     28  N   UNL A   1      40.188  24.134  26.052  1.00  0.00    -0.352 N 
ATOM     29  C   UNL A   1      41.130  25.125  26.239  1.00  0.00     0.251 C 
ATOM     30  H   UNL A   1      40.336  23.542  25.279  1.00  0.00     0.163 HD
ATOM     31  O   UNL A   1      42.043  25.259  25.421  1.00  0.00    -0.269 OA
BRANCH  29  32
ATOM     32  C   UNL A   1      41.022  26.063  27.387  1.00  0.00     0.039 A 
ATOM     33  C   UNL A   1      41.785  27.233  27.401  1.00  0.00     0.014 A 
ATOM     34  C   UNL A   1      40.153  25.808  28.448  1.00  0.00     0.014 A 
ATOM     35  C   UNL A   1      41.633  28.153  28.446  1.00  0.00     0.010 A 
ATOM     36  C   UNL A   1      39.882  26.787  29.389  1.00  0.00     0.010 A 
ATOM     37  C   UNL A   1      40.659  27.947  29.436  1.00  0.00    -0.014 A 
BRANCH  37  38
ATOM     38  C   UNL A   1      40.478  28.872  30.583  1.00  0.00     0.031 A 
ATOM     39  C   UNL A   1      41.356  28.719  31.804  1.00  0.00     0.074 A 
ATOM     40  C   UNL A   1      39.492  29.789  30.555  1.00  0.00     0.049 A 
ATOM     41  N   UNL A   1      41.318  29.373  32.935  1.00  0.00    -0.248 NA
ATOM     42  C   UNL A   1      42.378  27.655  31.769  1.00  0.00     0.031 C 
ATOM     43  C   UNL A   1      38.533  29.974  29.461  1.00  0.00     0.029 A 
ATOM     44  N   UNL A   1      39.134  30.743  31.472  1.00  0.00    -0.354 N 
ATOM     45  C   UNL A   1      42.279  28.776  33.747  1.00  0.00     0.074 A 
ATOM     46  C   UNL A   1      42.821  27.657  33.016  1.00  0.00     0.031 C 
ATOM     47  C   UNL A   1      37.735  31.017  29.746  1.00  0.00     0.029 A 
ATOM     48  C   UNL A   1      38.096  31.545  31.057  1.00  0.00     0.049 A 
ATOM     49  H   UNL A   1      39.577  30.843  32.344  1.00  0.00     0.167 HD
ATOM     50  C   UNL A   1      42.706  29.150  34.976  1.00  0.00     0.031 A 
ATOM     51  C   UNL A   1      37.513  32.595  31.665  1.00  0.00     0.031 A 
ATOM     52  C   UNL A   1      42.196  30.300  35.669  1.00  0.00     0.049 A 
ATOM     53  C   UNL A   1      38.036  33.026  33.008  1.00  0.00     0.074 A 
ATOM     54  C   UNL A   1      42.603  30.829  36.880  1.00  0.00     0.029 A 
ATOM     55  N   UNL A   1      41.171  31.108  35.198  1.00  0.00    -0.354 N 
ATOM     56  N   UNL A   1      38.998  32.496  33.728  1.00  0.00    -0.248 NA
ATOM     57  C   UNL A   1      37.407  34.206  33.615  1.00  0.00     0.031 C 
ATOM     58  C   UNL A   1      41.789  31.931  37.164  1.00  0.00     0.029 A 
ATOM     59  C   UNL A   1      40.917  32.121  36.103  1.00  0.00     0.049 A 
ATOM     60  H   UNL A   1      40.695  30.979  34.347  1.00  0.00     0.167 HD
ATOM     61  C   UNL A   1      39.104  33.290  34.864  1.00  0.00     0.074 A 
ATOM     62  C   UNL A   1      38.126  34.351  34.720  1.00  0.00     0.031 C 
ATOM     63  C   UNL A   1      39.929  33.157  35.932  1.00  0.00     0.031 A 
BRANCH  50  64
ATOM     64  C   UNL A   1      43.783  28.319  35.628  1.00  0.00    -0.014 A 
ATOM     65  C   UNL A   1      43.462  27.269  36.511  1.00  0.00     0.010 A 
ATOM     66  C   UNL A   1      45.136  28.576  35.344  1.00  0.00     0.010 A 
ATOM     67  C   UNL A   1      44.470  26.530  37.135  1.00  0.00     0.020 A 
ATOM     68  C   UNL A   1      46.149  27.816  35.939  1.00  0.00     0.020 A 
ATOM     69  C   UNL A   1      45.809  26.809  36.846  1.00  0.00     0.054 A 
BRANCH  69  70
ATOM     70  S   UNL A   1      47.095  25.818  37.653  1.00  0.00     0.124 S 
ATOM     71  O   UNL A   1      46.347  24.635  38.070  1.00  0.00    -0.237 OA
ATOM     72  O   UNL A   1      48.057  25.606  36.575  1.00  0.00    -0.237 OA
ATOM     73  O   UNL A   1      47.563  26.674  38.741  1.00  0.00    -0.744 OA
ENDBRANCH  69  70
ENDBRANCH  50  64
BRANCH  51  74
ATOM     74  C   UNL A   1      36.408  33.330  30.989  1.00  0.00    -0.014 A 
ATOM     75  C   UNL A   1      35.148  33.448  31.602  1.00  0.00     0.010 A 
ATOM     76  C   UNL A   1      36.615  33.940  29.738  1.00  0.00     0.010 A 
ATOM     77  C   UNL A   1      34.111  34.143  30.970  1.00  0.00     0.020 A 
ATOM     78  C   UNL A   1      35.591  34.660  29.116  1.00  0.00     0.020 A 
ATOM     79  C   UNL A   1      34.340  34.748  29.731  1.00  0.00     0.054 A 
BRANCH  79  80
ATOM     80  S   UNL A   1      32.996  35.685  28.953  1.00  0.00     0.124 S 
ATOM     81  O   UNL A   1      33.726  36.730  28.241  1.00  0.00    -0.237 OA
ATOM     82  O   UNL A   1      32.353  34.677  28.115  1.00  0.00    -0.237 OA
ATOM     83  O   UNL A   1      32.197  36.142  30.089  1.00  0.00    -0.744 OA
ENDBRANCH  79  80
ENDBRANCH  51  74
BRANCH  63  84
ATOM     84  C   UNL A   1      39.817  34.194  37.014  1.00  0.00    -0.014 A 
ATOM     85  C   UNL A   1      40.406  35.463  36.867  1.00  0.00     0.010 A 
ATOM     86  C   UNL A   1      39.074  33.909  38.174  1.00  0.00     0.010 A 
ATOM     87  C   UNL A   1      40.291  36.413  37.883  1.00  0.00     0.020 A 
ATOM     88  C   UNL A   1      38.929  34.870  39.177  1.00  0.00     0.020 A 
ATOM     89  C   UNL A   1      39.554  36.109  39.033  1.00  0.00     0.054 A 
BRANCH  89  90
ATOM     90  S   UNL A   1      39.399  37.370  40.324  1.00  0.00     0.124 S 
ATOM     91  O   UNL A   1      38.709  38.445  39.616  1.00  0.00    -0.237 OA
ATOM     92  O   UNL A   1      38.614  36.687  41.348  1.00  0.00    -0.237 OA
ATOM     93  O   UNL A   1      40.783  37.657  40.696  1.00  0.00    -0.744 OA
ENDBRANCH  89  90
ENDBRANCH  63  84
ENDBRANCH  37  38
ENDBRANCH  29  32
ENDBRANCH  27  28
ENDBRANCH  26  27
ENDBRANCH   1  26
TORSDOF 19
ENDMDL
MODEL 2
REMARK VINA RESULT:     -11.1      6.288      8.517
REMARK SMILES CC[C@]1(C(=O)NCCCCNC(=O)c2ccc(-c3c4nc(c(-c5ccc(S(=O)(=O)[O-])cc5)c5ccc([nH]5)c(-c5ccc(S(=O)(=O)[O-])cc5)c5nc(c(-c6ccc(S(=O)(=O)[O-])cc6)c6ccc3[nH]6)C=C5)C=C4)cc2)CC[N@@H+](Cc2ccc(CC(C)C)cc2)C1
REMARK SMILES IDX 8 1 7 2 6 3 4 4 5 5 3 7 74 8 88 9 75 10 76 11 2 13 1 14
REMARK SMILES IDX 77 15 78 16 79 17 87 18 80 19 86 20 81 21 82 22 83 23 84 24
REMARK SMILES IDX 85 25 9 26 10 27 11 28 12 29 13 31 14 32 15 33 73 34 16 35
REMARK SMILES IDX 72 36 17 37 18 38 19 39 66 40 20 41 71 42 65 43 67 44 21 45
REMARK SMILES IDX 70 46 64 47 63 48 22 50 52 51 33 52 51 53 34 54 37 55 50 56
REMARK SMILES IDX 68 57 35 58 36 59 49 61 69 62 38 63 23 64 24 65 32 66 25 67
REMARK SMILES IDX 31 68 26 69 27 70 28 71 29 72 30 73 53 74 54 75 62 76 55 77
REMARK SMILES IDX 61 78 56 79 57 80 58 81 59 82 60 83 39 84 40 85 48 86 41 87
REMARK SMILES IDX 47 88 42 89 43 90 44 91 45 92 46 93
REMARK H PARENT 6 6 76 12 11 30 67 49 37 60
REMARK Flexibility Score: inf
ROOT
ATOM      1  C   UNL A   1      37.504  20.618  24.801  1.00  0.00     0.023 C 
ENDROOT
BRANCH   1   2
ATOM      2  C   UNL A   1      36.016  20.331  25.072  1.00  0.00     0.116 C 
BRANCH   2   3
ATOM      3  N   UNL A   1      35.348  21.227  26.018  1.00  0.00    -0.355 N 
ATOM      4  C   UNL A   1      34.987  22.528  26.143  1.00  0.00     0.232 C 
ATOM      5  O   UNL A   1      34.304  22.741  27.161  1.00  0.00    -0.274 OA
ATOM      6  H   UNL A   1      35.075  20.725  26.820  1.00  0.00     0.163 HD
BRANCH   4   7
ATOM      7  C   UNL A   1      35.333  23.746  25.230  1.00  0.00     0.103 C 
ATOM      8  C   UNL A   1      34.805  23.511  23.773  1.00  0.00     0.084 C 
ATOM      9  C   UNL A   1      34.711  25.098  25.598  1.00  0.00     0.279 C 
ATOM     10  C   UNL A   1      34.076  24.787  23.360  1.00  0.00     0.263 C 
ATOM     11  N   UNL A   1      33.697  25.438  24.596  1.00  0.00    -0.330 N 
ATOM     12  H   UNL A   1      33.716  26.450  24.478  1.00  0.00     0.348 HD
BRANCH   7  13
ATOM     13  C   UNL A   1      36.896  23.730  25.168  1.00  0.00     0.020 C 
ATOM     14  C   UNL A   1      37.661  24.061  26.446  1.00  0.00     0.005 C 
ENDBRANCH   7  13
BRANCH  11  15
ATOM     15  C   UNL A   1      32.273  25.415  24.968  1.00  0.00     0.299 C 
BRANCH  15  16
ATOM     16  C   UNL A   1      31.260  26.321  24.277  1.00  0.00     0.006 A 
ATOM     17  C   UNL A   1      31.549  27.654  23.974  1.00  0.00     0.010 A 
ATOM     18  C   UNL A   1      29.948  25.929  24.045  1.00  0.00     0.010 A 
ATOM     19  C   UNL A   1      30.545  28.528  23.502  1.00  0.00     0.004 A 
ATOM     20  C   UNL A   1      28.952  26.758  23.545  1.00  0.00     0.004 A 
ATOM     21  C   UNL A   1      29.222  28.097  23.334  1.00  0.00    -0.048 A 
BRANCH  21  22
ATOM     22  C   UNL A   1      28.065  29.017  23.021  1.00  0.00     0.038 C 
BRANCH  22  23
ATOM     23  C   UNL A   1      28.484  30.407  22.490  1.00  0.00    -0.013 C 
ATOM     24  C   UNL A   1      27.933  30.678  21.091  1.00  0.00     0.008 C 
ATOM     25  C   UNL A   1      28.011  31.499  23.455  1.00  0.00     0.008 C 
ENDBRANCH  22  23
ENDBRANCH  21  22
ENDBRANCH  15  16
ENDBRANCH  11  15
ENDBRANCH   4   7
ENDBRANCH   2   3
ENDBRANCH   1   2
BRANCH   1  26
ATOM     26  C   UNL A   1      38.470  19.538  25.303  1.00  0.00     0.023 C 
BRANCH  26  27
ATOM     27  C   UNL A   1      39.767  20.088  25.866  1.00  0.00     0.116 C 
BRANCH  27  28
ATOM     28  N   UNL A   1      40.840  19.115  26.014  1.00  0.00    -0.352 N 
ATOM     29  C   UNL A   1      42.174  19.345  26.283  1.00  0.00     0.251 C 
ATOM     30  H   UNL A   1      40.580  18.172  25.907  1.00  0.00     0.163 HD
ATOM     31  O   UNL A   1      42.961  18.397  26.309  1.00  0.00    -0.269 OA
BRANCH  29  32
ATOM     32  C   UNL A   1      42.676  20.729  26.488  1.00  0.00     0.039 A 
ATOM     33  C   UNL A   1      43.024  21.511  25.383  1.00  0.00     0.014 A 
ATOM     34  C   UNL A   1      42.785  21.275  27.767  1.00  0.00     0.014 A 
ATOM     35  C   UNL A   1      43.429  22.839  25.569  1.00  0.00     0.010 A 
ATOM     36  C   UNL A   1      43.024  22.628  27.938  1.00  0.00     0.010 A 
ATOM     37  C   UNL A   1      43.406  23.415  26.849  1.00  0.00    -0.014 A 
BRANCH  37  38
ATOM     38  C   UNL A   1      43.856  24.806  27.106  1.00  0.00     0.031 A 
ATOM     39  C   UNL A   1      45.307  25.168  26.885  1.00  0.00     0.074 A 
ATOM     40  C   UNL A   1      42.988  25.711  27.598  1.00  0.00     0.049 A 
ATOM     41  N   UNL A   1      45.920  26.301  27.114  1.00  0.00    -0.248 NA
ATOM     42  C   UNL A   1      46.200  24.102  26.392  1.00  0.00     0.031 C 
ATOM     43  C   UNL A   1      41.583  25.451  27.924  1.00  0.00     0.029 A 
ATOM     44  N   UNL A   1      43.159  27.035  27.907  1.00  0.00    -0.354 N 
ATOM     45  C   UNL A   1      47.262  26.067  26.827  1.00  0.00     0.074 A 
ATOM     46  C   UNL A   1      47.391  24.670  26.494  1.00  0.00     0.031 C 
ATOM     47  C   UNL A   1      41.006  26.595  28.331  1.00  0.00     0.029 A 
ATOM     48  C   UNL A   1      42.008  27.654  28.337  1.00  0.00     0.049 A 
ATOM     49  H   UNL A   1      44.023  27.499  27.830  1.00  0.00     0.167 HD
ATOM     50  C   UNL A   1      48.292  26.946  26.801  1.00  0.00     0.031 A 
ATOM     51  C   UNL A   1      41.789  28.937  28.682  1.00  0.00     0.031 A 
ATOM     52  C   UNL A   1      48.138  28.346  27.081  1.00  0.00     0.049 A 
ATOM     53  C   UNL A   1      42.935  29.908  28.598  1.00  0.00     0.074 A 
ATOM     54  C   UNL A   1      49.086  29.350  27.008  1.00  0.00     0.029 A 
ATOM     55  N   UNL A   1      46.948  28.940  27.476  1.00  0.00    -0.354 N 
ATOM     56  N   UNL A   1      44.181  29.684  28.251  1.00  0.00    -0.248 NA
ATOM     57  C   UNL A   1      42.642  31.307  28.935  1.00  0.00     0.031 C 
ATOM     58  C   UNL A   1      48.478  30.546  27.407  1.00  0.00     0.029 A 
ATOM     59  C   UNL A   1      47.140  30.295  27.670  1.00  0.00     0.049 A 
ATOM     60  H   UNL A   1      46.094  28.467  27.600  1.00  0.00     0.167 HD
ATOM     61  C   UNL A   1      44.818  30.919  28.308  1.00  0.00     0.074 A 
ATOM     62  C   UNL A   1      43.810  31.887  28.697  1.00  0.00     0.031 C 
ATOM     63  C   UNL A   1      46.116  31.228  28.066  1.00  0.00     0.031 A 
BRANCH  50  64
ATOM     64  C   UNL A   1      49.657  26.416  26.440  1.00  0.00    -0.014 A 
ATOM     65  C   UNL A   1      50.141  26.480  25.119  1.00  0.00     0.010 A 
ATOM     66  C   UNL A   1      50.480  25.860  27.437  1.00  0.00     0.010 A 
ATOM     67  C   UNL A   1      51.393  25.954  24.792  1.00  0.00     0.020 A 
ATOM     68  C   UNL A   1      51.749  25.363  27.121  1.00  0.00     0.020 A 
ATOM     69  C   UNL A   1      52.189  25.396  25.795  1.00  0.00     0.054 A 
BRANCH  69  70
ATOM     70  S   UNL A   1      53.820  24.741  25.346  1.00  0.00     0.124 S 
ATOM     71  O   UNL A   1      53.506  23.354  25.013  1.00  0.00    -0.237 OA
ATOM     72  O   UNL A   1      54.204  25.587  24.218  1.00  0.00    -0.237 OA
ATOM     73  O   UNL A   1      54.615  24.925  26.558  1.00  0.00    -0.744 OA
ENDBRANCH  69  70
ENDBRANCH  50  64
BRANCH  51  74
ATOM     74  C   UNL A   1      40.426  29.377  29.093  1.00  0.00    -0.014 A 
ATOM     75  C   UNL A   1      40.104  29.530  30.453  1.00  0.00     0.010 A 
ATOM     76  C   UNL A   1      39.447  29.670  28.126  1.00  0.00     0.010 A 
ATOM     77  C   UNL A   1      38.827  29.948  30.840  1.00  0.00     0.020 A 
ATOM     78  C   UNL A   1      38.178  30.116  28.506  1.00  0.00     0.020 A 
ATOM     79  C   UNL A   1      37.871  30.242  29.862  1.00  0.00     0.054 A 
BRANCH  79  80
ATOM     80  S   UNL A   1      36.236  30.830  30.386  1.00  0.00     0.124 S 
ATOM     81  O   UNL A   1      36.459  32.266  30.522  1.00  0.00    -0.237 OA
ATOM     82  O   UNL A   1      35.385  30.424  29.271  1.00  0.00    -0.237 OA
ATOM     83  O   UNL A   1      35.999  30.111  31.635  1.00  0.00    -0.744 OA
ENDBRANCH  79  80
ENDBRANCH  51  74
BRANCH  63  84
ATOM     84  C   UNL A   1      46.509  32.673  28.199  1.00  0.00    -0.014 A 
ATOM     85  C   UNL A   1      46.984  33.187  29.418  1.00  0.00     0.010 A 
ATOM     86  C   UNL A   1      46.442  33.517  27.075  1.00  0.00     0.010 A 
ATOM     87  C   UNL A   1      47.344  34.531  29.522  1.00  0.00     0.020 A 
ATOM     88  C   UNL A   1      46.834  34.853  27.167  1.00  0.00     0.020 A 
ATOM     89  C   UNL A   1      47.265  35.357  28.395  1.00  0.00     0.054 A 
BRANCH  89  90
ATOM     90  S   UNL A   1      47.764  37.091  28.552  1.00  0.00     0.124 S 
ATOM     91  O   UNL A   1      49.185  36.971  28.862  1.00  0.00    -0.237 OA
ATOM     92  O   UNL A   1      47.452  37.635  27.233  1.00  0.00    -0.237 OA
ATOM     93  O   UNL A   1      46.928  37.595  29.641  1.00  0.00    -0.744 OA
ENDBRANCH  89  90
ENDBRANCH  63  84
ENDBRANCH  37  38
ENDBRANCH  29  32
ENDBRANCH  27  28
ENDBRANCH  26  27
ENDBRANCH   1  26
TORSDOF 19
ENDMDL
MODEL 3
REMARK VINA RESULT:     -11.1      5.081      7.064
REMARK SMILES CC[C@]1(C(=O)NCCCCNC(=O)c2ccc(-c3c4nc(c(-c5ccc(S(=O)(=O)[O-])cc5)c5ccc([nH]5)c(-c5ccc(S(=O)(=O)[O-])cc5)c5nc(c(-c6ccc(S(=O)(=O)[O-])cc6)c6ccc3[nH]6)C=C5)C=C4)cc2)CC[N@@H+](Cc2ccc(CC(C)C)cc2)C1
REMARK SMILES IDX 8 1 7 2 6 3 4 4 5 5 3 7 74 8 88 9 75 10 76 11 2 13 1 14
REMARK SMILES IDX 77 15 78 16 79 17 87 18 80 19 86 20 81 21 82 22 83 23 84 24
REMARK SMILES IDX 85 25 9 26 10 27 11 28 12 29 13 31 14 32 15 33 73 34 16 35
REMARK SMILES IDX 72 36 17 37 18 38 19 39 66 40 20 41 71 42 65 43 67 44 21 45
REMARK SMILES IDX 70 46 64 47 63 48 22 50 52 51 33 52 51 53 34 54 37 55 50 56
REMARK SMILES IDX 68 57 35 58 36 59 49 61 69 62 38 63 23 64 24 65 32 66 25 67
REMARK SMILES IDX 31 68 26 69 27 70 28 71 29 72 30 73 53 74 54 75 62 76 55 77
REMARK SMILES IDX 61 78 56 79 57 80 58 81 59 82 60 83 39 84 40 85 48 86 41 87
REMARK SMILES IDX 47 88 42 89 43 90 44 91 45 92 46 93
REMARK H PARENT 6 6 76 12 11 30 67 49 37 60
REMARK Flexibility Score: inf
ROOT
ATOM      1  C   UNL A   1      34.599  23.593  26.059  1.00  0.00     0.023 C 
ENDROOT
BRANCH   1   2
ATOM      2  C   UNL A   1      34.064  24.988  25.686  1.00  0.00     0.116 C 
BRANCH   2   3
ATOM      3  N   UNL A   1      32.769  25.357  26.261  1.00  0.00    -0.355 N 
ATOM      4  C   UNL A   1      31.845  26.347  26.197  1.00  0.00     0.232 C 
ATOM      5  O   UNL A   1      30.818  26.088  26.849  1.00  0.00    -0.274 OA
ATOM      6  H   UNL A   1      32.476  24.665  26.898  1.00  0.00     0.163 HD
BRANCH   4   7
ATOM      7  C   UNL A   1      31.918  27.726  25.469  1.00  0.00     0.103 C 
ATOM      8  C   UNL A   1      33.322  27.925  24.802  1.00  0.00     0.084 C 
ATOM      9  C   UNL A   1      30.954  27.953  24.298  1.00  0.00     0.279 C 
ATOM     10  C   UNL A   1      33.065  28.403  23.375  1.00  0.00     0.263 C 
ATOM     11  N   UNL A   1      31.724  27.963  23.051  1.00  0.00    -0.330 N 
ATOM     12  H   UNL A   1      31.279  28.634  22.426  1.00  0.00     0.348 HD
BRANCH   7  13
ATOM     13  C   UNL A   1      31.803  28.765  26.632  1.00  0.00     0.020 C 
ATOM     14  C   UNL A   1      33.094  29.373  27.173  1.00  0.00     0.005 C 
ENDBRANCH   7  13
BRANCH  11  15
ATOM     15  C   UNL A   1      31.585  26.846  22.102  1.00  0.00     0.299 C 
BRANCH  15  16
ATOM     16  C   UNL A   1      31.857  25.408  22.527  1.00  0.00     0.006 A 
ATOM     17  C   UNL A   1      33.037  24.746  22.178  1.00  0.00     0.010 A 
ATOM     18  C   UNL A   1      30.896  24.622  23.149  1.00  0.00     0.010 A 
ATOM     19  C   UNL A   1      33.196  23.365  22.421  1.00  0.00     0.004 A 
ATOM     20  C   UNL A   1      31.042  23.270  23.433  1.00  0.00     0.004 A 
ATOM     21  C   UNL A   1      32.175  22.603  23.004  1.00  0.00    -0.048 A 
BRANCH  21  22
ATOM     22  C   UNL A   1      32.199  21.097  23.115  1.00  0.00     0.038 C 
BRANCH  22  23
ATOM     23  C   UNL A   1      33.090  20.558  24.259  1.00  0.00    -0.013 C 
ATOM     24  C   UNL A   1      32.469  20.802  25.634  1.00  0.00     0.008 C 
ATOM     25  C   UNL A   1      33.343  19.060  24.063  1.00  0.00     0.008 C 
ENDBRANCH  22  23
ENDBRANCH  21  22
ENDBRANCH  15  16
ENDBRANCH  11  15
ENDBRANCH   4   7
ENDBRANCH   2   3
ENDBRANCH   1   2
BRANCH   1  26
ATOM     26  C   UNL A   1      35.792  23.116  25.221  1.00  0.00     0.023 C 
BRANCH  26  27
ATOM     27  C   UNL A   1      37.141  23.494  25.803  1.00  0.00     0.116 C 
BRANCH  27  28
ATOM     28  N   UNL A   1      38.051  22.381  26.030  1.00  0.00    -0.352 N 
ATOM     29  C   UNL A   1      39.347  22.417  26.504  1.00  0.00     0.251 C 
ATOM     30  H   UNL A   1      37.697  21.487  25.816  1.00  0.00     0.163 HD
ATOM     31  O   UNL A   1      39.999  21.373  26.571  1.00  0.00    -0.269 OA
BRANCH  29  32
ATOM     32  C   UNL A   1      39.977  23.708  26.882  1.00  0.00     0.039 A 
ATOM     33  C   UNL A   1      39.870  24.809  26.028  1.00  0.00     0.014 A 
ATOM     34  C   UNL A   1      40.659  23.852  28.091  1.00  0.00     0.014 A 
ATOM     35  C   UNL A   1      40.401  26.046  26.414  1.00  0.00     0.010 A 
ATOM     36  C   UNL A   1      41.036  25.105  28.543  1.00  0.00     0.010 A 
ATOM     37  C   UNL A   1      40.966  26.208  27.689  1.00  0.00    -0.014 A 
BRANCH  37  38
ATOM     38  C   UNL A   1      41.572  27.488  28.136  1.00  0.00     0.031 A 
ATOM     39  C   UNL A   1      43.067  27.677  28.026  1.00  0.00     0.074 A 
ATOM     40  C   UNL A   1      40.798  28.435  28.699  1.00  0.00     0.049 A 
ATOM     41  N   UNL A   1      43.804  28.683  28.420  1.00  0.00    -0.248 NA
ATOM     42  C   UNL A   1      43.846  26.567  27.444  1.00  0.00     0.031 C 
ATOM     43  C   UNL A   1      39.354  28.328  28.928  1.00  0.00     0.029 A 
ATOM     44  N   UNL A   1      41.116  29.680  29.177  1.00  0.00    -0.354 N 
ATOM     45  C   UNL A   1      45.121  28.308  28.166  1.00  0.00     0.074 A 
ATOM     46  C   UNL A   1      45.091  26.955  27.667  1.00  0.00     0.031 C 
ATOM     47  C   UNL A   1      38.904  29.482  29.449  1.00  0.00     0.029 A 
ATOM     48  C   UNL A   1      40.029  30.391  29.629  1.00  0.00     0.049 A 
ATOM     49  H   UNL A   1      42.035  30.030  29.196  1.00  0.00     0.167 HD
ATOM     50  C   UNL A   1      46.253  29.040  28.294  1.00  0.00     0.031 A 
ATOM     51  C   UNL A   1      39.954  31.642  30.122  1.00  0.00     0.031 A 
ATOM     52  C   UNL A   1      46.261  30.405  28.739  1.00  0.00     0.049 A 
ATOM     53  C   UNL A   1      41.217  32.455  30.209  1.00  0.00     0.074 A 
ATOM     54  C   UNL A   1      47.331  31.276  28.833  1.00  0.00     0.029 A 
ATOM     55  N   UNL A   1      45.135  31.101  29.153  1.00  0.00    -0.354 N 
ATOM     56  N   UNL A   1      42.443  32.111  29.891  1.00  0.00    -0.248 NA
ATOM     57  C   UNL A   1      41.084  33.831  30.704  1.00  0.00     0.031 C 
ATOM     58  C   UNL A   1      46.857  32.486  29.350  1.00  0.00     0.029 A 
ATOM     59  C   UNL A   1      45.485  32.386  29.522  1.00  0.00     0.049 A 
ATOM     60  H   UNL A   1      44.222  30.735  29.179  1.00  0.00     0.167 HD
ATOM     61  C   UNL A   1      43.226  33.234  30.129  1.00  0.00     0.074 A 
ATOM     62  C   UNL A   1      42.328  34.275  30.591  1.00  0.00     0.031 C 
ATOM     63  C   UNL A   1      44.565  33.395  29.985  1.00  0.00     0.031 A 
BRANCH  50  64
ATOM     64  C   UNL A   1      47.559  28.379  27.930  1.00  0.00    -0.014 A 
ATOM     65  C   UNL A   1      48.047  28.402  26.609  1.00  0.00     0.010 A 
ATOM     66  C   UNL A   1      48.322  27.739  28.924  1.00  0.00     0.010 A 
ATOM     67  C   UNL A   1      49.241  27.756  26.279  1.00  0.00     0.020 A 
ATOM     68  C   UNL A   1      49.536  27.120  28.605  1.00  0.00     0.020 A 
ATOM     69  C   UNL A   1      49.978  27.117  27.280  1.00  0.00     0.054 A 
BRANCH  69  70
ATOM     70  S   UNL A   1      51.536  26.306  26.826  1.00  0.00     0.124 S 
ATOM     71  O   UNL A   1      52.458  26.848  27.822  1.00  0.00    -0.237 OA
ATOM     72  O   UNL A   1      51.214  24.890  26.974  1.00  0.00    -0.237 OA
ATOM     73  O   UNL A   1      51.773  26.749  25.454  1.00  0.00    -0.744 OA
ENDBRANCH  69  70
ENDBRANCH  50  64
BRANCH  51  74
ATOM     74  C   UNL A   1      38.635  32.208  30.524  1.00  0.00    -0.014 A 
ATOM     75  C   UNL A   1      37.808  32.835  29.575  1.00  0.00     0.010 A 
ATOM     76  C   UNL A   1      38.187  32.100  31.853  1.00  0.00     0.010 A 
ATOM     77  C   UNL A   1      36.568  33.362  29.951  1.00  0.00     0.020 A 
ATOM     78  C   UNL A   1      36.935  32.599  32.227  1.00  0.00     0.020 A 
ATOM     79  C   UNL A   1      36.137  33.238  31.275  1.00  0.00     0.054 A 
BRANCH  79  80
ATOM     80  S   UNL A   1      34.504  33.884  31.728  1.00  0.00     0.124 S 
ATOM     81  O   UNL A   1      33.919  34.176  30.423  1.00  0.00    -0.237 OA
ATOM     82  O   UNL A   1      33.911  32.762  32.451  1.00  0.00    -0.237 OA
ATOM     83  O   UNL A   1      34.814  35.051  32.551  1.00  0.00    -0.744 OA
ENDBRANCH  79  80
ENDBRANCH  51  74
BRANCH  63  84
ATOM     84  C   UNL A   1      45.129  34.749  30.313  1.00  0.00    -0.014 A 
ATOM     85  C   UNL A   1      45.209  35.759  29.338  1.00  0.00     0.010 A 
ATOM     86  C   UNL A   1      45.544  35.027  31.629  1.00  0.00     0.010 A 
ATOM     87  C   UNL A   1      45.735  37.009  29.662  1.00  0.00     0.020 A 
ATOM     88  C   UNL A   1      46.040  36.289  31.964  1.00  0.00     0.020 A 
ATOM     89  C   UNL A   1      46.150  37.266  30.973  1.00  0.00     0.054 A 
BRANCH  89  90
ATOM     90  S   UNL A   1      46.805  38.907  31.373  1.00  0.00     0.124 S 
ATOM     91  O   UNL A   1      47.858  38.588  32.332  1.00  0.00    -0.237 OA
ATOM     92  O   UNL A   1      47.264  39.394  30.074  1.00  0.00    -0.237 OA
ATOM     93  O   UNL A   1      45.652  39.615  31.925  1.00  0.00    -0.744 OA
ENDBRANCH  89  90
ENDBRANCH  63  84
ENDBRANCH  37  38
ENDBRANCH  29  32
ENDBRANCH  27  28
ENDBRANCH  26  27
ENDBRANCH   1  26
TORSDOF 19
ENDMDL
