MODEL 1
REMARK VINA RESULT:     -12.0      0.000      0.000
REMARK SMILES O=C(NCCCCNC(=O)[C@H]1CC=CC[C@@H]1C(=O)N[C@@H]1CCCN(c2ccccc2F)C1=O)c1ccc(-c2c3nc(c(-c4ccc(S(=O)(=O)[O-])cc4)c4ccc([nH]4)c(-c4ccc(S(=O)(=O)[O-])cc4)c4nc(c(-c5ccc(S(=O)(=O)[O-])cc5)c5ccc2[nH]5)C=C4)C=C3)cc1
REMARK SMILES IDX 5 1 4 2 3 3 1 4 2 5 34 7 35 8 93 9 36 10 92 11 37 12 38 13
REMARK SMILES IDX 39 14 86 15 40 16 91 17 85 18 87 19 41 20 90 21 84 22 83 23
REMARK SMILES IDX 42 25 72 26 53 27 71 28 54 29 57 30 70 31 88 32 55 33 56 34
REMARK SMILES IDX 69 36 89 37 58 38 43 39 44 40 52 41 45 42 51 43 46 44 47 45
REMARK SMILES IDX 48 46 49 47 50 48 73 49 74 50 82 51 75 52 81 53 76 54 77 55
REMARK SMILES IDX 78 56 79 57 80 58 59 59 60 60 68 61 61 62 67 63 62 64 63 65
REMARK SMILES IDX 64 66 65 67 66 68 6 69 7 70 8 71 9 72 10 74 11 75 12 76
REMARK SMILES IDX 16 77 13 78 15 79 14 80 17 81 18 82 19 83 20 85 21 86 32 87
REMARK SMILES IDX 22 88 24 89 33 90 23 91 25 92 26 93 30 94 27 95 29 96 31 97
REMARK SMILES IDX 28 98
REMARK H PARENT 3 6 87 24 57 35 8 73 19 84
REMARK Flexibility Score: inf
ROOT
ATOM      1  C   UNL A   1      35.908  23.834  24.123  1.00  0.00     0.023 C 
ENDROOT
BRANCH   1   2
ATOM      2  C   UNL A   1      36.751  23.849  25.392  1.00  0.00     0.116 C 
BRANCH   2   3
ATOM      3  N   UNL A   1      37.792  22.833  25.469  1.00  0.00    -0.352 N 
ATOM      4  O   UNL A   1      39.782  22.019  26.240  1.00  0.00    -0.269 OA
ATOM      5  C   UNL A   1      38.982  22.935  26.163  1.00  0.00     0.251 C 
ATOM      6  H   UNL A   1      37.631  21.993  24.981  1.00  0.00     0.163 HD
BRANCH   5   7
ATOM      7  C   UNL A   1      39.312  24.218  26.796  1.00  0.00     0.039 A 
ATOM      8  C   UNL A   1      40.067  25.159  26.098  1.00  0.00     0.014 A 
ATOM      9  C   UNL A   1      38.923  24.428  28.121  1.00  0.00     0.014 A 
ATOM     10  C   UNL A   1      40.563  26.256  26.780  1.00  0.00     0.010 A 
ATOM     11  C   UNL A   1      39.351  25.576  28.779  1.00  0.00     0.010 A 
ATOM     12  C   UNL A   1      40.200  26.477  28.121  1.00  0.00    -0.014 A 
BRANCH  12  13
ATOM     13  C   UNL A   1      40.665  27.708  28.789  1.00  0.00     0.031 A 
ATOM     14  C   UNL A   1      42.081  27.841  29.260  1.00  0.00     0.074 A 
ATOM     15  C   UNL A   1      39.779  28.712  28.915  1.00  0.00     0.049 A 
ATOM     16  N   UNL A   1      42.660  28.870  29.822  1.00  0.00    -0.248 NA
ATOM     17  C   UNL A   1      42.962  26.674  29.089  1.00  0.00     0.031 C 
ATOM     18  C   UNL A   1      38.377  28.654  28.485  1.00  0.00     0.029 A 
ATOM     19  N   UNL A   1      39.922  29.980  29.407  1.00  0.00    -0.354 N 
ATOM     20  C   UNL A   1      43.964  28.472  30.090  1.00  0.00     0.074 A 
ATOM     21  C   UNL A   1      44.088  27.100  29.647  1.00  0.00     0.031 C 
ATOM     22  C   UNL A   1      37.808  29.852  28.674  1.00  0.00     0.029 A 
ATOM     23  C   UNL A   1      38.781  30.738  29.297  1.00  0.00     0.049 A 
ATOM     24  H   UNL A   1      40.759  30.315  29.801  1.00  0.00     0.167 HD
ATOM     25  C   UNL A   1      44.962  29.193  30.656  1.00  0.00     0.031 A 
ATOM     26  C   UNL A   1      38.545  32.008  29.668  1.00  0.00     0.031 A 
ATOM     27  C   UNL A   1      44.803  30.554  31.096  1.00  0.00     0.049 A 
ATOM     28  C   UNL A   1      39.664  32.779  30.298  1.00  0.00     0.074 A 
ATOM     29  C   UNL A   1      45.741  31.389  31.678  1.00  0.00     0.029 A 
ATOM     30  N   UNL A   1      43.624  31.283  31.001  1.00  0.00    -0.354 N 
ATOM     31  N   UNL A   1      40.896  32.390  30.533  1.00  0.00    -0.248 NA
ATOM     32  C   UNL A   1      39.367  34.153  30.715  1.00  0.00     0.031 C 
ATOM     33  C   UNL A   1      45.115  32.606  31.973  1.00  0.00     0.029 A 
ATOM     34  C   UNL A   1      43.803  32.549  31.528  1.00  0.00     0.049 A 
ATOM     35  H   UNL A   1      42.783  30.946  30.615  1.00  0.00     0.167 HD
ATOM     36  C   UNL A   1      41.526  33.475  31.124  1.00  0.00     0.074 A 
ATOM     37  C   UNL A   1      40.544  34.544  31.185  1.00  0.00     0.031 C 
ATOM     38  C   UNL A   1      42.798  33.580  31.583  1.00  0.00     0.031 A 
BRANCH  25  39
ATOM     39  C   UNL A   1      46.292  28.514  30.857  1.00  0.00    -0.014 A 
ATOM     40  C   UNL A   1      46.573  27.792  32.032  1.00  0.00     0.010 A 
ATOM     41  C   UNL A   1      47.266  28.571  29.844  1.00  0.00     0.010 A 
ATOM     42  C   UNL A   1      47.815  27.175  32.205  1.00  0.00     0.020 A 
ATOM     43  C   UNL A   1      48.502  27.936  30.003  1.00  0.00     0.020 A 
ATOM     44  C   UNL A   1      48.776  27.256  31.192  1.00  0.00     0.054 A 
BRANCH  44  45
ATOM     45  S   UNL A   1      50.377  26.439  31.439  1.00  0.00     0.124 S 
ATOM     46  O   UNL A   1      50.200  25.199  30.686  1.00  0.00    -0.237 OA
ATOM     47  O   UNL A   1      51.319  27.395  30.863  1.00  0.00    -0.237 OA
ATOM     48  O   UNL A   1      50.465  26.279  32.889  1.00  0.00    -0.744 OA
ENDBRANCH  44  45
ENDBRANCH  25  39
BRANCH  26  49
ATOM     49  C   UNL A   1      37.200  32.598  29.446  1.00  0.00    -0.014 A 
ATOM     50  C   UNL A   1      36.248  32.620  30.479  1.00  0.00     0.010 A 
ATOM     51  C   UNL A   1      36.890  33.209  28.216  1.00  0.00     0.010 A 
ATOM     52  C   UNL A   1      35.010  33.239  30.285  1.00  0.00     0.020 A 
ATOM     53  C   UNL A   1      35.665  33.854  28.028  1.00  0.00     0.020 A 
ATOM     54  C   UNL A   1      34.729  33.857  29.062  1.00  0.00     0.054 A 
BRANCH  54  55
ATOM     55  S   UNL A   1      33.148  34.724  28.858  1.00  0.00     0.124 S 
ATOM     56  O   UNL A   1      32.609  34.691  30.215  1.00  0.00    -0.237 OA
ATOM     57  O   UNL A   1      33.566  36.037  28.374  1.00  0.00    -0.237 OA
ATOM     58  O   UNL A   1      32.435  33.906  27.879  1.00  0.00    -0.744 OA
ENDBRANCH  54  55
ENDBRANCH  26  49
BRANCH  38  59
ATOM     59  C   UNL A   1      43.189  34.903  32.176  1.00  0.00    -0.014 A 
ATOM     60  C   UNL A   1      43.807  35.891  31.390  1.00  0.00     0.010 A 
ATOM     61  C   UNL A   1      42.901  35.170  33.526  1.00  0.00     0.010 A 
ATOM     62  C   UNL A   1      44.160  37.118  31.955  1.00  0.00     0.020 A 
ATOM     63  C   UNL A   1      43.230  36.405  34.087  1.00  0.00     0.020 A 
ATOM     64  C   UNL A   1      43.871  37.366  33.302  1.00  0.00     0.054 A 
BRANCH  64  65
ATOM     65  S   UNL A   1      44.303  38.980  34.003  1.00  0.00     0.124 S 
ATOM     66  O   UNL A   1      44.763  38.615  35.340  1.00  0.00    -0.237 OA
ATOM     67  O   UNL A   1      45.337  39.461  33.091  1.00  0.00    -0.237 OA
ATOM     68  O   UNL A   1      43.045  39.723  33.957  1.00  0.00    -0.744 OA
ENDBRANCH  64  65
ENDBRANCH  38  59
ENDBRANCH  12  13
ENDBRANCH   5   7
ENDBRANCH   2   3
ENDBRANCH   1   2
BRANCH   1  69
ATOM     69  C   UNL A   1      34.725  24.797  24.097  1.00  0.00     0.023 C 
BRANCH  69  70
ATOM     70  C   UNL A   1      33.533  24.332  23.264  1.00  0.00     0.116 C 
BRANCH  70  71
ATOM     71  N   UNL A   1      33.407  22.896  23.132  1.00  0.00    -0.356 N 
ATOM     72  C   UNL A   1      32.559  21.986  23.668  1.00  0.00     0.224 C 
ATOM     73  H   UNL A   1      34.076  22.499  22.528  1.00  0.00     0.163 HD
ATOM     74  O   UNL A   1      32.419  20.952  22.999  1.00  0.00    -0.275 OA
BRANCH  72  75
ATOM     75  C   UNL A   1      31.890  22.053  25.050  1.00  0.00     0.095 C 
ATOM     76  C   UNL A   1      32.471  20.911  25.902  1.00  0.00     0.041 C 
ATOM     77  C   UNL A   1      31.785  23.396  25.792  1.00  0.00     0.095 C 
ATOM     78  C   UNL A   1      33.680  21.308  26.682  1.00  0.00    -0.030 C 
ATOM     79  C   UNL A   1      32.926  23.677  26.780  1.00  0.00     0.041 C 
ATOM     80  C   UNL A   1      33.883  22.569  27.071  1.00  0.00    -0.030 C 
BRANCH  77  81
ATOM     81  C   UNL A   1      30.462  23.547  26.541  1.00  0.00     0.224 C 
ATOM     82  O   UNL A   1      29.993  22.645  27.235  1.00  0.00    -0.275 OA
ATOM     83  N   UNL A   1      29.778  24.730  26.491  1.00  0.00    -0.344 N 
ATOM     84  H   UNL A   1      29.011  24.769  27.107  1.00  0.00     0.164 HD
BRANCH  83  85
ATOM     85  C   UNL A   1      29.962  25.959  25.698  1.00  0.00     0.172 C 
ATOM     86  C   UNL A   1      30.093  25.690  24.202  1.00  0.00     0.037 C 
ATOM     87  C   UNL A   1      30.908  27.005  26.351  1.00  0.00     0.249 C 
ATOM     88  C   UNL A   1      30.625  26.903  23.464  1.00  0.00     0.025 C 
ATOM     89  N   UNL A   1      31.793  27.690  25.515  1.00  0.00    -0.308 N 
ATOM     90  O   UNL A   1      30.758  27.267  27.548  1.00  0.00    -0.272 OA
ATOM     91  C   UNL A   1      31.927  27.356  24.094  1.00  0.00     0.126 C 
BRANCH  89  92
ATOM     92  C   UNL A   1      32.740  28.632  26.058  1.00  0.00     0.080 A 
ATOM     93  C   UNL A   1      33.991  28.186  26.505  1.00  0.00     0.029 A 
ATOM     94  C   UNL A   1      32.456  30.001  26.213  1.00  0.00     0.146 A 
ATOM     95  C   UNL A   1      34.903  29.068  27.097  1.00  0.00     0.002 A 
ATOM     96  C   UNL A   1      33.347  30.873  26.843  1.00  0.00     0.041 A 
ATOM     97  F   UNL A   1      31.271  30.514  25.865  1.00  0.00    -0.205 F 
ATOM     98  C   UNL A   1      34.573  30.404  27.293  1.00  0.00     0.003 A 
ENDBRANCH  89  92
ENDBRANCH  83  85
ENDBRANCH  77  81
ENDBRANCH  72  75
ENDBRANCH  70  71
ENDBRANCH  69  70
ENDBRANCH   1  69
TORSDOF 17
ENDMDL
MODEL 2
REMARK VINA RESULT:     -11.6      3.785      9.803
REMARK SMILES O=C(NCCCCNC(=O)[C@H]1CC=CC[C@@H]1C(=O)N[C@@H]1CCCN(c2ccccc2F)C1=O)c1ccc(-c2c3nc(c(-c4ccc(S(=O)(=O)[O-])cc4)c4ccc([nH]4)c(-c4ccc(S(=O)(=O)[O-])cc4)c4nc(c(-c5ccc(S(=O)(=O)[O-])cc5)c5ccc2[nH]5)C=C4)C=C3)cc1
REMARK SMILES IDX 5 1 4 2 3 3 1 4 2 5 34 7 35 8 93 9 36 10 92 11 37 12 38 13
REMARK SMILES IDX 39 14 86 15 40 16 91 17 85 18 87 19 41 20 90 21 84 22 83 23
REMARK SMILES IDX 42 25 72 26 53 27 71 28 54 29 57 30 70 31 88 32 55 33 56 34
REMARK SMILES IDX 69 36 89 37 58 38 43 39 44 40 52 41 45 42 51 43 46 44 47 45
REMARK SMILES IDX 48 46 49 47 50 48 73 49 74 50 82 51 75 52 81 53 76 54 77 55
REMARK SMILES IDX 78 56 79 57 80 58 59 59 60 60 68 61 61 62 67 63 62 64 63 65
REMARK SMILES IDX 64 66 65 67 66 68 6 69 7 70 8 71 9 72 10 74 11 75 12 76
REMARK SMILES IDX 16 77 13 78 15 79 14 80 17 81 18 82 19 83 20 85 21 86 32 87
REMARK SMILES IDX 22 88 24 89 33 90 23 91 25 92 26 93 30 94 27 95 29 96 31 97
REMARK SMILES IDX 28 98
REMARK H PARENT 3 6 87 24 57 35 8 73 19 84
REMARK Flexibility Score: inf
ROOT
ATOM      1  C   UNL A   1      34.635  29.871  26.901  1.00  0.00     0.023 C 
ENDROOT
BRANCH   1   2
ATOM      2  C   UNL A   1      35.696  30.473  27.815  1.00  0.00     0.116 C 
BRANCH   2   3
ATOM      3  N   UNL A   1      35.456  30.322  29.243  1.00  0.00    -0.352 N 
ATOM      4  O   UNL A   1      36.129  29.868  31.378  1.00  0.00    -0.269 OA
ATOM      5  C   UNL A   1      36.378  29.910  30.187  1.00  0.00     0.251 C 
ATOM      6  H   UNL A   1      34.551  30.535  29.568  1.00  0.00     0.163 HD
BRANCH   5   7
ATOM      7  C   UNL A   1      37.697  29.463  29.722  1.00  0.00     0.039 A 
ATOM      8  C   UNL A   1      38.601  28.916  30.631  1.00  0.00     0.014 A 
ATOM      9  C   UNL A   1      38.041  29.677  28.385  1.00  0.00     0.014 A 
ATOM     10  C   UNL A   1      39.910  28.716  30.232  1.00  0.00     0.010 A 
ATOM     11  C   UNL A   1      39.336  29.393  27.965  1.00  0.00     0.010 A 
ATOM     12  C   UNL A   1      40.284  28.943  28.895  1.00  0.00    -0.014 A 
BRANCH  12  13
ATOM     13  C   UNL A   1      41.664  28.624  28.479  1.00  0.00     0.031 A 
ATOM     14  C   UNL A   1      42.745  29.660  28.540  1.00  0.00     0.074 A 
ATOM     15  C   UNL A   1      41.914  27.362  28.088  1.00  0.00     0.049 A 
ATOM     16  N   UNL A   1      44.015  29.531  28.255  1.00  0.00    -0.248 NA
ATOM     17  C   UNL A   1      42.359  31.016  28.965  1.00  0.00     0.031 C 
ATOM     18  C   UNL A   1      40.908  26.297  27.997  1.00  0.00     0.029 A 
ATOM     19  N   UNL A   1      43.080  26.748  27.725  1.00  0.00    -0.354 N 
ATOM     20  C   UNL A   1      44.576  30.788  28.448  1.00  0.00     0.074 A 
ATOM     21  C   UNL A   1      43.506  31.672  28.854  1.00  0.00     0.031 C 
ATOM     22  C   UNL A   1      41.511  25.148  27.666  1.00  0.00     0.029 A 
ATOM     23  C   UNL A   1      42.929  25.409  27.457  1.00  0.00     0.049 A 
ATOM     24  H   UNL A   1      43.942  27.219  27.663  1.00  0.00     0.167 HD
ATOM     25  C   UNL A   1      45.870  31.160  28.294  1.00  0.00     0.031 A 
ATOM     26  C   UNL A   1      43.836  24.493  27.075  1.00  0.00     0.031 A 
ATOM     27  C   UNL A   1      46.911  30.257  27.878  1.00  0.00     0.049 A 
ATOM     28  C   UNL A   1      45.257  24.935  26.907  1.00  0.00     0.074 A 
ATOM     29  C   UNL A   1      48.257  30.515  27.694  1.00  0.00     0.029 A 
ATOM     30  N   UNL A   1      46.718  28.913  27.581  1.00  0.00    -0.354 N 
ATOM     31  N   UNL A   1      45.774  26.126  27.104  1.00  0.00    -0.248 NA
ATOM     32  C   UNL A   1      46.217  23.919  26.464  1.00  0.00     0.031 C 
ATOM     33  C   UNL A   1      48.869  29.339  27.244  1.00  0.00     0.029 A 
ATOM     34  C   UNL A   1      47.914  28.334  27.199  1.00  0.00     0.049 A 
ATOM     35  H   UNL A   1      45.855  28.442  27.635  1.00  0.00     0.167 HD
ATOM     36  C   UNL A   1      47.124  26.003  26.813  1.00  0.00     0.074 A 
ATOM     37  C   UNL A   1      47.346  24.614  26.452  1.00  0.00     0.031 C 
ATOM     38  C   UNL A   1      48.093  26.951  26.834  1.00  0.00     0.031 A 
BRANCH  25  39
ATOM     39  C   UNL A   1      46.219  32.604  28.547  1.00  0.00    -0.014 A 
ATOM     40  C   UNL A   1      46.652  33.040  29.813  1.00  0.00     0.010 A 
ATOM     41  C   UNL A   1      46.143  33.536  27.496  1.00  0.00     0.010 A 
ATOM     42  C   UNL A   1      46.963  34.385  30.032  1.00  0.00     0.020 A 
ATOM     43  C   UNL A   1      46.476  34.878  27.704  1.00  0.00     0.020 A 
ATOM     44  C   UNL A   1      46.866  35.298  28.978  1.00  0.00     0.054 A 
BRANCH  44  45
ATOM     45  S   UNL A   1      47.285  37.037  29.287  1.00  0.00     0.124 S 
ATOM     46  O   UNL A   1      47.341  37.077  30.747  1.00  0.00    -0.237 OA
ATOM     47  O   UNL A   1      48.568  37.185  28.605  1.00  0.00    -0.237 OA
ATOM     48  O   UNL A   1      46.175  37.773  28.687  1.00  0.00    -0.744 OA
ENDBRANCH  44  45
ENDBRANCH  25  39
BRANCH  26  49
ATOM     49  C   UNL A   1      43.405  23.092  26.833  1.00  0.00    -0.014 A 
ATOM     50  C   UNL A   1      43.521  22.518  25.557  1.00  0.00     0.010 A 
ATOM     51  C   UNL A   1      42.944  22.300  27.901  1.00  0.00     0.010 A 
ATOM     52  C   UNL A   1      43.180  21.177  25.352  1.00  0.00     0.020 A 
ATOM     53  C   UNL A   1      42.629  20.953  27.707  1.00  0.00     0.020 A 
ATOM     54  C   UNL A   1      42.741  20.402  26.431  1.00  0.00     0.054 A 
BRANCH  54  55
ATOM     55  S   UNL A   1      42.380  18.645  26.160  1.00  0.00     0.124 S 
ATOM     56  O   UNL A   1      42.622  18.080  27.484  1.00  0.00    -0.237 OA
ATOM     57  O   UNL A   1      40.984  18.671  25.727  1.00  0.00    -0.237 OA
ATOM     58  O   UNL A   1      43.336  18.255  25.126  1.00  0.00    -0.744 OA
ENDBRANCH  54  55
ENDBRANCH  26  49
BRANCH  38  59
ATOM     59  C   UNL A   1      49.478  26.502  26.465  1.00  0.00    -0.014 A 
ATOM     60  C   UNL A   1      49.966  26.668  25.158  1.00  0.00     0.010 A 
ATOM     61  C   UNL A   1      50.310  25.943  27.450  1.00  0.00     0.010 A 
ATOM     62  C   UNL A   1      51.258  26.252  24.833  1.00  0.00     0.020 A 
ATOM     63  C   UNL A   1      51.611  25.547  27.135  1.00  0.00     0.020 A 
ATOM     64  C   UNL A   1      52.071  25.691  25.824  1.00  0.00     0.054 A 
BRANCH  64  65
ATOM     65  S   UNL A   1      53.758  25.193  25.388  1.00  0.00     0.124 S 
ATOM     66  O   UNL A   1      53.654  23.737  25.393  1.00  0.00    -0.237 OA
ATOM     67  O   UNL A   1      53.946  25.806  24.075  1.00  0.00    -0.237 OA
ATOM     68  O   UNL A   1      54.574  25.765  26.457  1.00  0.00    -0.744 OA
ENDBRANCH  64  65
ENDBRANCH  38  59
ENDBRANCH  12  13
ENDBRANCH   5   7
ENDBRANCH   2   3
ENDBRANCH   1   2
BRANCH   1  69
ATOM     69  C   UNL A   1      33.661  28.899  27.561  1.00  0.00     0.023 C 
BRANCH  69  70
ATOM     70  C   UNL A   1      33.333  27.657  26.736  1.00  0.00     0.116 C 
BRANCH  70  71
ATOM     71  N   UNL A   1      31.966  27.197  26.847  1.00  0.00    -0.356 N 
ATOM     72  C   UNL A   1      31.112  26.608  25.975  1.00  0.00     0.224 C 
ATOM     73  H   UNL A   1      31.575  27.341  27.739  1.00  0.00     0.163 HD
ATOM     74  O   UNL A   1      30.220  25.927  26.503  1.00  0.00    -0.275 OA
BRANCH  72  75
ATOM     75  C   UNL A   1      31.061  26.816  24.453  1.00  0.00     0.095 C 
ATOM     76  C   UNL A   1      30.585  28.257  24.198  1.00  0.00     0.041 C 
ATOM     77  C   UNL A   1      32.248  26.385  23.575  1.00  0.00     0.095 C 
ATOM     78  C   UNL A   1      31.702  29.243  24.101  1.00  0.00    -0.030 C 
ATOM     79  C   UNL A   1      33.271  27.493  23.285  1.00  0.00     0.041 C 
ATOM     80  C   UNL A   1      32.922  28.886  23.693  1.00  0.00    -0.030 C 
BRANCH  77  81
ATOM     81  C   UNL A   1      31.802  25.790  22.240  1.00  0.00     0.224 C 
ATOM     82  O   UNL A   1      31.391  26.490  21.314  1.00  0.00    -0.275 OA
ATOM     83  N   UNL A   1      31.894  24.443  22.026  1.00  0.00    -0.344 N 
ATOM     84  H   UNL A   1      31.706  24.178  21.097  1.00  0.00     0.164 HD
BRANCH  83  85
ATOM     85  C   UNL A   1      32.219  23.309  22.910  1.00  0.00     0.172 C 
ATOM     86  C   UNL A   1      31.215  23.130  24.045  1.00  0.00     0.037 C 
ATOM     87  C   UNL A   1      33.734  23.161  23.227  1.00  0.00     0.249 C 
ATOM     88  C   UNL A   1      31.751  22.205  25.120  1.00  0.00     0.025 C 
ATOM     89  N   UNL A   1      34.092  22.809  24.531  1.00  0.00    -0.308 N 
ATOM     90  O   UNL A   1      34.540  23.244  22.296  1.00  0.00    -0.272 OA
ATOM     91  C   UNL A   1      33.098  22.706  25.603  1.00  0.00     0.126 C 
BRANCH  89  92
ATOM     92  C   UNL A   1      35.479  22.710  24.912  1.00  0.00     0.080 A 
ATOM     93  C   UNL A   1      36.158  21.494  24.762  1.00  0.00     0.029 A 
ATOM     94  C   UNL A   1      36.195  23.777  25.483  1.00  0.00     0.146 A 
ATOM     95  C   UNL A   1      37.486  21.352  25.185  1.00  0.00     0.002 A 
ATOM     96  C   UNL A   1      37.504  23.625  25.945  1.00  0.00     0.041 A 
ATOM     97  F   UNL A   1      35.620  24.962  25.714  1.00  0.00    -0.205 F 
ATOM     98  C   UNL A   1      38.151  22.406  25.802  1.00  0.00     0.003 A 
ENDBRANCH  89  92
ENDBRANCH  83  85
ENDBRANCH  77  81
ENDBRANCH  72  75
ENDBRANCH  70  71
ENDBRANCH  69  70
ENDBRANCH   1  69
TORSDOF 17
ENDMDL
MODEL 3
REMARK VINA RESULT:     -11.5      3.420      8.859
REMARK SMILES O=C(NCCCCNC(=O)[C@H]1CC=CC[C@@H]1C(=O)N[C@@H]1CCCN(c2ccccc2F)C1=O)c1ccc(-c2c3nc(c(-c4ccc(S(=O)(=O)[O-])cc4)c4ccc([nH]4)c(-c4ccc(S(=O)(=O)[O-])cc4)c4nc(c(-c5ccc(S(=O)(=O)[O-])cc5)c5ccc2[nH]5)C=C4)C=C3)cc1
REMARK SMILES IDX 5 1 4 2 3 3 1 4 2 5 34 7 35 8 93 9 36 10 92 11 37 12 38 13
REMARK SMILES IDX 39 14 86 15 40 16 91 17 85 18 87 19 41 20 90 21 84 22 83 23
REMARK SMILES IDX 42 25 72 26 53 27 71 28 54 29 57 30 70 31 88 32 55 33 56 34
REMARK SMILES IDX 69 36 89 37 58 38 43 39 44 40 52 41 45 42 51 43 46 44 47 45
REMARK SMILES IDX 48 46 49 47 50 48 73 49 74 50 82 51 75 52 81 53 76 54 77 55
REMARK SMILES IDX 78 56 79 57 80 58 59 59 60 60 68 61 61 62 67 63 62 64 63 65
REMARK SMILES IDX 64 66 65 67 66 68 6 69 7 70 8 71 9 72 10 74 11 75 12 76
REMARK SMILES IDX 16 77 13 78 15 79 14 80 17 81 18 82 19 83 20 85 21 86 32 87
REMARK SMILES IDX 22 88 24 89 33 90 23 91 25 92 26 93 30 94 27 95 29 96 31 97
REMARK SMILES IDX 28 98
REMARK H PARENT 3 6 87 24 57 35 8 73 19 84
REMARK Flexibility Score: inf
ROOT
ATOM      1  C   UNL A   1      33.257  28.234  25.799  1.00  0.00     0.023 C 
ENDROOT
BRANCH   1   2
ATOM      2  C   UNL A   1      34.233  29.372  26.073  1.00  0.00     0.116 C 
BRANCH   2   3
ATOM      3  N   UNL A   1      33.660  30.554  26.702  1.00  0.00    -0.352 N 
ATOM      4  O   UNL A   1      33.753  32.352  28.108  1.00  0.00    -0.269 OA
ATOM      5  C   UNL A   1      34.262  31.335  27.671  1.00  0.00     0.251 C 
ATOM      6  H   UNL A   1      32.760  30.823  26.408  1.00  0.00     0.163 HD
BRANCH   5   7
ATOM      7  C   UNL A   1      35.549  30.892  28.222  1.00  0.00     0.039 A 
ATOM      8  C   UNL A   1      35.612  29.718  28.970  1.00  0.00     0.014 A 
ATOM      9  C   UNL A   1      36.667  31.711  28.047  1.00  0.00     0.014 A 
ATOM     10  C   UNL A   1      36.770  29.436  29.673  1.00  0.00     0.010 A 
ATOM     11  C   UNL A   1      37.857  31.377  28.685  1.00  0.00     0.010 A 
ATOM     12  C   UNL A   1      37.902  30.257  29.526  1.00  0.00    -0.014 A 
BRANCH  12  13
ATOM     13  C   UNL A   1      39.152  29.872  30.210  1.00  0.00     0.031 A 
ATOM     14  C   UNL A   1      39.560  30.526  31.496  1.00  0.00     0.074 A 
ATOM     15  C   UNL A   1      39.880  28.886  29.656  1.00  0.00     0.049 A 
ATOM     16  N   UNL A   1      40.601  30.272  32.246  1.00  0.00    -0.248 NA
ATOM     17  C   UNL A   1      38.700  31.607  32.006  1.00  0.00     0.031 C 
ATOM     18  C   UNL A   1      39.549  28.204  28.399  1.00  0.00     0.029 A 
ATOM     19  N   UNL A   1      41.021  28.263  30.080  1.00  0.00    -0.354 N 
ATOM     20  C   UNL A   1      40.534  31.170  33.304  1.00  0.00     0.074 A 
ATOM     21  C   UNL A   1      39.361  31.991  33.090  1.00  0.00     0.031 C 
ATOM     22  C   UNL A   1      40.430  27.217  28.188  1.00  0.00     0.029 A 
ATOM     23  C   UNL A   1      41.421  27.240  29.254  1.00  0.00     0.049 A 
ATOM     24  H   UNL A   1      41.507  28.523  30.896  1.00  0.00     0.167 HD
ATOM     25  C   UNL A   1      41.381  31.293  34.354  1.00  0.00     0.031 A 
ATOM     26  C   UNL A   1      42.480  26.417  29.345  1.00  0.00     0.031 A 
ATOM     27  C   UNL A   1      42.546  30.467  34.533  1.00  0.00     0.049 A 
ATOM     28  C   UNL A   1      43.403  26.581  30.513  1.00  0.00     0.074 A 
ATOM     29  C   UNL A   1      43.476  30.493  35.558  1.00  0.00     0.029 A 
ATOM     30  N   UNL A   1      42.943  29.462  33.660  1.00  0.00    -0.354 N 
ATOM     31  N   UNL A   1      43.319  27.429  31.512  1.00  0.00    -0.248 NA
ATOM     32  C   UNL A   1      44.562  25.684  30.569  1.00  0.00     0.031 C 
ATOM     33  C   UNL A   1      44.455  29.532  35.281  1.00  0.00     0.029 A 
ATOM     34  C   UNL A   1      44.109  28.872  34.111  1.00  0.00     0.049 A 
ATOM     35  H   UNL A   1      42.463  29.206  32.839  1.00  0.00     0.167 HD
ATOM     36  C   UNL A   1      44.414  27.166  32.321  1.00  0.00     0.074 A 
ATOM     37  C   UNL A   1      45.130  26.062  31.707  1.00  0.00     0.031 C 
ATOM     38  C   UNL A   1      44.800  27.784  33.465  1.00  0.00     0.031 A 
BRANCH  25  39
ATOM     39  C   UNL A   1      41.094  32.374  35.365  1.00  0.00    -0.014 A 
ATOM     40  C   UNL A   1      40.316  32.115  36.508  1.00  0.00     0.010 A 
ATOM     41  C   UNL A   1      41.635  33.659  35.186  1.00  0.00     0.010 A 
ATOM     42  C   UNL A   1      40.051  33.132  37.431  1.00  0.00     0.020 A 
ATOM     43  C   UNL A   1      41.393  34.674  36.118  1.00  0.00     0.020 A 
ATOM     44  C   UNL A   1      40.586  34.407  37.227  1.00  0.00     0.054 A 
BRANCH  44  45
ATOM     45  S   UNL A   1      40.236  35.706  38.445  1.00  0.00     0.124 S 
ATOM     46  O   UNL A   1      41.551  35.918  39.045  1.00  0.00    -0.237 OA
ATOM     47  O   UNL A   1      39.741  36.801  37.615  1.00  0.00    -0.237 OA
ATOM     48  O   UNL A   1      39.241  35.097  39.325  1.00  0.00    -0.744 OA
ENDBRANCH  44  45
ENDBRANCH  25  39
BRANCH  26  49
ATOM     49  C   UNL A   1      42.698  25.387  28.297  1.00  0.00    -0.014 A 
ATOM     50  C   UNL A   1      43.542  25.644  27.204  1.00  0.00     0.010 A 
ATOM     51  C   UNL A   1      42.118  24.111  28.429  1.00  0.00     0.010 A 
ATOM     52  C   UNL A   1      43.798  24.646  26.259  1.00  0.00     0.020 A 
ATOM     53  C   UNL A   1      42.394  23.102  27.503  1.00  0.00     0.020 A 
ATOM     54  C   UNL A   1      43.226  23.379  26.419  1.00  0.00     0.054 A 
BRANCH  54  55
ATOM     55  S   UNL A   1      43.635  22.075  25.225  1.00  0.00     0.124 S 
ATOM     56  O   UNL A   1      42.638  21.056  25.539  1.00  0.00    -0.237 OA
ATOM     57  O   UNL A   1      43.466  22.754  23.942  1.00  0.00    -0.237 OA
ATOM     58  O   UNL A   1      45.015  21.728  25.559  1.00  0.00    -0.744 OA
ENDBRANCH  54  55
ENDBRANCH  26  49
BRANCH  38  59
ATOM     59  C   UNL A   1      46.046  27.263  34.121  1.00  0.00    -0.014 A 
ATOM     60  C   UNL A   1      47.305  27.802  33.806  1.00  0.00     0.010 A 
ATOM     61  C   UNL A   1      45.948  26.249  35.089  1.00  0.00     0.010 A 
ATOM     62  C   UNL A   1      48.454  27.311  34.429  1.00  0.00     0.020 A 
ATOM     63  C   UNL A   1      47.092  25.773  35.732  1.00  0.00     0.020 A 
ATOM     64  C   UNL A   1      48.339  26.297  35.387  1.00  0.00     0.054 A 
BRANCH  64  65
ATOM     65  S   UNL A   1      49.840  25.703  36.211  1.00  0.00     0.124 S 
ATOM     66  O   UNL A   1      49.617  26.128  37.590  1.00  0.00    -0.237 OA
ATOM     67  O   UNL A   1      49.785  24.261  35.980  1.00  0.00    -0.237 OA
ATOM     68  O   UNL A   1      50.917  26.399  35.510  1.00  0.00    -0.744 OA
ENDBRANCH  64  65
ENDBRANCH  38  59
ENDBRANCH  12  13
ENDBRANCH   5   7
ENDBRANCH   2   3
ENDBRANCH   1   2
BRANCH   1  69
ATOM     69  C   UNL A   1      32.434  27.759  26.993  1.00  0.00     0.023 C 
BRANCH  69  70
ATOM     70  C   UNL A   1      31.221  26.902  26.640  1.00  0.00     0.116 C 
BRANCH  70  71
ATOM     71  N   UNL A   1      31.457  25.475  26.665  1.00  0.00    -0.356 N 
ATOM     72  C   UNL A   1      32.384  24.677  26.082  1.00  0.00     0.224 C 
ATOM     73  H   UNL A   1      30.809  24.981  27.219  1.00  0.00     0.163 HD
ATOM     74  O   UNL A   1      32.592  23.607  26.674  1.00  0.00    -0.275 OA
BRANCH  72  75
ATOM     75  C   UNL A   1      33.072  24.903  24.727  1.00  0.00     0.095 C 
ATOM     76  C   UNL A   1      34.590  24.789  24.953  1.00  0.00     0.041 C 
ATOM     77  C   UNL A   1      32.569  24.168  23.473  1.00  0.00     0.095 C 
ATOM     78  C   UNL A   1      35.114  23.403  24.770  1.00  0.00    -0.030 C 
ATOM     79  C   UNL A   1      33.295  22.851  23.164  1.00  0.00     0.041 C 
ATOM     80  C   UNL A   1      34.515  22.526  23.961  1.00  0.00    -0.030 C 
BRANCH  77  81
ATOM     81  C   UNL A   1      32.622  25.043  22.222  1.00  0.00     0.224 C 
ATOM     82  O   UNL A   1      33.376  24.798  21.280  1.00  0.00    -0.275 OA
ATOM     83  N   UNL A   1      31.781  26.115  22.100  1.00  0.00    -0.344 N 
ATOM     84  H   UNL A   1      31.802  26.532  21.209  1.00  0.00     0.164 HD
BRANCH  83  85
ATOM     85  C   UNL A   1      30.850  26.767  23.037  1.00  0.00     0.172 C 
ATOM     86  C   UNL A   1      29.701  25.859  23.466  1.00  0.00     0.037 C 
ATOM     87  C   UNL A   1      30.536  28.251  22.698  1.00  0.00     0.249 C 
ATOM     88  C   UNL A   1      28.589  26.646  24.132  1.00  0.00     0.025 C 
ATOM     89  N   UNL A   1      29.220  28.691  22.863  1.00  0.00    -0.308 N 
ATOM     90  O   UNL A   1      31.475  29.000  22.412  1.00  0.00    -0.272 OA
ATOM     91  C   UNL A   1      28.138  27.769  23.219  1.00  0.00     0.126 C 
BRANCH  89  92
ATOM     92  C   UNL A   1      28.844  30.038  22.513  1.00  0.00     0.080 A 
ATOM     93  C   UNL A   1      28.276  30.301  21.260  1.00  0.00     0.029 A 
ATOM     94  C   UNL A   1      29.063  31.139  23.360  1.00  0.00     0.146 A 
ATOM     95  C   UNL A   1      27.962  31.609  20.869  1.00  0.00     0.002 A 
ATOM     96  C   UNL A   1      28.792  32.448  22.954  1.00  0.00     0.041 A 
ATOM     97  F   UNL A   1      29.647  30.998  24.555  1.00  0.00    -0.205 F 
ATOM     98  C   UNL A   1      28.245  32.685  21.702  1.00  0.00     0.003 A 
ENDBRANCH  89  92
ENDBRANCH  83  85
ENDBRANCH  77  81
ENDBRANCH  72  75
ENDBRANCH  70  71
ENDBRANCH  69  70
ENDBRANCH   1  69
TORSDOF 17
ENDMDL
