MODEL 1
REMARK VINA RESULT:     -10.4      0.000      0.000
REMARK SMILES CC(C)C[C@H](CNC(=O)Nc1ccccc1Br)C(=O)NCCCCNC(=O)c1ccc(-c2c3nc(c(-c4ccc(S(=O)(=O)[O-])cc4)c4ccc([nH]4)c(-c4ccc(S(=O)(=O)[O-])cc4)c4nc(c(-c5ccc(S(=O)(=O)[O-])cc5)c5ccc2[nH]5)C=C4)C=C3)cc1
REMARK SMILES IDX 22 1 21 2 20 3 18 4 19 5 5 7 4 8 2 9 1 10 3 11 6 12 7 13
REMARK SMILES IDX 8 14 9 16 10 17 11 19 12 20 16 21 13 22 15 23 17 24 14 25
REMARK SMILES IDX 23 26 24 27 25 28 26 29 27 31 28 32 29 33 87 34 30 35 86 36
REMARK SMILES IDX 31 37 32 38 33 39 80 40 34 41 85 42 79 43 81 44 35 45 84 46
REMARK SMILES IDX 78 47 77 48 36 50 66 51 47 52 65 53 48 54 51 55 64 56 82 57
REMARK SMILES IDX 49 58 50 59 63 61 83 62 52 63 37 64 38 65 46 66 39 67 45 68
REMARK SMILES IDX 40 69 41 70 42 71 43 72 44 73 67 74 68 75 76 76 69 77 75 78
REMARK SMILES IDX 70 79 71 80 72 81 73 82 74 83 53 84 54 85 62 86 55 87 61 88
REMARK SMILES IDX 56 89 57 90 58 91 59 92 60 93
REMARK H PARENT 20 6 7 15 10 18 25 30 81 49 51 60
REMARK Flexibility Score: inf
ROOT
ATOM      1  C   UNL A   1      33.457  26.456  25.924  1.00  0.00     0.023 C 
ENDROOT
BRANCH   1   2
ATOM      2  C   UNL A   1      32.683  25.699  24.848  1.00  0.00     0.116 C 
BRANCH   2   3
ATOM      3  N   UNL A   1      33.567  25.130  23.844  1.00  0.00    -0.356 N 
ATOM      4  C   UNL A   1      34.662  24.332  23.958  1.00  0.00     0.224 C 
ATOM      5  O   UNL A   1      35.210  23.966  22.915  1.00  0.00    -0.275 OA
ATOM      6  H   UNL A   1      33.330  25.364  22.918  1.00  0.00     0.163 HD
BRANCH   4   7
ATOM      7  C   UNL A   1      35.221  23.900  25.310  1.00  0.00     0.098 C 
BRANCH   7   8
ATOM      8  C   UNL A   1      36.758  23.801  25.295  1.00  0.00     0.018 C 
BRANCH   8   9
ATOM      9  C   UNL A   1      37.283  22.392  25.648  1.00  0.00    -0.017 C 
ATOM     10  C   UNL A   1      37.319  21.462  24.432  1.00  0.00     0.007 C 
ATOM     11  C   UNL A   1      38.689  22.503  26.244  1.00  0.00     0.007 C 
ENDBRANCH   8   9
ENDBRANCH   7   8
BRANCH   7  12
ATOM     12  C   UNL A   1      34.491  22.642  25.790  1.00  0.00     0.131 C 
BRANCH  12  13
ATOM     13  N   UNL A   1      33.457  22.914  26.784  1.00  0.00    -0.337 N 
ATOM     14  C   UNL A   1      32.146  22.589  26.817  1.00  0.00     0.319 C 
ATOM     15  H   UNL A   1      33.768  23.424  27.566  1.00  0.00     0.165 HD
ATOM     16  O   UNL A   1      31.418  23.177  27.620  1.00  0.00    -0.249 OA
ATOM     17  N   UNL A   1      31.600  21.740  25.917  1.00  0.00    -0.307 N 
ATOM     18  H   UNL A   1      30.644  21.890  25.738  1.00  0.00     0.171 HD
BRANCH  17  19
ATOM     19  C   UNL A   1      32.171  20.678  25.194  1.00  0.00     0.057 A 
ATOM     20  C   UNL A   1      32.641  19.603  25.961  1.00  0.00     0.027 A 
ATOM     21  C   UNL A   1      32.277  20.616  23.794  1.00  0.00     0.041 A 
ATOM     22  C   UNL A   1      33.086  18.434  25.342  1.00  0.00     0.002 A 
ATOM     23  C   UNL A   1      32.733  19.444  23.180  1.00  0.00     0.018 A 
ATOM     24  Br  UNL A   1      31.971  22.112  22.658  1.00  0.00    -0.049 Br
ATOM     25  C   UNL A   1      33.112  18.347  23.953  1.00  0.00     0.001 A 
ENDBRANCH  17  19
ENDBRANCH  12  13
ENDBRANCH   7  12
ENDBRANCH   4   7
ENDBRANCH   2   3
ENDBRANCH   1   2
BRANCH   1  26
ATOM     26  C   UNL A   1      33.001  27.901  26.148  1.00  0.00     0.023 C 
BRANCH  26  27
ATOM     27  C   UNL A   1      34.081  28.962  25.962  1.00  0.00     0.116 C 
BRANCH  27  28
ATOM     28  N   UNL A   1      33.821  30.178  26.716  1.00  0.00    -0.352 N 
ATOM     29  C   UNL A   1      34.570  30.742  27.722  1.00  0.00     0.251 C 
ATOM     30  H   UNL A   1      32.998  30.662  26.475  1.00  0.00     0.163 HD
ATOM     31  O   UNL A   1      34.142  31.711  28.341  1.00  0.00    -0.269 OA
BRANCH  29  32
ATOM     32  C   UNL A   1      35.878  30.148  28.073  1.00  0.00     0.039 A 
ATOM     33  C   UNL A   1      36.909  30.183  27.132  1.00  0.00     0.014 A 
ATOM     34  C   UNL A   1      36.093  29.593  29.337  1.00  0.00     0.014 A 
ATOM     35  C   UNL A   1      38.180  29.723  27.484  1.00  0.00     0.010 A 
ATOM     36  C   UNL A   1      37.375  29.199  29.708  1.00  0.00     0.010 A 
ATOM     37  C   UNL A   1      38.433  29.262  28.788  1.00  0.00    -0.014 A 
BRANCH  37  38
ATOM     38  C   UNL A   1      39.797  28.855  29.210  1.00  0.00     0.031 A 
ATOM     39  C   UNL A   1      40.684  29.825  29.942  1.00  0.00     0.074 A 
ATOM     40  C   UNL A   1      40.262  27.634  28.876  1.00  0.00     0.049 A 
ATOM     41  N   UNL A   1      41.923  29.673  30.334  1.00  0.00    -0.248 NA
ATOM     42  C   UNL A   1      40.113  31.145  30.250  1.00  0.00     0.031 C 
ATOM     43  C   UNL A   1      39.517  26.618  28.127  1.00  0.00     0.029 A 
ATOM     44  N   UNL A   1      41.478  27.044  29.114  1.00  0.00    -0.354 N 
ATOM     45  C   UNL A   1      42.284  30.881  30.920  1.00  0.00     0.074 A 
ATOM     46  C   UNL A   1      41.150  31.770  30.786  1.00  0.00     0.031 C 
ATOM     47  C   UNL A   1      40.284  25.525  27.987  1.00  0.00     0.029 A 
ATOM     48  C   UNL A   1      41.586  25.773  28.599  1.00  0.00     0.049 A 
ATOM     49  H   UNL A   1      42.206  27.489  29.605  1.00  0.00     0.167 HD
ATOM     50  C   UNL A   1      43.445  31.214  31.532  1.00  0.00     0.031 A 
ATOM     51  C   UNL A   1      42.617  24.906  28.612  1.00  0.00     0.031 A 
ATOM     52  C   UNL A   1      44.568  30.326  31.671  1.00  0.00     0.049 A 
ATOM     53  C   UNL A   1      43.897  25.297  29.298  1.00  0.00     0.074 A 
ATOM     54  C   UNL A   1      45.770  30.553  32.318  1.00  0.00     0.029 A 
ATOM     55  N   UNL A   1      44.628  29.040  31.155  1.00  0.00    -0.354 N 
ATOM     56  N   UNL A   1      44.196  26.422  29.900  1.00  0.00    -0.248 NA
ATOM     57  C   UNL A   1      44.973  24.297  29.315  1.00  0.00     0.031 C 
ATOM     58  C   UNL A   1      46.576  29.421  32.155  1.00  0.00     0.029 A 
ATOM     59  C   UNL A   1      45.854  28.468  31.453  1.00  0.00     0.049 A 
ATOM     60  H   UNL A   1      43.906  28.599  30.651  1.00  0.00     0.167 HD
ATOM     61  C   UNL A   1      45.487  26.257  30.390  1.00  0.00     0.074 A 
ATOM     62  C   UNL A   1      45.904  24.918  30.026  1.00  0.00     0.031 C 
ATOM     63  C   UNL A   1      46.255  27.135  31.081  1.00  0.00     0.031 A 
BRANCH  50  64
ATOM     64  C   UNL A   1      43.554  32.606  32.099  1.00  0.00    -0.014 A 
ATOM     65  C   UNL A   1      43.151  32.885  33.418  1.00  0.00     0.010 A 
ATOM     66  C   UNL A   1      44.090  33.642  31.313  1.00  0.00     0.010 A 
ATOM     67  C   UNL A   1      43.235  34.183  33.924  1.00  0.00     0.020 A 
ATOM     68  C   UNL A   1      44.203  34.938  31.827  1.00  0.00     0.020 A 
ATOM     69  C   UNL A   1      43.756  35.204  33.123  1.00  0.00     0.054 A 
BRANCH  69  70
ATOM     70  S   UNL A   1      43.865  36.879  33.811  1.00  0.00     0.124 S 
ATOM     71  O   UNL A   1      43.659  37.705  32.624  1.00  0.00    -0.237 OA
ATOM     72  O   UNL A   1      42.776  36.898  34.785  1.00  0.00    -0.237 OA
ATOM     73  O   UNL A   1      45.208  36.933  34.383  1.00  0.00    -0.744 OA
ENDBRANCH  69  70
ENDBRANCH  50  64
BRANCH  51  74
ATOM     74  C   UNL A   1      42.471  23.573  27.966  1.00  0.00    -0.014 A 
ATOM     75  C   UNL A   1      43.106  23.298  26.743  1.00  0.00     0.010 A 
ATOM     76  C   UNL A   1      41.711  22.562  28.585  1.00  0.00     0.010 A 
ATOM     77  C   UNL A   1      42.974  22.043  26.142  1.00  0.00     0.020 A 
ATOM     78  C   UNL A   1      41.598  21.298  28.000  1.00  0.00     0.020 A 
ATOM     79  C   UNL A   1      42.222  21.049  26.776  1.00  0.00     0.054 A 
BRANCH  79  80
ATOM     80  S   UNL A   1      42.115  19.408  26.010  1.00  0.00     0.124 S 
ATOM     81  O   UNL A   1      42.907  19.587  24.797  1.00  0.00    -0.237 OA
ATOM     82  O   UNL A   1      42.703  18.543  27.030  1.00  0.00    -0.237 OA
ATOM     83  O   UNL A   1      40.680  19.223  25.801  1.00  0.00    -0.744 OA
ENDBRANCH  79  80
ENDBRANCH  51  74
BRANCH  63  84
ATOM     84  C   UNL A   1      47.618  26.667  31.518  1.00  0.00    -0.014 A 
ATOM     85  C   UNL A   1      48.765  26.950  30.755  1.00  0.00     0.010 A 
ATOM     86  C   UNL A   1      47.758  25.984  32.740  1.00  0.00     0.010 A 
ATOM     87  C   UNL A   1      50.024  26.531  31.193  1.00  0.00     0.020 A 
ATOM     88  C   UNL A   1      49.017  25.587  33.193  1.00  0.00     0.020 A 
ATOM     89  C   UNL A   1      50.142  25.851  32.409  1.00  0.00     0.054 A 
BRANCH  89  90
ATOM     90  S   UNL A   1      51.792  25.358  32.978  1.00  0.00     0.124 S 
ATOM     91  O   UNL A   1      52.325  26.616  33.495  1.00  0.00    -0.237 OA
ATOM     92  O   UNL A   1      51.494  24.340  33.983  1.00  0.00    -0.237 OA
ATOM     93  O   UNL A   1      52.441  24.857  31.767  1.00  0.00    -0.744 OA
ENDBRANCH  89  90
ENDBRANCH  63  84
ENDBRANCH  37  38
ENDBRANCH  29  32
ENDBRANCH  27  28
ENDBRANCH  26  27
ENDBRANCH   1  26
TORSDOF 19
ENDMDL
MODEL 2
REMARK VINA RESULT:     -10.4      3.567      4.870
REMARK SMILES CC(C)C[C@H](CNC(=O)Nc1ccccc1Br)C(=O)NCCCCNC(=O)c1ccc(-c2c3nc(c(-c4ccc(S(=O)(=O)[O-])cc4)c4ccc([nH]4)c(-c4ccc(S(=O)(=O)[O-])cc4)c4nc(c(-c5ccc(S(=O)(=O)[O-])cc5)c5ccc2[nH]5)C=C4)C=C3)cc1
REMARK SMILES IDX 22 1 21 2 20 3 18 4 19 5 5 7 4 8 2 9 1 10 3 11 6 12 7 13
REMARK SMILES IDX 8 14 9 16 10 17 11 19 12 20 16 21 13 22 15 23 17 24 14 25
REMARK SMILES IDX 23 26 24 27 25 28 26 29 27 31 28 32 29 33 87 34 30 35 86 36
REMARK SMILES IDX 31 37 32 38 33 39 80 40 34 41 85 42 79 43 81 44 35 45 84 46
REMARK SMILES IDX 78 47 77 48 36 50 66 51 47 52 65 53 48 54 51 55 64 56 82 57
REMARK SMILES IDX 49 58 50 59 63 61 83 62 52 63 37 64 38 65 46 66 39 67 45 68
REMARK SMILES IDX 40 69 41 70 42 71 43 72 44 73 67 74 68 75 76 76 69 77 75 78
REMARK SMILES IDX 70 79 71 80 72 81 73 82 74 83 53 84 54 85 62 86 55 87 61 88
REMARK SMILES IDX 56 89 57 90 58 91 59 92 60 93
REMARK H PARENT 20 6 7 15 10 18 25 30 81 49 51 60
REMARK Flexibility Score: inf
ROOT
ATOM      1  C   UNL A   1      34.833  30.393  27.898  1.00  0.00     0.023 C 
ENDROOT
BRANCH   1   2
ATOM      2  C   UNL A   1      33.721  29.970  26.942  1.00  0.00     0.116 C 
BRANCH   2   3
ATOM      3  N   UNL A   1      32.677  29.224  27.624  1.00  0.00    -0.356 N 
ATOM      4  C   UNL A   1      31.919  28.167  27.225  1.00  0.00     0.224 C 
ATOM      5  O   UNL A   1      31.115  27.704  28.039  1.00  0.00    -0.275 OA
ATOM      6  H   UNL A   1      32.484  29.540  28.536  1.00  0.00     0.163 HD
BRANCH   4   7
ATOM      7  C   UNL A   1      32.030  27.563  25.829  1.00  0.00     0.098 C 
BRANCH   7   8
ATOM      8  C   UNL A   1      30.772  27.833  24.981  1.00  0.00     0.018 C 
BRANCH   8   9
ATOM      9  C   UNL A   1      31.010  28.850  23.843  1.00  0.00    -0.017 C 
ATOM     10  C   UNL A   1      32.466  28.864  23.370  1.00  0.00     0.007 C 
ATOM     11  C   UNL A   1      30.095  28.520  22.661  1.00  0.00     0.007 C 
ENDBRANCH   8   9
ENDBRANCH   7   8
BRANCH   7  12
ATOM     12  C   UNL A   1      32.441  26.091  25.936  1.00  0.00     0.131 C 
BRANCH  12  13
ATOM     13  N   UNL A   1      31.517  25.288  26.731  1.00  0.00    -0.337 N 
ATOM     14  C   UNL A   1      30.564  24.403  26.365  1.00  0.00     0.319 C 
ATOM     15  H   UNL A   1      31.602  25.412  27.704  1.00  0.00     0.165 HD
ATOM     16  O   UNL A   1      29.723  24.069  27.202  1.00  0.00    -0.249 OA
ATOM     17  N   UNL A   1      30.438  23.980  25.086  1.00  0.00    -0.307 N 
ATOM     18  H   UNL A   1      29.526  23.714  24.830  1.00  0.00     0.171 HD
BRANCH  17  19
ATOM     19  C   UNL A   1      31.394  23.858  24.063  1.00  0.00     0.057 A 
ATOM     20  C   UNL A   1      31.360  24.853  23.077  1.00  0.00     0.027 A 
ATOM     21  C   UNL A   1      32.367  22.846  23.980  1.00  0.00     0.041 A 
ATOM     22  C   UNL A   1      32.356  24.916  22.101  1.00  0.00     0.002 A 
ATOM     23  C   UNL A   1      33.357  22.910  22.994  1.00  0.00     0.018 A 
ATOM     24  Br  UNL A   1      32.335  21.279  25.059  1.00  0.00    -0.049 Br
ATOM     25  C   UNL A   1      33.366  23.957  22.073  1.00  0.00     0.001 A 
ENDBRANCH  17  19
ENDBRANCH  12  13
ENDBRANCH   7  12
ENDBRANCH   4   7
ENDBRANCH   2   3
ENDBRANCH   1   2
BRANCH   1  26
ATOM     26  C   UNL A   1      35.217  31.874  27.823  1.00  0.00     0.023 C 
BRANCH  26  27
ATOM     27  C   UNL A   1      36.345  32.305  28.753  1.00  0.00     0.116 C 
BRANCH  27  28
ATOM     28  N   UNL A   1      36.085  31.993  30.149  1.00  0.00    -0.352 N 
ATOM     29  C   UNL A   1      36.786  31.161  30.989  1.00  0.00     0.251 C 
ATOM     30  H   UNL A   1      35.300  32.437  30.547  1.00  0.00     0.163 HD
ATOM     31  O   UNL A   1      36.357  30.912  32.111  1.00  0.00    -0.269 OA
BRANCH  29  32
ATOM     32  C   UNL A   1      38.042  30.542  30.514  1.00  0.00     0.039 A 
ATOM     33  C   UNL A   1      38.237  30.378  29.141  1.00  0.00     0.014 A 
ATOM     34  C   UNL A   1      39.035  30.159  31.419  1.00  0.00     0.014 A 
ATOM     35  C   UNL A   1      39.460  29.894  28.671  1.00  0.00     0.010 A 
ATOM     36  C   UNL A   1      40.276  29.741  30.947  1.00  0.00     0.010 A 
ATOM     37  C   UNL A   1      40.503  29.607  29.568  1.00  0.00    -0.014 A 
BRANCH  37  38
ATOM     38  C   UNL A   1      41.839  29.178  29.084  1.00  0.00     0.031 A 
ATOM     39  C   UNL A   1      42.963  30.173  28.983  1.00  0.00     0.074 A 
ATOM     40  C   UNL A   1      42.023  27.907  28.671  1.00  0.00     0.049 A 
ATOM     41  N   UNL A   1      44.177  30.001  28.526  1.00  0.00    -0.248 NA
ATOM     42  C   UNL A   1      42.677  31.545  29.432  1.00  0.00     0.031 C 
ATOM     43  C   UNL A   1      41.001  26.858  28.675  1.00  0.00     0.029 A 
ATOM     44  N   UNL A   1      43.134  27.285  28.158  1.00  0.00    -0.354 N 
ATOM     45  C   UNL A   1      44.793  31.244  28.616  1.00  0.00     0.074 A 
ATOM     46  C   UNL A   1      43.804  32.170  29.124  1.00  0.00     0.031 C 
ATOM     47  C   UNL A   1      41.538  25.719  28.207  1.00  0.00     0.029 A 
ATOM     48  C   UNL A   1      42.928  25.964  27.836  1.00  0.00     0.049 A 
ATOM     49  H   UNL A   1      43.997  27.742  28.031  1.00  0.00     0.167 HD
ATOM     50  C   UNL A   1      46.072  31.581  28.323  1.00  0.00     0.031 A 
ATOM     51  C   UNL A   1      43.761  25.053  27.296  1.00  0.00     0.031 A 
ATOM     52  C   UNL A   1      47.056  30.657  27.826  1.00  0.00     0.049 A 
ATOM     53  C   UNL A   1      45.177  25.449  26.979  1.00  0.00     0.074 A 
ATOM     54  C   UNL A   1      48.391  30.890  27.545  1.00  0.00     0.029 A 
ATOM     55  N   UNL A   1      46.813  29.323  27.534  1.00  0.00    -0.354 N 
ATOM     56  N   UNL A   1      45.758  26.614  27.130  1.00  0.00    -0.248 NA
ATOM     57  C   UNL A   1      46.051  24.403  26.429  1.00  0.00     0.031 C 
ATOM     58  C   UNL A   1      48.945  29.708  27.041  1.00  0.00     0.029 A 
ATOM     59  C   UNL A   1      47.968  28.725  27.058  1.00  0.00     0.049 A 
ATOM     60  H   UNL A   1      45.947  28.869  27.647  1.00  0.00     0.167 HD
ATOM     61  C   UNL A   1      47.074  26.436  26.717  1.00  0.00     0.074 A 
ATOM     62  C   UNL A   1      47.205  25.048  26.325  1.00  0.00     0.031 C 
ATOM     63  C   UNL A   1      48.082  27.342  26.669  1.00  0.00     0.031 A 
BRANCH  50  64
ATOM     64  C   UNL A   1      46.475  33.017  28.536  1.00  0.00    -0.014 A 
ATOM     65  C   UNL A   1      46.945  33.459  29.786  1.00  0.00     0.010 A 
ATOM     66  C   UNL A   1      46.410  33.929  27.467  1.00  0.00     0.010 A 
ATOM     67  C   UNL A   1      47.295  34.798  29.978  1.00  0.00     0.020 A 
ATOM     68  C   UNL A   1      46.787  35.263  27.647  1.00  0.00     0.020 A 
ATOM     69  C   UNL A   1      47.208  35.693  28.908  1.00  0.00     0.054 A 
BRANCH  69  70
ATOM     70  S   UNL A   1      47.680  37.423  29.182  1.00  0.00     0.124 S 
ATOM     71  O   UNL A   1      46.481  37.964  29.818  1.00  0.00    -0.237 OA
ATOM     72  O   UNL A   1      48.850  37.304  30.047  1.00  0.00    -0.237 OA
ATOM     73  O   UNL A   1      47.952  37.926  27.838  1.00  0.00    -0.744 OA
ENDBRANCH  69  70
ENDBRANCH  50  64
BRANCH  51  74
ATOM     74  C   UNL A   1      43.277  23.669  27.039  1.00  0.00    -0.014 A 
ATOM     75  C   UNL A   1      42.759  23.315  25.781  1.00  0.00     0.010 A 
ATOM     76  C   UNL A   1      43.353  22.690  28.048  1.00  0.00     0.010 A 
ATOM     77  C   UNL A   1      42.312  22.013  25.539  1.00  0.00     0.020 A 
ATOM     78  C   UNL A   1      42.931  21.380  27.801  1.00  0.00     0.020 A 
ATOM     79  C   UNL A   1      42.404  21.052  26.551  1.00  0.00     0.054 A 
BRANCH  79  80
ATOM     80  S   UNL A   1      41.876  19.353  26.196  1.00  0.00     0.124 S 
ATOM     81  O   UNL A   1      40.463  19.533  25.882  1.00  0.00    -0.237 OA
ATOM     82  O   UNL A   1      42.734  18.983  25.073  1.00  0.00    -0.237 OA
ATOM     83  O   UNL A   1      42.157  18.642  27.442  1.00  0.00    -0.744 OA
ENDBRANCH  79  80
ENDBRANCH  51  74
BRANCH  63  84
ATOM     84  C   UNL A   1      49.429  26.855  26.204  1.00  0.00    -0.014 A 
ATOM     85  C   UNL A   1      49.771  26.851  24.841  1.00  0.00     0.010 A 
ATOM     86  C   UNL A   1      50.385  26.449  27.153  1.00  0.00     0.010 A 
ATOM     87  C   UNL A   1      51.036  26.421  24.432  1.00  0.00     0.020 A 
ATOM     88  C   UNL A   1      51.659  26.043  26.751  1.00  0.00     0.020 A 
ATOM     89  C   UNL A   1      51.972  26.020  25.390  1.00  0.00     0.054 A 
BRANCH  89  90
ATOM     90  S   UNL A   1      53.623  25.509  24.839  1.00  0.00     0.124 S 
ATOM     91  O   UNL A   1      54.466  25.967  25.940  1.00  0.00    -0.237 OA
ATOM     92  O   UNL A   1      53.485  24.060  24.713  1.00  0.00    -0.237 OA
ATOM     93  O   UNL A   1      53.804  26.224  23.577  1.00  0.00    -0.744 OA
ENDBRANCH  89  90
ENDBRANCH  63  84
ENDBRANCH  37  38
ENDBRANCH  29  32
ENDBRANCH  27  28
ENDBRANCH  26  27
ENDBRANCH   1  26
TORSDOF 19
ENDMDL
MODEL 3
REMARK VINA RESULT:     -10.4      3.575      9.446
REMARK SMILES CC(C)C[C@H](CNC(=O)Nc1ccccc1Br)C(=O)NCCCCNC(=O)c1ccc(-c2c3nc(c(-c4ccc(S(=O)(=O)[O-])cc4)c4ccc([nH]4)c(-c4ccc(S(=O)(=O)[O-])cc4)c4nc(c(-c5ccc(S(=O)(=O)[O-])cc5)c5ccc2[nH]5)C=C4)C=C3)cc1
REMARK SMILES IDX 22 1 21 2 20 3 18 4 19 5 5 7 4 8 2 9 1 10 3 11 6 12 7 13
REMARK SMILES IDX 8 14 9 16 10 17 11 19 12 20 16 21 13 22 15 23 17 24 14 25
REMARK SMILES IDX 23 26 24 27 25 28 26 29 27 31 28 32 29 33 87 34 30 35 86 36
REMARK SMILES IDX 31 37 32 38 33 39 80 40 34 41 85 42 79 43 81 44 35 45 84 46
REMARK SMILES IDX 78 47 77 48 36 50 66 51 47 52 65 53 48 54 51 55 64 56 82 57
REMARK SMILES IDX 49 58 50 59 63 61 83 62 52 63 37 64 38 65 46 66 39 67 45 68
REMARK SMILES IDX 40 69 41 70 42 71 43 72 44 73 67 74 68 75 76 76 69 77 75 78
REMARK SMILES IDX 70 79 71 80 72 81 73 82 74 83 53 84 54 85 62 86 55 87 61 88
REMARK SMILES IDX 56 89 57 90 58 91 59 92 60 93
REMARK H PARENT 20 6 7 15 10 18 25 30 81 49 51 60
REMARK Flexibility Score: inf
ROOT
ATOM      1  C   UNL A   1      37.456  21.446  24.566  1.00  0.00     0.023 C 
ENDROOT
BRANCH   1   2
ATOM      2  C   UNL A   1      37.098  22.617  25.477  1.00  0.00     0.116 C 
BRANCH   2   3
ATOM      3  N   UNL A   1      36.142  22.232  26.502  1.00  0.00    -0.356 N 
ATOM      4  C   UNL A   1      34.783  22.299  26.536  1.00  0.00     0.224 C 
ATOM      5  O   UNL A   1      34.217  21.861  27.541  1.00  0.00    -0.275 OA
ATOM      6  H   UNL A   1      36.550  21.855  27.315  1.00  0.00     0.163 HD
BRANCH   4   7
ATOM      7  C   UNL A   1      33.966  22.898  25.396  1.00  0.00     0.098 C 
BRANCH   7   8
ATOM      8  C   UNL A   1      33.945  21.982  24.157  1.00  0.00     0.018 C 
BRANCH   8   9
ATOM      9  C   UNL A   1      32.540  21.432  23.828  1.00  0.00    -0.017 C 
ATOM     10  C   UNL A   1      32.091  21.791  22.409  1.00  0.00     0.007 C 
ATOM     11  C   UNL A   1      32.535  19.910  23.993  1.00  0.00     0.007 C 
ENDBRANCH   8   9
ENDBRANCH   7   8
BRANCH   7  12
ATOM     12  C   UNL A   1      34.423  24.337  25.136  1.00  0.00     0.131 C 
BRANCH  12  13
ATOM     13  N   UNL A   1      34.459  24.687  23.719  1.00  0.00    -0.337 N 
ATOM     14  C   UNL A   1      33.687  25.521  22.988  1.00  0.00     0.319 C 
ATOM     15  H   UNL A   1      35.168  24.236  23.206  1.00  0.00     0.165 HD
ATOM     16  O   UNL A   1      33.729  25.432  21.759  1.00  0.00    -0.249 OA
ATOM     17  N   UNL A   1      32.790  26.352  23.567  1.00  0.00    -0.307 N 
ATOM     18  H   UNL A   1      32.017  26.579  23.002  1.00  0.00     0.171 HD
BRANCH  17  19
ATOM     19  C   UNL A   1      32.779  26.945  24.841  1.00  0.00     0.057 A 
ATOM     20  C   UNL A   1      33.761  27.919  25.068  1.00  0.00     0.027 A 
ATOM     21  C   UNL A   1      31.860  26.651  25.864  1.00  0.00     0.041 A 
ATOM     22  C   UNL A   1      33.747  28.678  26.239  1.00  0.00     0.002 A 
ATOM     23  C   UNL A   1      31.857  27.409  27.039  1.00  0.00     0.018 A 
ATOM     24  Br  UNL A   1      30.686  25.153  25.810  1.00  0.00    -0.049 Br
ATOM     25  C   UNL A   1      32.783  28.438  27.214  1.00  0.00     0.001 A 
ENDBRANCH  17  19
ENDBRANCH  12  13
ENDBRANCH   7  12
ENDBRANCH   4   7
ENDBRANCH   2   3
ENDBRANCH   1   2
BRANCH   1  26
ATOM     26  C   UNL A   1      38.131  20.265  25.270  1.00  0.00     0.023 C 
BRANCH  26  27
ATOM     27  C   UNL A   1      39.417  20.599  26.019  1.00  0.00     0.116 C 
BRANCH  27  28
ATOM     28  N   UNL A   1      40.372  19.503  26.030  1.00  0.00    -0.352 N 
ATOM     29  C   UNL A   1      41.742  19.558  26.132  1.00  0.00     0.251 C 
ATOM     30  H   UNL A   1      39.986  18.600  25.954  1.00  0.00     0.163 HD
ATOM     31  O   UNL A   1      42.412  18.538  26.001  1.00  0.00    -0.269 OA
BRANCH  29  32
ATOM     32  C   UNL A   1      42.400  20.861  26.365  1.00  0.00     0.039 A 
ATOM     33  C   UNL A   1      42.688  21.678  25.269  1.00  0.00     0.014 A 
ATOM     34  C   UNL A   1      42.699  21.288  27.662  1.00  0.00     0.014 A 
ATOM     35  C   UNL A   1      43.211  22.955  25.479  1.00  0.00     0.010 A 
ATOM     36  C   UNL A   1      43.157  22.585  27.873  1.00  0.00     0.010 A 
ATOM     37  C   UNL A   1      43.415  23.433  26.785  1.00  0.00    -0.014 A 
BRANCH  37  38
ATOM     38  C   UNL A   1      43.885  24.820  27.033  1.00  0.00     0.031 A 
ATOM     39  C   UNL A   1      45.341  25.165  26.872  1.00  0.00     0.074 A 
ATOM     40  C   UNL A   1      43.013  25.752  27.468  1.00  0.00     0.049 A 
ATOM     41  N   UNL A   1      45.948  26.301  27.104  1.00  0.00    -0.248 NA
ATOM     42  C   UNL A   1      46.232  24.088  26.416  1.00  0.00     0.031 C 
ATOM     43  C   UNL A   1      41.585  25.532  27.707  1.00  0.00     0.029 A 
ATOM     44  N   UNL A   1      43.204  27.072  27.796  1.00  0.00    -0.354 N 
ATOM     45  C   UNL A   1      47.293  26.071  26.838  1.00  0.00     0.074 A 
ATOM     46  C   UNL A   1      47.418  24.675  26.477  1.00  0.00     0.031 C 
ATOM     47  C   UNL A   1      41.027  26.681  28.123  1.00  0.00     0.029 A 
ATOM     48  C   UNL A   1      42.060  27.707  28.217  1.00  0.00     0.049 A 
ATOM     49  H   UNL A   1      44.078  27.521  27.737  1.00  0.00     0.167 HD
ATOM     50  C   UNL A   1      48.327  26.945  26.871  1.00  0.00     0.031 A 
ATOM     51  C   UNL A   1      41.863  28.972  28.637  1.00  0.00     0.031 A 
ATOM     52  C   UNL A   1      48.198  28.334  27.222  1.00  0.00     0.049 A 
ATOM     53  C   UNL A   1      43.025  29.926  28.666  1.00  0.00     0.074 A 
ATOM     54  C   UNL A   1      49.177  29.312  27.238  1.00  0.00     0.029 A 
ATOM     55  N   UNL A   1      47.018  28.943  27.622  1.00  0.00    -0.354 N 
ATOM     56  N   UNL A   1      44.279  29.704  28.351  1.00  0.00    -0.248 NA
ATOM     57  C   UNL A   1      42.744  31.303  29.096  1.00  0.00     0.031 C 
ATOM     58  C   UNL A   1      48.598  30.503  27.690  1.00  0.00     0.029 A 
ATOM     59  C   UNL A   1      47.248  30.280  27.903  1.00  0.00     0.049 A 
ATOM     60  H   UNL A   1      46.145  28.492  27.695  1.00  0.00     0.167 HD
ATOM     61  C   UNL A   1      44.932  30.920  28.520  1.00  0.00     0.074 A 
ATOM     62  C   UNL A   1      43.931  31.875  28.951  1.00  0.00     0.031 C 
ATOM     63  C   UNL A   1      46.241  31.218  28.334  1.00  0.00     0.031 A 
BRANCH  50  64
ATOM     64  C   UNL A   1      49.691  26.416  26.514  1.00  0.00    -0.014 A 
ATOM     65  C   UNL A   1      50.150  26.431  25.184  1.00  0.00     0.010 A 
ATOM     66  C   UNL A   1      50.538  25.923  27.524  1.00  0.00     0.010 A 
ATOM     67  C   UNL A   1      51.408  25.918  24.863  1.00  0.00     0.020 A 
ATOM     68  C   UNL A   1      51.810  25.435  27.210  1.00  0.00     0.020 A 
ATOM     69  C   UNL A   1      52.228  25.417  25.878  1.00  0.00     0.054 A 
BRANCH  69  70
ATOM     70  S   UNL A   1      53.862  24.766  25.433  1.00  0.00     0.124 S 
ATOM     71  O   UNL A   1      54.602  24.932  26.681  1.00  0.00    -0.237 OA
ATOM     72  O   UNL A   1      53.567  23.386  25.058  1.00  0.00    -0.237 OA
ATOM     73  O   UNL A   1      54.292  25.628  24.334  1.00  0.00    -0.744 OA
ENDBRANCH  69  70
ENDBRANCH  50  64
BRANCH  51  74
ATOM     74  C   UNL A   1      40.502  29.411  29.050  1.00  0.00    -0.014 A 
ATOM     75  C   UNL A   1      40.197  29.614  30.407  1.00  0.00     0.010 A 
ATOM     76  C   UNL A   1      39.508  29.651  28.082  1.00  0.00     0.010 A 
ATOM     77  C   UNL A   1      38.920  30.035  30.792  1.00  0.00     0.020 A 
ATOM     78  C   UNL A   1      38.239  30.096  28.461  1.00  0.00     0.020 A 
ATOM     79  C   UNL A   1      37.949  30.276  29.814  1.00  0.00     0.054 A 
BRANCH  79  80
ATOM     80  S   UNL A   1      36.318  30.880  30.331  1.00  0.00     0.124 S 
ATOM     81  O   UNL A   1      36.618  32.246  30.747  1.00  0.00    -0.237 OA
ATOM     82  O   UNL A   1      35.530  30.748  29.108  1.00  0.00    -0.237 OA
ATOM     83  O   UNL A   1      35.941  29.965  31.406  1.00  0.00    -0.744 OA
ENDBRANCH  79  80
ENDBRANCH  51  74
BRANCH  63  84
ATOM     84  C   UNL A   1      46.667  32.643  28.564  1.00  0.00    -0.014 A 
ATOM     85  C   UNL A   1      46.628  33.592  27.527  1.00  0.00     0.010 A 
ATOM     86  C   UNL A   1      47.059  33.051  29.852  1.00  0.00     0.010 A 
ATOM     87  C   UNL A   1      47.002  34.916  27.769  1.00  0.00     0.020 A 
ATOM     88  C   UNL A   1      47.409  34.379  30.103  1.00  0.00     0.020 A 
ATOM     89  C   UNL A   1      47.391  35.302  29.055  1.00  0.00     0.054 A 
BRANCH  89  90
ATOM     90  S   UNL A   1      47.828  37.036  29.354  1.00  0.00     0.124 S 
ATOM     91  O   UNL A   1      46.517  37.652  29.541  1.00  0.00    -0.237 OA
ATOM     92  O   UNL A   1      48.661  36.955  30.552  1.00  0.00    -0.237 OA
ATOM     93  O   UNL A   1      48.535  37.430  28.137  1.00  0.00    -0.744 OA
ENDBRANCH  89  90
ENDBRANCH  63  84
ENDBRANCH  37  38
ENDBRANCH  29  32
ENDBRANCH  27  28
ENDBRANCH  26  27
ENDBRANCH   1  26
TORSDOF 19
ENDMDL
