MODEL 1
REMARK VINA RESULT:      -8.9      0.000      0.000
REMARK SMILES C/C(=N/[NH+]=C1\NC(=O)[C@H](CC(=O)NCCCCNC(=O)c2ccc(-c3c4nc(c(-c5ccc(S(=O)(=O)[O-])cc5)c5ccc([nH]5)c(-c5ccc(S(=O)(=O)[O-])cc5)c5nc(c(-c6ccc(S(=O)(=O)[O-])cc6)c6ccc3[nH]6)C=C5)C=C4)cc2)S1)c1ccc(OC(C)C)cc1
REMARK SMILES IDX 14 1 13 2 11 3 12 4 10 6 9 7 4 8 5 9 6 11 81 12 7 13 8 15
REMARK SMILES IDX 3 16 1 17 2 18 82 19 83 20 91 21 84 22 90 23 85 24 86 25
REMARK SMILES IDX 87 26 88 27 89 28 15 29 16 30 17 31 18 32 19 33 20 35 21 36
REMARK SMILES IDX 22 37 80 38 23 39 79 40 24 41 25 42 26 43 73 44 27 45 78 46
REMARK SMILES IDX 72 47 74 48 28 49 77 50 71 51 70 52 29 54 59 55 40 56 58 57
REMARK SMILES IDX 41 58 44 59 57 60 75 61 42 62 43 63 56 65 76 66 45 67 30 68
REMARK SMILES IDX 31 69 39 70 32 71 38 72 33 73 34 74 35 75 36 76 37 77 60 78
REMARK SMILES IDX 61 79 69 80 62 81 68 82 63 83 64 84 65 85 66 86 67 87 46 88
REMARK SMILES IDX 47 89 55 90 48 91 54 92 49 93 50 94 51 95 52 96 53 97
REMARK H PARENT 13 5 4 10 6 14 18 34 74 53 44 64
REMARK Flexibility Score: inf
ROOT
ATOM      1  C   UNL A   1      34.906  32.607  32.045  1.00  0.00     0.116 C 
ENDROOT
BRANCH   1   2
ATOM      2  N   UNL A   1      35.605  33.646  32.771  1.00  0.00    -0.356 N 
ATOM      3  C   UNL A   1      36.621  33.523  33.672  1.00  0.00     0.221 C 
ATOM      4  O   UNL A   1      37.130  34.533  34.155  1.00  0.00    -0.275 OA
ATOM      5  H   UNL A   1      35.307  34.567  32.589  1.00  0.00     0.163 HD
BRANCH   3   6
ATOM      6  C   UNL A   1      37.107  32.148  34.064  1.00  0.00     0.127 C 
BRANCH   6   7
ATOM      7  C   UNL A   1      38.249  32.210  35.076  1.00  0.00     0.183 C 
ATOM      8  N   UNL A   1      40.716  29.632  33.760  1.00  0.00    -0.142 N 
ATOM      9  C   UNL A   1      39.969  30.408  34.466  1.00  0.00     0.337 C 
ATOM     10  H   UNL A   1      41.308  29.983  33.055  1.00  0.00     0.343 HD
ATOM     11  N   UNL A   1      39.168  30.045  35.488  1.00  0.00    -0.202 N 
ATOM     12  S   UNL A   1      39.832  32.114  34.144  1.00  0.00    -0.020 SA
ATOM     13  C   UNL A   1      38.326  30.995  35.987  1.00  0.00     0.322 C 
ATOM     14  H   UNL A   1      39.190  29.132  35.858  1.00  0.00     0.316 HD
ATOM     15  O   UNL A   1      37.686  30.854  37.020  1.00  0.00    -0.246 OA
BRANCH   8  16
ATOM     16  N   UNL A   1      40.642  28.264  34.043  1.00  0.00    -0.090 NA
ATOM     17  C   UNL A   1      41.546  26.287  35.071  1.00  0.00     0.071 C 
ATOM     18  C   UNL A   1      41.686  27.727  34.620  1.00  0.00     0.088 C 
BRANCH  18  19
ATOM     19  C   UNL A   1      43.032  28.363  34.794  1.00  0.00    -0.000 A 
ATOM     20  C   UNL A   1      44.060  28.155  33.877  1.00  0.00     0.014 A 
ATOM     21  C   UNL A   1      43.317  29.062  35.975  1.00  0.00     0.014 A 
ATOM     22  C   UNL A   1      45.372  28.501  34.207  1.00  0.00     0.047 A 
ATOM     23  C   UNL A   1      44.636  29.434  36.288  1.00  0.00     0.047 A 
ATOM     24  C   UNL A   1      45.679  29.105  35.431  1.00  0.00     0.119 A 
BRANCH  24  25
ATOM     25  O   UNL A   1      47.013  29.261  35.632  1.00  0.00    -0.491 OA
BRANCH  25  26
ATOM     26  C   UNL A   1      47.909  29.980  34.781  1.00  0.00     0.167 C 
ATOM     27  C   UNL A   1      48.252  31.373  35.290  1.00  0.00     0.052 C 
ATOM     28  C   UNL A   1      49.120  29.179  34.317  1.00  0.00     0.052 C 
ENDBRANCH  25  26
ENDBRANCH  24  25
ENDBRANCH  18  19
ENDBRANCH   8  16
ENDBRANCH   6   7
ENDBRANCH   3   6
ENDBRANCH   1   2
BRANCH   1  29
ATOM     29  C   UNL A   1      34.440  33.039  30.660  1.00  0.00     0.023 C 
BRANCH  29  30
ATOM     30  C   UNL A   1      35.324  32.546  29.520  1.00  0.00     0.023 C 
BRANCH  30  31
ATOM     31  C   UNL A   1      34.634  32.453  28.164  1.00  0.00     0.116 C 
BRANCH  31  32
ATOM     32  N   UNL A   1      33.995  31.164  27.935  1.00  0.00    -0.352 N 
ATOM     33  C   UNL A   1      34.558  29.907  27.938  1.00  0.00     0.251 C 
ATOM     34  H   UNL A   1      33.027  31.196  27.753  1.00  0.00     0.163 HD
ATOM     35  O   UNL A   1      33.904  28.936  27.592  1.00  0.00    -0.269 OA
BRANCH  33  36
ATOM     36  C   UNL A   1      35.975  29.769  28.336  1.00  0.00     0.039 A 
ATOM     37  C   UNL A   1      36.283  29.337  29.628  1.00  0.00     0.014 A 
ATOM     38  C   UNL A   1      36.987  29.988  27.399  1.00  0.00     0.014 A 
ATOM     39  C   UNL A   1      37.610  29.043  29.954  1.00  0.00     0.010 A 
ATOM     40  C   UNL A   1      38.290  29.613  27.700  1.00  0.00     0.010 A 
ATOM     41  C   UNL A   1      38.617  29.136  28.980  1.00  0.00    -0.014 A 
BRANCH  41  42
ATOM     42  C   UNL A   1      40.026  28.758  29.265  1.00  0.00     0.031 A 
ATOM     43  C   UNL A   1      40.958  29.773  29.870  1.00  0.00     0.074 A 
ATOM     44  C   UNL A   1      40.491  27.548  28.896  1.00  0.00     0.049 A 
ATOM     45  N   UNL A   1      42.247  29.696  30.070  1.00  0.00    -0.248 NA
ATOM     46  C   UNL A   1      40.363  31.060  30.272  1.00  0.00     0.031 C 
ATOM     47  C   UNL A   1      39.702  26.486  28.267  1.00  0.00     0.029 A 
ATOM     48  N   UNL A   1      41.753  27.012  28.984  1.00  0.00    -0.354 N 
ATOM     49  C   UNL A   1      42.622  30.929  30.591  1.00  0.00     0.074 A 
ATOM     50  C   UNL A   1      41.434  31.754  30.627  1.00  0.00     0.031 C 
ATOM     51  C   UNL A   1      40.491  25.421  28.049  1.00  0.00     0.029 A 
ATOM     52  C   UNL A   1      41.850  25.737  28.476  1.00  0.00     0.049 A 
ATOM     53  H   UNL A   1      42.517  27.494  29.377  1.00  0.00     0.167 HD
ATOM     54  C   UNL A   1      43.841  31.335  31.020  1.00  0.00     0.031 A 
ATOM     55  C   UNL A   1      42.915  24.919  28.356  1.00  0.00     0.031 A 
ATOM     56  C   UNL A   1      45.014  30.505  31.005  1.00  0.00     0.049 A 
ATOM     57  C   UNL A   1      44.260  25.392  28.839  1.00  0.00     0.074 A 
ATOM     58  C   UNL A   1      46.284  30.803  31.468  1.00  0.00     0.029 A 
ATOM     59  N   UNL A   1      45.062  29.212  30.509  1.00  0.00    -0.354 N 
ATOM     60  N   UNL A   1      44.585  26.545  29.373  1.00  0.00    -0.248 NA
ATOM     61  C   UNL A   1      45.381  24.449  28.713  1.00  0.00     0.031 C 
ATOM     62  C   UNL A   1      47.110  29.705  31.210  1.00  0.00     0.029 A 
ATOM     63  C   UNL A   1      46.342  28.703  30.641  1.00  0.00     0.049 A 
ATOM     64  H   UNL A   1      44.298  28.726  30.121  1.00  0.00     0.167 HD
ATOM     65  C   UNL A   1      45.939  26.452  29.681  1.00  0.00     0.074 A 
ATOM     66  C   UNL A   1      46.369  25.129  29.279  1.00  0.00     0.031 C 
ATOM     67  C   UNL A   1      46.750  27.377  30.247  1.00  0.00     0.031 A 
BRANCH  54  68
ATOM     68  C   UNL A   1      43.960  32.743  31.539  1.00  0.00    -0.014 A 
ATOM     69  C   UNL A   1      44.148  33.828  30.663  1.00  0.00     0.010 A 
ATOM     70  C   UNL A   1      43.853  32.990  32.920  1.00  0.00     0.010 A 
ATOM     71  C   UNL A   1      44.278  35.126  31.161  1.00  0.00     0.020 A 
ATOM     72  C   UNL A   1      43.952  34.292  33.420  1.00  0.00     0.020 A 
ATOM     73  C   UNL A   1      44.182  35.349  32.538  1.00  0.00     0.054 A 
BRANCH  73  74
ATOM     74  S   UNL A   1      44.341  37.047  33.154  1.00  0.00     0.124 S 
ATOM     75  O   UNL A   1      43.157  37.171  34.001  1.00  0.00    -0.237 OA
ATOM     76  O   UNL A   1      45.618  37.012  33.863  1.00  0.00    -0.237 OA
ATOM     77  O   UNL A   1      44.327  37.860  31.941  1.00  0.00    -0.744 OA
ENDBRANCH  73  74
ENDBRANCH  54  68
BRANCH  55  78
ATOM     78  C   UNL A   1      42.752  23.561  27.768  1.00  0.00    -0.014 A 
ATOM     79  C   UNL A   1      42.276  22.497  28.554  1.00  0.00     0.010 A 
ATOM     80  C   UNL A   1      43.067  23.322  26.417  1.00  0.00     0.010 A 
ATOM     81  C   UNL A   1      42.137  21.218  28.010  1.00  0.00     0.020 A 
ATOM     82  C   UNL A   1      42.902  22.050  25.861  1.00  0.00     0.020 A 
ATOM     83  C   UNL A   1      42.450  21.002  26.666  1.00  0.00     0.054 A 
BRANCH  83  84
ATOM     84  S   UNL A   1      42.217  19.343  25.968  1.00  0.00     0.124 S 
ATOM     85  O   UNL A   1      42.730  18.490  27.035  1.00  0.00    -0.237 OA
ATOM     86  O   UNL A   1      40.772  19.291  25.755  1.00  0.00    -0.237 OA
ATOM     87  O   UNL A   1      43.017  19.371  24.746  1.00  0.00    -0.744 OA
ENDBRANCH  83  84
ENDBRANCH  55  78
BRANCH  67  88
ATOM     88  C   UNL A   1      48.177  26.981  30.521  1.00  0.00    -0.014 A 
ATOM     89  C   UNL A   1      49.201  27.240  29.594  1.00  0.00     0.010 A 
ATOM     90  C   UNL A   1      48.504  26.406  31.764  1.00  0.00     0.010 A 
ATOM     91  C   UNL A   1      50.524  26.908  29.895  1.00  0.00     0.020 A 
ATOM     92  C   UNL A   1      49.829  26.097  32.079  1.00  0.00     0.020 A 
ATOM     93  C   UNL A   1      50.830  26.340  31.137  1.00  0.00     0.054 A 
BRANCH  93  94
ATOM     94  S   UNL A   1      52.563  25.972  31.526  1.00  0.00     0.124 S 
ATOM     95  O   UNL A   1      52.475  24.609  32.042  1.00  0.00    -0.237 OA
ATOM     96  O   UNL A   1      53.220  26.112  30.228  1.00  0.00    -0.237 OA
ATOM     97  O   UNL A   1      52.921  26.990  32.512  1.00  0.00    -0.744 OA
ENDBRANCH  93  94
ENDBRANCH  67  88
ENDBRANCH  41  42
ENDBRANCH  33  36
ENDBRANCH  31  32
ENDBRANCH  30  31
ENDBRANCH  29  30
ENDBRANCH   1  29
TORSDOF 19
ENDMDL
MODEL 2
REMARK VINA RESULT:      -8.7      4.772     13.036
REMARK SMILES C/C(=N/[NH+]=C1\NC(=O)[C@H](CC(=O)NCCCCNC(=O)c2ccc(-c3c4nc(c(-c5ccc(S(=O)(=O)[O-])cc5)c5ccc([nH]5)c(-c5ccc(S(=O)(=O)[O-])cc5)c5nc(c(-c6ccc(S(=O)(=O)[O-])cc6)c6ccc3[nH]6)C=C5)C=C4)cc2)S1)c1ccc(OC(C)C)cc1
REMARK SMILES IDX 14 1 13 2 11 3 12 4 10 6 9 7 4 8 5 9 6 11 81 12 7 13 8 15
REMARK SMILES IDX 3 16 1 17 2 18 82 19 83 20 91 21 84 22 90 23 85 24 86 25
REMARK SMILES IDX 87 26 88 27 89 28 15 29 16 30 17 31 18 32 19 33 20 35 21 36
REMARK SMILES IDX 22 37 80 38 23 39 79 40 24 41 25 42 26 43 73 44 27 45 78 46
REMARK SMILES IDX 72 47 74 48 28 49 77 50 71 51 70 52 29 54 59 55 40 56 58 57
REMARK SMILES IDX 41 58 44 59 57 60 75 61 42 62 43 63 56 65 76 66 45 67 30 68
REMARK SMILES IDX 31 69 39 70 32 71 38 72 33 73 34 74 35 75 36 76 37 77 60 78
REMARK SMILES IDX 61 79 69 80 62 81 68 82 63 83 64 84 65 85 66 86 67 87 46 88
REMARK SMILES IDX 47 89 55 90 48 91 54 92 49 93 50 94 51 95 52 96 53 97
REMARK H PARENT 13 5 4 10 6 14 18 34 74 53 44 64
REMARK Flexibility Score: inf
ROOT
ATOM      1  C   UNL A   1      37.299  23.248  25.597  1.00  0.00     0.116 C 
ENDROOT
BRANCH   1   2
ATOM      2  N   UNL A   1      36.177  23.162  26.508  1.00  0.00    -0.356 N 
ATOM      3  C   UNL A   1      35.007  22.479  26.360  1.00  0.00     0.221 C 
ATOM      4  O   UNL A   1      34.182  22.482  27.272  1.00  0.00    -0.275 OA
ATOM      5  H   UNL A   1      36.273  23.664  27.350  1.00  0.00     0.163 HD
BRANCH   3   6
ATOM      6  C   UNL A   1      34.739  21.727  25.077  1.00  0.00     0.127 C 
BRANCH   6   7
ATOM      7  C   UNL A   1      33.529  22.281  24.330  1.00  0.00     0.183 C 
ATOM      8  N   UNL A   1      33.722  26.018  25.013  1.00  0.00    -0.142 N 
ATOM      9  C   UNL A   1      33.369  24.797  24.801  1.00  0.00     0.337 C 
ATOM     10  H   UNL A   1      34.330  26.494  24.402  1.00  0.00     0.343 HD
ATOM     11  N   UNL A   1      32.503  24.070  25.536  1.00  0.00    -0.202 N 
ATOM     12  S   UNL A   1      34.042  23.844  23.508  1.00  0.00    -0.020 SA
ATOM     13  C   UNL A   1      32.403  22.740  25.244  1.00  0.00     0.322 C 
ATOM     14  H   UNL A   1      31.966  24.481  26.252  1.00  0.00     0.316 HD
ATOM     15  O   UNL A   1      31.534  22.013  25.705  1.00  0.00    -0.246 OA
BRANCH   8  16
ATOM     16  N   UNL A   1      33.201  26.631  26.157  1.00  0.00    -0.090 NA
ATOM     17  C   UNL A   1      31.439  27.832  27.271  1.00  0.00     0.071 C 
ATOM     18  C   UNL A   1      32.088  27.303  26.007  1.00  0.00     0.088 C 
BRANCH  18  19
ATOM     19  C   UNL A   1      31.445  27.681  24.706  1.00  0.00    -0.000 A 
ATOM     20  C   UNL A   1      31.845  28.811  23.997  1.00  0.00     0.014 A 
ATOM     21  C   UNL A   1      30.319  26.972  24.263  1.00  0.00     0.014 A 
ATOM     22  C   UNL A   1      31.047  29.306  22.964  1.00  0.00     0.047 A 
ATOM     23  C   UNL A   1      29.536  27.462  23.203  1.00  0.00     0.047 A 
ATOM     24  C   UNL A   1      29.865  28.662  22.584  1.00  0.00     0.119 A 
BRANCH  24  25
ATOM     25  O   UNL A   1      29.158  29.347  21.649  1.00  0.00    -0.491 OA
BRANCH  25  26
ATOM     26  C   UNL A   1      28.174  30.350  21.913  1.00  0.00     0.167 C 
ATOM     27  C   UNL A   1      27.650  30.334  23.343  1.00  0.00     0.052 C 
ATOM     28  C   UNL A   1      28.536  31.741  21.407  1.00  0.00     0.052 C 
ENDBRANCH  25  26
ENDBRANCH  24  25
ENDBRANCH  18  19
ENDBRANCH   8  16
ENDBRANCH   6   7
ENDBRANCH   3   6
ENDBRANCH   1   2
BRANCH   1  29
ATOM     29  C   UNL A   1      38.366  22.188  25.844  1.00  0.00     0.023 C 
BRANCH  29  30
ATOM     30  C   UNL A   1      39.535  22.666  26.698  1.00  0.00     0.023 C 
BRANCH  30  31
ATOM     31  C   UNL A   1      39.833  24.157  26.607  1.00  0.00     0.116 C 
BRANCH  31  32
ATOM     32  N   UNL A   1      40.948  24.466  25.722  1.00  0.00    -0.352 N 
ATOM     33  C   UNL A   1      41.895  25.460  25.839  1.00  0.00     0.251 C 
ATOM     34  H   UNL A   1      41.038  23.884  24.932  1.00  0.00     0.163 HD
ATOM     35  O   UNL A   1      42.688  25.667  24.935  1.00  0.00    -0.269 OA
BRANCH  33  36
ATOM     36  C   UNL A   1      41.906  26.285  27.066  1.00  0.00     0.039 A 
ATOM     37  C   UNL A   1      42.561  27.518  27.056  1.00  0.00     0.014 A 
ATOM     38  C   UNL A   1      41.195  25.866  28.193  1.00  0.00     0.014 A 
ATOM     39  C   UNL A   1      42.429  28.373  28.153  1.00  0.00     0.010 A 
ATOM     40  C   UNL A   1      40.995  26.753  29.243  1.00  0.00     0.010 A 
ATOM     41  C   UNL A   1      41.610  28.015  29.237  1.00  0.00    -0.014 A 
BRANCH  41  42
ATOM     42  C   UNL A   1      41.382  28.929  30.386  1.00  0.00     0.031 A 
ATOM     43  C   UNL A   1      42.242  28.803  31.615  1.00  0.00     0.074 A 
ATOM     44  C   UNL A   1      40.352  29.799  30.368  1.00  0.00     0.049 A 
ATOM     45  N   UNL A   1      42.124  29.400  32.771  1.00  0.00    -0.248 NA
ATOM     46  C   UNL A   1      43.364  27.850  31.542  1.00  0.00     0.031 C 
ATOM     47  C   UNL A   1      39.421  29.995  29.254  1.00  0.00     0.029 A 
ATOM     48  N   UNL A   1      39.906  30.675  31.328  1.00  0.00    -0.354 N 
ATOM     49  C   UNL A   1      43.133  28.876  33.571  1.00  0.00     0.074 A 
ATOM     50  C   UNL A   1      43.821  27.875  32.785  1.00  0.00     0.031 C 
ATOM     51  C   UNL A   1      38.532  30.946  29.585  1.00  0.00     0.029 A 
ATOM     52  C   UNL A   1      38.796  31.394  30.949  1.00  0.00     0.049 A 
ATOM     53  H   UNL A   1      40.341  30.779  32.205  1.00  0.00     0.167 HD
ATOM     54  C   UNL A   1      43.473  29.210  34.839  1.00  0.00     0.031 A 
ATOM     55  C   UNL A   1      38.066  32.302  31.626  1.00  0.00     0.031 A 
ATOM     56  C   UNL A   1      42.803  30.223  35.608  1.00  0.00     0.049 A 
ATOM     57  C   UNL A   1      38.462  32.658  33.034  1.00  0.00     0.074 A 
ATOM     58  C   UNL A   1      43.105  30.674  36.882  1.00  0.00     0.029 A 
ATOM     59  N   UNL A   1      41.703  30.946  35.176  1.00  0.00    -0.354 N 
ATOM     60  N   UNL A   1      39.450  32.185  33.757  1.00  0.00    -0.248 NA
ATOM     61  C   UNL A   1      37.650  33.676  33.716  1.00  0.00     0.031 C 
ATOM     62  C   UNL A   1      42.158  31.640  37.236  1.00  0.00     0.029 A 
ATOM     63  C   UNL A   1      41.304  31.832  36.162  1.00  0.00     0.049 A 
ATOM     64  H   UNL A   1      41.270  30.846  34.297  1.00  0.00     0.167 HD
ATOM     65  C   UNL A   1      39.400  32.876  34.963  1.00  0.00     0.074 A 
ATOM     66  C   UNL A   1      38.291  33.802  34.871  1.00  0.00     0.031 C 
ATOM     67  C   UNL A   1      40.204  32.756  36.048  1.00  0.00     0.031 A 
BRANCH  54  68
ATOM     68  C   UNL A   1      44.621  28.467  35.468  1.00  0.00    -0.014 A 
ATOM     69  C   UNL A   1      44.411  27.273  36.182  1.00  0.00     0.010 A 
ATOM     70  C   UNL A   1      45.933  28.953  35.319  1.00  0.00     0.010 A 
ATOM     71  C   UNL A   1      45.483  26.607  36.778  1.00  0.00     0.020 A 
ATOM     72  C   UNL A   1      47.013  28.271  35.889  1.00  0.00     0.020 A 
ATOM     73  C   UNL A   1      46.778  27.112  36.631  1.00  0.00     0.054 A 
BRANCH  73  74
ATOM     74  S   UNL A   1      48.152  26.218  37.404  1.00  0.00     0.124 S 
ATOM     75  O   UNL A   1      48.595  27.168  38.421  1.00  0.00    -0.237 OA
ATOM     76  O   UNL A   1      47.504  25.011  37.912  1.00  0.00    -0.237 OA
ATOM     77  O   UNL A   1      49.089  26.002  36.303  1.00  0.00    -0.744 OA
ENDBRANCH  73  74
ENDBRANCH  54  68
BRANCH  55  78
ATOM     78  C   UNL A   1      36.895  32.955  30.977  1.00  0.00    -0.014 A 
ATOM     79  C   UNL A   1      35.589  32.664  31.407  1.00  0.00     0.010 A 
ATOM     80  C   UNL A   1      37.078  33.875  29.928  1.00  0.00     0.010 A 
ATOM     81  C   UNL A   1      34.487  33.263  30.790  1.00  0.00     0.020 A 
ATOM     82  C   UNL A   1      35.981  34.498  29.326  1.00  0.00     0.020 A 
ATOM     83  C   UNL A   1      34.691  34.177  29.753  1.00  0.00     0.054 A 
BRANCH  83  84
ATOM     84  S   UNL A   1      33.248  34.979  28.998  1.00  0.00     0.124 S 
ATOM     85  O   UNL A   1      32.455  35.341  30.169  1.00  0.00    -0.237 OA
ATOM     86  O   UNL A   1      33.851  36.095  28.273  1.00  0.00    -0.237 OA
ATOM     87  O   UNL A   1      32.679  33.932  28.153  1.00  0.00    -0.744 OA
ENDBRANCH  83  84
ENDBRANCH  55  78
BRANCH  67  88
ATOM     88  C   UNL A   1      39.954  33.683  37.208  1.00  0.00    -0.014 A 
ATOM     89  C   UNL A   1      40.426  35.007  37.204  1.00  0.00     0.010 A 
ATOM     90  C   UNL A   1      39.167  33.238  38.287  1.00  0.00     0.010 A 
ATOM     91  C   UNL A   1      40.137  35.862  38.271  1.00  0.00     0.020 A 
ATOM     92  C   UNL A   1      38.852  34.097  39.341  1.00  0.00     0.020 A 
ATOM     93  C   UNL A   1      39.349  35.402  39.332  1.00  0.00     0.054 A 
BRANCH  93  94
ATOM     94  S   UNL A   1      38.939  36.548  40.676  1.00  0.00     0.124 S 
ATOM     95  O   UNL A   1      38.549  37.749  39.942  1.00  0.00    -0.237 OA
ATOM     96  O   UNL A   1      37.855  35.855  41.369  1.00  0.00    -0.237 OA
ATOM     97  O   UNL A   1      40.185  36.656  41.432  1.00  0.00    -0.744 OA
ENDBRANCH  93  94
ENDBRANCH  67  88
ENDBRANCH  41  42
ENDBRANCH  33  36
ENDBRANCH  31  32
ENDBRANCH  30  31
ENDBRANCH  29  30
ENDBRANCH   1  29
TORSDOF 19
ENDMDL
MODEL 3
REMARK VINA RESULT:      -8.6      4.843      8.743
REMARK SMILES C/C(=N/[NH+]=C1\NC(=O)[C@H](CC(=O)NCCCCNC(=O)c2ccc(-c3c4nc(c(-c5ccc(S(=O)(=O)[O-])cc5)c5ccc([nH]5)c(-c5ccc(S(=O)(=O)[O-])cc5)c5nc(c(-c6ccc(S(=O)(=O)[O-])cc6)c6ccc3[nH]6)C=C5)C=C4)cc2)S1)c1ccc(OC(C)C)cc1
REMARK SMILES IDX 14 1 13 2 11 3 12 4 10 6 9 7 4 8 5 9 6 11 81 12 7 13 8 15
REMARK SMILES IDX 3 16 1 17 2 18 82 19 83 20 91 21 84 22 90 23 85 24 86 25
REMARK SMILES IDX 87 26 88 27 89 28 15 29 16 30 17 31 18 32 19 33 20 35 21 36
REMARK SMILES IDX 22 37 80 38 23 39 79 40 24 41 25 42 26 43 73 44 27 45 78 46
REMARK SMILES IDX 72 47 74 48 28 49 77 50 71 51 70 52 29 54 59 55 40 56 58 57
REMARK SMILES IDX 41 58 44 59 57 60 75 61 42 62 43 63 56 65 76 66 45 67 30 68
REMARK SMILES IDX 31 69 39 70 32 71 38 72 33 73 34 74 35 75 36 76 37 77 60 78
REMARK SMILES IDX 61 79 69 80 62 81 68 82 63 83 64 84 65 85 66 86 67 87 46 88
REMARK SMILES IDX 47 89 55 90 48 91 54 92 49 93 50 94 51 95 52 96 53 97
REMARK H PARENT 13 5 4 10 6 14 18 34 74 53 44 64
REMARK Flexibility Score: inf
ROOT
ATOM      1  C   UNL A   1      34.895  31.260  27.478  1.00  0.00     0.116 C 
ENDROOT
BRANCH   1   2
ATOM      2  N   UNL A   1      33.496  30.904  27.592  1.00  0.00    -0.356 N 
ATOM      3  C   UNL A   1      32.824  29.880  26.993  1.00  0.00     0.221 C 
ATOM      4  O   UNL A   1      31.635  29.701  27.252  1.00  0.00    -0.275 OA
ATOM      5  H   UNL A   1      32.958  31.479  28.183  1.00  0.00     0.163 HD
BRANCH   3   6
ATOM      6  C   UNL A   1      33.549  28.980  26.021  1.00  0.00     0.127 C 
BRANCH   6   7
ATOM      7  C   UNL A   1      32.591  28.058  25.270  1.00  0.00     0.183 C 
ATOM      8  N   UNL A   1      34.389  24.707  25.330  1.00  0.00    -0.142 N 
ATOM      9  C   UNL A   1      33.698  25.755  25.044  1.00  0.00     0.337 C 
ATOM     10  H   UNL A   1      34.241  24.200  26.162  1.00  0.00     0.343 HD
ATOM     11  N   UNL A   1      33.776  26.488  23.914  1.00  0.00    -0.202 N 
ATOM     12  S   UNL A   1      32.551  26.447  26.157  1.00  0.00    -0.020 SA
ATOM     13  C   UNL A   1      33.082  27.663  23.886  1.00  0.00     0.322 C 
ATOM     14  H   UNL A   1      34.311  26.188  23.144  1.00  0.00     0.316 HD
ATOM     15  O   UNL A   1      32.921  28.326  22.871  1.00  0.00    -0.246 OA
BRANCH   8  16
ATOM     16  N   UNL A   1      35.363  24.326  24.402  1.00  0.00    -0.090 NA
ATOM     17  C   UNL A   1      36.217  22.764  22.784  1.00  0.00     0.071 C 
ATOM     18  C   UNL A   1      35.261  23.120  23.904  1.00  0.00     0.088 C 
BRANCH  18  19
ATOM     19  C   UNL A   1      34.357  22.029  24.396  1.00  0.00    -0.000 A 
ATOM     20  C   UNL A   1      34.729  21.193  25.446  1.00  0.00     0.014 A 
ATOM     21  C   UNL A   1      33.177  21.743  23.695  1.00  0.00     0.014 A 
ATOM     22  C   UNL A   1      34.021  20.013  25.685  1.00  0.00     0.047 A 
ATOM     23  C   UNL A   1      32.452  20.568  23.960  1.00  0.00     0.047 A 
ATOM     24  C   UNL A   1      32.902  19.668  24.919  1.00  0.00     0.119 A 
BRANCH  24  25
ATOM     25  O   UNL A   1      32.414  18.435  25.210  1.00  0.00    -0.491 OA
BRANCH  25  26
ATOM     26  C   UNL A   1      33.066  17.192  24.942  1.00  0.00     0.167 C 
ATOM     27  C   UNL A   1      32.343  15.983  25.520  1.00  0.00     0.052 C 
ATOM     28  C   UNL A   1      33.510  17.009  23.496  1.00  0.00     0.052 C 
ENDBRANCH  25  26
ENDBRANCH  24  25
ENDBRANCH  18  19
ENDBRANCH   8  16
ENDBRANCH   6   7
ENDBRANCH   3   6
ENDBRANCH   1   2
BRANCH   1  29
ATOM     29  C   UNL A   1      35.275  32.500  28.279  1.00  0.00     0.023 C 
BRANCH  29  30
ATOM     30  C   UNL A   1      36.768  32.812  28.277  1.00  0.00     0.023 C 
BRANCH  30  31
ATOM     31  C   UNL A   1      37.545  32.244  29.458  1.00  0.00     0.116 C 
BRANCH  31  32
ATOM     32  N   UNL A   1      36.833  31.181  30.155  1.00  0.00    -0.352 N 
ATOM     33  C   UNL A   1      37.196  29.862  30.322  1.00  0.00     0.251 C 
ATOM     34  H   UNL A   1      35.975  31.441  30.564  1.00  0.00     0.163 HD
ATOM     35  O   UNL A   1      36.417  29.066  30.821  1.00  0.00    -0.269 OA
BRANCH  33  36
ATOM     36  C   UNL A   1      38.531  29.432  29.855  1.00  0.00     0.039 A 
ATOM     37  C   UNL A   1      38.843  29.526  28.496  1.00  0.00     0.014 A 
ATOM     38  C   UNL A   1      39.492  29.018  30.778  1.00  0.00     0.014 A 
ATOM     39  C   UNL A   1      40.153  29.283  28.076  1.00  0.00     0.010 A 
ATOM     40  C   UNL A   1      40.811  28.862  30.369  1.00  0.00     0.010 A 
ATOM     41  C   UNL A   1      41.157  28.993  29.014  1.00  0.00    -0.014 A 
BRANCH  41  42
ATOM     42  C   UNL A   1      42.576  28.805  28.617  1.00  0.00     0.031 A 
ATOM     43  C   UNL A   1      43.537  29.957  28.732  1.00  0.00     0.074 A 
ATOM     44  C   UNL A   1      42.979  27.641  28.068  1.00  0.00     0.049 A 
ATOM     45  N   UNL A   1      44.773  30.049  28.316  1.00  0.00    -0.248 NA
ATOM     46  C   UNL A   1      43.025  31.183  29.370  1.00  0.00     0.031 C 
ATOM     47  C   UNL A   1      42.139  26.458  27.866  1.00  0.00     0.029 A 
ATOM     48  N   UNL A   1      44.201  27.267  27.563  1.00  0.00    -0.354 N 
ATOM     49  C   UNL A   1      45.176  31.345  28.612  1.00  0.00     0.074 A 
ATOM     50  C   UNL A   1      44.038  32.020  29.196  1.00  0.00     0.031 C 
ATOM     51  C   UNL A   1      42.876  25.485  27.303  1.00  0.00     0.029 A 
ATOM     52  C   UNL A   1      44.224  25.987  27.059  1.00  0.00     0.049 A 
ATOM     53  H   UNL A   1      44.987  27.860  27.563  1.00  0.00     0.167 HD
ATOM     54  C   UNL A   1      46.389  31.919  28.435  1.00  0.00     0.031 A 
ATOM     55  C   UNL A   1      45.214  25.299  26.458  1.00  0.00     0.031 A 
ATOM     56  C   UNL A   1      47.525  31.238  27.877  1.00  0.00     0.049 A 
ATOM     57  C   UNL A   1      46.555  25.958  26.270  1.00  0.00     0.074 A 
ATOM     58  C   UNL A   1      48.814  31.714  27.706  1.00  0.00     0.029 A 
ATOM     59  N   UNL A   1      47.513  29.934  27.407  1.00  0.00    -0.354 N 
ATOM     60  N   UNL A   1      46.931  27.170  26.602  1.00  0.00    -0.248 NA
ATOM     61  C   UNL A   1      47.609  25.152  25.637  1.00  0.00     0.031 C 
ATOM     62  C   UNL A   1      49.569  30.711  27.090  1.00  0.00     0.029 A 
ATOM     63  C   UNL A   1      48.767  29.593  26.932  1.00  0.00     0.049 A 
ATOM     64  H   UNL A   1      46.729  29.339  27.411  1.00  0.00     0.167 HD
ATOM     65  C   UNL A   1      48.275  27.259  26.252  1.00  0.00     0.074 A 
ATOM     66  C   UNL A   1      48.647  25.978  25.689  1.00  0.00     0.031 C 
ATOM     67  C   UNL A   1      49.124  28.307  26.387  1.00  0.00     0.031 A 
BRANCH  54  68
ATOM     68  C   UNL A   1      46.543  33.359  28.849  1.00  0.00    -0.014 A 
ATOM     69  C   UNL A   1      46.022  34.402  28.062  1.00  0.00     0.010 A 
ATOM     70  C   UNL A   1      47.193  33.672  30.057  1.00  0.00     0.010 A 
ATOM     71  C   UNL A   1      46.190  35.732  28.449  1.00  0.00     0.020 A 
ATOM     72  C   UNL A   1      47.337  35.002  30.463  1.00  0.00     0.020 A 
ATOM     73  C   UNL A   1      46.851  36.025  29.647  1.00  0.00     0.054 A 
BRANCH  73  74
ATOM     74  S   UNL A   1      47.044  37.761  30.130  1.00  0.00     0.124 S 
ATOM     75  O   UNL A   1      46.361  38.454  29.041  1.00  0.00    -0.237 OA
ATOM     76  O   UNL A   1      46.369  37.810  31.425  1.00  0.00    -0.237 OA
ATOM     77  O   UNL A   1      48.492  37.950  30.178  1.00  0.00    -0.744 OA
ENDBRANCH  73  74
ENDBRANCH  54  68
BRANCH  55  78
ATOM     78  C   UNL A   1      44.984  23.900  26.003  1.00  0.00    -0.014 A 
ATOM     79  C   UNL A   1      44.406  23.645  24.747  1.00  0.00     0.010 A 
ATOM     80  C   UNL A   1      45.345  22.813  26.820  1.00  0.00     0.010 A 
ATOM     81  C   UNL A   1      44.174  22.334  24.324  1.00  0.00     0.020 A 
ATOM     82  C   UNL A   1      45.141  21.498  26.389  1.00  0.00     0.020 A 
ATOM     83  C   UNL A   1      44.545  21.268  25.148  1.00  0.00     0.054 A 
BRANCH  83  84
ATOM     84  S   UNL A   1      44.278  19.572  24.558  1.00  0.00     0.124 S 
ATOM     85  O   UNL A   1      42.870  19.357  24.882  1.00  0.00    -0.237 OA
ATOM     86  O   UNL A   1      44.590  19.681  23.135  1.00  0.00    -0.237 OA
ATOM     87  O   UNL A   1      45.229  18.785  25.339  1.00  0.00    -0.744 OA
ENDBRANCH  83  84
ENDBRANCH  55  78
BRANCH  67  88
ATOM     88  C   UNL A   1      50.557  28.102  25.971  1.00  0.00    -0.014 A 
ATOM     89  C   UNL A   1      51.492  27.505  26.833  1.00  0.00     0.010 A 
ATOM     90  C   UNL A   1      50.949  28.449  24.665  1.00  0.00     0.010 A 
ATOM     91  C   UNL A   1      52.803  27.281  26.403  1.00  0.00     0.020 A 
ATOM     92  C   UNL A   1      52.250  28.202  24.223  1.00  0.00     0.020 A 
ATOM     93  C   UNL A   1      53.173  27.629  25.100  1.00  0.00     0.054 A 
BRANCH  93  94
ATOM     94  S   UNL A   1      54.864  27.274  24.548  1.00  0.00     0.124 S 
ATOM     95  O   UNL A   1      55.660  27.798  25.654  1.00  0.00    -0.237 OA
ATOM     96  O   UNL A   1      54.858  25.820  24.410  1.00  0.00    -0.237 OA
ATOM     97  O   UNL A   1      54.980  28.013  23.292  1.00  0.00    -0.744 OA
ENDBRANCH  93  94
ENDBRANCH  67  88
ENDBRANCH  41  42
ENDBRANCH  33  36
ENDBRANCH  31  32
ENDBRANCH  30  31
ENDBRANCH  29  30
ENDBRANCH   1  29
TORSDOF 19
ENDMDL
