MODEL 1
REMARK VINA RESULT:     -10.3      0.000      0.000
REMARK SMILES CC(C)(C)[NH2+]CC(=O)N[C@](C)(C(=O)NCCCCNC(=O)c1ccc(-c2c3nc(c(-c4ccc(S(=O)(=O)[O-])cc4)c4ccc([nH]4)c(-c4ccc(S(=O)(=O)[O-])cc4)c4nc(c(-c5ccc(S(=O)(=O)[O-])cc5)c5ccc2[nH]5)C=C4)C=C3)cc1)C1CC1
REMARK SMILES IDX 16 1 15 2 14 3 12 4 13 5 10 7 11 8 9 9 7 10 8 11 6 13 5 14
REMARK SMILES IDX 2 17 1 18 3 19 4 20 82 21 83 22 84 23 17 24 18 25 19 26
REMARK SMILES IDX 20 27 21 29 22 30 23 31 81 32 24 33 80 34 25 35 26 36 27 37
REMARK SMILES IDX 74 38 28 39 79 40 73 41 75 42 29 43 78 44 72 45 71 46 30 48
REMARK SMILES IDX 60 49 41 50 59 51 42 52 45 53 58 54 76 55 43 56 44 57 57 59
REMARK SMILES IDX 77 60 46 61 31 62 32 63 40 64 33 65 39 66 34 67 35 68 36 69
REMARK SMILES IDX 37 70 38 71 61 72 62 73 70 74 63 75 69 76 64 77 65 78 66 79
REMARK SMILES IDX 67 80 68 81 47 82 48 83 56 84 49 85 55 86 50 87 51 88 52 89
REMARK SMILES IDX 53 90 54 91
REMARK H PARENT 14 6 9 12 5 15 5 16 19 28 75 47 45 58
REMARK Flexibility Score: inf
ROOT
ATOM      1  C   UNL A   1      31.650  27.608  26.407  1.00  0.00     0.023 C 
ENDROOT
BRANCH   1   2
ATOM      2  C   UNL A   1      31.394  26.221  25.799  1.00  0.00     0.116 C 
BRANCH   2   3
ATOM      3  N   UNL A   1      31.138  25.238  26.850  1.00  0.00    -0.354 N 
ATOM      4  C   UNL A   1      31.466  23.898  26.928  1.00  0.00     0.245 C 
ATOM      5  O   UNL A   1      30.573  23.167  27.369  1.00  0.00    -0.272 OA
ATOM      6  H   UNL A   1      30.651  25.588  27.632  1.00  0.00     0.163 HD
BRANCH   4   7
ATOM      7  C   UNL A   1      32.794  23.331  26.306  1.00  0.00     0.119 C 
ATOM      8  C   UNL A   1      33.208  22.301  27.434  1.00  0.00     0.046 C 
BRANCH   7   9
ATOM      9  N   UNL A   1      32.477  22.586  25.063  1.00  0.00    -0.337 N 
ATOM     10  C   UNL A   1      32.878  21.398  24.537  1.00  0.00     0.275 C 
ATOM     11  O   UNL A   1      33.033  21.444  23.303  1.00  0.00    -0.268 OA
ATOM     12  H   UNL A   1      31.831  23.058  24.489  1.00  0.00     0.164 HD
BRANCH  10  13
ATOM     13  C   UNL A   1      32.891  20.020  25.197  1.00  0.00     0.362 C 
BRANCH  13  14
ATOM     14  N   UNL A   1      33.909  18.982  24.991  1.00  0.00    -0.334 N 
ATOM     15  H   UNL A   1      34.543  19.371  24.293  1.00  0.00     0.347 HD
ATOM     16  H   UNL A   1      34.169  18.816  25.964  1.00  0.00     0.347 HD
BRANCH  14  17
ATOM     17  C   UNL A   1      33.689  17.599  24.570  1.00  0.00     0.088 C 
ATOM     18  C   UNL A   1      32.537  17.071  25.428  1.00  0.00     0.078 C 
ATOM     19  C   UNL A   1      34.900  16.669  24.614  1.00  0.00     0.078 C 
ATOM     20  C   UNL A   1      33.120  17.598  23.132  1.00  0.00     0.078 C 
ENDBRANCH  14  17
ENDBRANCH  13  14
ENDBRANCH  10  13
ENDBRANCH   7   9
BRANCH   7  21
ATOM     21  C   UNL A   1      34.059  24.188  26.119  1.00  0.00     0.024 C 
ATOM     22  C   UNL A   1      35.421  23.818  25.581  1.00  0.00     0.007 C 
ATOM     23  C   UNL A   1      34.554  24.765  24.808  1.00  0.00     0.007 C 
ENDBRANCH   7  21
ENDBRANCH   4   7
ENDBRANCH   2   3
ENDBRANCH   1   2
BRANCH   1  24
ATOM     24  C   UNL A   1      33.114  27.906  26.756  1.00  0.00     0.023 C 
BRANCH  24  25
ATOM     25  C   UNL A   1      33.814  28.958  25.891  1.00  0.00     0.116 C 
BRANCH  25  26
ATOM     26  N   UNL A   1      33.679  30.313  26.407  1.00  0.00    -0.352 N 
ATOM     27  C   UNL A   1      34.397  30.986  27.367  1.00  0.00     0.251 C 
ATOM     28  H   UNL A   1      32.951  30.836  26.000  1.00  0.00     0.163 HD
ATOM     29  O   UNL A   1      34.016  32.102  27.724  1.00  0.00    -0.269 OA
BRANCH  27  30
ATOM     30  C   UNL A   1      35.593  30.386  27.999  1.00  0.00     0.039 A 
ATOM     31  C   UNL A   1      36.823  30.494  27.341  1.00  0.00     0.014 A 
ATOM     32  C   UNL A   1      35.519  29.700  29.214  1.00  0.00     0.014 A 
ATOM     33  C   UNL A   1      37.985  30.004  27.942  1.00  0.00     0.010 A 
ATOM     34  C   UNL A   1      36.687  29.263  29.842  1.00  0.00     0.010 A 
ATOM     35  C   UNL A   1      37.937  29.432  29.224  1.00  0.00    -0.014 A 
BRANCH  35  36
ATOM     36  C   UNL A   1      39.184  29.082  29.958  1.00  0.00     0.031 A 
ATOM     37  C   UNL A   1      39.616  29.860  31.172  1.00  0.00     0.074 A 
ATOM     38  C   UNL A   1      39.974  28.101  29.476  1.00  0.00     0.049 A 
ATOM     39  N   UNL A   1      40.706  29.731  31.886  1.00  0.00    -0.248 NA
ATOM     40  C   UNL A   1      38.719  30.931  31.632  1.00  0.00     0.031 C 
ATOM     41  C   UNL A   1      39.690  27.296  28.284  1.00  0.00     0.029 A 
ATOM     42  N   UNL A   1      41.182  27.618  29.917  1.00  0.00    -0.354 N 
ATOM     43  C   UNL A   1      40.634  30.708  32.872  1.00  0.00     0.074 A 
ATOM     44  C   UNL A   1      39.411  31.448  32.640  1.00  0.00     0.031 C 
ATOM     45  C   UNL A   1      40.684  26.411  28.102  1.00  0.00     0.029 A 
ATOM     46  C   UNL A   1      41.696  26.614  29.131  1.00  0.00     0.049 A 
ATOM     47  H   UNL A   1      41.636  27.959  30.722  1.00  0.00     0.167 HD
ATOM     48  C   UNL A   1      41.500  30.960  33.883  1.00  0.00     0.031 A 
ATOM     49  C   UNL A   1      42.861  25.939  29.212  1.00  0.00     0.031 A 
ATOM     50  C   UNL A   1      42.717  30.222  34.111  1.00  0.00     0.049 A 
ATOM     51  C   UNL A   1      43.818  26.258  30.328  1.00  0.00     0.074 A 
ATOM     52  C   UNL A   1      43.627  30.366  35.146  1.00  0.00     0.029 A 
ATOM     53  N   UNL A   1      43.202  29.214  33.292  1.00  0.00    -0.354 N 
ATOM     54  N   UNL A   1      43.693  27.135  31.294  1.00  0.00    -0.248 NA
ATOM     55  C   UNL A   1      45.072  25.491  30.365  1.00  0.00     0.031 C 
ATOM     56  C   UNL A   1      44.691  29.488  34.920  1.00  0.00     0.029 A 
ATOM     57  C   UNL A   1      44.415  28.752  33.778  1.00  0.00     0.049 A 
ATOM     58  H   UNL A   1      42.751  28.877  32.485  1.00  0.00     0.167 HD
ATOM     59  C   UNL A   1      44.843  27.013  32.066  1.00  0.00     0.074 A 
ATOM     60  C   UNL A   1      45.640  25.962  31.468  1.00  0.00     0.031 C 
ATOM     61  C   UNL A   1      45.206  27.711  33.170  1.00  0.00     0.031 A 
BRANCH  48  62
ATOM     62  C   UNL A   1      41.174  32.092  34.824  1.00  0.00    -0.014 A 
ATOM     63  C   UNL A   1      40.490  31.858  36.031  1.00  0.00     0.010 A 
ATOM     64  C   UNL A   1      41.617  33.395  34.530  1.00  0.00     0.010 A 
ATOM     65  C   UNL A   1      40.226  32.912  36.910  1.00  0.00     0.020 A 
ATOM     66  C   UNL A   1      41.379  34.447  35.420  1.00  0.00     0.020 A 
ATOM     67  C   UNL A   1      40.672  34.201  36.599  1.00  0.00     0.054 A 
BRANCH  67  68
ATOM     68  S   UNL A   1      40.344  35.542  37.776  1.00  0.00     0.124 S 
ATOM     69  O   UNL A   1      41.593  35.594  38.530  1.00  0.00    -0.237 OA
ATOM     70  O   UNL A   1      40.093  36.683  36.899  1.00  0.00    -0.237 OA
ATOM     71  O   UNL A   1      39.182  35.070  38.525  1.00  0.00    -0.744 OA
ENDBRANCH  67  68
ENDBRANCH  48  62
BRANCH  49  72
ATOM     72  C   UNL A   1      43.192  24.899  28.198  1.00  0.00    -0.014 A 
ATOM     73  C   UNL A   1      43.800  25.255  26.981  1.00  0.00     0.010 A 
ATOM     74  C   UNL A   1      42.901  23.545  28.446  1.00  0.00     0.010 A 
ATOM     75  C   UNL A   1      44.094  24.279  26.024  1.00  0.00     0.020 A 
ATOM     76  C   UNL A   1      43.221  22.562  27.506  1.00  0.00     0.020 A 
ATOM     77  C   UNL A   1      43.803  22.938  26.293  1.00  0.00     0.054 A 
BRANCH  77  78
ATOM     78  S   UNL A   1      44.234  21.683  25.056  1.00  0.00     0.124 S 
ATOM     79  O   UNL A   1      45.585  21.310  25.462  1.00  0.00    -0.237 OA
ATOM     80  O   UNL A   1      43.206  20.667  25.264  1.00  0.00    -0.237 OA
ATOM     81  O   UNL A   1      44.137  22.406  23.789  1.00  0.00    -0.744 OA
ENDBRANCH  77  78
ENDBRANCH  49  72
BRANCH  61  82
ATOM     82  C   UNL A   1      46.519  27.353  33.816  1.00  0.00    -0.014 A 
ATOM     83  C   UNL A   1      47.691  28.072  33.528  1.00  0.00     0.010 A 
ATOM     84  C   UNL A   1      46.569  26.314  34.765  1.00  0.00     0.010 A 
ATOM     85  C   UNL A   1      48.896  27.742  34.153  1.00  0.00     0.020 A 
ATOM     86  C   UNL A   1      47.764  26.000  35.414  1.00  0.00     0.020 A 
ATOM     87  C   UNL A   1      48.925  26.708  35.095  1.00  0.00     0.054 A 
BRANCH  87  88
ATOM     88  S   UNL A   1      50.491  26.331  35.928  1.00  0.00     0.124 S 
ATOM     89  O   UNL A   1      50.765  27.575  36.640  1.00  0.00    -0.237 OA
ATOM     90  O   UNL A   1      50.139  25.188  36.769  1.00  0.00    -0.237 OA
ATOM     91  O   UNL A   1      51.406  26.028  34.828  1.00  0.00    -0.744 OA
ENDBRANCH  87  88
ENDBRANCH  61  82
ENDBRANCH  35  36
ENDBRANCH  27  30
ENDBRANCH  25  26
ENDBRANCH  24  25
ENDBRANCH   1  24
TORSDOF 19
ENDMDL
MODEL 2
REMARK VINA RESULT:     -10.2      2.571      3.437
REMARK SMILES CC(C)(C)[NH2+]CC(=O)N[C@](C)(C(=O)NCCCCNC(=O)c1ccc(-c2c3nc(c(-c4ccc(S(=O)(=O)[O-])cc4)c4ccc([nH]4)c(-c4ccc(S(=O)(=O)[O-])cc4)c4nc(c(-c5ccc(S(=O)(=O)[O-])cc5)c5ccc2[nH]5)C=C4)C=C3)cc1)C1CC1
REMARK SMILES IDX 16 1 15 2 14 3 12 4 13 5 10 7 11 8 9 9 7 10 8 11 6 13 5 14
REMARK SMILES IDX 2 17 1 18 3 19 4 20 82 21 83 22 84 23 17 24 18 25 19 26
REMARK SMILES IDX 20 27 21 29 22 30 23 31 81 32 24 33 80 34 25 35 26 36 27 37
REMARK SMILES IDX 74 38 28 39 79 40 73 41 75 42 29 43 78 44 72 45 71 46 30 48
REMARK SMILES IDX 60 49 41 50 59 51 42 52 45 53 58 54 76 55 43 56 44 57 57 59
REMARK SMILES IDX 77 60 46 61 31 62 32 63 40 64 33 65 39 66 34 67 35 68 36 69
REMARK SMILES IDX 37 70 38 71 61 72 62 73 70 74 63 75 69 76 64 77 65 78 66 79
REMARK SMILES IDX 67 80 68 81 47 82 48 83 56 84 49 85 55 86 50 87 51 88 52 89
REMARK SMILES IDX 53 90 54 91
REMARK H PARENT 14 6 9 12 5 15 5 16 19 28 75 47 45 58
REMARK Flexibility Score: inf
ROOT
ATOM      1  C   UNL A   1      31.305  27.895  26.453  1.00  0.00     0.023 C 
ENDROOT
BRANCH   1   2
ATOM      2  C   UNL A   1      30.736  26.599  25.856  1.00  0.00     0.116 C 
BRANCH   2   3
ATOM      3  N   UNL A   1      31.024  25.462  26.729  1.00  0.00    -0.354 N 
ATOM      4  C   UNL A   1      31.142  24.115  26.443  1.00  0.00     0.245 C 
ATOM      5  O   UNL A   1      30.597  23.359  27.255  1.00  0.00    -0.272 OA
ATOM      6  H   UNL A   1      31.155  25.693  27.677  1.00  0.00     0.163 HD
BRANCH   4   7
ATOM      7  C   UNL A   1      31.739  23.605  25.080  1.00  0.00     0.119 C 
ATOM      8  C   UNL A   1      30.752  24.313  24.065  1.00  0.00     0.046 C 
BRANCH   7   9
ATOM      9  N   UNL A   1      33.102  24.163  24.900  1.00  0.00    -0.337 N 
ATOM     10  C   UNL A   1      34.203  24.258  25.692  1.00  0.00     0.275 C 
ATOM     11  O   UNL A   1      34.808  25.338  25.551  1.00  0.00    -0.268 OA
ATOM     12  H   UNL A   1      33.240  24.553  24.007  1.00  0.00     0.164 HD
BRANCH  10  13
ATOM     13  C   UNL A   1      34.909  23.155  26.479  1.00  0.00     0.362 C 
BRANCH  13  14
ATOM     14  N   UNL A   1      36.358  22.919  26.511  1.00  0.00    -0.334 N 
ATOM     15  H   UNL A   1      36.754  23.774  26.900  1.00  0.00     0.347 HD
ATOM     16  H   UNL A   1      36.365  22.020  26.993  1.00  0.00     0.347 HD
BRANCH  14  17
ATOM     17  C   UNL A   1      37.223  22.583  25.381  1.00  0.00     0.088 C 
ATOM     18  C   UNL A   1      38.615  23.108  25.740  1.00  0.00     0.078 C 
ATOM     19  C   UNL A   1      36.772  23.070  24.005  1.00  0.00     0.078 C 
ATOM     20  C   UNL A   1      37.401  21.048  25.325  1.00  0.00     0.078 C 
ENDBRANCH  14  17
ENDBRANCH  13  14
ENDBRANCH  10  13
ENDBRANCH   7   9
BRANCH   7  21
ATOM     21  C   UNL A   1      31.697  22.127  24.654  1.00  0.00     0.024 C 
ATOM     22  C   UNL A   1      32.776  21.244  24.073  1.00  0.00     0.007 C 
ATOM     23  C   UNL A   1      32.247  20.958  25.446  1.00  0.00     0.007 C 
ENDBRANCH   7  21
ENDBRANCH   4   7
ENDBRANCH   2   3
ENDBRANCH   1   2
BRANCH   1  24
ATOM     24  C   UNL A   1      32.721  27.779  27.033  1.00  0.00     0.023 C 
BRANCH  24  25
ATOM     25  C   UNL A   1      33.766  28.741  26.460  1.00  0.00     0.116 C 
BRANCH  25  26
ATOM     26  N   UNL A   1      33.728  30.063  27.069  1.00  0.00    -0.352 N 
ATOM     27  C   UNL A   1      34.622  30.698  27.899  1.00  0.00     0.251 C 
ATOM     28  H   UNL A   1      32.929  30.593  26.849  1.00  0.00     0.163 HD
ATOM     29  O   UNL A   1      34.314  31.785  28.388  1.00  0.00    -0.269 OA
BRANCH  27  30
ATOM     30  C   UNL A   1      35.928  30.088  28.239  1.00  0.00     0.039 A 
ATOM     31  C   UNL A   1      36.951  30.123  27.285  1.00  0.00     0.014 A 
ATOM     32  C   UNL A   1      36.151  29.463  29.468  1.00  0.00     0.014 A 
ATOM     33  C   UNL A   1      38.218  29.622  27.598  1.00  0.00     0.010 A 
ATOM     34  C   UNL A   1      37.432  29.017  29.802  1.00  0.00     0.010 A 
ATOM     35  C   UNL A   1      38.485  29.113  28.879  1.00  0.00    -0.014 A 
BRANCH  35  36
ATOM     36  C   UNL A   1      39.871  28.757  29.291  1.00  0.00     0.031 A 
ATOM     37  C   UNL A   1      40.755  29.753  29.992  1.00  0.00     0.074 A 
ATOM     38  C   UNL A   1      40.361  27.545  28.958  1.00  0.00     0.049 A 
ATOM     39  N   UNL A   1      42.006  29.628  30.359  1.00  0.00    -0.248 NA
ATOM     40  C   UNL A   1      40.165  31.063  30.307  1.00  0.00     0.031 C 
ATOM     41  C   UNL A   1      39.621  26.501  28.243  1.00  0.00     0.029 A 
ATOM     42  N   UNL A   1      41.599  26.987  29.164  1.00  0.00    -0.354 N 
ATOM     43  C   UNL A   1      42.358  30.842  30.935  1.00  0.00     0.074 A 
ATOM     44  C   UNL A   1      41.199  31.705  30.836  1.00  0.00     0.031 C 
ATOM     45  C   UNL A   1      40.412  25.427  28.087  1.00  0.00     0.029 A 
ATOM     46  C   UNL A   1      41.727  25.719  28.647  1.00  0.00     0.049 A 
ATOM     47  H   UNL A   1      42.327  27.451  29.638  1.00  0.00     0.167 HD
ATOM     48  C   UNL A   1      43.533  31.203  31.505  1.00  0.00     0.031 A 
ATOM     49  C   UNL A   1      42.786  24.885  28.607  1.00  0.00     0.031 A 
ATOM     50  C   UNL A   1      44.685  30.343  31.603  1.00  0.00     0.049 A 
ATOM     51  C   UNL A   1      44.087  25.321  29.221  1.00  0.00     0.074 A 
ATOM     52  C   UNL A   1      45.900  30.600  32.216  1.00  0.00     0.029 A 
ATOM     53  N   UNL A   1      44.773  29.068  31.066  1.00  0.00    -0.354 N 
ATOM     54  N   UNL A   1      44.374  26.446  29.829  1.00  0.00    -0.248 NA
ATOM     55  C   UNL A   1      45.208  24.371  29.146  1.00  0.00     0.031 C 
ATOM     56  C   UNL A   1      46.743  29.506  31.999  1.00  0.00     0.029 A 
ATOM     57  C   UNL A   1      46.034  28.540  31.303  1.00  0.00     0.049 A 
ATOM     58  H   UNL A   1      44.049  28.605  30.586  1.00  0.00     0.167 HD
ATOM     59  C   UNL A   1      45.702  26.333  30.227  1.00  0.00     0.074 A 
ATOM     60  C   UNL A   1      46.154  25.021  29.812  1.00  0.00     0.031 C 
ATOM     61  C   UNL A   1      46.477  27.236  30.876  1.00  0.00     0.031 A 
BRANCH  48  62
ATOM     62  C   UNL A   1      43.646  32.599  32.064  1.00  0.00    -0.014 A 
ATOM     63  C   UNL A   1      43.375  32.862  33.419  1.00  0.00     0.010 A 
ATOM     64  C   UNL A   1      44.094  33.648  31.240  1.00  0.00     0.010 A 
ATOM     65  C   UNL A   1      43.518  34.155  33.931  1.00  0.00     0.020 A 
ATOM     66  C   UNL A   1      44.265  34.937  31.755  1.00  0.00     0.020 A 
ATOM     67  C   UNL A   1      43.962  35.185  33.094  1.00  0.00     0.054 A 
BRANCH  67  68
ATOM     68  S   UNL A   1      44.170  36.845  33.797  1.00  0.00     0.124 S 
ATOM     69  O   UNL A   1      42.810  37.374  33.728  1.00  0.00    -0.237 OA
ATOM     70  O   UNL A   1      44.666  36.563  35.141  1.00  0.00    -0.237 OA
ATOM     71  O   UNL A   1      45.132  37.483  32.901  1.00  0.00    -0.744 OA
ENDBRANCH  67  68
ENDBRANCH  48  62
BRANCH  49  72
ATOM     72  C   UNL A   1      42.661  23.554  27.950  1.00  0.00    -0.014 A 
ATOM     73  C   UNL A   1      43.144  23.351  26.645  1.00  0.00     0.010 A 
ATOM     74  C   UNL A   1      42.059  22.479  28.630  1.00  0.00     0.010 A 
ATOM     75  C   UNL A   1      43.010  22.106  26.025  1.00  0.00     0.020 A 
ATOM     76  C   UNL A   1      41.951  21.223  28.026  1.00  0.00     0.020 A 
ATOM     77  C   UNL A   1      42.414  21.048  26.720  1.00  0.00     0.054 A 
BRANCH  77  78
ATOM     78  S   UNL A   1      42.292  19.429  25.913  1.00  0.00     0.124 S 
ATOM     79  O   UNL A   1      40.861  19.331  25.645  1.00  0.00    -0.237 OA
ATOM     80  O   UNL A   1      43.147  19.594  24.740  1.00  0.00    -0.237 OA
ATOM     81  O   UNL A   1      42.806  18.505  26.922  1.00  0.00    -0.744 OA
ENDBRANCH  77  78
ENDBRANCH  49  72
BRANCH  61  82
ATOM     82  C   UNL A   1      47.893  26.833  31.194  1.00  0.00    -0.014 A 
ATOM     83  C   UNL A   1      48.213  26.199  32.406  1.00  0.00     0.010 A 
ATOM     84  C   UNL A   1      48.909  27.045  30.243  1.00  0.00     0.010 A 
ATOM     85  C   UNL A   1      49.528  25.810  32.676  1.00  0.00     0.020 A 
ATOM     86  C   UNL A   1      50.219  26.632  30.496  1.00  0.00     0.020 A 
ATOM     87  C   UNL A   1      50.524  26.028  31.718  1.00  0.00     0.054 A 
BRANCH  87  88
ATOM     88  S   UNL A   1      52.213  25.471  32.073  1.00  0.00     0.124 S 
ATOM     89  O   UNL A   1      52.537  26.231  33.277  1.00  0.00    -0.237 OA
ATOM     90  O   UNL A   1      52.042  24.032  32.263  1.00  0.00    -0.237 OA
ATOM     91  O   UNL A   1      52.962  25.851  30.877  1.00  0.00    -0.744 OA
ENDBRANCH  87  88
ENDBRANCH  61  82
ENDBRANCH  35  36
ENDBRANCH  27  30
ENDBRANCH  25  26
ENDBRANCH  24  25
ENDBRANCH   1  24
TORSDOF 19
ENDMDL
MODEL 3
REMARK VINA RESULT:     -10.1      4.992      6.342
REMARK SMILES CC(C)(C)[NH2+]CC(=O)N[C@](C)(C(=O)NCCCCNC(=O)c1ccc(-c2c3nc(c(-c4ccc(S(=O)(=O)[O-])cc4)c4ccc([nH]4)c(-c4ccc(S(=O)(=O)[O-])cc4)c4nc(c(-c5ccc(S(=O)(=O)[O-])cc5)c5ccc2[nH]5)C=C4)C=C3)cc1)C1CC1
REMARK SMILES IDX 16 1 15 2 14 3 12 4 13 5 10 7 11 8 9 9 7 10 8 11 6 13 5 14
REMARK SMILES IDX 2 17 1 18 3 19 4 20 82 21 83 22 84 23 17 24 18 25 19 26
REMARK SMILES IDX 20 27 21 29 22 30 23 31 81 32 24 33 80 34 25 35 26 36 27 37
REMARK SMILES IDX 74 38 28 39 79 40 73 41 75 42 29 43 78 44 72 45 71 46 30 48
REMARK SMILES IDX 60 49 41 50 59 51 42 52 45 53 58 54 76 55 43 56 44 57 57 59
REMARK SMILES IDX 77 60 46 61 31 62 32 63 40 64 33 65 39 66 34 67 35 68 36 69
REMARK SMILES IDX 37 70 38 71 61 72 62 73 70 74 63 75 69 76 64 77 65 78 66 79
REMARK SMILES IDX 67 80 68 81 47 82 48 83 56 84 49 85 55 86 50 87 51 88 52 89
REMARK SMILES IDX 53 90 54 91
REMARK H PARENT 14 6 9 12 5 15 5 16 19 28 75 47 45 58
REMARK Flexibility Score: inf
ROOT
ATOM      1  C   UNL A   1      32.701  30.287  26.862  1.00  0.00     0.023 C 
ENDROOT
BRANCH   1   2
ATOM      2  C   UNL A   1      31.883  29.962  25.604  1.00  0.00     0.116 C 
BRANCH   2   3
ATOM      3  N   UNL A   1      32.763  29.772  24.453  1.00  0.00    -0.354 N 
ATOM      4  C   UNL A   1      32.827  28.748  23.528  1.00  0.00     0.245 C 
ATOM      5  O   UNL A   1      33.969  28.377  23.237  1.00  0.00    -0.272 OA
ATOM      6  H   UNL A   1      33.420  30.493  24.313  1.00  0.00     0.163 HD
BRANCH   4   7
ATOM      7  C   UNL A   1      31.541  27.980  23.050  1.00  0.00     0.119 C 
ATOM      8  C   UNL A   1      30.729  29.177  22.406  1.00  0.00     0.046 C 
BRANCH   7   9
ATOM      9  N   UNL A   1      31.910  27.017  21.983  1.00  0.00    -0.337 N 
ATOM     10  C   UNL A   1      32.908  26.107  21.828  1.00  0.00     0.275 C 
ATOM     11  O   UNL A   1      33.338  26.057  20.661  1.00  0.00    -0.268 OA
ATOM     12  H   UNL A   1      31.294  27.043  21.216  1.00  0.00     0.164 HD
BRANCH  10  13
ATOM     13  C   UNL A   1      33.348  25.002  22.788  1.00  0.00     0.362 C 
BRANCH  13  14
ATOM     14  N   UNL A   1      32.695  23.696  22.947  1.00  0.00    -0.334 N 
ATOM     15  H   UNL A   1      31.700  23.908  23.022  1.00  0.00     0.347 HD
ATOM     16  H   UNL A   1      33.113  23.209  22.154  1.00  0.00     0.347 HD
BRANCH  14  17
ATOM     17  C   UNL A   1      32.948  22.703  23.990  1.00  0.00     0.088 C 
ATOM     18  C   UNL A   1      32.339  21.393  23.487  1.00  0.00     0.078 C 
ATOM     19  C   UNL A   1      32.463  23.050  25.397  1.00  0.00     0.078 C 
ATOM     20  C   UNL A   1      34.466  22.416  24.050  1.00  0.00     0.078 C 
ENDBRANCH  14  17
ENDBRANCH  13  14
ENDBRANCH  10  13
ENDBRANCH   7   9
BRANCH   7  21
ATOM     21  C   UNL A   1      30.535  27.348  24.029  1.00  0.00     0.024 C 
ATOM     22  C   UNL A   1      30.047  25.923  24.147  1.00  0.00     0.007 C 
ATOM     23  C   UNL A   1      30.885  26.511  25.243  1.00  0.00     0.007 C 
ENDBRANCH   7  21
ENDBRANCH   4   7
ENDBRANCH   2   3
ENDBRANCH   1   2
BRANCH   1  24
ATOM     24  C   UNL A   1      33.773  29.252  27.228  1.00  0.00     0.023 C 
BRANCH  24  25
ATOM     25  C   UNL A   1      35.158  29.807  27.572  1.00  0.00     0.116 C 
BRANCH  25  26
ATOM     26  N   UNL A   1      35.222  30.425  28.889  1.00  0.00    -0.352 N 
ATOM     27  C   UNL A   1      36.225  30.440  29.829  1.00  0.00     0.251 C 
ATOM     28  H   UNL A   1      34.410  30.917  29.150  1.00  0.00     0.163 HD
ATOM     29  O   UNL A   1      36.001  30.936  30.934  1.00  0.00    -0.269 OA
BRANCH  27  30
ATOM     30  C   UNL A   1      37.552  29.844  29.552  1.00  0.00     0.039 A 
ATOM     31  C   UNL A   1      38.017  29.833  28.233  1.00  0.00     0.014 A 
ATOM     32  C   UNL A   1      38.331  29.278  30.564  1.00  0.00     0.014 A 
ATOM     33  C   UNL A   1      39.295  29.346  27.945  1.00  0.00     0.010 A 
ATOM     34  C   UNL A   1      39.630  28.847  30.285  1.00  0.00     0.010 A 
ATOM     35  C   UNL A   1      40.135  28.897  28.977  1.00  0.00    -0.014 A 
BRANCH  35  36
ATOM     36  C   UNL A   1      41.561  28.559  28.715  1.00  0.00     0.031 A 
ATOM     37  C   UNL A   1      42.630  29.618  28.741  1.00  0.00     0.074 A 
ATOM     38  C   UNL A   1      41.881  27.293  28.375  1.00  0.00     0.049 A 
ATOM     39  N   UNL A   1      43.906  29.506  28.470  1.00  0.00    -0.248 NA
ATOM     40  C   UNL A   1      42.209  30.981  29.100  1.00  0.00     0.031 C 
ATOM     41  C   UNL A   1      40.934  26.180  28.274  1.00  0.00     0.029 A 
ATOM     42  N   UNL A   1      43.088  26.729  28.038  1.00  0.00    -0.354 N 
ATOM     43  C   UNL A   1      44.440  30.781  28.613  1.00  0.00     0.074 A 
ATOM     44  C   UNL A   1      43.342  31.660  28.957  1.00  0.00     0.031 C 
ATOM     45  C   UNL A   1      41.597  25.067  27.920  1.00  0.00     0.029 A 
ATOM     46  C   UNL A   1      43.004  25.393  27.722  1.00  0.00     0.049 A 
ATOM     47  H   UNL A   1      43.933  27.234  28.024  1.00  0.00     0.167 HD
ATOM     48  C   UNL A   1      45.727  31.182  28.480  1.00  0.00     0.031 A 
ATOM     49  C   UNL A   1      43.946  24.525  27.301  1.00  0.00     0.031 A 
ATOM     50  C   UNL A   1      46.820  30.306  28.138  1.00  0.00     0.049 A 
ATOM     51  C   UNL A   1      45.362  25.004  27.134  1.00  0.00     0.074 A 
ATOM     52  C   UNL A   1      48.167  30.611  28.040  1.00  0.00     0.029 A 
ATOM     53  N   UNL A   1      46.692  28.962  27.825  1.00  0.00    -0.354 N 
ATOM     54  N   UNL A   1      45.859  26.198  27.350  1.00  0.00    -0.248 NA
ATOM     55  C   UNL A   1      46.347  24.014  26.672  1.00  0.00     0.031 C 
ATOM     56  C   UNL A   1      48.846  29.467  27.610  1.00  0.00     0.029 A 
ATOM     57  C   UNL A   1      47.931  28.432  27.500  1.00  0.00     0.049 A 
ATOM     58  H   UNL A   1      45.847  28.457  27.833  1.00  0.00     0.167 HD
ATOM     59  C   UNL A   1      47.217  26.099  27.068  1.00  0.00     0.074 A 
ATOM     60  C   UNL A   1      47.468  24.723  26.689  1.00  0.00     0.031 C 
ATOM     61  C   UNL A   1      48.169  27.062  27.115  1.00  0.00     0.031 A 
BRANCH  48  62
ATOM     62  C   UNL A   1      46.036  32.642  28.697  1.00  0.00    -0.014 A 
ATOM     63  C   UNL A   1      46.402  33.127  29.966  1.00  0.00     0.010 A 
ATOM     64  C   UNL A   1      46.027  33.528  27.603  1.00  0.00     0.010 A 
ATOM     65  C   UNL A   1      46.719  34.477  30.143  1.00  0.00     0.020 A 
ATOM     66  C   UNL A   1      46.370  34.873  27.771  1.00  0.00     0.020 A 
ATOM     67  C   UNL A   1      46.701  35.342  29.043  1.00  0.00     0.054 A 
BRANCH  67  68
ATOM     68  S   UNL A   1      47.150  37.081  29.299  1.00  0.00     0.124 S 
ATOM     69  O   UNL A   1      47.967  37.006  30.507  1.00  0.00    -0.237 OA
ATOM     70  O   UNL A   1      47.874  37.408  28.073  1.00  0.00    -0.237 OA
ATOM     71  O   UNL A   1      45.863  37.753  29.458  1.00  0.00    -0.744 OA
ENDBRANCH  67  68
ENDBRANCH  48  62
BRANCH  49  72
ATOM     72  C   UNL A   1      43.577  23.115  26.997  1.00  0.00    -0.014 A 
ATOM     73  C   UNL A   1      43.032  22.286  27.994  1.00  0.00     0.010 A 
ATOM     74  C   UNL A   1      43.768  22.593  25.704  1.00  0.00     0.010 A 
ATOM     75  C   UNL A   1      42.703  20.958  27.710  1.00  0.00     0.020 A 
ATOM     76  C   UNL A   1      43.411  21.275  25.407  1.00  0.00     0.020 A 
ATOM     77  C   UNL A   1      42.894  20.460  26.417  1.00  0.00     0.054 A 
BRANCH  77  78
ATOM     78  S   UNL A   1      42.417  18.747  26.059  1.00  0.00     0.124 S 
ATOM     79  O   UNL A   1      41.025  18.900  25.649  1.00  0.00    -0.237 OA
ATOM     80  O   UNL A   1      43.351  18.373  25.001  1.00  0.00    -0.237 OA
ATOM     81  O   UNL A   1      42.624  18.062  27.334  1.00  0.00    -0.744 OA
ENDBRANCH  77  78
ENDBRANCH  49  72
BRANCH  61  82
ATOM     82  C   UNL A   1      49.578  26.662  26.765  1.00  0.00    -0.014 A 
ATOM     83  C   UNL A   1      50.059  26.775  25.449  1.00  0.00     0.010 A 
ATOM     84  C   UNL A   1      50.450  26.217  27.776  1.00  0.00     0.010 A 
ATOM     85  C   UNL A   1      51.376  26.421  25.144  1.00  0.00     0.020 A 
ATOM     86  C   UNL A   1      51.775  25.890  27.482  1.00  0.00     0.020 A 
ATOM     87  C   UNL A   1      52.228  25.982  26.163  1.00  0.00     0.054 A 
BRANCH  87  88
ATOM     88  S   UNL A   1      53.946  25.575  25.750  1.00  0.00     0.124 S 
ATOM     89  O   UNL A   1      54.440  25.026  27.010  1.00  0.00    -0.237 OA
ATOM     90  O   UNL A   1      53.794  24.613  24.660  1.00  0.00    -0.237 OA
ATOM     91  O   UNL A   1      54.524  26.860  25.362  1.00  0.00    -0.744 OA
ENDBRANCH  87  88
ENDBRANCH  61  82
ENDBRANCH  35  36
ENDBRANCH  27  30
ENDBRANCH  25  26
ENDBRANCH  24  25
ENDBRANCH   1  24
TORSDOF 19
ENDMDL
