MODEL 1
REMARK VINA RESULT:     -12.8      0.000      0.000
REMARK SMILES Cc1ccc(S(=O)(=O)N[C@@H](C)C(=O)Oc2csc(C(=O)NCCCCNC(=O)c3ccc(-c4c5nc(c(-c6ccc(S(=O)(=O)[O-])cc6)c6ccc([nH]6)c(-c6ccc(S(=O)(=O)[O-])cc6)c6nc(c(-c7ccc(S(=O)(=O)[O-])cc7)c7ccc4[nH]7)C=C6)C=C5)cc3)c2C)cc1
REMARK SMILES IDX 22 1 21 2 19 3 20 4 18 6 15 7 16 8 89 9 17 10 90 11 14 12
REMARK SMILES IDX 12 13 13 14 10 15 11 16 9 17 6 19 7 20 8 21 5 22 1 23 2 24
REMARK SMILES IDX 3 25 92 26 4 27 91 28 23 29 24 30 25 31 26 32 27 33 28 35
REMARK SMILES IDX 29 36 30 37 88 38 31 39 87 40 32 41 33 42 34 43 81 44 35 45
REMARK SMILES IDX 86 46 80 47 82 48 36 49 85 50 79 51 78 52 37 54 67 55 48 56
REMARK SMILES IDX 66 57 49 58 52 59 65 60 83 61 50 62 51 63 64 65 84 66 53 67
REMARK SMILES IDX 38 68 39 69 47 70 40 71 46 72 41 73 42 74 43 75 44 76 45 77
REMARK SMILES IDX 68 78 69 79 77 80 70 81 76 82 71 83 72 84 73 85 74 86 75 87
REMARK SMILES IDX 54 88 55 89 63 90 56 91 62 92 57 93 58 94 59 95 60 96 61 97
REMARK H PARENT 21 5 9 18 26 34 82 53 52 64
REMARK Flexibility Score: inf
ROOT
ATOM      1  C   UNL A   1      31.350  29.783  24.792  1.00  0.00     0.116 C 
ENDROOT
BRANCH   1   2
ATOM      2  N   UNL A   1      30.687  29.654  23.512  1.00  0.00    -0.351 N 
ATOM      3  C   UNL A   1      30.385  28.608  22.678  1.00  0.00     0.261 C 
ATOM      4  O   UNL A   1      29.793  28.980  21.655  1.00  0.00    -0.268 OA
ATOM      5  H   UNL A   1      30.380  30.519  23.158  1.00  0.00     0.163 HD
BRANCH   3   6
ATOM      6  C   UNL A   1      30.680  27.186  22.933  1.00  0.00     0.099 A 
ATOM      7  C   UNL A   1      31.417  24.963  23.149  1.00  0.00     0.145 A 
ATOM      8  C   UNL A   1      30.360  24.934  24.014  1.00  0.00     0.113 A 
ATOM      9  C   UNL A   1      31.548  26.210  22.437  1.00  0.00     0.015 A 
ATOM     10  S   UNL A   1      29.624  26.458  24.129  1.00  0.00    -0.134 S 
ATOM     11  C   UNL A   1      32.501  26.287  21.299  1.00  0.00     0.050 C 
BRANCH   7  12
ATOM     12  O   UNL A   1      32.159  23.853  22.907  1.00  0.00    -0.424 OA
BRANCH  12  13
ATOM     13  C   UNL A   1      33.469  23.909  23.317  1.00  0.00     0.329 C 
ATOM     14  O   UNL A   1      34.447  23.854  22.577  1.00  0.00    -0.250 OA
BRANCH  13  15
ATOM     15  C   UNL A   1      33.578  24.163  24.820  1.00  0.00     0.177 C 
ATOM     16  C   UNL A   1      34.406  25.392  25.156  1.00  0.00     0.038 C 
BRANCH  15  17
ATOM     17  N   UNL A   1      34.096  22.932  25.425  1.00  0.00    -0.197 NA
ATOM     18  H   UNL A   1      34.615  22.460  24.684  1.00  0.00     0.142 HD
BRANCH  17  19
ATOM     19  S   UNL A   1      33.151  21.762  26.124  1.00  0.00     0.241 S 
ATOM     20  O   UNL A   1      31.762  22.169  25.958  1.00  0.00    -0.207 OA
ATOM     21  O   UNL A   1      33.706  21.541  27.426  1.00  0.00    -0.207 OA
BRANCH  19  22
ATOM     22  C   UNL A   1      33.382  20.275  25.186  1.00  0.00     0.082 A 
ATOM     23  C   UNL A   1      34.123  16.518  23.233  1.00  0.00     0.044 C 
ATOM     24  C   UNL A   1      33.856  17.836  23.900  1.00  0.00    -0.051 A 
ATOM     25  C   UNL A   1      34.918  18.556  24.461  1.00  0.00     0.005 A 
ATOM     26  C   UNL A   1      32.561  18.366  23.959  1.00  0.00     0.005 A 
ATOM     27  C   UNL A   1      34.681  19.765  25.113  1.00  0.00     0.022 A 
ATOM     28  C   UNL A   1      32.322  19.593  24.587  1.00  0.00     0.022 A 
ENDBRANCH  19  22
ENDBRANCH  17  19
ENDBRANCH  15  17
ENDBRANCH  13  15
ENDBRANCH  12  13
ENDBRANCH   7  12
ENDBRANCH   3   6
ENDBRANCH   1   2
BRANCH   1  29
ATOM     29  C   UNL A   1      32.749  29.139  24.766  1.00  0.00     0.023 C 
BRANCH  29  30
ATOM     30  C   UNL A   1      33.248  28.564  26.084  1.00  0.00     0.023 C 
BRANCH  30  31
ATOM     31  C   UNL A   1      33.211  29.573  27.211  1.00  0.00     0.116 C 
BRANCH  31  32
ATOM     32  N   UNL A   1      33.923  30.821  26.983  1.00  0.00    -0.352 N 
ATOM     33  C   UNL A   1      34.950  31.272  27.812  1.00  0.00     0.251 C 
ATOM     34  H   UNL A   1      33.668  31.373  26.210  1.00  0.00     0.163 HD
ATOM     35  O   UNL A   1      35.095  32.438  28.151  1.00  0.00    -0.269 OA
BRANCH  33  36
ATOM     36  C   UNL A   1      35.965  30.255  28.172  1.00  0.00     0.039 A 
ATOM     37  C   UNL A   1      35.991  29.773  29.487  1.00  0.00     0.014 A 
ATOM     38  C   UNL A   1      37.048  30.077  27.319  1.00  0.00     0.014 A 
ATOM     39  C   UNL A   1      37.189  29.303  30.010  1.00  0.00     0.010 A 
ATOM     40  C   UNL A   1      38.263  29.797  27.881  1.00  0.00     0.010 A 
ATOM     41  C   UNL A   1      38.329  29.432  29.228  1.00  0.00    -0.014 A 
BRANCH  41  42
ATOM     42  C   UNL A   1      39.675  29.123  29.656  1.00  0.00     0.031 A 
ATOM     43  C   UNL A   1      40.209  27.818  29.237  1.00  0.00     0.074 A 
ATOM     44  C   UNL A   1      40.419  30.130  30.156  1.00  0.00     0.049 A 
ATOM     45  N   UNL A   1      41.281  27.286  29.693  1.00  0.00    -0.248 NA
ATOM     46  C   UNL A   1      39.523  26.972  28.256  1.00  0.00     0.031 C 
ATOM     47  C   UNL A   1      41.866  30.217  30.310  1.00  0.00     0.029 A 
ATOM     48  N   UNL A   1      39.936  31.238  30.850  1.00  0.00    -0.354 N 
ATOM     49  C   UNL A   1      41.610  26.256  28.837  1.00  0.00     0.074 A 
ATOM     50  C   UNL A   1      40.431  26.017  28.050  1.00  0.00     0.031 C 
ATOM     51  C   UNL A   1      42.142  31.122  31.267  1.00  0.00     0.029 A 
ATOM     52  C   UNL A   1      40.871  31.524  31.858  1.00  0.00     0.049 A 
ATOM     53  H   UNL A   1      39.101  31.726  30.668  1.00  0.00     0.167 HD
ATOM     54  C   UNL A   1      42.913  25.865  28.782  1.00  0.00     0.031 A 
ATOM     55  C   UNL A   1      40.516  31.281  33.158  1.00  0.00     0.031 A 
ATOM     56  C   UNL A   1      43.671  26.506  29.859  1.00  0.00     0.049 A 
ATOM     57  C   UNL A   1      41.289  30.117  33.750  1.00  0.00     0.074 A 
ATOM     58  C   UNL A   1      44.526  27.595  29.890  1.00  0.00     0.029 A 
ATOM     59  N   UNL A   1      43.269  26.287  31.174  1.00  0.00    -0.354 N 
ATOM     60  N   UNL A   1      41.863  29.173  33.048  1.00  0.00    -0.248 NA
ATOM     61  C   UNL A   1      41.539  29.970  35.180  1.00  0.00     0.031 C 
ATOM     62  C   UNL A   1      44.520  28.111  31.219  1.00  0.00     0.029 A 
ATOM     63  C   UNL A   1      43.695  27.315  31.997  1.00  0.00     0.049 A 
ATOM     64  H   UNL A   1      42.752  25.506  31.479  1.00  0.00     0.167 HD
ATOM     65  C   UNL A   1      42.583  28.349  33.873  1.00  0.00     0.074 A 
ATOM     66  C   UNL A   1      42.340  28.890  35.201  1.00  0.00     0.031 C 
ATOM     67  C   UNL A   1      43.345  27.308  33.416  1.00  0.00     0.031 A 
BRANCH  54  68
ATOM     68  C   UNL A   1      43.539  25.160  27.597  1.00  0.00    -0.014 A 
ATOM     69  C   UNL A   1      43.557  23.752  27.574  1.00  0.00     0.010 A 
ATOM     70  C   UNL A   1      44.194  25.799  26.524  1.00  0.00     0.010 A 
ATOM     71  C   UNL A   1      44.226  23.027  26.573  1.00  0.00     0.020 A 
ATOM     72  C   UNL A   1      44.876  25.091  25.521  1.00  0.00     0.020 A 
ATOM     73  C   UNL A   1      44.891  23.704  25.555  1.00  0.00     0.054 A 
BRANCH  73  74
ATOM     74  S   UNL A   1      45.754  22.756  24.278  1.00  0.00     0.124 S 
ATOM     75  O   UNL A   1      44.672  22.405  23.362  1.00  0.00    -0.237 OA
ATOM     76  O   UNL A   1      46.723  23.723  23.771  1.00  0.00    -0.237 OA
ATOM     77  O   UNL A   1      46.330  21.629  25.010  1.00  0.00    -0.744 OA
ENDBRANCH  73  74
ENDBRANCH  54  68
BRANCH  55  78
ATOM     78  C   UNL A   1      39.088  31.663  33.436  1.00  0.00    -0.014 A 
ATOM     79  C   UNL A   1      38.811  33.049  33.533  1.00  0.00     0.010 A 
ATOM     80  C   UNL A   1      38.023  30.794  33.136  1.00  0.00     0.010 A 
ATOM     81  C   UNL A   1      37.575  33.568  33.131  1.00  0.00     0.020 A 
ATOM     82  C   UNL A   1      36.769  31.316  32.757  1.00  0.00     0.020 A 
ATOM     83  C   UNL A   1      36.586  32.700  32.676  1.00  0.00     0.054 A 
BRANCH  83  84
ATOM     84  S   UNL A   1      35.158  33.421  31.802  1.00  0.00     0.124 S 
ATOM     85  O   UNL A   1      34.519  34.211  32.851  1.00  0.00    -0.237 OA
ATOM     86  O   UNL A   1      35.800  34.195  30.734  1.00  0.00    -0.237 OA
ATOM     87  O   UNL A   1      34.409  32.253  31.355  1.00  0.00    -0.744 OA
ENDBRANCH  83  84
ENDBRANCH  55  78
BRANCH  67  88
ATOM     88  C   UNL A   1      43.920  26.195  34.268  1.00  0.00    -0.014 A 
ATOM     89  C   UNL A   1      43.161  25.155  34.827  1.00  0.00     0.010 A 
ATOM     90  C   UNL A   1      45.327  26.098  34.415  1.00  0.00     0.010 A 
ATOM     91  C   UNL A   1      43.764  24.124  35.559  1.00  0.00     0.020 A 
ATOM     92  C   UNL A   1      45.944  25.040  35.082  1.00  0.00     0.020 A 
ATOM     93  C   UNL A   1      45.152  24.073  35.683  1.00  0.00     0.054 A 
BRANCH  93  94
ATOM     94  S   UNL A   1      45.910  22.710  36.592  1.00  0.00     0.124 S 
ATOM     95  O   UNL A   1      45.506  23.007  37.964  1.00  0.00    -0.237 OA
ATOM     96  O   UNL A   1      45.282  21.533  35.994  1.00  0.00    -0.237 OA
ATOM     97  O   UNL A   1      47.336  22.857  36.313  1.00  0.00    -0.744 OA
ENDBRANCH  93  94
ENDBRANCH  67  88
ENDBRANCH  41  42
ENDBRANCH  33  36
ENDBRANCH  31  32
ENDBRANCH  30  31
ENDBRANCH  29  30
ENDBRANCH   1  29
TORSDOF 20
ENDMDL
MODEL 2
REMARK VINA RESULT:     -12.3      1.390      2.118
REMARK SMILES Cc1ccc(S(=O)(=O)N[C@@H](C)C(=O)Oc2csc(C(=O)NCCCCNC(=O)c3ccc(-c4c5nc(c(-c6ccc(S(=O)(=O)[O-])cc6)c6ccc([nH]6)c(-c6ccc(S(=O)(=O)[O-])cc6)c6nc(c(-c7ccc(S(=O)(=O)[O-])cc7)c7ccc4[nH]7)C=C6)C=C5)cc3)c2C)cc1
REMARK SMILES IDX 22 1 21 2 19 3 20 4 18 6 15 7 16 8 89 9 17 10 90 11 14 12
REMARK SMILES IDX 12 13 13 14 10 15 11 16 9 17 6 19 7 20 8 21 5 22 1 23 2 24
REMARK SMILES IDX 3 25 92 26 4 27 91 28 23 29 24 30 25 31 26 32 27 33 28 35
REMARK SMILES IDX 29 36 30 37 88 38 31 39 87 40 32 41 33 42 34 43 81 44 35 45
REMARK SMILES IDX 86 46 80 47 82 48 36 49 85 50 79 51 78 52 37 54 67 55 48 56
REMARK SMILES IDX 66 57 49 58 52 59 65 60 83 61 50 62 51 63 64 65 84 66 53 67
REMARK SMILES IDX 38 68 39 69 47 70 40 71 46 72 41 73 42 74 43 75 44 76 45 77
REMARK SMILES IDX 68 78 69 79 77 80 70 81 76 82 71 83 72 84 73 85 74 86 75 87
REMARK SMILES IDX 54 88 55 89 63 90 56 91 62 92 57 93 58 94 59 95 60 96 61 97
REMARK H PARENT 21 5 9 18 26 34 82 53 52 64
REMARK Flexibility Score: inf
ROOT
ATOM      1  C   UNL A   1      31.002  30.068  24.766  1.00  0.00     0.116 C 
ENDROOT
BRANCH   1   2
ATOM      2  N   UNL A   1      30.418  29.908  23.452  1.00  0.00    -0.351 N 
ATOM      3  C   UNL A   1      30.236  28.854  22.594  1.00  0.00     0.261 C 
ATOM      4  O   UNL A   1      29.674  29.196  21.543  1.00  0.00    -0.268 OA
ATOM      5  H   UNL A   1      30.070  30.754  23.088  1.00  0.00     0.163 HD
BRANCH   3   6
ATOM      6  C   UNL A   1      30.616  27.453  22.853  1.00  0.00     0.099 A 
ATOM      7  C   UNL A   1      30.925  25.188  23.409  1.00  0.00     0.145 A 
ATOM      8  C   UNL A   1      32.069  25.402  22.694  1.00  0.00     0.113 A 
ATOM      9  C   UNL A   1      30.135  26.379  23.606  1.00  0.00     0.015 A 
ATOM     10  S   UNL A   1      32.121  26.985  22.086  1.00  0.00    -0.134 S 
ATOM     11  C   UNL A   1      28.999  26.333  24.564  1.00  0.00     0.050 C 
BRANCH   7  12
ATOM     12  O   UNL A   1      30.667  23.986  23.983  1.00  0.00    -0.424 OA
BRANCH  12  13
ATOM     13  C   UNL A   1      31.188  23.799  25.239  1.00  0.00     0.329 C 
ATOM     14  O   UNL A   1      31.841  24.626  25.868  1.00  0.00    -0.250 OA
BRANCH  13  15
ATOM     15  C   UNL A   1      30.761  22.455  25.831  1.00  0.00     0.177 C 
ATOM     16  C   UNL A   1      29.739  22.595  26.947  1.00  0.00     0.038 C 
BRANCH  15  17
ATOM     17  N   UNL A   1      31.985  21.764  26.247  1.00  0.00    -0.197 NA
ATOM     18  H   UNL A   1      32.593  22.489  26.630  1.00  0.00     0.142 HD
BRANCH  17  19
ATOM     19  S   UNL A   1      32.943  20.865  25.237  1.00  0.00     0.241 S 
ATOM     20  O   UNL A   1      32.484  21.105  23.875  1.00  0.00    -0.207 OA
ATOM     21  O   UNL A   1      32.958  19.543  25.789  1.00  0.00    -0.207 OA
BRANCH  19  22
ATOM     22  C   UNL A   1      34.588  21.514  25.362  1.00  0.00     0.082 A 
ATOM     23  C   UNL A   1      38.497  23.165  26.048  1.00  0.00     0.044 C 
ATOM     24  C   UNL A   1      37.138  22.586  25.791  1.00  0.00    -0.051 A 
ATOM     25  C   UNL A   1      35.996  23.337  26.098  1.00  0.00     0.005 A 
ATOM     26  C   UNL A   1      36.990  21.309  25.237  1.00  0.00     0.005 A 
ATOM     27  C   UNL A   1      34.725  22.799  25.896  1.00  0.00     0.022 A 
ATOM     28  C   UNL A   1      35.718  20.775  25.005  1.00  0.00     0.022 A 
ENDBRANCH  19  22
ENDBRANCH  17  19
ENDBRANCH  15  17
ENDBRANCH  13  15
ENDBRANCH  12  13
ENDBRANCH   7  12
ENDBRANCH   3   6
ENDBRANCH   1   2
BRANCH   1  29
ATOM     29  C   UNL A   1      32.380  29.386  24.854  1.00  0.00     0.023 C 
BRANCH  29  30
ATOM     30  C   UNL A   1      32.631  28.540  26.095  1.00  0.00     0.023 C 
BRANCH  30  31
ATOM     31  C   UNL A   1      33.098  29.363  27.276  1.00  0.00     0.116 C 
BRANCH  31  32
ATOM     32  N   UNL A   1      33.791  30.604  26.965  1.00  0.00    -0.352 N 
ATOM     33  C   UNL A   1      34.853  31.092  27.726  1.00  0.00     0.251 C 
ATOM     34  H   UNL A   1      33.496  31.122  26.183  1.00  0.00     0.163 HD
ATOM     35  O   UNL A   1      35.007  32.272  28.011  1.00  0.00    -0.269 OA
BRANCH  33  36
ATOM     36  C   UNL A   1      35.890  30.095  28.078  1.00  0.00     0.039 A 
ATOM     37  C   UNL A   1      36.005  29.694  29.415  1.00  0.00     0.014 A 
ATOM     38  C   UNL A   1      36.913  29.861  27.166  1.00  0.00     0.014 A 
ATOM     39  C   UNL A   1      37.235  29.252  29.884  1.00  0.00     0.010 A 
ATOM     40  C   UNL A   1      38.163  29.610  27.661  1.00  0.00     0.010 A 
ATOM     41  C   UNL A   1      38.320  29.328  29.020  1.00  0.00    -0.014 A 
BRANCH  41  42
ATOM     42  C   UNL A   1      39.692  29.040  29.374  1.00  0.00     0.031 A 
ATOM     43  C   UNL A   1      40.165  27.677  29.093  1.00  0.00     0.074 A 
ATOM     44  C   UNL A   1      40.493  30.083  29.672  1.00  0.00     0.049 A 
ATOM     45  N   UNL A   1      41.263  27.179  29.527  1.00  0.00    -0.248 NA
ATOM     46  C   UNL A   1      39.385  26.727  28.294  1.00  0.00     0.031 C 
ATOM     47  C   UNL A   1      41.949  30.148  29.693  1.00  0.00     0.029 A 
ATOM     48  N   UNL A   1      40.090  31.286  30.247  1.00  0.00    -0.354 N 
ATOM     49  C   UNL A   1      41.501  26.036  28.794  1.00  0.00     0.074 A 
ATOM     50  C   UNL A   1      40.255  25.728  28.145  1.00  0.00     0.031 C 
ATOM     51  C   UNL A   1      42.321  31.165  30.494  1.00  0.00     0.029 A 
ATOM     52  C   UNL A   1      41.112  31.677  31.128  1.00  0.00     0.049 A 
ATOM     53  H   UNL A   1      39.251  31.770  30.070  1.00  0.00     0.167 HD
ATOM     54  C   UNL A   1      42.787  25.604  28.686  1.00  0.00     0.031 A 
ATOM     55  C   UNL A   1      40.864  31.620  32.473  1.00  0.00     0.031 A 
ATOM     56  C   UNL A   1      43.644  26.361  29.601  1.00  0.00     0.049 A 
ATOM     57  C   UNL A   1      41.665  30.523  33.151  1.00  0.00     0.074 A 
ATOM     58  C   UNL A   1      44.518  27.419  29.415  1.00  0.00     0.029 A 
ATOM     59  N   UNL A   1      43.351  26.329  30.962  1.00  0.00    -0.354 N 
ATOM     60  N   UNL A   1      42.160  29.478  32.539  1.00  0.00    -0.248 NA
ATOM     61  C   UNL A   1      42.033  30.560  34.563  1.00  0.00     0.031 C 
ATOM     62  C   UNL A   1      44.633  28.107  30.658  1.00  0.00     0.029 A 
ATOM     63  C   UNL A   1      43.864  27.445  31.601  1.00  0.00     0.049 A 
ATOM     64  H   UNL A   1      42.849  25.611  31.410  1.00  0.00     0.167 HD
ATOM     65  C   UNL A   1      42.934  28.750  33.405  1.00  0.00     0.074 A 
ATOM     66  C   UNL A   1      42.813  29.470  34.664  1.00  0.00     0.031 C 
ATOM     67  C   UNL A   1      43.636  27.637  33.032  1.00  0.00     0.031 A 
BRANCH  54  68
ATOM     68  C   UNL A   1      43.297  24.730  27.559  1.00  0.00    -0.014 A 
ATOM     69  C   UNL A   1      42.731  23.453  27.377  1.00  0.00     0.010 A 
ATOM     70  C   UNL A   1      44.371  25.052  26.702  1.00  0.00     0.010 A 
ATOM     71  C   UNL A   1      43.232  22.538  26.437  1.00  0.00     0.020 A 
ATOM     72  C   UNL A   1      44.890  24.146  25.764  1.00  0.00     0.020 A 
ATOM     73  C   UNL A   1      44.318  22.888  25.640  1.00  0.00     0.054 A 
BRANCH  73  74
ATOM     74  S   UNL A   1      44.956  21.695  24.437  1.00  0.00     0.124 S 
ATOM     75  O   UNL A   1      44.556  22.288  23.164  1.00  0.00    -0.237 OA
ATOM     76  O   UNL A   1      46.389  21.705  24.717  1.00  0.00    -0.237 OA
ATOM     77  O   UNL A   1      44.268  20.452  24.781  1.00  0.00    -0.744 OA
ENDBRANCH  73  74
ENDBRANCH  54  68
BRANCH  55  78
ATOM     78  C   UNL A   1      39.472  32.075  32.813  1.00  0.00    -0.014 A 
ATOM     79  C   UNL A   1      39.232  33.471  32.758  1.00  0.00     0.010 A 
ATOM     80  C   UNL A   1      38.368  31.209  32.708  1.00  0.00     0.010 A 
ATOM     81  C   UNL A   1      37.978  33.974  32.392  1.00  0.00     0.020 A 
ATOM     82  C   UNL A   1      37.099  31.718  32.367  1.00  0.00     0.020 A 
ATOM     83  C   UNL A   1      36.938  33.087  32.129  1.00  0.00     0.054 A 
BRANCH  83  84
ATOM     84  S   UNL A   1      35.458  33.737  31.287  1.00  0.00     0.124 S 
ATOM     85  O   UNL A   1      35.968  34.039  29.952  1.00  0.00    -0.237 OA
ATOM     86  O   UNL A   1      34.529  32.605  31.363  1.00  0.00    -0.237 OA
ATOM     87  O   UNL A   1      35.090  34.896  32.092  1.00  0.00    -0.744 OA
ENDBRANCH  83  84
ENDBRANCH  55  78
BRANCH  67  88
ATOM     88  C   UNL A   1      44.261  26.631  33.976  1.00  0.00    -0.014 A 
ATOM     89  C   UNL A   1      43.531  25.753  34.793  1.00  0.00     0.010 A 
ATOM     90  C   UNL A   1      45.668  26.451  33.956  1.00  0.00     0.010 A 
ATOM     91  C   UNL A   1      44.173  24.806  35.602  1.00  0.00     0.020 A 
ATOM     92  C   UNL A   1      46.313  25.466  34.704  1.00  0.00     0.020 A 
ATOM     93  C   UNL A   1      45.560  24.670  35.554  1.00  0.00     0.054 A 
BRANCH  93  94
ATOM     94  S   UNL A   1      46.361  23.412  36.573  1.00  0.00     0.124 S 
ATOM     95  O   UNL A   1      47.599  23.176  35.835  1.00  0.00    -0.237 OA
ATOM     96  O   UNL A   1      46.516  24.088  37.859  1.00  0.00    -0.237 OA
ATOM     97  O   UNL A   1      45.408  22.305  36.569  1.00  0.00    -0.744 OA
ENDBRANCH  93  94
ENDBRANCH  67  88
ENDBRANCH  41  42
ENDBRANCH  33  36
ENDBRANCH  31  32
ENDBRANCH  30  31
ENDBRANCH  29  30
ENDBRANCH   1  29
TORSDOF 20
ENDMDL
MODEL 3
REMARK VINA RESULT:     -12.2      1.528      2.745
REMARK SMILES Cc1ccc(S(=O)(=O)N[C@@H](C)C(=O)Oc2csc(C(=O)NCCCCNC(=O)c3ccc(-c4c5nc(c(-c6ccc(S(=O)(=O)[O-])cc6)c6ccc([nH]6)c(-c6ccc(S(=O)(=O)[O-])cc6)c6nc(c(-c7ccc(S(=O)(=O)[O-])cc7)c7ccc4[nH]7)C=C6)C=C5)cc3)c2C)cc1
REMARK SMILES IDX 22 1 21 2 19 3 20 4 18 6 15 7 16 8 89 9 17 10 90 11 14 12
REMARK SMILES IDX 12 13 13 14 10 15 11 16 9 17 6 19 7 20 8 21 5 22 1 23 2 24
REMARK SMILES IDX 3 25 92 26 4 27 91 28 23 29 24 30 25 31 26 32 27 33 28 35
REMARK SMILES IDX 29 36 30 37 88 38 31 39 87 40 32 41 33 42 34 43 81 44 35 45
REMARK SMILES IDX 86 46 80 47 82 48 36 49 85 50 79 51 78 52 37 54 67 55 48 56
REMARK SMILES IDX 66 57 49 58 52 59 65 60 83 61 50 62 51 63 64 65 84 66 53 67
REMARK SMILES IDX 38 68 39 69 47 70 40 71 46 72 41 73 42 74 43 75 44 76 45 77
REMARK SMILES IDX 68 78 69 79 77 80 70 81 76 82 71 83 72 84 73 85 74 86 75 87
REMARK SMILES IDX 54 88 55 89 63 90 56 91 62 92 57 93 58 94 59 95 60 96 61 97
REMARK H PARENT 21 5 9 18 26 34 82 53 52 64
REMARK Flexibility Score: inf
ROOT
ATOM      1  C   UNL A   1      32.689  28.668  23.020  1.00  0.00     0.116 C 
ENDROOT
BRANCH   1   2
ATOM      2  N   UNL A   1      31.374  28.086  23.174  1.00  0.00    -0.351 N 
ATOM      3  C   UNL A   1      30.896  26.838  23.485  1.00  0.00     0.261 C 
ATOM      4  O   UNL A   1      29.657  26.801  23.502  1.00  0.00    -0.268 OA
ATOM      5  H   UNL A   1      30.653  28.738  23.021  1.00  0.00     0.163 HD
BRANCH   3   6
ATOM      6  C   UNL A   1      31.715  25.654  23.800  1.00  0.00     0.099 A 
ATOM      7  C   UNL A   1      32.917  23.804  24.616  1.00  0.00     0.145 A 
ATOM      8  C   UNL A   1      33.178  23.670  23.282  1.00  0.00     0.113 A 
ATOM      9  C   UNL A   1      32.174  24.996  24.944  1.00  0.00     0.015 A 
ATOM     10  S   UNL A   1      32.378  24.865  22.382  1.00  0.00    -0.134 S 
ATOM     11  C   UNL A   1      32.036  25.381  26.373  1.00  0.00     0.050 C 
BRANCH   7  12
ATOM     12  O   UNL A   1      33.448  22.949  25.527  1.00  0.00    -0.424 OA
BRANCH  12  13
ATOM     13  C   UNL A   1      33.304  21.612  25.248  1.00  0.00     0.329 C 
ATOM     14  O   UNL A   1      32.246  20.990  25.280  1.00  0.00    -0.250 OA
BRANCH  13  15
ATOM     15  C   UNL A   1      34.618  20.991  24.774  1.00  0.00     0.177 C 
ATOM     16  C   UNL A   1      34.576  19.472  24.731  1.00  0.00     0.038 C 
BRANCH  15  17
ATOM     17  N   UNL A   1      35.676  21.518  25.641  1.00  0.00    -0.197 NA
ATOM     18  H   UNL A   1      35.195  21.940  26.436  1.00  0.00     0.142 HD
BRANCH  17  19
ATOM     19  S   UNL A   1      36.811  22.629  25.165  1.00  0.00     0.241 S 
ATOM     20  O   UNL A   1      36.449  23.905  25.769  1.00  0.00    -0.207 OA
ATOM     21  O   UNL A   1      36.919  22.489  23.743  1.00  0.00    -0.207 OA
BRANCH  19  22
ATOM     22  C   UNL A   1      38.359  22.131  25.870  1.00  0.00     0.082 A 
ATOM     23  C   UNL A   1      42.212  20.784  27.218  1.00  0.00     0.044 C 
ATOM     24  C   UNL A   1      40.864  21.260  26.765  1.00  0.00    -0.051 A 
ATOM     25  C   UNL A   1      39.991  20.366  26.132  1.00  0.00     0.005 A 
ATOM     26  C   UNL A   1      40.456  22.583  26.975  1.00  0.00     0.005 A 
ATOM     27  C   UNL A   1      38.748  20.802  25.674  1.00  0.00     0.022 A 
ATOM     28  C   UNL A   1      39.199  23.019  26.545  1.00  0.00     0.022 A 
ENDBRANCH  19  22
ENDBRANCH  17  19
ENDBRANCH  15  17
ENDBRANCH  13  15
ENDBRANCH  12  13
ENDBRANCH   7  12
ENDBRANCH   3   6
ENDBRANCH   1   2
BRANCH   1  29
ATOM     29  C   UNL A   1      33.390  28.839  24.380  1.00  0.00     0.023 C 
BRANCH  29  30
ATOM     30  C   UNL A   1      32.482  29.101  25.574  1.00  0.00     0.023 C 
BRANCH  30  31
ATOM     31  C   UNL A   1      33.253  29.479  26.820  1.00  0.00     0.116 C 
BRANCH  31  32
ATOM     32  N   UNL A   1      33.892  30.786  26.812  1.00  0.00    -0.352 N 
ATOM     33  C   UNL A   1      34.809  31.189  27.783  1.00  0.00     0.251 C 
ATOM     34  H   UNL A   1      33.667  31.414  26.088  1.00  0.00     0.163 HD
ATOM     35  O   UNL A   1      34.841  32.310  28.271  1.00  0.00    -0.269 OA
BRANCH  33  36
ATOM     36  C   UNL A   1      35.857  30.197  28.113  1.00  0.00     0.039 A 
ATOM     37  C   UNL A   1      35.915  29.696  29.420  1.00  0.00     0.014 A 
ATOM     38  C   UNL A   1      36.933  30.063  27.244  1.00  0.00     0.014 A 
ATOM     39  C   UNL A   1      37.133  29.254  29.920  1.00  0.00     0.010 A 
ATOM     40  C   UNL A   1      38.163  29.810  27.785  1.00  0.00     0.010 A 
ATOM     41  C   UNL A   1      38.258  29.427  29.125  1.00  0.00    -0.014 A 
BRANCH  41  42
ATOM     42  C   UNL A   1      39.618  29.151  29.530  1.00  0.00     0.031 A 
ATOM     43  C   UNL A   1      40.141  27.819  29.194  1.00  0.00     0.074 A 
ATOM     44  C   UNL A   1      40.376  30.193  29.929  1.00  0.00     0.049 A 
ATOM     45  N   UNL A   1      41.229  27.322  29.653  1.00  0.00    -0.248 NA
ATOM     46  C   UNL A   1      39.426  26.901  28.303  1.00  0.00     0.031 C 
ATOM     47  C   UNL A   1      41.827  30.291  30.028  1.00  0.00     0.029 A 
ATOM     48  N   UNL A   1      39.914  31.350  30.553  1.00  0.00    -0.354 N 
ATOM     49  C   UNL A   1      41.533  26.230  28.867  1.00  0.00     0.074 A 
ATOM     50  C   UNL A   1      40.328  25.933  28.139  1.00  0.00     0.031 C 
ATOM     51  C   UNL A   1      42.132  31.266  30.905  1.00  0.00     0.029 A 
ATOM     52  C   UNL A   1      40.880  31.711  31.505  1.00  0.00     0.049 A 
ATOM     53  H   UNL A   1      39.072  31.823  30.362  1.00  0.00     0.167 HD
ATOM     54  C   UNL A   1      42.833  25.836  28.799  1.00  0.00     0.031 A 
ATOM     55  C   UNL A   1      40.569  31.568  32.830  1.00  0.00     0.031 A 
ATOM     56  C   UNL A   1      43.625  26.557  29.799  1.00  0.00     0.049 A 
ATOM     57  C   UNL A   1      41.364  30.451  33.483  1.00  0.00     0.074 A 
ATOM     58  C   UNL A   1      44.478  27.645  29.720  1.00  0.00     0.029 A 
ATOM     59  N   UNL A   1      43.266  26.437  31.140  1.00  0.00    -0.354 N 
ATOM     60  N   UNL A   1      41.916  29.457  32.836  1.00  0.00    -0.248 NA
ATOM     61  C   UNL A   1      41.661  30.412  34.911  1.00  0.00     0.031 C 
ATOM     62  C   UNL A   1      44.514  28.260  31.005  1.00  0.00     0.029 A 
ATOM     63  C   UNL A   1      43.717  27.524  31.868  1.00  0.00     0.049 A 
ATOM     64  H   UNL A   1      42.762  25.682  31.519  1.00  0.00     0.167 HD
ATOM     65  C   UNL A   1      42.665  28.697  33.696  1.00  0.00     0.074 A 
ATOM     66  C   UNL A   1      42.465  29.337  34.987  1.00  0.00     0.031 C 
ATOM     67  C   UNL A   1      43.414  27.625  33.294  1.00  0.00     0.031 A 
BRANCH  54  68
ATOM     68  C   UNL A   1      43.422  25.044  27.650  1.00  0.00    -0.014 A 
ATOM     69  C   UNL A   1      44.256  23.946  27.937  1.00  0.00     0.010 A 
ATOM     70  C   UNL A   1      43.274  25.361  26.283  1.00  0.00     0.010 A 
ATOM     71  C   UNL A   1      44.937  23.239  26.932  1.00  0.00     0.020 A 
ATOM     72  C   UNL A   1      43.954  24.672  25.267  1.00  0.00     0.020 A 
ATOM     73  C   UNL A   1      44.788  23.614  25.600  1.00  0.00     0.054 A 
BRANCH  73  74
ATOM     74  S   UNL A   1      45.678  22.697  24.317  1.00  0.00     0.124 S 
ATOM     75  O   UNL A   1      44.603  22.301  23.412  1.00  0.00    -0.237 OA
ATOM     76  O   UNL A   1      46.602  23.702  23.799  1.00  0.00    -0.237 OA
ATOM     77  O   UNL A   1      46.306  21.597  25.047  1.00  0.00    -0.744 OA
ENDBRANCH  73  74
ENDBRANCH  54  68
BRANCH  55  78
ATOM     78  C   UNL A   1      39.150  31.969  33.126  1.00  0.00    -0.014 A 
ATOM     79  C   UNL A   1      38.886  33.360  33.187  1.00  0.00     0.010 A 
ATOM     80  C   UNL A   1      38.072  31.101  32.873  1.00  0.00     0.010 A 
ATOM     81  C   UNL A   1      37.646  33.877  32.795  1.00  0.00     0.020 A 
ATOM     82  C   UNL A   1      36.815  31.622  32.504  1.00  0.00     0.020 A 
ATOM     83  C   UNL A   1      36.641  33.005  32.386  1.00  0.00     0.054 A 
BRANCH  83  84
ATOM     84  S   UNL A   1      35.201  33.711  31.520  1.00  0.00     0.124 S 
ATOM     85  O   UNL A   1      35.793  34.187  30.272  1.00  0.00    -0.237 OA
ATOM     86  O   UNL A   1      34.311  32.552  31.392  1.00  0.00    -0.237 OA
ATOM     87  O   UNL A   1      34.735  34.752  32.428  1.00  0.00    -0.744 OA
ENDBRANCH  83  84
ENDBRANCH  55  78
BRANCH  67  88
ATOM     88  C   UNL A   1      44.019  26.579  34.209  1.00  0.00    -0.014 A 
ATOM     89  C   UNL A   1      43.294  25.847  35.160  1.00  0.00     0.010 A 
ATOM     90  C   UNL A   1      45.373  26.202  34.020  1.00  0.00     0.010 A 
ATOM     91  C   UNL A   1      43.904  24.852  35.935  1.00  0.00     0.020 A 
ATOM     92  C   UNL A   1      45.974  25.166  34.736  1.00  0.00     0.020 A 
ATOM     93  C   UNL A   1      45.241  24.519  35.719  1.00  0.00     0.054 A 
BRANCH  93  94
ATOM     94  S   UNL A   1      45.994  23.202  36.699  1.00  0.00     0.124 S 
ATOM     95  O   UNL A   1      47.414  23.529  36.595  1.00  0.00    -0.237 OA
ATOM     96  O   UNL A   1      45.399  23.401  38.019  1.00  0.00    -0.237 OA
ATOM     97  O   UNL A   1      45.581  21.981  36.014  1.00  0.00    -0.744 OA
ENDBRANCH  93  94
ENDBRANCH  67  88
ENDBRANCH  41  42
ENDBRANCH  33  36
ENDBRANCH  31  32
ENDBRANCH  30  31
ENDBRANCH  29  30
ENDBRANCH   1  29
TORSDOF 20
ENDMDL
