MODEL 1
REMARK VINA RESULT:     -11.7      0.000      0.000
REMARK SMILES Cc1cc(Cl)cc2c1O[C@H](C(F)(F)F)C(C(=O)NCCCCNC(=O)c1ccc(-c3c4nc(c(-c5ccc(S(=O)(=O)[O-])cc5)c5ccc([nH]5)c(-c5ccc(S(=O)(=O)[O-])cc5)c5nc(c(-c6ccc(S(=O)(=O)[O-])cc6)c6ccc3[nH]6)C=C5)C=C4)cc1)=C2
REMARK SMILES IDX 21 1 20 2 19 3 18 4 16 5 17 6 15 8 1 9 2 10 3 11 8 12 4 13
REMARK SMILES IDX 7 14 9 15 5 16 6 17 86 18 10 19 11 20 12 21 13 22 14 23
REMARK SMILES IDX 22 24 23 25 24 26 25 28 26 29 27 30 85 31 28 32 84 33 29 34
REMARK SMILES IDX 30 35 31 36 78 37 32 38 83 39 77 40 79 41 33 42 82 43 76 44
REMARK SMILES IDX 75 45 34 47 64 48 45 49 63 50 46 51 49 52 62 53 80 54 47 55
REMARK SMILES IDX 48 56 61 58 81 59 50 60 35 61 36 62 44 63 37 64 43 65 38 66
REMARK SMILES IDX 39 67 40 68 41 69 42 70 65 71 66 72 74 73 67 74 73 75 68 76
REMARK SMILES IDX 69 77 70 78 71 79 72 80 51 81 52 82 60 83 53 84 59 85 54 86
REMARK SMILES IDX 55 87 56 88 57 89 58 90
REMARK H PARENT 18 7 23 27 79 46 49 57
REMARK Flexibility Score: inf
ROOT
ATOM      1  C   UNL A   1      33.857  28.190  25.813  1.00  0.00     0.023 C 
ENDROOT
BRANCH   1   2
ATOM      2  C   UNL A   1      32.845  28.574  24.732  1.00  0.00     0.023 C 
BRANCH   2   3
ATOM      3  C   UNL A   1      32.031  27.402  24.192  1.00  0.00     0.116 C 
BRANCH   3   4
ATOM      4  N   UNL A   1      31.205  26.795  25.221  1.00  0.00    -0.352 N 
ATOM      5  C   UNL A   1      31.131  25.600  25.851  1.00  0.00     0.251 C 
ATOM      6  O   UNL A   1      30.235  25.504  26.696  1.00  0.00    -0.270 OA
ATOM      7  H   UNL A   1      30.515  27.418  25.546  1.00  0.00     0.163 HD
BRANCH   5   8
ATOM      8  C   UNL A   1      32.030  24.434  25.602  1.00  0.00     0.067 C 
ATOM      9  C   UNL A   1      34.180  19.844  24.725  1.00  0.00     0.048 C 
ATOM     10  C   UNL A   1      34.681  21.190  25.170  1.00  0.00    -0.007 A 
ATOM     11  C   UNL A   1      36.053  21.407  25.350  1.00  0.00     0.027 A 
ATOM     12  C   UNL A   1      33.797  22.263  25.359  1.00  0.00     0.131 A 
ATOM     13  C   UNL A   1      36.519  22.663  25.741  1.00  0.00     0.042 A 
ATOM     14  C   UNL A   1      34.263  23.520  25.756  1.00  0.00     0.019 A 
ATOM     15  O   UNL A   1      32.463  22.013  25.187  1.00  0.00    -0.475 OA
ATOM     16  Cl  UNL A   1      38.207  22.909  25.971  1.00  0.00    -0.084 Cl
ATOM     17  C   UNL A   1      35.632  23.718  25.949  1.00  0.00     0.032 A 
ATOM     18  C   UNL A   1      33.308  24.595  25.994  1.00  0.00     0.025 C 
ATOM     19  C   UNL A   1      31.612  23.162  24.921  1.00  0.00     0.314 C 
BRANCH  19  20
ATOM     20  C   UNL A   1      31.449  23.327  23.399  1.00  0.00     0.429 C 
ATOM     21  F   UNL A   1      30.171  23.670  23.095  1.00  0.00    -0.167 F 
ATOM     22  F   UNL A   1      32.239  24.302  22.892  1.00  0.00    -0.167 F 
ATOM     23  F   UNL A   1      31.734  22.194  22.719  1.00  0.00    -0.167 F 
ENDBRANCH  19  20
ENDBRANCH   5   8
ENDBRANCH   3   4
ENDBRANCH   2   3
ENDBRANCH   1   2
BRANCH   1  24
ATOM     24  C   UNL A   1      33.484  28.595  27.238  1.00  0.00     0.116 C 
BRANCH  24  25
ATOM     25  N   UNL A   1      33.497  30.034  27.462  1.00  0.00    -0.352 N 
ATOM     26  C   UNL A   1      34.526  30.805  27.948  1.00  0.00     0.251 C 
ATOM     27  H   UNL A   1      32.666  30.514  27.237  1.00  0.00     0.163 HD
ATOM     28  O   UNL A   1      34.364  32.003  28.158  1.00  0.00    -0.269 OA
BRANCH  26  29
ATOM     29  C   UNL A   1      35.812  30.155  28.256  1.00  0.00     0.039 A 
ATOM     30  C   UNL A   1      36.806  30.131  27.276  1.00  0.00     0.014 A 
ATOM     31  C   UNL A   1      36.054  29.641  29.534  1.00  0.00     0.014 A 
ATOM     32  C   UNL A   1      38.076  29.653  27.601  1.00  0.00     0.010 A 
ATOM     33  C   UNL A   1      37.335  29.219  29.871  1.00  0.00     0.010 A 
ATOM     34  C   UNL A   1      38.358  29.229  28.910  1.00  0.00    -0.014 A 
BRANCH  34  35
ATOM     35  C   UNL A   1      39.720  28.790  29.296  1.00  0.00     0.031 A 
ATOM     36  C   UNL A   1      40.612  29.717  30.070  1.00  0.00     0.074 A 
ATOM     37  C   UNL A   1      40.169  27.582  28.904  1.00  0.00     0.049 A 
ATOM     38  N   UNL A   1      41.853  29.544  30.443  1.00  0.00    -0.248 NA
ATOM     39  C   UNL A   1      40.040  31.017  30.458  1.00  0.00     0.031 C 
ATOM     40  C   UNL A   1      39.404  26.603  28.126  1.00  0.00     0.029 A 
ATOM     41  N   UNL A   1      41.380  26.970  29.107  1.00  0.00    -0.354 N 
ATOM     42  C   UNL A   1      42.215  30.715  31.098  1.00  0.00     0.074 A 
ATOM     43  C   UNL A   1      41.079  31.608  31.031  1.00  0.00     0.031 C 
ATOM     44  C   UNL A   1      40.155  25.503  27.946  1.00  0.00     0.029 A 
ATOM     45  C   UNL A   1      41.461  25.710  28.563  1.00  0.00     0.049 A 
ATOM     46  H   UNL A   1      42.121  27.394  29.597  1.00  0.00     0.167 HD
ATOM     47  C   UNL A   1      43.382  31.012  31.717  1.00  0.00     0.031 A 
ATOM     48  C   UNL A   1      42.473  24.822  28.563  1.00  0.00     0.031 A 
ATOM     49  C   UNL A   1      44.505  30.119  31.794  1.00  0.00     0.049 A 
ATOM     50  C   UNL A   1      43.764  25.180  29.246  1.00  0.00     0.074 A 
ATOM     51  C   UNL A   1      45.720  30.317  32.426  1.00  0.00     0.029 A 
ATOM     52  N   UNL A   1      44.548  28.856  31.224  1.00  0.00    -0.354 N 
ATOM     53  N   UNL A   1      44.077  26.283  29.882  1.00  0.00    -0.248 NA
ATOM     54  C   UNL A   1      44.833  24.173  29.214  1.00  0.00     0.031 C 
ATOM     55  C   UNL A   1      46.511  29.182  32.212  1.00  0.00     0.029 A 
ATOM     56  C   UNL A   1      45.773  28.265  31.480  1.00  0.00     0.049 A 
ATOM     57  H   UNL A   1      43.816  28.441  30.713  1.00  0.00     0.167 HD
ATOM     58  C   UNL A   1      45.377  26.096  30.341  1.00  0.00     0.074 A 
ATOM     59  C   UNL A   1      45.784  24.771  29.921  1.00  0.00     0.031 C 
ATOM     60  C   UNL A   1      46.161  26.946  31.048  1.00  0.00     0.031 A 
BRANCH  47  61
ATOM     61  C   UNL A   1      43.488  32.364  32.367  1.00  0.00    -0.014 A 
ATOM     62  C   UNL A   1      44.092  33.440  31.691  1.00  0.00     0.010 A 
ATOM     63  C   UNL A   1      42.962  32.570  33.655  1.00  0.00     0.010 A 
ATOM     64  C   UNL A   1      44.205  34.687  32.308  1.00  0.00     0.020 A 
ATOM     65  C   UNL A   1      43.052  33.824  34.266  1.00  0.00     0.020 A 
ATOM     66  C   UNL A   1      43.689  34.870  33.595  1.00  0.00     0.054 A 
BRANCH  66  67
ATOM     67  S   UNL A   1      43.837  36.504  34.365  1.00  0.00     0.124 S 
ATOM     68  O   UNL A   1      43.296  36.258  35.700  1.00  0.00    -0.237 OA
ATOM     69  O   UNL A   1      45.275  36.759  34.308  1.00  0.00    -0.237 OA
ATOM     70  O   UNL A   1      43.021  37.366  33.513  1.00  0.00    -0.744 OA
ENDBRANCH  66  67
ENDBRANCH  47  61
BRANCH  48  71
ATOM     71  C   UNL A   1      42.293  23.494  27.919  1.00  0.00    -0.014 A 
ATOM     72  C   UNL A   1      42.860  23.239  26.659  1.00  0.00     0.010 A 
ATOM     73  C   UNL A   1      41.580  22.472  28.571  1.00  0.00     0.010 A 
ATOM     74  C   UNL A   1      42.713  21.986  26.057  1.00  0.00     0.020 A 
ATOM     75  C   UNL A   1      41.448  21.211  27.981  1.00  0.00     0.020 A 
ATOM     76  C   UNL A   1      42.011  20.978  26.724  1.00  0.00     0.054 A 
BRANCH  76  77
ATOM     77  S   UNL A   1      41.894  19.340  25.953  1.00  0.00     0.124 S 
ATOM     78  O   UNL A   1      42.363  18.466  27.024  1.00  0.00    -0.237 OA
ATOM     79  O   UNL A   1      40.473  19.243  25.632  1.00  0.00    -0.237 OA
ATOM     80  O   UNL A   1      42.780  19.444  24.795  1.00  0.00    -0.744 OA
ENDBRANCH  76  77
ENDBRANCH  48  71
BRANCH  60  81
ATOM     81  C   UNL A   1      47.534  26.468  31.424  1.00  0.00    -0.014 A 
ATOM     82  C   UNL A   1      47.739  25.714  32.593  1.00  0.00     0.010 A 
ATOM     83  C   UNL A   1      48.619  26.715  30.563  1.00  0.00     0.010 A 
ATOM     84  C   UNL A   1      49.013  25.230  32.903  1.00  0.00     0.020 A 
ATOM     85  C   UNL A   1      49.888  26.215  30.861  1.00  0.00     0.020 A 
ATOM     86  C   UNL A   1      50.080  25.483  32.034  1.00  0.00     0.054 A 
BRANCH  86  87
ATOM     87  S   UNL A   1      51.710  24.794  32.431  1.00  0.00     0.124 S 
ATOM     88  O   UNL A   1      51.509  23.371  32.175  1.00  0.00    -0.237 OA
ATOM     89  O   UNL A   1      52.588  25.484  31.489  1.00  0.00    -0.237 OA
ATOM     90  O   UNL A   1      51.905  25.155  33.833  1.00  0.00    -0.744 OA
ENDBRANCH  86  87
ENDBRANCH  60  81
ENDBRANCH  34  35
ENDBRANCH  26  29
ENDBRANCH  24  25
ENDBRANCH   1  24
TORSDOF 15
ENDMDL
MODEL 2
REMARK VINA RESULT:     -11.4      2.840      9.261
REMARK SMILES Cc1cc(Cl)cc2c1O[C@H](C(F)(F)F)C(C(=O)NCCCCNC(=O)c1ccc(-c3c4nc(c(-c5ccc(S(=O)(=O)[O-])cc5)c5ccc([nH]5)c(-c5ccc(S(=O)(=O)[O-])cc5)c5nc(c(-c6ccc(S(=O)(=O)[O-])cc6)c6ccc3[nH]6)C=C5)C=C4)cc1)=C2
REMARK SMILES IDX 21 1 20 2 19 3 18 4 16 5 17 6 15 8 1 9 2 10 3 11 8 12 4 13
REMARK SMILES IDX 7 14 9 15 5 16 6 17 86 18 10 19 11 20 12 21 13 22 14 23
REMARK SMILES IDX 22 24 23 25 24 26 25 28 26 29 27 30 85 31 28 32 84 33 29 34
REMARK SMILES IDX 30 35 31 36 78 37 32 38 83 39 77 40 79 41 33 42 82 43 76 44
REMARK SMILES IDX 75 45 34 47 64 48 45 49 63 50 46 51 49 52 62 53 80 54 47 55
REMARK SMILES IDX 48 56 61 58 81 59 50 60 35 61 36 62 44 63 37 64 43 65 38 66
REMARK SMILES IDX 39 67 40 68 41 69 42 70 65 71 66 72 74 73 67 74 73 75 68 76
REMARK SMILES IDX 69 77 70 78 71 79 72 80 51 81 52 82 60 83 53 84 59 85 54 86
REMARK SMILES IDX 55 87 56 88 57 89 58 90
REMARK H PARENT 18 7 23 27 79 46 49 57
REMARK Flexibility Score: inf
ROOT
ATOM      1  C   UNL A   1      35.453  22.791  25.178  1.00  0.00     0.023 C 
ENDROOT
BRANCH   1   2
ATOM      2  C   UNL A   1      34.500  22.431  26.320  1.00  0.00     0.023 C 
BRANCH   2   3
ATOM      3  C   UNL A   1      33.226  21.720  25.871  1.00  0.00     0.116 C 
BRANCH   3   4
ATOM      4  N   UNL A   1      32.044  22.265  26.515  1.00  0.00    -0.352 N 
ATOM      5  C   UNL A   1      31.409  23.459  26.567  1.00  0.00     0.251 C 
ATOM      6  O   UNL A   1      30.393  23.485  27.270  1.00  0.00    -0.270 OA
ATOM      7  H   UNL A   1      31.582  21.586  27.058  1.00  0.00     0.163 HD
BRANCH   5   8
ATOM      8  C   UNL A   1      31.840  24.699  25.855  1.00  0.00     0.067 C 
ATOM      9  C   UNL A   1      33.860  28.259  22.740  1.00  0.00     0.048 C 
ATOM     10  C   UNL A   1      33.203  28.272  24.092  1.00  0.00    -0.007 A 
ATOM     11  C   UNL A   1      32.947  29.488  24.739  1.00  0.00     0.027 A 
ATOM     12  C   UNL A   1      32.787  27.081  24.705  1.00  0.00     0.131 A 
ATOM     13  C   UNL A   1      32.317  29.501  25.984  1.00  0.00     0.042 A 
ATOM     14  C   UNL A   1      32.161  27.093  25.954  1.00  0.00     0.019 A 
ATOM     15  O   UNL A   1      33.064  25.911  24.052  1.00  0.00    -0.475 OA
ATOM     16  Cl  UNL A   1      32.022  31.003  26.772  1.00  0.00    -0.084 Cl
ATOM     17  C   UNL A   1      31.927  28.311  26.597  1.00  0.00     0.032 A 
ATOM     18  C   UNL A   1      31.792  25.831  26.583  1.00  0.00     0.025 C 
ATOM     19  C   UNL A   1      32.261  24.754  24.414  1.00  0.00     0.314 C 
BRANCH  19  20
ATOM     20  C   UNL A   1      31.072  24.641  23.442  1.00  0.00     0.429 C 
ATOM     21  F   UNL A   1      31.455  24.984  22.186  1.00  0.00    -0.167 F 
ATOM     22  F   UNL A   1      30.580  23.383  23.363  1.00  0.00    -0.167 F 
ATOM     23  F   UNL A   1      30.042  25.447  23.784  1.00  0.00    -0.167 F 
ENDBRANCH  19  20
ENDBRANCH   5   8
ENDBRANCH   3   4
ENDBRANCH   2   3
ENDBRANCH   1   2
BRANCH   1  24
ATOM     24  C   UNL A   1      36.743  23.495  25.595  1.00  0.00     0.116 C 
BRANCH  24  25
ATOM     25  N   UNL A   1      37.867  22.591  25.796  1.00  0.00    -0.352 N 
ATOM     26  C   UNL A   1      39.083  22.869  26.374  1.00  0.00     0.251 C 
ATOM     27  H   UNL A   1      37.740  21.667  25.478  1.00  0.00     0.163 HD
ATOM     28  O   UNL A   1      39.969  22.021  26.404  1.00  0.00    -0.269 OA
BRANCH  26  29
ATOM     29  C   UNL A   1      39.316  24.220  26.917  1.00  0.00     0.039 A 
ATOM     30  C   UNL A   1      38.906  24.502  28.221  1.00  0.00     0.014 A 
ATOM     31  C   UNL A   1      40.005  25.173  26.160  1.00  0.00     0.014 A 
ATOM     32  C   UNL A   1      39.253  25.724  28.798  1.00  0.00     0.010 A 
ATOM     33  C   UNL A   1      40.398  26.366  26.756  1.00  0.00     0.010 A 
ATOM     34  C   UNL A   1      40.031  26.648  28.081  1.00  0.00    -0.014 A 
BRANCH  34  35
ATOM     35  C   UNL A   1      40.476  27.919  28.701  1.00  0.00     0.031 A 
ATOM     36  C   UNL A   1      41.878  28.047  29.220  1.00  0.00     0.074 A 
ATOM     37  C   UNL A   1      39.601  28.934  28.843  1.00  0.00     0.049 A 
ATOM     38  N   UNL A   1      42.434  29.048  29.852  1.00  0.00    -0.248 NA
ATOM     39  C   UNL A   1      42.766  26.889  29.023  1.00  0.00     0.031 C 
ATOM     40  C   UNL A   1      38.203  28.919  28.402  1.00  0.00     0.029 A 
ATOM     41  N   UNL A   1      39.759  30.178  29.400  1.00  0.00    -0.354 N 
ATOM     42  C   UNL A   1      43.731  28.638  30.137  1.00  0.00     0.074 A 
ATOM     43  C   UNL A   1      43.865  27.283  29.652  1.00  0.00     0.031 C 
ATOM     44  C   UNL A   1      37.644  30.109  28.678  1.00  0.00     0.029 A 
ATOM     45  C   UNL A   1      38.628  30.956  29.344  1.00  0.00     0.049 A 
ATOM     46  H   UNL A   1      40.604  30.483  29.802  1.00  0.00     0.167 HD
ATOM     47  C   UNL A   1      44.727  29.337  30.731  1.00  0.00     0.031 A 
ATOM     48  C   UNL A   1      38.408  32.212  29.779  1.00  0.00     0.031 A 
ATOM     49  C   UNL A   1      44.596  30.689  31.201  1.00  0.00     0.049 A 
ATOM     50  C   UNL A   1      39.527  32.962  30.448  1.00  0.00     0.074 A 
ATOM     51  C   UNL A   1      45.557  31.492  31.788  1.00  0.00     0.029 A 
ATOM     52  N   UNL A   1      43.432  31.439  31.131  1.00  0.00    -0.354 N 
ATOM     53  N   UNL A   1      40.754  32.567  30.685  1.00  0.00    -0.248 NA
ATOM     54  C   UNL A   1      39.231  34.327  30.903  1.00  0.00     0.031 C 
ATOM     55  C   UNL A   1      44.964  32.721  32.102  1.00  0.00     0.029 A 
ATOM     56  C   UNL A   1      43.646  32.693  31.674  1.00  0.00     0.049 A 
ATOM     57  H   UNL A   1      42.579  31.125  30.751  1.00  0.00     0.167 HD
ATOM     58  C   UNL A   1      41.383  33.642  31.304  1.00  0.00     0.074 A 
ATOM     59  C   UNL A   1      40.405  34.706  31.391  1.00  0.00     0.031 C 
ATOM     60  C   UNL A   1      42.657  33.738  31.757  1.00  0.00     0.031 A 
BRANCH  47  61
ATOM     61  C   UNL A   1      46.049  28.641  30.894  1.00  0.00    -0.014 A 
ATOM     62  C   UNL A   1      47.046  28.751  29.907  1.00  0.00     0.010 A 
ATOM     63  C   UNL A   1      46.311  27.887  32.052  1.00  0.00     0.010 A 
ATOM     64  C   UNL A   1      48.264  28.086  30.056  1.00  0.00     0.020 A 
ATOM     65  C   UNL A   1      47.538  27.238  32.215  1.00  0.00     0.020 A 
ATOM     66  C   UNL A   1      48.501  27.329  31.207  1.00  0.00     0.054 A 
BRANCH  66  67
ATOM     67  S   UNL A   1      50.097  26.487  31.380  1.00  0.00     0.124 S 
ATOM     68  O   UNL A   1      50.893  27.492  32.083  1.00  0.00    -0.237 OA
ATOM     69  O   UNL A   1      49.754  25.301  32.159  1.00  0.00    -0.237 OA
ATOM     70  O   UNL A   1      50.503  26.227  30.000  1.00  0.00    -0.744 OA
ENDBRANCH  66  67
ENDBRANCH  47  61
BRANCH  48  71
ATOM     71  C   UNL A   1      37.081  32.848  29.567  1.00  0.00    -0.014 A 
ATOM     72  C   UNL A   1      36.135  32.870  30.605  1.00  0.00     0.010 A 
ATOM     73  C   UNL A   1      36.767  33.459  28.339  1.00  0.00     0.010 A 
ATOM     74  C   UNL A   1      34.895  33.485  30.420  1.00  0.00     0.020 A 
ATOM     75  C   UNL A   1      35.534  34.093  28.157  1.00  0.00     0.020 A 
ATOM     76  C   UNL A   1      34.603  34.097  29.198  1.00  0.00     0.054 A 
BRANCH  76  77
ATOM     77  S   UNL A   1      33.013  34.949  29.005  1.00  0.00     0.124 S 
ATOM     78  O   UNL A   1      32.346  34.124  28.004  1.00  0.00    -0.237 OA
ATOM     79  O   UNL A   1      32.456  34.886  30.353  1.00  0.00    -0.237 OA
ATOM     80  O   UNL A   1      33.397  36.288  28.561  1.00  0.00    -0.744 OA
ENDBRANCH  76  77
ENDBRANCH  48  71
BRANCH  60  81
ATOM     81  C   UNL A   1      43.073  35.041  32.377  1.00  0.00    -0.014 A 
ATOM     82  C   UNL A   1      43.706  36.034  31.610  1.00  0.00     0.010 A 
ATOM     83  C   UNL A   1      42.763  35.302  33.725  1.00  0.00     0.010 A 
ATOM     84  C   UNL A   1      44.040  37.263  32.187  1.00  0.00     0.020 A 
ATOM     85  C   UNL A   1      43.078  36.536  34.298  1.00  0.00     0.020 A 
ATOM     86  C   UNL A   1      43.722  37.506  33.527  1.00  0.00     0.054 A 
BRANCH  86  87
ATOM     87  S   UNL A   1      44.114  39.130  34.236  1.00  0.00     0.124 S 
ATOM     88  O   UNL A   1      44.159  38.834  35.665  1.00  0.00    -0.237 OA
ATOM     89  O   UNL A   1      45.398  39.449  33.618  1.00  0.00    -0.237 OA
ATOM     90  O   UNL A   1      42.999  39.970  33.807  1.00  0.00    -0.744 OA
ENDBRANCH  86  87
ENDBRANCH  60  81
ENDBRANCH  34  35
ENDBRANCH  26  29
ENDBRANCH  24  25
ENDBRANCH   1  24
TORSDOF 15
ENDMDL
MODEL 3
REMARK VINA RESULT:     -11.3      1.665      2.261
REMARK SMILES Cc1cc(Cl)cc2c1O[C@H](C(F)(F)F)C(C(=O)NCCCCNC(=O)c1ccc(-c3c4nc(c(-c5ccc(S(=O)(=O)[O-])cc5)c5ccc([nH]5)c(-c5ccc(S(=O)(=O)[O-])cc5)c5nc(c(-c6ccc(S(=O)(=O)[O-])cc6)c6ccc3[nH]6)C=C5)C=C4)cc1)=C2
REMARK SMILES IDX 21 1 20 2 19 3 18 4 16 5 17 6 15 8 1 9 2 10 3 11 8 12 4 13
REMARK SMILES IDX 7 14 9 15 5 16 6 17 86 18 10 19 11 20 12 21 13 22 14 23
REMARK SMILES IDX 22 24 23 25 24 26 25 28 26 29 27 30 85 31 28 32 84 33 29 34
REMARK SMILES IDX 30 35 31 36 78 37 32 38 83 39 77 40 79 41 33 42 82 43 76 44
REMARK SMILES IDX 75 45 34 47 64 48 45 49 63 50 46 51 49 52 62 53 80 54 47 55
REMARK SMILES IDX 48 56 61 58 81 59 50 60 35 61 36 62 44 63 37 64 43 65 38 66
REMARK SMILES IDX 39 67 40 68 41 69 42 70 65 71 66 72 74 73 67 74 73 75 68 76
REMARK SMILES IDX 69 77 70 78 71 79 72 80 51 81 52 82 60 83 53 84 59 85 54 86
REMARK SMILES IDX 55 87 56 88 57 89 58 90
REMARK H PARENT 18 7 23 27 79 46 49 57
REMARK Flexibility Score: inf
ROOT
ATOM      1  C   UNL A   1      32.655  28.219  25.866  1.00  0.00     0.023 C 
ENDROOT
BRANCH   1   2
ATOM      2  C   UNL A   1      31.401  27.365  26.068  1.00  0.00     0.023 C 
BRANCH   2   3
ATOM      3  C   UNL A   1      31.514  25.947  25.517  1.00  0.00     0.116 C 
BRANCH   3   4
ATOM      4  N   UNL A   1      31.889  25.938  24.114  1.00  0.00    -0.352 N 
ATOM      5  C   UNL A   1      32.646  25.169  23.298  1.00  0.00     0.251 C 
ATOM      6  O   UNL A   1      32.698  25.540  22.121  1.00  0.00    -0.270 OA
ATOM      7  H   UNL A   1      31.484  26.692  23.627  1.00  0.00     0.163 HD
BRANCH   5   8
ATOM      8  C   UNL A   1      33.393  23.944  23.713  1.00  0.00     0.067 C 
ATOM      9  C   UNL A   1      36.862  20.329  24.878  1.00  0.00     0.048 C 
ATOM     10  C   UNL A   1      35.375  20.350  24.657  1.00  0.00    -0.007 A 
ATOM     11  C   UNL A   1      34.616  19.190  24.860  1.00  0.00     0.027 A 
ATOM     12  C   UNL A   1      34.716  21.535  24.298  1.00  0.00     0.131 A 
ATOM     13  C   UNL A   1      33.233  19.217  24.676  1.00  0.00     0.042 A 
ATOM     14  C   UNL A   1      33.331  21.560  24.109  1.00  0.00     0.019 A 
ATOM     15  O   UNL A   1      35.488  22.645  24.096  1.00  0.00    -0.475 OA
ATOM     16  Cl  UNL A   1      32.317  17.780  24.917  1.00  0.00    -0.084 Cl
ATOM     17  C   UNL A   1      32.587  20.393  24.297  1.00  0.00     0.032 A 
ATOM     18  C   UNL A   1      32.688  22.798  23.685  1.00  0.00     0.025 C 
ATOM     19  C   UNL A   1      34.819  23.933  24.188  1.00  0.00     0.314 C 
BRANCH  19  20
ATOM     20  C   UNL A   1      34.974  24.481  25.619  1.00  0.00     0.429 C 
ATOM     21  F   UNL A   1      34.865  25.834  25.621  1.00  0.00    -0.167 F 
ATOM     22  F   UNL A   1      34.022  24.017  26.462  1.00  0.00    -0.167 F 
ATOM     23  F   UNL A   1      36.171  24.172  26.167  1.00  0.00    -0.167 F 
ENDBRANCH  19  20
ENDBRANCH   5   8
ENDBRANCH   3   4
ENDBRANCH   2   3
ENDBRANCH   1   2
BRANCH   1  24
ATOM     24  C   UNL A   1      33.441  28.544  27.136  1.00  0.00     0.116 C 
BRANCH  24  25
ATOM     25  N   UNL A   1      33.349  29.940  27.541  1.00  0.00    -0.352 N 
ATOM     26  C   UNL A   1      34.326  30.721  28.112  1.00  0.00     0.251 C 
ATOM     27  H   UNL A   1      32.480  30.378  27.387  1.00  0.00     0.163 HD
ATOM     28  O   UNL A   1      34.077  31.866  28.475  1.00  0.00    -0.269 OA
BRANCH  26  29
ATOM     29  C   UNL A   1      35.664  30.139  28.322  1.00  0.00     0.039 A 
ATOM     30  C   UNL A   1      36.581  30.163  27.269  1.00  0.00     0.014 A 
ATOM     31  C   UNL A   1      36.028  29.644  29.578  1.00  0.00     0.014 A 
ATOM     32  C   UNL A   1      37.895  29.753  27.497  1.00  0.00     0.010 A 
ATOM     33  C   UNL A   1      37.351  29.291  29.816  1.00  0.00     0.010 A 
ATOM     34  C   UNL A   1      38.297  29.349  28.780  1.00  0.00    -0.014 A 
BRANCH  34  35
ATOM     35  C   UNL A   1      39.705  28.984  29.063  1.00  0.00     0.031 A 
ATOM     36  C   UNL A   1      40.626  29.989  29.692  1.00  0.00     0.074 A 
ATOM     37  C   UNL A   1      40.164  27.769  28.704  1.00  0.00     0.049 A 
ATOM     38  N   UNL A   1      41.902  29.883  29.956  1.00  0.00    -0.248 NA
ATOM     39  C   UNL A   1      40.041  31.290  30.052  1.00  0.00     0.031 C 
ATOM     40  C   UNL A   1      39.371  26.716  28.062  1.00  0.00     0.029 A 
ATOM     41  N   UNL A   1      41.412  27.213  28.829  1.00  0.00    -0.354 N 
ATOM     42  C   UNL A   1      42.275  31.105  30.501  1.00  0.00     0.074 A 
ATOM     43  C   UNL A   1      41.103  31.952  30.488  1.00  0.00     0.031 C 
ATOM     44  C   UNL A   1      40.146  25.634  27.879  1.00  0.00     0.029 A 
ATOM     45  C   UNL A   1      41.493  25.925  28.357  1.00  0.00     0.049 A 
ATOM     46  H   UNL A   1      42.178  27.693  29.220  1.00  0.00     0.167 HD
ATOM     47  C   UNL A   1      43.481  31.480  30.989  1.00  0.00     0.031 A 
ATOM     48  C   UNL A   1      42.536  25.073  28.315  1.00  0.00     0.031 A 
ATOM     49  C   UNL A   1      44.642  30.634  31.013  1.00  0.00     0.049 A 
ATOM     50  C   UNL A   1      43.869  25.519  28.850  1.00  0.00     0.074 A 
ATOM     51  C   UNL A   1      45.901  30.913  31.515  1.00  0.00     0.029 A 
ATOM     52  N   UNL A   1      44.683  29.339  30.519  1.00  0.00    -0.354 N 
ATOM     53  N   UNL A   1      44.195  26.671  29.386  1.00  0.00    -0.248 NA
ATOM     54  C   UNL A   1      44.970  24.550  28.778  1.00  0.00     0.031 C 
ATOM     55  C   UNL A   1      46.714  29.795  31.296  1.00  0.00     0.029 A 
ATOM     56  C   UNL A   1      45.949  28.808  30.694  1.00  0.00     0.049 A 
ATOM     57  H   UNL A   1      43.925  28.867  30.106  1.00  0.00     0.167 HD
ATOM     58  C   UNL A   1      45.537  26.558  29.731  1.00  0.00     0.074 A 
ATOM     59  C   UNL A   1      45.957  25.224  29.355  1.00  0.00     0.031 C 
ATOM     60  C   UNL A   1      46.349  27.478  30.308  1.00  0.00     0.031 A 
BRANCH  47  61
ATOM     61  C   UNL A   1      43.592  32.874  31.543  1.00  0.00    -0.014 A 
ATOM     62  C   UNL A   1      43.430  33.115  32.920  1.00  0.00     0.010 A 
ATOM     63  C   UNL A   1      43.883  33.951  30.687  1.00  0.00     0.010 A 
ATOM     64  C   UNL A   1      43.516  34.413  33.424  1.00  0.00     0.020 A 
ATOM     65  C   UNL A   1      43.992  35.250  31.192  1.00  0.00     0.020 A 
ATOM     66  C   UNL A   1      43.791  35.475  32.556  1.00  0.00     0.054 A 
BRANCH  66  67
ATOM     67  S   UNL A   1      43.909  37.149  33.242  1.00  0.00     0.124 S 
ATOM     68  O   UNL A   1      42.711  37.217  34.076  1.00  0.00    -0.237 OA
ATOM     69  O   UNL A   1      45.176  37.112  33.967  1.00  0.00    -0.237 OA
ATOM     70  O   UNL A   1      43.896  38.009  32.061  1.00  0.00    -0.744 OA
ENDBRANCH  66  67
ENDBRANCH  47  61
BRANCH  48  71
ATOM     71  C   UNL A   1      42.351  23.702  27.772  1.00  0.00    -0.014 A 
ATOM     72  C   UNL A   1      42.364  23.485  26.384  1.00  0.00     0.010 A 
ATOM     73  C   UNL A   1      42.189  22.604  28.637  1.00  0.00     0.010 A 
ATOM     74  C   UNL A   1      42.213  22.196  25.867  1.00  0.00     0.020 A 
ATOM     75  C   UNL A   1      42.058  21.310  28.124  1.00  0.00     0.020 A 
ATOM     76  C   UNL A   1      42.064  21.115  26.741  1.00  0.00     0.054 A 
BRANCH  76  77
ATOM     77  S   UNL A   1      41.939  19.443  26.048  1.00  0.00     0.124 S 
ATOM     78  O   UNL A   1      42.845  19.519  24.907  1.00  0.00    -0.237 OA
ATOM     79  O   UNL A   1      42.385  18.606  27.158  1.00  0.00    -0.237 OA
ATOM     80  O   UNL A   1      40.521  19.317  25.716  1.00  0.00    -0.744 OA
ENDBRANCH  76  77
ENDBRANCH  48  71
BRANCH  60  81
ATOM     81  C   UNL A   1      47.769  27.072  30.582  1.00  0.00    -0.014 A 
ATOM     82  C   UNL A   1      48.781  27.312  29.637  1.00  0.00     0.010 A 
ATOM     83  C   UNL A   1      48.104  26.510  31.827  1.00  0.00     0.010 A 
ATOM     84  C   UNL A   1      50.107  26.978  29.927  1.00  0.00     0.020 A 
ATOM     85  C   UNL A   1      49.432  26.194  32.126  1.00  0.00     0.020 A 
ATOM     86  C   UNL A   1      50.424  26.422  31.171  1.00  0.00     0.054 A 
BRANCH  86  87
ATOM     87  S   UNL A   1      52.160  26.051  31.544  1.00  0.00     0.124 S 
ATOM     88  O   UNL A   1      52.083  24.668  32.005  1.00  0.00    -0.237 OA
ATOM     89  O   UNL A   1      52.815  26.249  30.254  1.00  0.00    -0.237 OA
ATOM     90  O   UNL A   1      52.509  27.032  32.568  1.00  0.00    -0.744 OA
ENDBRANCH  86  87
ENDBRANCH  60  81
ENDBRANCH  34  35
ENDBRANCH  26  29
ENDBRANCH  24  25
ENDBRANCH   1  24
TORSDOF 15
ENDMDL
