MODEL 1
REMARK VINA RESULT:     -10.3      0.000      0.000
REMARK SMILES CC[C@H](C)[C@@H](C)NC(=O)N1CC[C@H](C(=O)NCCCCNC(=O)c2ccc(-c3c4nc(c(-c5ccc(S(=O)(=O)[O-])cc5)c5ccc([nH]5)c(-c5ccc(S(=O)(=O)[O-])cc5)c5nc(c(-c6ccc(S(=O)(=O)[O-])cc6)c6ccc3[nH]6)C=C5)C=C4)cc2)[C@@H]1C
REMARK SMILES IDX 18 1 17 2 16 3 14 4 15 5 13 7 10 8 11 9 84 10 12 11 85 12
REMARK SMILES IDX 8 13 7 14 9 16 5 17 6 18 3 19 4 20 2 21 1 22 19 23 20 24
REMARK SMILES IDX 21 25 22 26 23 28 24 29 25 30 83 31 26 32 82 33 27 34 28 35
REMARK SMILES IDX 29 36 76 37 30 38 81 39 75 40 77 41 31 42 80 43 74 44 73 45
REMARK SMILES IDX 32 47 62 48 43 49 61 50 44 51 47 52 60 53 78 54 45 55 46 56
REMARK SMILES IDX 59 58 79 59 48 60 33 61 34 62 42 63 35 64 41 65 36 66 37 67
REMARK SMILES IDX 38 68 39 69 40 70 63 71 64 72 72 73 65 74 71 75 66 76 67 77
REMARK SMILES IDX 68 78 69 79 70 80 49 81 50 82 58 83 51 84 57 85 52 86 53 87
REMARK SMILES IDX 54 88 55 89 56 90
REMARK H PARENT 16 6 7 15 21 27 77 46 47 57
REMARK Flexibility Score: inf
ROOT
ATOM      1  C   UNL A   1      32.961  28.480  24.594  1.00  0.00     0.023 C 
ENDROOT
BRANCH   1   2
ATOM      2  C   UNL A   1      33.345  27.287  23.720  1.00  0.00     0.116 C 
BRANCH   2   3
ATOM      3  N   UNL A   1      32.178  26.568  23.243  1.00  0.00    -0.356 N 
ATOM      4  C   UNL A   1      31.733  25.309  23.513  1.00  0.00     0.225 C 
ATOM      5  O   UNL A   1      30.677  24.949  22.996  1.00  0.00    -0.275 OA
ATOM      6  H   UNL A   1      31.611  27.076  22.617  1.00  0.00     0.163 HD
BRANCH   4   7
ATOM      7  C   UNL A   1      32.489  24.435  24.494  1.00  0.00     0.102 C 
ATOM      8  N   UNL A   1      32.522  22.116  24.979  1.00  0.00    -0.321 N 
ATOM      9  C   UNL A   1      31.293  22.617  25.552  1.00  0.00     0.122 C 
ATOM     10  C   UNL A   1      32.996  23.073  23.971  1.00  0.00     0.096 C 
ATOM     11  C   UNL A   1      31.569  24.101  25.687  1.00  0.00     0.037 C 
ATOM     12  C   UNL A   1      32.562  22.653  22.567  1.00  0.00     0.032 C 
BRANCH   8  13
ATOM     13  C   UNL A   1      32.903  20.834  25.217  1.00  0.00     0.317 C 
ATOM     14  N   UNL A   1      34.156  20.557  25.642  1.00  0.00    -0.335 N 
ATOM     15  H   UNL A   1      34.481  19.657  25.408  1.00  0.00     0.165 HD
ATOM     16  O   UNL A   1      32.122  19.886  25.122  1.00  0.00    -0.249 OA
BRANCH  14  17
ATOM     17  C   UNL A   1      35.107  21.374  26.393  1.00  0.00     0.083 C 
ATOM     18  C   UNL A   1      34.317  22.201  27.406  1.00  0.00     0.031 C 
BRANCH  17  19
ATOM     19  C   UNL A   1      36.013  22.228  25.450  1.00  0.00     0.008 C 
ATOM     20  C   UNL A   1      36.019  23.697  25.896  1.00  0.00     0.010 C 
BRANCH  19  21
ATOM     21  C   UNL A   1      37.447  21.636  25.407  1.00  0.00     0.002 C 
ATOM     22  C   UNL A   1      38.535  22.501  26.026  1.00  0.00     0.004 C 
ENDBRANCH  19  21
ENDBRANCH  17  19
ENDBRANCH  14  17
ENDBRANCH   8  13
ENDBRANCH   4   7
ENDBRANCH   2   3
ENDBRANCH   1   2
BRANCH   1  23
ATOM     23  C   UNL A   1      32.464  28.111  25.997  1.00  0.00     0.023 C 
BRANCH  23  24
ATOM     24  C   UNL A   1      33.364  28.548  27.149  1.00  0.00     0.116 C 
BRANCH  24  25
ATOM     25  N   UNL A   1      33.275  29.971  27.440  1.00  0.00    -0.352 N 
ATOM     26  C   UNL A   1      34.243  30.784  27.985  1.00  0.00     0.251 C 
ATOM     27  H   UNL A   1      32.419  30.404  27.223  1.00  0.00     0.163 HD
ATOM     28  O   UNL A   1      33.988  31.949  28.273  1.00  0.00    -0.269 OA
BRANCH  26  29
ATOM     29  C   UNL A   1      35.583  30.219  28.254  1.00  0.00     0.039 A 
ATOM     30  C   UNL A   1      36.531  30.201  27.228  1.00  0.00     0.014 A 
ATOM     31  C   UNL A   1      35.911  29.767  29.534  1.00  0.00     0.014 A 
ATOM     32  C   UNL A   1      37.841  29.799  27.507  1.00  0.00     0.010 A 
ATOM     33  C   UNL A   1      37.228  29.420  29.820  1.00  0.00     0.010 A 
ATOM     34  C   UNL A   1      38.207  29.443  28.814  1.00  0.00    -0.014 A 
BRANCH  34  35
ATOM     35  C   UNL A   1      39.603  29.080  29.171  1.00  0.00     0.031 A 
ATOM     36  C   UNL A   1      40.501  30.120  29.784  1.00  0.00     0.074 A 
ATOM     37  C   UNL A   1      40.090  27.863  28.858  1.00  0.00     0.049 A 
ATOM     38  N   UNL A   1      41.793  30.083  29.979  1.00  0.00    -0.248 NA
ATOM     39  C   UNL A   1      39.862  31.376  30.209  1.00  0.00     0.031 C 
ATOM     40  C   UNL A   1      39.328  26.768  28.253  1.00  0.00     0.029 A 
ATOM     41  N   UNL A   1      41.358  27.350  28.987  1.00  0.00    -0.354 N 
ATOM     42  C   UNL A   1      42.126  31.316  30.527  1.00  0.00     0.074 A 
ATOM     43  C   UNL A   1      40.907  32.091  30.601  1.00  0.00     0.031 C 
ATOM     44  C   UNL A   1      40.140  25.714  28.066  1.00  0.00     0.029 A 
ATOM     45  C   UNL A   1      41.490  26.072  28.493  1.00  0.00     0.049 A 
ATOM     46  H   UNL A   1      42.102  27.849  29.393  1.00  0.00     0.167 HD
ATOM     47  C   UNL A   1      43.336  31.758  30.943  1.00  0.00     0.031 A 
ATOM     48  C   UNL A   1      42.579  25.287  28.374  1.00  0.00     0.031 A 
ATOM     49  C   UNL A   1      44.543  30.980  30.886  1.00  0.00     0.049 A 
ATOM     50  C   UNL A   1      43.916  25.809  28.831  1.00  0.00     0.074 A 
ATOM     51  C   UNL A   1      45.819  31.340  31.284  1.00  0.00     0.029 A 
ATOM     52  N   UNL A   1      44.621  29.678  30.421  1.00  0.00    -0.354 N 
ATOM     53  N   UNL A   1      44.211  26.980  29.344  1.00  0.00    -0.248 NA
ATOM     54  C   UNL A   1      45.067  24.902  28.701  1.00  0.00     0.031 C 
ATOM     55  C   UNL A   1      46.672  30.260  31.043  1.00  0.00     0.029 A 
ATOM     56  C   UNL A   1      45.919  29.215  30.533  1.00  0.00     0.049 A 
ATOM     57  H   UNL A   1      43.863  29.158  30.064  1.00  0.00     0.167 HD
ATOM     58  C   UNL A   1      45.570  26.933  29.633  1.00  0.00     0.074 A 
ATOM     59  C   UNL A   1      46.041  25.622  29.241  1.00  0.00     0.031 C 
ATOM     60  C   UNL A   1      46.359  27.892  30.175  1.00  0.00     0.031 A 
BRANCH  47  61
ATOM     61  C   UNL A   1      43.411  33.150  31.507  1.00  0.00    -0.014 A 
ATOM     62  C   UNL A   1      43.290  33.369  32.891  1.00  0.00     0.010 A 
ATOM     63  C   UNL A   1      43.659  34.242  30.657  1.00  0.00     0.010 A 
ATOM     64  C   UNL A   1      43.386  34.661  33.412  1.00  0.00     0.020 A 
ATOM     65  C   UNL A   1      43.779  35.534  31.177  1.00  0.00     0.020 A 
ATOM     66  C   UNL A   1      43.627  35.736  32.551  1.00  0.00     0.054 A 
BRANCH  66  67
ATOM     67  S   UNL A   1      43.783  37.398  33.259  1.00  0.00     0.124 S 
ATOM     68  O   UNL A   1      43.773  38.236  32.062  1.00  0.00    -0.237 OA
ATOM     69  O   UNL A   1      42.598  37.500  34.106  1.00  0.00    -0.237 OA
ATOM     70  O   UNL A   1      45.055  37.352  33.976  1.00  0.00    -0.744 OA
ENDBRANCH  66  67
ENDBRANCH  47  61
BRANCH  48  71
ATOM     71  C   UNL A   1      42.468  23.923  27.789  1.00  0.00    -0.014 A 
ATOM     72  C   UNL A   1      42.345  22.798  28.624  1.00  0.00     0.010 A 
ATOM     73  C   UNL A   1      42.521  23.738  26.396  1.00  0.00     0.010 A 
ATOM     74  C   UNL A   1      42.319  21.511  28.081  1.00  0.00     0.020 A 
ATOM     75  C   UNL A   1      42.469  22.453  25.847  1.00  0.00     0.020 A 
ATOM     76  C   UNL A   1      42.390  21.346  26.695  1.00  0.00     0.054 A 
BRANCH  76  77
ATOM     77  S   UNL A   1      42.348  19.668  26.006  1.00  0.00     0.124 S 
ATOM     78  O   UNL A   1      43.420  19.721  25.017  1.00  0.00    -0.237 OA
ATOM     79  O   UNL A   1      42.606  18.835  27.176  1.00  0.00    -0.237 OA
ATOM     80  O   UNL A   1      40.996  19.561  25.461  1.00  0.00    -0.744 OA
ENDBRANCH  76  77
ENDBRANCH  48  71
BRANCH  60  81
ATOM     81  C   UNL A   1      47.794  27.544  30.455  1.00  0.00    -0.014 A 
ATOM     82  C   UNL A   1      48.167  26.877  31.634  1.00  0.00     0.010 A 
ATOM     83  C   UNL A   1      48.766  27.807  29.472  1.00  0.00     0.010 A 
ATOM     84  C   UNL A   1      49.495  26.487  31.829  1.00  0.00     0.020 A 
ATOM     85  C   UNL A   1      50.089  27.399  29.656  1.00  0.00     0.020 A 
ATOM     86  C   UNL A   1      50.447  26.747  30.836  1.00  0.00     0.054 A 
BRANCH  86  87
ATOM     87  S   UNL A   1      52.146  26.156  31.076  1.00  0.00     0.124 S 
ATOM     88  O   UNL A   1      52.642  26.093  29.704  1.00  0.00    -0.237 OA
ATOM     89  O   UNL A   1      52.735  27.200  31.910  1.00  0.00    -0.237 OA
ATOM     90  O   UNL A   1      51.973  24.864  31.736  1.00  0.00    -0.744 OA
ENDBRANCH  86  87
ENDBRANCH  60  81
ENDBRANCH  34  35
ENDBRANCH  26  29
ENDBRANCH  24  25
ENDBRANCH  23  24
ENDBRANCH   1  23
TORSDOF 18
ENDMDL
MODEL 2
REMARK VINA RESULT:      -9.9      4.385      9.382
REMARK SMILES CC[C@H](C)[C@@H](C)NC(=O)N1CC[C@H](C(=O)NCCCCNC(=O)c2ccc(-c3c4nc(c(-c5ccc(S(=O)(=O)[O-])cc5)c5ccc([nH]5)c(-c5ccc(S(=O)(=O)[O-])cc5)c5nc(c(-c6ccc(S(=O)(=O)[O-])cc6)c6ccc3[nH]6)C=C5)C=C4)cc2)[C@@H]1C
REMARK SMILES IDX 18 1 17 2 16 3 14 4 15 5 13 7 10 8 11 9 84 10 12 11 85 12
REMARK SMILES IDX 8 13 7 14 9 16 5 17 6 18 3 19 4 20 2 21 1 22 19 23 20 24
REMARK SMILES IDX 21 25 22 26 23 28 24 29 25 30 83 31 26 32 82 33 27 34 28 35
REMARK SMILES IDX 29 36 76 37 30 38 81 39 75 40 77 41 31 42 80 43 74 44 73 45
REMARK SMILES IDX 32 47 62 48 43 49 61 50 44 51 47 52 60 53 78 54 45 55 46 56
REMARK SMILES IDX 59 58 79 59 48 60 33 61 34 62 42 63 35 64 41 65 36 66 37 67
REMARK SMILES IDX 38 68 39 69 40 70 63 71 64 72 72 73 65 74 71 75 66 76 67 77
REMARK SMILES IDX 68 78 69 79 70 80 49 81 50 82 58 83 51 84 57 85 52 86 53 87
REMARK SMILES IDX 54 88 55 89 56 90
REMARK H PARENT 16 6 7 15 21 27 77 46 47 57
REMARK Flexibility Score: inf
ROOT
ATOM      1  C   UNL A   1      31.834  30.452  25.953  1.00  0.00     0.023 C 
ENDROOT
BRANCH   1   2
ATOM      2  C   UNL A   1      32.458  29.595  24.853  1.00  0.00     0.116 C 
BRANCH   2   3
ATOM      3  N   UNL A   1      31.476  29.183  23.865  1.00  0.00    -0.356 N 
ATOM      4  C   UNL A   1      31.105  27.944  23.440  1.00  0.00     0.225 C 
ATOM      5  O   UNL A   1      30.206  27.869  22.603  1.00  0.00    -0.275 OA
ATOM      6  H   UNL A   1      30.999  29.926  23.429  1.00  0.00     0.163 HD
BRANCH   4   7
ATOM      7  C   UNL A   1      31.731  26.711  24.060  1.00  0.00     0.102 C 
ATOM      8  N   UNL A   1      32.567  24.661  23.218  1.00  0.00    -0.321 N 
ATOM      9  C   UNL A   1      31.127  24.550  23.157  1.00  0.00     0.122 C 
ATOM     10  C   UNL A   1      32.926  26.081  23.312  1.00  0.00     0.096 C 
ATOM     11  C   UNL A   1      30.669  25.596  24.154  1.00  0.00     0.037 C 
ATOM     12  C   UNL A   1      33.276  26.652  21.938  1.00  0.00     0.032 C 
BRANCH   8  13
ATOM     13  C   UNL A   1      33.337  23.579  22.936  1.00  0.00     0.317 C 
ATOM     14  N   UNL A   1      34.217  23.106  23.848  1.00  0.00    -0.335 N 
ATOM     15  H   UNL A   1      34.988  22.625  23.466  1.00  0.00     0.165 HD
ATOM     16  O   UNL A   1      33.230  22.948  21.883  1.00  0.00    -0.249 OA
BRANCH  14  17
ATOM     17  C   UNL A   1      34.211  23.189  25.307  1.00  0.00     0.083 C 
ATOM     18  C   UNL A   1      35.124  24.346  25.713  1.00  0.00     0.031 C 
BRANCH  17  19
ATOM     19  C   UNL A   1      34.585  21.827  25.970  1.00  0.00     0.008 C 
ATOM     20  C   UNL A   1      33.655  21.534  27.157  1.00  0.00     0.010 C 
BRANCH  19  21
ATOM     21  C   UNL A   1      34.542  20.689  24.914  1.00  0.00     0.002 C 
ATOM     22  C   UNL A   1      33.254  19.879  24.872  1.00  0.00     0.004 C 
ENDBRANCH  19  21
ENDBRANCH  17  19
ENDBRANCH  14  17
ENDBRANCH   8  13
ENDBRANCH   4   7
ENDBRANCH   2   3
ENDBRANCH   1   2
BRANCH   1  23
ATOM     23  C   UNL A   1      32.647  30.519  27.251  1.00  0.00     0.023 C 
BRANCH  23  24
ATOM     24  C   UNL A   1      33.685  31.635  27.319  1.00  0.00     0.116 C 
BRANCH  24  25
ATOM     25  N   UNL A   1      33.102  32.949  27.546  1.00  0.00    -0.352 N 
ATOM     26  C   UNL A   1      33.446  33.872  28.509  1.00  0.00     0.251 C 
ATOM     27  H   UNL A   1      32.375  33.211  26.937  1.00  0.00     0.163 HD
ATOM     28  O   UNL A   1      32.793  34.901  28.646  1.00  0.00    -0.269 OA
BRANCH  26  29
ATOM     29  C   UNL A   1      34.589  33.582  29.400  1.00  0.00     0.039 A 
ATOM     30  C   UNL A   1      34.403  32.725  30.487  1.00  0.00     0.014 A 
ATOM     31  C   UNL A   1      35.851  34.112  29.120  1.00  0.00     0.014 A 
ATOM     32  C   UNL A   1      35.505  32.333  31.253  1.00  0.00     0.010 A 
ATOM     33  C   UNL A   1      36.953  33.679  29.851  1.00  0.00     0.010 A 
ATOM     34  C   UNL A   1      36.794  32.778  30.916  1.00  0.00    -0.014 A 
BRANCH  34  35
ATOM     35  C   UNL A   1      38.001  32.330  31.656  1.00  0.00     0.031 A 
ATOM     36  C   UNL A   1      38.834  31.208  31.098  1.00  0.00     0.074 A 
ATOM     37  C   UNL A   1      38.293  32.855  32.863  1.00  0.00     0.049 A 
ATOM     38  N   UNL A   1      39.794  30.530  31.670  1.00  0.00    -0.248 NA
ATOM     39  C   UNL A   1      38.526  30.778  29.725  1.00  0.00     0.031 C 
ATOM     40  C   UNL A   1      37.560  33.940  33.520  1.00  0.00     0.029 A 
ATOM     41  N   UNL A   1      39.275  32.526  33.765  1.00  0.00    -0.354 N 
ATOM     42  C   UNL A   1      40.189  29.578  30.738  1.00  0.00     0.074 A 
ATOM     43  C   UNL A   1      39.343  29.744  29.577  1.00  0.00     0.031 C 
ATOM     44  C   UNL A   1      38.120  34.189  34.717  1.00  0.00     0.029 A 
ATOM     45  C   UNL A   1      39.218  33.253  34.933  1.00  0.00     0.049 A 
ATOM     46  H   UNL A   1      39.955  31.837  33.593  1.00  0.00     0.167 HD
ATOM     47  C   UNL A   1      41.177  28.657  30.835  1.00  0.00     0.031 A 
ATOM     48  C   UNL A   1      39.952  33.157  36.060  1.00  0.00     0.031 A 
ATOM     49  C   UNL A   1      42.030  28.506  31.982  1.00  0.00     0.049 A 
ATOM     50  C   UNL A   1      41.035  32.114  36.146  1.00  0.00     0.074 A 
ATOM     51  C   UNL A   1      43.061  27.603  32.175  1.00  0.00     0.029 A 
ATOM     52  N   UNL A   1      41.966  29.291  33.121  1.00  0.00    -0.354 N 
ATOM     53  N   UNL A   1      41.392  31.221  35.255  1.00  0.00    -0.248 NA
ATOM     54  C   UNL A   1      41.821  32.070  37.389  1.00  0.00     0.031 C 
ATOM     55  C   UNL A   1      43.608  27.830  33.440  1.00  0.00     0.029 A 
ATOM     56  C   UNL A   1      42.946  28.902  34.016  1.00  0.00     0.049 A 
ATOM     57  H   UNL A   1      41.320  30.020  33.271  1.00  0.00     0.167 HD
ATOM     58  C   UNL A   1      42.467  30.539  35.813  1.00  0.00     0.074 A 
ATOM     59  C   UNL A   1      42.705  31.120  37.117  1.00  0.00     0.031 C 
ATOM     60  C   UNL A   1      43.192  29.520  35.292  1.00  0.00     0.031 A 
BRANCH  47  61
ATOM     61  C   UNL A   1      41.395  27.745  29.660  1.00  0.00    -0.014 A 
ATOM     62  C   UNL A   1      42.494  27.931  28.803  1.00  0.00     0.010 A 
ATOM     63  C   UNL A   1      40.527  26.661  29.439  1.00  0.00     0.010 A 
ATOM     64  C   UNL A   1      42.706  27.065  27.727  1.00  0.00     0.020 A 
ATOM     65  C   UNL A   1      40.749  25.779  28.379  1.00  0.00     0.020 A 
ATOM     66  C   UNL A   1      41.830  25.996  27.521  1.00  0.00     0.054 A 
BRANCH  66  67
ATOM     67  S   UNL A   1      42.149  24.866  26.138  1.00  0.00     0.124 S 
ATOM     68  O   UNL A   1      41.944  25.739  24.985  1.00  0.00    -0.237 OA
ATOM     69  O   UNL A   1      43.530  24.452  26.374  1.00  0.00    -0.237 OA
ATOM     70  O   UNL A   1      41.149  23.816  26.310  1.00  0.00    -0.744 OA
ENDBRANCH  66  67
ENDBRANCH  47  61
BRANCH  48  71
ATOM     71  C   UNL A   1      39.691  34.064  37.210  1.00  0.00    -0.014 A 
ATOM     72  C   UNL A   1      40.118  35.403  37.173  1.00  0.00     0.010 A 
ATOM     73  C   UNL A   1      39.046  33.584  38.365  1.00  0.00     0.010 A 
ATOM     74  C   UNL A   1      39.944  36.234  38.283  1.00  0.00     0.020 A 
ATOM     75  C   UNL A   1      38.847  34.420  39.468  1.00  0.00     0.020 A 
ATOM     76  C   UNL A   1      39.317  35.734  39.427  1.00  0.00     0.054 A 
BRANCH  76  77
ATOM     77  S   UNL A   1      39.092  36.830  40.856  1.00  0.00     0.124 S 
ATOM     78  O   UNL A   1      40.458  36.960  41.354  1.00  0.00    -0.237 OA
ATOM     79  O   UNL A   1      38.520  38.030  40.253  1.00  0.00    -0.237 OA
ATOM     80  O   UNL A   1      38.179  36.080  41.716  1.00  0.00    -0.744 OA
ENDBRANCH  76  77
ENDBRANCH  48  71
BRANCH  60  81
ATOM     81  C   UNL A   1      44.363  29.015  36.087  1.00  0.00    -0.014 A 
ATOM     82  C   UNL A   1      44.228  27.942  36.984  1.00  0.00     0.010 A 
ATOM     83  C   UNL A   1      45.637  29.566  35.856  1.00  0.00     0.010 A 
ATOM     84  C   UNL A   1      45.351  27.434  37.646  1.00  0.00     0.020 A 
ATOM     85  C   UNL A   1      46.763  29.047  36.499  1.00  0.00     0.020 A 
ATOM     86  C   UNL A   1      46.611  27.988  37.395  1.00  0.00     0.054 A 
BRANCH  86  87
ATOM     87  S   UNL A   1      48.064  27.257  38.200  1.00  0.00     0.124 S 
ATOM     88  O   UNL A   1      48.473  26.246  37.231  1.00  0.00    -0.237 OA
ATOM     89  O   UNL A   1      48.965  28.399  38.335  1.00  0.00    -0.237 OA
ATOM     90  O   UNL A   1      47.536  26.737  39.459  1.00  0.00    -0.744 OA
ENDBRANCH  86  87
ENDBRANCH  60  81
ENDBRANCH  34  35
ENDBRANCH  26  29
ENDBRANCH  24  25
ENDBRANCH  23  24
ENDBRANCH   1  23
TORSDOF 18
ENDMDL
MODEL 3
REMARK VINA RESULT:      -9.8      3.451      8.357
REMARK SMILES CC[C@H](C)[C@@H](C)NC(=O)N1CC[C@H](C(=O)NCCCCNC(=O)c2ccc(-c3c4nc(c(-c5ccc(S(=O)(=O)[O-])cc5)c5ccc([nH]5)c(-c5ccc(S(=O)(=O)[O-])cc5)c5nc(c(-c6ccc(S(=O)(=O)[O-])cc6)c6ccc3[nH]6)C=C5)C=C4)cc2)[C@@H]1C
REMARK SMILES IDX 18 1 17 2 16 3 14 4 15 5 13 7 10 8 11 9 84 10 12 11 85 12
REMARK SMILES IDX 8 13 7 14 9 16 5 17 6 18 3 19 4 20 2 21 1 22 19 23 20 24
REMARK SMILES IDX 21 25 22 26 23 28 24 29 25 30 83 31 26 32 82 33 27 34 28 35
REMARK SMILES IDX 29 36 76 37 30 38 81 39 75 40 77 41 31 42 80 43 74 44 73 45
REMARK SMILES IDX 32 47 62 48 43 49 61 50 44 51 47 52 60 53 78 54 45 55 46 56
REMARK SMILES IDX 59 58 79 59 48 60 33 61 34 62 42 63 35 64 41 65 36 66 37 67
REMARK SMILES IDX 38 68 39 69 40 70 63 71 64 72 72 73 65 74 71 75 66 76 67 77
REMARK SMILES IDX 68 78 69 79 70 80 49 81 50 82 58 83 51 84 57 85 52 86 53 87
REMARK SMILES IDX 54 88 55 89 56 90
REMARK H PARENT 16 6 7 15 21 27 77 46 47 57
REMARK Flexibility Score: inf
ROOT
ATOM      1  C   UNL A   1      38.148  21.056  25.139  1.00  0.00     0.023 C 
ENDROOT
BRANCH   1   2
ATOM      2  C   UNL A   1      36.742  21.511  25.527  1.00  0.00     0.116 C 
BRANCH   2   3
ATOM      3  N   UNL A   1      35.760  20.460  25.330  1.00  0.00    -0.356 N 
ATOM      4  C   UNL A   1      34.417  20.524  25.115  1.00  0.00     0.225 C 
ATOM      5  O   UNL A   1      33.812  19.467  24.941  1.00  0.00    -0.275 OA
ATOM      6  H   UNL A   1      36.127  19.547  25.357  1.00  0.00     0.163 HD
BRANCH   4   7
ATOM      7  C   UNL A   1      33.730  21.871  25.008  1.00  0.00     0.102 C 
ATOM      8  N   UNL A   1      31.885  22.893  26.086  1.00  0.00    -0.321 N 
ATOM      9  C   UNL A   1      31.317  21.935  25.165  1.00  0.00     0.122 C 
ATOM     10  C   UNL A   1      33.288  22.539  26.329  1.00  0.00     0.096 C 
ATOM     11  C   UNL A   1      32.442  21.718  24.173  1.00  0.00     0.037 C 
ATOM     12  C   UNL A   1      33.435  21.722  27.613  1.00  0.00     0.032 C 
BRANCH   8  13
ATOM     13  C   UNL A   1      31.069  23.750  26.753  1.00  0.00     0.317 C 
ATOM     14  N   UNL A   1      31.206  25.087  26.603  1.00  0.00    -0.335 N 
ATOM     15  H   UNL A   1      30.899  25.621  27.371  1.00  0.00     0.165 HD
ATOM     16  O   UNL A   1      30.142  23.359  27.465  1.00  0.00    -0.249 OA
BRANCH  14  17
ATOM     17  C   UNL A   1      31.734  25.868  25.487  1.00  0.00     0.083 C 
ATOM     18  C   UNL A   1      33.162  26.282  25.839  1.00  0.00     0.031 C 
BRANCH  17  19
ATOM     19  C   UNL A   1      30.801  27.065  25.122  1.00  0.00     0.008 C 
ATOM     20  C   UNL A   1      31.597  28.378  25.094  1.00  0.00     0.010 C 
BRANCH  19  21
ATOM     21  C   UNL A   1      30.091  26.796  23.768  1.00  0.00     0.002 C 
ATOM     22  C   UNL A   1      29.354  27.982  23.165  1.00  0.00     0.004 C 
ENDBRANCH  19  21
ENDBRANCH  17  19
ENDBRANCH  14  17
ENDBRANCH   8  13
ENDBRANCH   4   7
ENDBRANCH   2   3
ENDBRANCH   1   2
BRANCH   1  23
ATOM     23  C   UNL A   1      39.281  21.774  25.881  1.00  0.00     0.023 C 
BRANCH  23  24
ATOM     24  C   UNL A   1      40.080  20.911  26.853  1.00  0.00     0.116 C 
BRANCH  24  25
ATOM     25  N   UNL A   1      40.915  19.921  26.190  1.00  0.00    -0.352 N 
ATOM     26  C   UNL A   1      42.223  20.055  25.781  1.00  0.00     0.251 C 
ATOM     27  H   UNL A   1      40.494  19.050  26.012  1.00  0.00     0.163 HD
ATOM     28  O   UNL A   1      42.769  19.166  25.137  1.00  0.00    -0.269 OA
BRANCH  26  29
ATOM     29  C   UNL A   1      42.946  21.306  26.096  1.00  0.00     0.039 A 
ATOM     30  C   UNL A   1      43.109  22.267  25.095  1.00  0.00     0.014 A 
ATOM     31  C   UNL A   1      43.403  21.547  27.393  1.00  0.00     0.014 A 
ATOM     32  C   UNL A   1      43.665  23.509  25.416  1.00  0.00     0.010 A 
ATOM     33  C   UNL A   1      43.906  22.802  27.721  1.00  0.00     0.010 A 
ATOM     34  C   UNL A   1      44.032  23.798  26.739  1.00  0.00    -0.014 A 
BRANCH  34  35
ATOM     35  C   UNL A   1      44.557  25.129  27.139  1.00  0.00     0.031 A 
ATOM     36  C   UNL A   1      43.613  26.158  27.697  1.00  0.00     0.074 A 
ATOM     37  C   UNL A   1      45.849  25.446  26.913  1.00  0.00     0.049 A 
ATOM     38  N   UNL A   1      43.814  27.431  27.913  1.00  0.00    -0.248 NA
ATOM     39  C   UNL A   1      42.255  25.696  28.030  1.00  0.00     0.031 C 
ATOM     40  C   UNL A   1      46.865  24.543  26.369  1.00  0.00     0.029 A 
ATOM     41  N   UNL A   1      46.521  26.630  27.093  1.00  0.00    -0.354 N 
ATOM     42  C   UNL A   1      42.604  27.929  28.384  1.00  0.00     0.074 A 
ATOM     43  C   UNL A   1      41.666  26.828  28.391  1.00  0.00     0.031 C 
ATOM     44  C   UNL A   1      48.031  25.204  26.262  1.00  0.00     0.029 A 
ATOM     45  C   UNL A   1      47.835  26.587  26.685  1.00  0.00     0.049 A 
ATOM     46  H   UNL A   1      46.102  27.433  27.477  1.00  0.00     0.167 HD
ATOM     47  C   UNL A   1      42.306  29.186  28.789  1.00  0.00     0.031 A 
ATOM     48  C   UNL A   1      48.767  27.559  26.632  1.00  0.00     0.031 A 
ATOM     49  C   UNL A   1      43.244  30.274  28.800  1.00  0.00     0.049 A 
ATOM     50  C   UNL A   1      48.404  28.952  27.075  1.00  0.00     0.074 A 
ATOM     51  C   UNL A   1      43.037  31.585  29.193  1.00  0.00     0.029 A 
ATOM     52  N   UNL A   1      44.572  30.174  28.422  1.00  0.00    -0.354 N 
ATOM     53  N   UNL A   1      47.254  29.403  27.515  1.00  0.00    -0.248 NA
ATOM     54  C   UNL A   1      49.467  29.968  27.020  1.00  0.00     0.031 C 
ATOM     55  C   UNL A   1      44.237  32.283  29.034  1.00  0.00     0.029 A 
ATOM     56  C   UNL A   1      45.200  31.396  28.582  1.00  0.00     0.049 A 
ATOM     57  H   UNL A   1      45.006  29.354  28.088  1.00  0.00     0.167 HD
ATOM     58  C   UNL A   1      47.467  30.741  27.826  1.00  0.00     0.074 A 
ATOM     59  C   UNL A   1      48.853  31.029  27.526  1.00  0.00     0.031 C 
ATOM     60  C   UNL A   1      46.591  31.651  28.317  1.00  0.00     0.031 A 
BRANCH  47  61
ATOM     61  C   UNL A   1      40.903  29.448  29.263  1.00  0.00    -0.014 A 
ATOM     62  C   UNL A   1      40.608  29.492  30.637  1.00  0.00     0.010 A 
ATOM     63  C   UNL A   1      39.882  29.708  28.332  1.00  0.00     0.010 A 
ATOM     64  C   UNL A   1      39.309  29.761  31.072  1.00  0.00     0.020 A 
ATOM     65  C   UNL A   1      38.586  30.002  28.764  1.00  0.00     0.020 A 
ATOM     66  C   UNL A   1      38.305  30.012  30.132  1.00  0.00     0.054 A 
BRANCH  66  67
ATOM     67  S   UNL A   1      36.635  30.396  30.726  1.00  0.00     0.124 S 
ATOM     68  O   UNL A   1      36.739  31.825  31.011  1.00  0.00    -0.237 OA
ATOM     69  O   UNL A   1      35.798  30.044  29.582  1.00  0.00    -0.237 OA
ATOM     70  O   UNL A   1      36.478  29.537  31.897  1.00  0.00    -0.744 OA
ENDBRANCH  66  67
ENDBRANCH  47  61
BRANCH  48  71
ATOM     71  C   UNL A   1      50.139  27.264  26.136  1.00  0.00    -0.014 A 
ATOM     72  C   UNL A   1      50.465  27.467  24.783  1.00  0.00     0.010 A 
ATOM     73  C   UNL A   1      51.115  26.742  27.004  1.00  0.00     0.010 A 
ATOM     74  C   UNL A   1      51.728  27.116  24.298  1.00  0.00     0.020 A 
ATOM     75  C   UNL A   1      52.388  26.415  26.528  1.00  0.00     0.020 A 
ATOM     76  C   UNL A   1      52.679  26.584  25.173  1.00  0.00     0.054 A 
BRANCH  76  77
ATOM     77  S   UNL A   1      54.317  26.141  24.529  1.00  0.00     0.124 S 
ATOM     78  O   UNL A   1      54.161  26.406  23.102  1.00  0.00    -0.237 OA
ATOM     79  O   UNL A   1      55.202  27.051  25.249  1.00  0.00    -0.237 OA
ATOM     80  O   UNL A   1      54.454  24.733  24.895  1.00  0.00    -0.744 OA
ENDBRANCH  76  77
ENDBRANCH  48  71
BRANCH  60  81
ATOM     81  C   UNL A   1      47.114  33.023  28.639  1.00  0.00    -0.014 A 
ATOM     82  C   UNL A   1      47.701  33.307  29.884  1.00  0.00     0.010 A 
ATOM     83  C   UNL A   1      47.100  34.014  27.640  1.00  0.00     0.010 A 
ATOM     84  C   UNL A   1      48.258  34.566  30.127  1.00  0.00     0.020 A 
ATOM     85  C   UNL A   1      47.675  35.265  27.872  1.00  0.00     0.020 A 
ATOM     86  C   UNL A   1      48.245  35.535  29.117  1.00  0.00     0.054 A 
BRANCH  86  87
ATOM     87  S   UNL A   1      49.049  37.132  29.427  1.00  0.00     0.124 S 
ATOM     88  O   UNL A   1      48.638  37.419  30.798  1.00  0.00    -0.237 OA
ATOM     89  O   UNL A   1      50.464  36.821  29.246  1.00  0.00    -0.237 OA
ATOM     90  O   UNL A   1      48.477  38.010  28.408  1.00  0.00    -0.744 OA
ENDBRANCH  86  87
ENDBRANCH  60  81
ENDBRANCH  34  35
ENDBRANCH  26  29
ENDBRANCH  24  25
ENDBRANCH  23  24
ENDBRANCH   1  23
TORSDOF 18
ENDMDL
