MODEL 1
REMARK VINA RESULT:     -10.5      0.000      0.000
REMARK SMILES CC(C)Cc1noc(C[NH+]2CCC(CC(=O)NCCCCNC(=O)c3ccc(-c4c5nc(c(-c6ccc(S(=O)(=O)[O-])cc6)c6ccc([nH]6)c(-c6ccc(S(=O)(=O)[O-])cc6)c6nc(c(-c7ccc(S(=O)(=O)[O-])cc7)c7ccc4[nH]7)C=C6)C=C5)cc3)CC2)n1
REMARK SMILES IDX 18 1 17 2 15 3 16 4 14 6 13 7 10 8 11 9 86 10 12 12 85 13
REMARK SMILES IDX 9 14 8 15 5 16 6 17 87 18 7 19 4 20 2 21 1 22 3 23 19 24
REMARK SMILES IDX 20 25 21 26 22 27 23 28 24 30 25 31 26 32 84 33 27 34 83 35
REMARK SMILES IDX 28 36 29 37 30 38 77 39 31 40 82 41 76 42 78 43 32 44 81 45
REMARK SMILES IDX 75 46 74 47 33 49 63 50 44 51 62 52 45 53 48 54 61 55 79 56
REMARK SMILES IDX 46 57 47 58 60 60 80 61 49 62 34 63 35 64 43 65 36 66 42 67
REMARK SMILES IDX 37 68 38 69 39 70 40 71 41 72 64 73 65 74 73 75 66 76 72 77
REMARK SMILES IDX 67 78 68 79 69 80 70 81 71 82 50 83 51 84 59 85 52 86 58 87
REMARK SMILES IDX 53 88 54 89 55 90 56 91 57 92
REMARK H PARENT 17 5 10 11 22 29 78 48 48 59
REMARK Flexibility Score: inf
ROOT
ATOM      1  C   UNL A   1      34.426  21.531  26.978  1.00  0.00     0.116 C 
ENDROOT
BRANCH   1   2
ATOM      2  N   UNL A   1      33.545  20.436  26.600  1.00  0.00    -0.356 N 
ATOM      3  C   UNL A   1      32.931  20.143  25.416  1.00  0.00     0.220 C 
ATOM      4  O   UNL A   1      32.206  19.146  25.368  1.00  0.00    -0.275 OA
ATOM      5  H   UNL A   1      33.359  19.794  27.324  1.00  0.00     0.163 HD
BRANCH   3   6
ATOM      6  C   UNL A   1      33.112  21.022  24.181  1.00  0.00     0.104 C 
BRANCH   6   7
ATOM      7  C   UNL A   1      31.957  22.027  23.977  1.00  0.00     0.009 C 
ATOM      8  N   UNL A   1      31.167  24.843  24.351  1.00  0.00    -0.327 N 
ATOM      9  C   UNL A   1      30.647  23.825  25.265  1.00  0.00     0.262 C 
ATOM     10  C   UNL A   1      31.283  24.289  22.999  1.00  0.00     0.262 C 
ATOM     11  H   UNL A   1      32.108  25.115  24.635  1.00  0.00     0.348 HD
ATOM     12  C   UNL A   1      31.566  22.630  25.316  1.00  0.00     0.066 C 
ATOM     13  C   UNL A   1      32.314  23.143  22.985  1.00  0.00     0.066 C 
BRANCH   8  14
ATOM     14  C   UNL A   1      30.356  26.082  24.426  1.00  0.00     0.364 C 
BRANCH  14  15
ATOM     15  C   UNL A   1      31.057  27.286  24.968  1.00  0.00     0.281 A 
ATOM     16  C   UNL A   1      31.793  28.858  26.131  1.00  0.00     0.172 A 
ATOM     17  N   UNL A   1      31.770  29.377  24.895  1.00  0.00    -0.062 NA
ATOM     18  N   UNL A   1      31.391  27.552  26.214  1.00  0.00    -0.191 NA
ATOM     19  O   UNL A   1      31.269  28.329  24.116  1.00  0.00    -0.333 OA
BRANCH  16  20
ATOM     20  C   UNL A   1      32.213  29.633  27.329  1.00  0.00     0.084 C 
BRANCH  20  21
ATOM     21  C   UNL A   1      33.736  29.636  27.565  1.00  0.00    -0.010 C 
ATOM     22  C   UNL A   1      34.472  28.671  26.630  1.00  0.00     0.008 C 
ATOM     23  C   UNL A   1      34.289  31.051  27.373  1.00  0.00     0.008 C 
ENDBRANCH  20  21
ENDBRANCH  16  20
ENDBRANCH  14  15
ENDBRANCH   8  14
ENDBRANCH   6   7
ENDBRANCH   3   6
ENDBRANCH   1   2
BRANCH   1  24
ATOM     24  C   UNL A   1      35.620  21.671  26.023  1.00  0.00     0.023 C 
BRANCH  24  25
ATOM     25  C   UNL A   1      35.674  22.948  25.204  1.00  0.00     0.023 C 
BRANCH  25  26
ATOM     26  C   UNL A   1      37.044  23.585  25.134  1.00  0.00     0.116 C 
BRANCH  26  27
ATOM     27  N   UNL A   1      38.134  22.677  25.470  1.00  0.00    -0.352 N 
ATOM     28  C   UNL A   1      39.261  22.930  26.222  1.00  0.00     0.251 C 
ATOM     29  H   UNL A   1      38.054  21.762  25.112  1.00  0.00     0.163 HD
ATOM     30  O   UNL A   1      40.134  22.083  26.346  1.00  0.00    -0.269 OA
BRANCH  28  31
ATOM     31  C   UNL A   1      39.411  24.268  26.830  1.00  0.00     0.039 A 
ATOM     32  C   UNL A   1      38.952  24.479  28.131  1.00  0.00     0.014 A 
ATOM     33  C   UNL A   1      40.110  25.268  26.151  1.00  0.00     0.014 A 
ATOM     34  C   UNL A   1      39.276  25.669  28.784  1.00  0.00     0.010 A 
ATOM     35  C   UNL A   1      40.529  26.395  26.841  1.00  0.00     0.010 A 
ATOM     36  C   UNL A   1      40.111  26.612  28.162  1.00  0.00    -0.014 A 
BRANCH  36  37
ATOM     37  C   UNL A   1      40.549  27.847  28.858  1.00  0.00     0.031 A 
ATOM     38  C   UNL A   1      41.926  27.911  29.460  1.00  0.00     0.074 A 
ATOM     39  C   UNL A   1      39.684  28.869  29.024  1.00  0.00     0.049 A 
ATOM     40  N   UNL A   1      42.470  28.859  30.177  1.00  0.00    -0.248 NA
ATOM     41  C   UNL A   1      42.793  26.735  29.264  1.00  0.00     0.031 C 
ATOM     42  C   UNL A   1      38.300  28.901  28.545  1.00  0.00     0.029 A 
ATOM     43  N   UNL A   1      39.845  30.080  29.648  1.00  0.00    -0.354 N 
ATOM     44  C   UNL A   1      43.723  28.381  30.543  1.00  0.00     0.074 A 
ATOM     45  C   UNL A   1      43.834  27.037  30.023  1.00  0.00     0.031 C 
ATOM     46  C   UNL A   1      37.752  30.087  28.858  1.00  0.00     0.029 A 
ATOM     47  C   UNL A   1      38.730  30.884  29.589  1.00  0.00     0.049 A 
ATOM     48  H   UNL A   1      40.680  30.348  30.097  1.00  0.00     0.167 HD
ATOM     49  C   UNL A   1      44.707  29.012  31.226  1.00  0.00     0.031 A 
ATOM     50  C   UNL A   1      38.523  32.125  30.069  1.00  0.00     0.031 A 
ATOM     51  C   UNL A   1      44.605  30.362  31.708  1.00  0.00     0.049 A 
ATOM     52  C   UNL A   1      39.642  32.824  30.792  1.00  0.00     0.074 A 
ATOM     53  C   UNL A   1      45.568  31.124  32.344  1.00  0.00     0.029 A 
ATOM     54  N   UNL A   1      43.472  31.155  31.596  1.00  0.00    -0.354 N 
ATOM     55  N   UNL A   1      40.845  32.381  31.067  1.00  0.00    -0.248 NA
ATOM     56  C   UNL A   1      39.378  34.193  31.255  1.00  0.00     0.031 C 
ATOM     57  C   UNL A   1      45.004  32.367  32.651  1.00  0.00     0.029 A 
ATOM     58  C   UNL A   1      43.706  32.394  32.165  1.00  0.00     0.049 A 
ATOM     59  H   UNL A   1      42.627  30.876  31.175  1.00  0.00     0.167 HD
ATOM     60  C   UNL A   1      41.492  33.426  31.718  1.00  0.00     0.074 A 
ATOM     61  C   UNL A   1      40.550  34.525  31.781  1.00  0.00     0.031 C 
ATOM     62  C   UNL A   1      42.752  33.472  32.218  1.00  0.00     0.031 A 
BRANCH  49  63
ATOM     63  C   UNL A   1      45.972  28.239  31.482  1.00  0.00    -0.014 A 
ATOM     64  C   UNL A   1      46.122  27.454  32.641  1.00  0.00     0.010 A 
ATOM     65  C   UNL A   1      47.027  28.297  30.555  1.00  0.00     0.010 A 
ATOM     66  C   UNL A   1      47.323  26.792  32.898  1.00  0.00     0.020 A 
ATOM     67  C   UNL A   1      48.222  27.610  30.793  1.00  0.00     0.020 A 
ATOM     68  C   UNL A   1      48.370  26.881  31.975  1.00  0.00     0.054 A 
BRANCH  68  69
ATOM     69  S   UNL A   1      49.922  26.012  32.332  1.00  0.00     0.124 S 
ATOM     70  O   UNL A   1      50.900  27.092  32.223  1.00  0.00    -0.237 OA
ATOM     71  O   UNL A   1      49.701  25.499  33.681  1.00  0.00    -0.237 OA
ATOM     72  O   UNL A   1      49.997  24.996  31.286  1.00  0.00    -0.744 OA
ENDBRANCH  68  69
ENDBRANCH  49  63
BRANCH  50  73
ATOM     73  C   UNL A   1      37.217  32.800  29.838  1.00  0.00    -0.014 A 
ATOM     74  C   UNL A   1      36.213  32.754  30.821  1.00  0.00     0.010 A 
ATOM     75  C   UNL A   1      36.981  33.519  28.652  1.00  0.00     0.010 A 
ATOM     76  C   UNL A   1      34.993  33.407  30.620  1.00  0.00     0.020 A 
ATOM     77  C   UNL A   1      35.771  34.192  28.457  1.00  0.00     0.020 A 
ATOM     78  C   UNL A   1      34.781  34.124  29.441  1.00  0.00     0.054 A 
BRANCH  78  79
ATOM     79  S   UNL A   1      33.216  35.021  29.231  1.00  0.00     0.124 S 
ATOM     80  O   UNL A   1      32.650  34.962  30.575  1.00  0.00    -0.237 OA
ATOM     81  O   UNL A   1      33.665  36.340  28.790  1.00  0.00    -0.237 OA
ATOM     82  O   UNL A   1      32.510  34.241  28.217  1.00  0.00    -0.744 OA
ENDBRANCH  78  79
ENDBRANCH  50  73
BRANCH  62  83
ATOM     83  C   UNL A   1      43.194  34.760  32.854  1.00  0.00    -0.014 A 
ATOM     84  C   UNL A   1      43.702  35.815  32.076  1.00  0.00     0.010 A 
ATOM     85  C   UNL A   1      43.041  34.937  34.241  1.00  0.00     0.010 A 
ATOM     86  C   UNL A   1      44.078  37.017  32.680  1.00  0.00     0.020 A 
ATOM     87  C   UNL A   1      43.393  36.147  34.844  1.00  0.00     0.020 A 
ATOM     88  C   UNL A   1      43.922  37.175  34.061  1.00  0.00     0.054 A 
BRANCH  88  89
ATOM     89  S   UNL A   1      44.373  38.760  34.816  1.00  0.00     0.124 S 
ATOM     90  O   UNL A   1      45.798  38.849  34.507  1.00  0.00    -0.237 OA
ATOM     91  O   UNL A   1      43.517  39.709  34.108  1.00  0.00    -0.237 OA
ATOM     92  O   UNL A   1      44.051  38.574  36.229  1.00  0.00    -0.744 OA
ENDBRANCH  88  89
ENDBRANCH  62  83
ENDBRANCH  36  37
ENDBRANCH  28  31
ENDBRANCH  26  27
ENDBRANCH  25  26
ENDBRANCH  24  25
ENDBRANCH   1  24
TORSDOF 19
ENDMDL
MODEL 2
REMARK VINA RESULT:     -10.0      4.331     11.726
REMARK SMILES CC(C)Cc1noc(C[NH+]2CCC(CC(=O)NCCCCNC(=O)c3ccc(-c4c5nc(c(-c6ccc(S(=O)(=O)[O-])cc6)c6ccc([nH]6)c(-c6ccc(S(=O)(=O)[O-])cc6)c6nc(c(-c7ccc(S(=O)(=O)[O-])cc7)c7ccc4[nH]7)C=C6)C=C5)cc3)CC2)n1
REMARK SMILES IDX 18 1 17 2 15 3 16 4 14 6 13 7 10 8 11 9 86 10 12 12 85 13
REMARK SMILES IDX 9 14 8 15 5 16 6 17 87 18 7 19 4 20 2 21 1 22 3 23 19 24
REMARK SMILES IDX 20 25 21 26 22 27 23 28 24 30 25 31 26 32 84 33 27 34 83 35
REMARK SMILES IDX 28 36 29 37 30 38 77 39 31 40 82 41 76 42 78 43 32 44 81 45
REMARK SMILES IDX 75 46 74 47 33 49 63 50 44 51 62 52 45 53 48 54 61 55 79 56
REMARK SMILES IDX 46 57 47 58 60 60 80 61 49 62 34 63 35 64 43 65 36 66 42 67
REMARK SMILES IDX 37 68 38 69 39 70 40 71 41 72 64 73 65 74 73 75 66 76 72 77
REMARK SMILES IDX 67 78 68 79 69 80 70 81 71 82 50 83 51 84 59 85 52 86 58 87
REMARK SMILES IDX 53 88 54 89 55 90 56 91 57 92
REMARK H PARENT 17 5 10 11 22 29 78 48 48 59
REMARK Flexibility Score: inf
ROOT
ATOM      1  C   UNL A   1      37.083  33.212  31.191  1.00  0.00     0.116 C 
ENDROOT
BRANCH   1   2
ATOM      2  N   UNL A   1      38.099  34.009  31.862  1.00  0.00    -0.356 N 
ATOM      3  C   UNL A   1      38.745  33.827  33.052  1.00  0.00     0.220 C 
ATOM      4  O   UNL A   1      39.564  34.679  33.405  1.00  0.00    -0.275 OA
ATOM      5  H   UNL A   1      38.369  34.821  31.374  1.00  0.00     0.163 HD
BRANCH   3   6
ATOM      6  C   UNL A   1      38.461  32.619  33.941  1.00  0.00     0.104 C 
BRANCH   6   7
ATOM      7  C   UNL A   1      39.690  31.706  34.136  1.00  0.00     0.009 C 
ATOM      8  N   UNL A   1      40.704  29.377  35.633  1.00  0.00    -0.327 N 
ATOM      9  C   UNL A   1      41.147  30.720  36.009  1.00  0.00     0.262 C 
ATOM     10  C   UNL A   1      40.535  29.295  34.179  1.00  0.00     0.262 C 
ATOM     11  H   UNL A   1      39.789  29.186  36.042  1.00  0.00     0.348 HD
ATOM     12  C   UNL A   1      40.136  31.757  35.587  1.00  0.00     0.066 C 
ATOM     13  C   UNL A   1      39.417  30.252  33.723  1.00  0.00     0.066 C 
BRANCH   8  14
ATOM     14  C   UNL A   1      41.611  28.346  36.192  1.00  0.00     0.364 C 
BRANCH  14  15
ATOM     15  C   UNL A   1      42.514  27.672  35.210  1.00  0.00     0.281 A 
ATOM     16  C   UNL A   1      43.669  26.332  34.098  1.00  0.00     0.172 A 
ATOM     17  N   UNL A   1      44.355  27.480  34.001  1.00  0.00    -0.062 NA
ATOM     18  N   UNL A   1      42.504  26.416  34.811  1.00  0.00    -0.191 NA
ATOM     19  O   UNL A   1      43.588  28.376  34.753  1.00  0.00    -0.333 OA
BRANCH  16  20
ATOM     20  C   UNL A   1      44.132  25.057  33.489  1.00  0.00     0.084 C 
BRANCH  20  21
ATOM     21  C   UNL A   1      44.520  23.980  34.521  1.00  0.00    -0.010 C 
ATOM     22  C   UNL A   1      45.010  22.689  33.859  1.00  0.00     0.008 C 
ATOM     23  C   UNL A   1      45.608  24.520  35.453  1.00  0.00     0.008 C 
ENDBRANCH  20  21
ENDBRANCH  16  20
ENDBRANCH  14  15
ENDBRANCH   8  14
ENDBRANCH   6   7
ENDBRANCH   3   6
ENDBRANCH   1   2
BRANCH   1  24
ATOM     24  C   UNL A   1      35.681  33.823  31.331  1.00  0.00     0.023 C 
BRANCH  24  25
ATOM     25  C   UNL A   1      34.796  33.753  30.100  1.00  0.00     0.023 C 
BRANCH  25  26
ATOM     26  C   UNL A   1      35.380  32.951  28.958  1.00  0.00     0.116 C 
BRANCH  26  27
ATOM     27  N   UNL A   1      34.414  32.082  28.294  1.00  0.00    -0.352 N 
ATOM     28  C   UNL A   1      34.579  30.781  27.873  1.00  0.00     0.251 C 
ATOM     29  H   UNL A   1      33.528  32.479  28.125  1.00  0.00     0.163 HD
ATOM     30  O   UNL A   1      33.696  30.208  27.251  1.00  0.00    -0.269 OA
BRANCH  28  31
ATOM     31  C   UNL A   1      35.869  30.114  28.147  1.00  0.00     0.039 A 
ATOM     32  C   UNL A   1      36.872  30.149  27.177  1.00  0.00     0.014 A 
ATOM     33  C   UNL A   1      36.114  29.560  29.405  1.00  0.00     0.014 A 
ATOM     34  C   UNL A   1      38.154  29.708  27.506  1.00  0.00     0.010 A 
ATOM     35  C   UNL A   1      37.412  29.234  29.764  1.00  0.00     0.010 A 
ATOM     36  C   UNL A   1      38.446  29.296  28.818  1.00  0.00    -0.014 A 
BRANCH  36  37
ATOM     37  C   UNL A   1      39.817  28.905  29.227  1.00  0.00     0.031 A 
ATOM     38  C   UNL A   1      40.681  29.890  29.965  1.00  0.00     0.074 A 
ATOM     39  C   UNL A   1      40.312  27.705  28.861  1.00  0.00     0.049 A 
ATOM     40  N   UNL A   1      41.929  29.777  30.338  1.00  0.00    -0.248 NA
ATOM     41  C   UNL A   1      40.074  31.193  30.292  1.00  0.00     0.031 C 
ATOM     42  C   UNL A   1      39.596  26.688  28.086  1.00  0.00     0.029 A 
ATOM     43  N   UNL A   1      41.540  27.140  29.091  1.00  0.00    -0.354 N 
ATOM     44  C   UNL A   1      42.262  30.999  30.909  1.00  0.00     0.074 A 
ATOM     45  C   UNL A   1      41.108  31.859  30.779  1.00  0.00     0.031 C 
ATOM     46  C   UNL A   1      40.383  25.609  27.940  1.00  0.00     0.029 A 
ATOM     47  C   UNL A   1      41.669  25.870  28.577  1.00  0.00     0.049 A 
ATOM     48  H   UNL A   1      42.262  27.600  29.577  1.00  0.00     0.167 HD
ATOM     49  C   UNL A   1      43.416  31.367  31.515  1.00  0.00     0.031 A 
ATOM     50  C   UNL A   1      42.707  25.012  28.619  1.00  0.00     0.031 A 
ATOM     51  C   UNL A   1      44.546  30.495  31.676  1.00  0.00     0.049 A 
ATOM     52  C   UNL A   1      43.966  25.426  29.331  1.00  0.00     0.074 A 
ATOM     53  C   UNL A   1      45.734  30.740  32.340  1.00  0.00     0.029 A 
ATOM     54  N   UNL A   1      44.624  29.205  31.173  1.00  0.00    -0.354 N 
ATOM     55  N   UNL A   1      44.238  26.562  29.927  1.00  0.00    -0.248 NA
ATOM     56  C   UNL A   1      45.051  24.437  29.385  1.00  0.00     0.031 C 
ATOM     57  C   UNL A   1      46.547  29.608  32.205  1.00  0.00     0.029 A 
ATOM     58  C   UNL A   1      45.845  28.644  31.498  1.00  0.00     0.049 A 
ATOM     59  H   UNL A   1      43.914  28.755  30.660  1.00  0.00     0.167 HD
ATOM     60  C   UNL A   1      45.519  26.417  30.448  1.00  0.00     0.074 A 
ATOM     61  C   UNL A   1      45.959  25.079  30.108  1.00  0.00     0.031 C 
ATOM     62  C   UNL A   1      46.263  27.311  31.146  1.00  0.00     0.031 A 
BRANCH  49  63
ATOM     63  C   UNL A   1      43.495  32.772  32.047  1.00  0.00    -0.014 A 
ATOM     64  C   UNL A   1      43.003  33.093  33.326  1.00  0.00     0.010 A 
ATOM     65  C   UNL A   1      44.066  33.787  31.260  1.00  0.00     0.010 A 
ATOM     66  C   UNL A   1      43.024  34.411  33.784  1.00  0.00     0.020 A 
ATOM     67  C   UNL A   1      44.118  35.105  31.727  1.00  0.00     0.020 A 
ATOM     68  C   UNL A   1      43.575  35.412  32.977  1.00  0.00     0.054 A 
BRANCH  68  69
ATOM     69  S   UNL A   1      43.591  37.118  33.592  1.00  0.00     0.124 S 
ATOM     70  O   UNL A   1      44.864  37.166  34.306  1.00  0.00    -0.237 OA
ATOM     71  O   UNL A   1      43.531  37.904  32.363  1.00  0.00    -0.237 OA
ATOM     72  O   UNL A   1      42.401  37.192  34.435  1.00  0.00    -0.744 OA
ENDBRANCH  68  69
ENDBRANCH  49  63
BRANCH  50  73
ATOM     73  C   UNL A   1      42.578  23.662  28.007  1.00  0.00    -0.014 A 
ATOM     74  C   UNL A   1      41.869  22.648  28.674  1.00  0.00     0.010 A 
ATOM     75  C   UNL A   1      43.132  23.391  26.743  1.00  0.00     0.010 A 
ATOM     76  C   UNL A   1      41.723  21.384  28.093  1.00  0.00     0.020 A 
ATOM     77  C   UNL A   1      42.969  22.137  26.149  1.00  0.00     0.020 A 
ATOM     78  C   UNL A   1      42.271  21.138  26.832  1.00  0.00     0.054 A 
BRANCH  78  79
ATOM     79  S   UNL A   1      42.011  19.512  26.067  1.00  0.00     0.124 S 
ATOM     80  O   UNL A   1      42.498  18.607  27.103  1.00  0.00    -0.237 OA
ATOM     81  O   UNL A   1      40.568  19.498  25.841  1.00  0.00    -0.237 OA
ATOM     82  O   UNL A   1      42.823  19.573  24.854  1.00  0.00    -0.744 OA
ENDBRANCH  78  79
ENDBRANCH  50  73
BRANCH  62  83
ATOM     83  C   UNL A   1      47.620  26.862  31.611  1.00  0.00    -0.014 A 
ATOM     84  C   UNL A   1      47.792  26.260  32.870  1.00  0.00     0.010 A 
ATOM     85  C   UNL A   1      48.726  26.992  30.751  1.00  0.00     0.010 A 
ATOM     86  C   UNL A   1      49.055  25.820  33.272  1.00  0.00     0.020 A 
ATOM     87  C   UNL A   1      49.985  26.530  31.141  1.00  0.00     0.020 A 
ATOM     88  C   UNL A   1      50.145  25.959  32.406  1.00  0.00     0.054 A 
BRANCH  88  89
ATOM     89  S   UNL A   1      51.765  25.338  32.930  1.00  0.00     0.124 S 
ATOM     90  O   UNL A   1      51.866  24.086  32.184  1.00  0.00    -0.237 OA
ATOM     91  O   UNL A   1      52.672  26.399  32.502  1.00  0.00    -0.237 OA
ATOM     92  O   UNL A   1      51.626  25.191  34.377  1.00  0.00    -0.744 OA
ENDBRANCH  88  89
ENDBRANCH  62  83
ENDBRANCH  36  37
ENDBRANCH  28  31
ENDBRANCH  26  27
ENDBRANCH  25  26
ENDBRANCH  24  25
ENDBRANCH   1  24
TORSDOF 19
ENDMDL
MODEL 3
REMARK VINA RESULT:      -9.8      4.033      5.268
REMARK SMILES CC(C)Cc1noc(C[NH+]2CCC(CC(=O)NCCCCNC(=O)c3ccc(-c4c5nc(c(-c6ccc(S(=O)(=O)[O-])cc6)c6ccc([nH]6)c(-c6ccc(S(=O)(=O)[O-])cc6)c6nc(c(-c7ccc(S(=O)(=O)[O-])cc7)c7ccc4[nH]7)C=C6)C=C5)cc3)CC2)n1
REMARK SMILES IDX 18 1 17 2 15 3 16 4 14 6 13 7 10 8 11 9 86 10 12 12 85 13
REMARK SMILES IDX 9 14 8 15 5 16 6 17 87 18 7 19 4 20 2 21 1 22 3 23 19 24
REMARK SMILES IDX 20 25 21 26 22 27 23 28 24 30 25 31 26 32 84 33 27 34 83 35
REMARK SMILES IDX 28 36 29 37 30 38 77 39 31 40 82 41 76 42 78 43 32 44 81 45
REMARK SMILES IDX 75 46 74 47 33 49 63 50 44 51 62 52 45 53 48 54 61 55 79 56
REMARK SMILES IDX 46 57 47 58 60 60 80 61 49 62 34 63 35 64 43 65 36 66 42 67
REMARK SMILES IDX 37 68 38 69 39 70 40 71 41 72 64 73 65 74 73 75 66 76 72 77
REMARK SMILES IDX 67 78 68 79 69 80 70 81 71 82 50 83 51 84 59 85 52 86 58 87
REMARK SMILES IDX 53 88 54 89 55 90 56 91 57 92
REMARK H PARENT 17 5 10 11 22 29 78 48 48 59
REMARK Flexibility Score: inf
ROOT
ATOM      1  C   UNL A   1      35.590  20.953  24.857  1.00  0.00     0.116 C 
ENDROOT
BRANCH   1   2
ATOM      2  N   UNL A   1      34.542  20.054  25.316  1.00  0.00    -0.356 N 
ATOM      3  C   UNL A   1      33.192  20.064  25.106  1.00  0.00     0.220 C 
ATOM      4  O   UNL A   1      32.515  19.180  25.637  1.00  0.00    -0.275 OA
ATOM      5  H   UNL A   1      34.860  19.309  25.875  1.00  0.00     0.163 HD
BRANCH   3   6
ATOM      6  C   UNL A   1      32.522  21.142  24.257  1.00  0.00     0.104 C 
BRANCH   6   7
ATOM      7  C   UNL A   1      32.420  22.505  24.975  1.00  0.00     0.009 C 
ATOM      8  N   UNL A   1      32.029  25.394  24.539  1.00  0.00    -0.327 N 
ATOM      9  C   UNL A   1      33.369  24.890  24.838  1.00  0.00     0.262 C 
ATOM     10  C   UNL A   1      31.027  24.624  25.281  1.00  0.00     0.262 C 
ATOM     11  H   UNL A   1      31.822  25.262  23.549  1.00  0.00     0.348 HD
ATOM     12  C   UNL A   1      33.496  23.438  24.447  1.00  0.00     0.066 C 
ATOM     13  C   UNL A   1      31.039  23.155  24.815  1.00  0.00     0.066 C 
BRANCH   8  14
ATOM     14  C   UNL A   1      31.953  26.857  24.766  1.00  0.00     0.364 C 
BRANCH  14  15
ATOM     15  C   UNL A   1      30.971  27.598  23.917  1.00  0.00     0.281 A 
ATOM     16  C   UNL A   1      29.279  28.473  23.058  1.00  0.00     0.172 A 
ATOM     17  N   UNL A   1      30.056  28.206  21.999  1.00  0.00    -0.062 NA
ATOM     18  N   UNL A   1      29.824  28.142  24.269  1.00  0.00    -0.191 NA
ATOM     19  O   UNL A   1      31.186  27.612  22.570  1.00  0.00    -0.333 OA
BRANCH  16  20
ATOM     20  C   UNL A   1      27.924  29.074  22.940  1.00  0.00     0.084 C 
BRANCH  20  21
ATOM     21  C   UNL A   1      27.927  30.615  22.921  1.00  0.00    -0.010 C 
ATOM     22  C   UNL A   1      29.069  31.206  23.753  1.00  0.00     0.008 C 
ATOM     23  C   UNL A   1      28.035  31.116  21.478  1.00  0.00     0.008 C 
ENDBRANCH  20  21
ENDBRANCH  16  20
ENDBRANCH  14  15
ENDBRANCH   8  14
ENDBRANCH   6   7
ENDBRANCH   3   6
ENDBRANCH   1   2
BRANCH   1  24
ATOM     24  C   UNL A   1      36.993  20.424  25.187  1.00  0.00     0.023 C 
BRANCH  24  25
ATOM     25  C   UNL A   1      38.133  21.417  25.040  1.00  0.00     0.023 C 
BRANCH  25  26
ATOM     26  C   UNL A   1      39.188  21.318  26.119  1.00  0.00     0.116 C 
BRANCH  26  27
ATOM     27  N   UNL A   1      40.001  20.110  26.038  1.00  0.00    -0.352 N 
ATOM     28  C   UNL A   1      41.371  19.991  26.131  1.00  0.00     0.251 C 
ATOM     29  H   UNL A   1      39.506  19.269  25.899  1.00  0.00     0.163 HD
ATOM     30  O   UNL A   1      41.918  18.911  25.958  1.00  0.00    -0.269 OA
BRANCH  28  31
ATOM     31  C   UNL A   1      42.164  21.209  26.394  1.00  0.00     0.039 A 
ATOM     32  C   UNL A   1      42.575  21.999  25.319  1.00  0.00     0.014 A 
ATOM     33  C   UNL A   1      42.395  21.621  27.709  1.00  0.00     0.014 A 
ATOM     34  C   UNL A   1      43.138  23.251  25.569  1.00  0.00     0.010 A 
ATOM     35  C   UNL A   1      42.844  22.910  27.950  1.00  0.00     0.010 A 
ATOM     36  C   UNL A   1      43.228  23.737  26.884  1.00  0.00    -0.014 A 
BRANCH  36  37
ATOM     37  C   UNL A   1      43.740  25.097  27.181  1.00  0.00     0.031 A 
ATOM     38  C   UNL A   1      45.191  25.412  26.942  1.00  0.00     0.074 A 
ATOM     39  C   UNL A   1      42.927  26.015  27.742  1.00  0.00     0.049 A 
ATOM     40  N   UNL A   1      45.853  26.507  27.211  1.00  0.00    -0.248 NA
ATOM     41  C   UNL A   1      46.018  24.340  26.361  1.00  0.00     0.031 C 
ATOM     42  C   UNL A   1      41.516  25.809  28.084  1.00  0.00     0.029 A 
ATOM     43  N   UNL A   1      43.174  27.307  28.128  1.00  0.00    -0.354 N 
ATOM     44  C   UNL A   1      47.173  26.242  26.864  1.00  0.00     0.074 A 
ATOM     45  C   UNL A   1      47.230  24.867  26.425  1.00  0.00     0.031 C 
ATOM     46  C   UNL A   1      41.015  26.947  28.591  1.00  0.00     0.029 A 
ATOM     47  C   UNL A   1      42.072  27.950  28.645  1.00  0.00     0.049 A 
ATOM     48  H   UNL A   1      44.057  27.735  28.044  1.00  0.00     0.167 HD
ATOM     49  C   UNL A   1      48.239  27.077  26.882  1.00  0.00     0.031 A 
ATOM     50  C   UNL A   1      41.932  29.208  29.106  1.00  0.00     0.031 A 
ATOM     51  C   UNL A   1      48.168  28.455  27.283  1.00  0.00     0.049 A 
ATOM     52  C   UNL A   1      43.120  30.131  29.081  1.00  0.00     0.074 A 
ATOM     53  C   UNL A   1      49.170  29.408  27.266  1.00  0.00     0.029 A 
ATOM     54  N   UNL A   1      47.027  29.077  27.765  1.00  0.00    -0.354 N 
ATOM     55  N   UNL A   1      44.344  29.883  28.683  1.00  0.00    -0.248 NA
ATOM     56  C   UNL A   1      42.901  31.504  29.554  1.00  0.00     0.031 C 
ATOM     57  C   UNL A   1      48.641  30.600  27.776  1.00  0.00     0.029 A 
ATOM     58  C   UNL A   1      47.300  30.399  28.065  1.00  0.00     0.049 A 
ATOM     59  H   UNL A   1      46.151  28.641  27.879  1.00  0.00     0.167 HD
ATOM     60  C   UNL A   1      45.040  31.077  28.838  1.00  0.00     0.074 A 
ATOM     61  C   UNL A   1      44.094  32.047  29.351  1.00  0.00     0.031 C 
ATOM     62  C   UNL A   1      46.343  31.346  28.577  1.00  0.00     0.031 A 
BRANCH  49  63
ATOM     63  C   UNL A   1      49.563  26.509  26.448  1.00  0.00    -0.014 A 
ATOM     64  C   UNL A   1      50.400  25.839  27.361  1.00  0.00     0.010 A 
ATOM     65  C   UNL A   1      49.981  26.649  25.113  1.00  0.00     0.010 A 
ATOM     66  C   UNL A   1      51.653  25.372  26.962  1.00  0.00     0.020 A 
ATOM     67  C   UNL A   1      51.224  26.155  24.702  1.00  0.00     0.020 A 
ATOM     68  C   UNL A   1      52.061  25.540  25.636  1.00  0.00     0.054 A 
BRANCH  68  69
ATOM     69  S   UNL A   1      53.695  24.927  25.142  1.00  0.00     0.124 S 
ATOM     70  O   UNL A   1      54.526  25.352  26.265  1.00  0.00    -0.237 OA
ATOM     71  O   UNL A   1      53.478  23.486  25.031  1.00  0.00    -0.237 OA
ATOM     72  O   UNL A   1      53.955  25.613  23.879  1.00  0.00    -0.744 OA
ENDBRANCH  68  69
ENDBRANCH  49  63
BRANCH  50  73
ATOM     73  C   UNL A   1      40.604  29.677  29.586  1.00  0.00    -0.014 A 
ATOM     74  C   UNL A   1      40.361  29.825  30.964  1.00  0.00     0.010 A 
ATOM     75  C   UNL A   1      39.587  30.009  28.674  1.00  0.00     0.010 A 
ATOM     76  C   UNL A   1      39.124  30.288  31.420  1.00  0.00     0.020 A 
ATOM     77  C   UNL A   1      38.356  30.495  29.125  1.00  0.00     0.020 A 
ATOM     78  C   UNL A   1      38.130  30.623  30.498  1.00  0.00     0.054 A 
BRANCH  78  79
ATOM     79  S   UNL A   1      36.555  31.288  31.110  1.00  0.00     0.124 S 
ATOM     80  O   UNL A   1      35.805  30.071  31.403  1.00  0.00    -0.237 OA
ATOM     81  O   UNL A   1      36.973  32.070  32.271  1.00  0.00    -0.237 OA
ATOM     82  O   UNL A   1      36.059  32.077  29.985  1.00  0.00    -0.744 OA
ENDBRANCH  78  79
ENDBRANCH  50  73
BRANCH  62  83
ATOM     83  C   UNL A   1      46.817  32.752  28.818  1.00  0.00    -0.014 A 
ATOM     84  C   UNL A   1      47.326  33.141  30.069  1.00  0.00     0.010 A 
ATOM     85  C   UNL A   1      46.807  33.678  27.759  1.00  0.00     0.010 A 
ATOM     86  C   UNL A   1      47.792  34.443  30.266  1.00  0.00     0.020 A 
ATOM     87  C   UNL A   1      47.295  34.974  27.946  1.00  0.00     0.020 A 
ATOM     88  C   UNL A   1      47.772  35.352  29.203  1.00  0.00     0.054 A 
BRANCH  88  89
ATOM     89  S   UNL A   1      48.425  37.022  29.468  1.00  0.00     0.124 S 
ATOM     90  O   UNL A   1      49.545  37.063  28.530  1.00  0.00    -0.237 OA
ATOM     91  O   UNL A   1      47.288  37.872  29.125  1.00  0.00    -0.237 OA
ATOM     92  O   UNL A   1      48.795  37.028  30.881  1.00  0.00    -0.744 OA
ENDBRANCH  88  89
ENDBRANCH  62  83
ENDBRANCH  36  37
ENDBRANCH  28  31
ENDBRANCH  26  27
ENDBRANCH  25  26
ENDBRANCH  24  25
ENDBRANCH   1  24
TORSDOF 19
ENDMDL
