MODEL 1
REMARK VINA RESULT:     -12.4      0.000      0.000
REMARK SMILES Cc1cccc2c1[C@H]1c3c(C)cccc3[C@H](CC(=O)NCCCCNC(=O)c3ccc(-c4c5nc(c(-c6ccc(S(=O)(=O)[O-])cc6)c6ccc([nH]6)c(-c6ccc(S(=O)(=O)[O-])cc6)c6nc(c(-c7ccc(S(=O)(=O)[O-])cc7)c7ccc4[nH]7)C=C6)C=C5)cc3)C[C@H]1CC2
REMARK SMILES IDX 23 1 22 2 21 3 20 4 18 5 19 6 17 8 16 9 1 10 2 11 3 12 7 13
REMARK SMILES IDX 4 14 6 15 8 16 5 17 91 18 9 19 89 20 90 21 10 22 15 23 88 24
REMARK SMILES IDX 12 25 11 26 14 27 13 28 24 29 25 30 26 31 27 33 28 34 29 35
REMARK SMILES IDX 87 36 30 37 86 38 31 39 32 40 33 41 80 42 34 43 85 44 79 45
REMARK SMILES IDX 81 46 35 47 84 48 78 49 77 50 36 52 66 53 47 54 65 55 48 56
REMARK SMILES IDX 51 57 64 58 82 59 49 60 50 61 63 63 83 64 52 65 37 66 38 67
REMARK SMILES IDX 46 68 39 69 45 70 40 71 41 72 42 73 43 74 44 75 67 76 68 77
REMARK SMILES IDX 76 78 69 79 75 80 70 81 71 82 72 83 73 84 74 85 53 86 54 87
REMARK SMILES IDX 62 88 55 89 61 90 56 91 57 92 58 93 59 94 60 95
REMARK H PARENT 20 7 25 32 81 51 51 62
REMARK Flexibility Score: inf
ROOT
ATOM      1  C   UNL A   1      33.886  28.415  25.657  1.00  0.00     0.023 C 
ENDROOT
BRANCH   1   2
ATOM      2  C   UNL A   1      33.230  29.448  24.756  1.00  0.00     0.023 C 
BRANCH   2   3
ATOM      3  C   UNL A   1      33.350  29.156  23.260  1.00  0.00     0.116 C 
BRANCH   3   4
ATOM      4  N   UNL A   1      32.037  28.975  22.671  1.00  0.00    -0.356 N 
ATOM      5  C   UNL A   1      31.383  27.870  22.233  1.00  0.00     0.220 C 
ATOM      6  O   UNL A   1      30.208  27.997  21.882  1.00  0.00    -0.275 OA
ATOM      7  H   UNL A   1      31.525  29.809  22.571  1.00  0.00     0.163 HD
BRANCH   5   8
ATOM      8  C   UNL A   1      32.038  26.508  22.245  1.00  0.00     0.108 C 
BRANCH   8   9
ATOM      9  C   UNL A   1      32.763  26.067  23.536  1.00  0.00     0.029 C 
ATOM     10  C   UNL A   1      31.887  20.634  23.041  1.00  0.00     0.044 C 
ATOM     11  C   UNL A   1      33.175  20.639  23.821  1.00  0.00    -0.047 A 
ATOM     12  C   UNL A   1      33.731  19.370  24.085  1.00  0.00     0.004 A 
ATOM     13  C   UNL A   1      33.856  21.813  24.245  1.00  0.00    -0.034 A 
ATOM     14  C   UNL A   1      34.943  19.234  24.747  1.00  0.00     0.001 A 
ATOM     15  C   UNL A   1      35.118  21.652  24.880  1.00  0.00    -0.044 A 
ATOM     16  C   UNL A   1      33.321  23.227  23.960  1.00  0.00     0.053 C 
ATOM     17  C   UNL A   1      35.637  20.369  25.132  1.00  0.00     0.004 A 
ATOM     18  C   UNL A   1      36.037  22.809  25.188  1.00  0.00     0.036 C 
ATOM     19  C   UNL A   1      32.261  23.894  24.855  1.00  0.00    -0.034 A 
ATOM     20  C   UNL A   1      34.535  24.162  23.725  1.00  0.00     0.002 C 
ATOM     21  C   UNL A   1      35.417  24.180  24.979  1.00  0.00     0.009 C 
ATOM     22  C   UNL A   1      31.472  23.260  25.851  1.00  0.00    -0.047 A 
ATOM     23  C   UNL A   1      31.962  25.256  24.541  1.00  0.00    -0.040 A 
ATOM     24  C   UNL A   1      34.192  25.582  23.281  1.00  0.00     0.013 C 
ATOM     25  C   UNL A   1      30.406  23.966  26.454  1.00  0.00     0.004 A 
ATOM     26  C   UNL A   1      31.621  21.837  26.317  1.00  0.00     0.044 C 
ATOM     27  C   UNL A   1      30.896  25.923  25.175  1.00  0.00     0.004 A 
ATOM     28  C   UNL A   1      30.116  25.279  26.119  1.00  0.00     0.001 A 
ENDBRANCH   8   9
ENDBRANCH   5   8
ENDBRANCH   3   4
ENDBRANCH   2   3
ENDBRANCH   1   2
BRANCH   1  29
ATOM     29  C   UNL A   1      33.425  28.528  27.108  1.00  0.00     0.116 C 
BRANCH  29  30
ATOM     30  N   UNL A   1      33.416  29.885  27.635  1.00  0.00    -0.352 N 
ATOM     31  C   UNL A   1      34.412  30.670  28.182  1.00  0.00     0.251 C 
ATOM     32  H   UNL A   1      32.537  30.326  27.594  1.00  0.00     0.163 HD
ATOM     33  O   UNL A   1      34.143  31.804  28.547  1.00  0.00    -0.269 OA
BRANCH  31  34
ATOM     34  C   UNL A   1      35.783  30.135  28.386  1.00  0.00     0.039 A 
ATOM     35  C   UNL A   1      36.701  30.217  27.332  1.00  0.00     0.014 A 
ATOM     36  C   UNL A   1      36.184  29.570  29.594  1.00  0.00     0.014 A 
ATOM     37  C   UNL A   1      38.026  29.802  27.519  1.00  0.00     0.010 A 
ATOM     38  C   UNL A   1      37.523  29.275  29.818  1.00  0.00     0.010 A 
ATOM     39  C   UNL A   1      38.461  29.369  28.780  1.00  0.00    -0.014 A 
BRANCH  39  40
ATOM     40  C   UNL A   1      39.863  28.958  29.055  1.00  0.00     0.031 A 
ATOM     41  C   UNL A   1      40.826  29.959  29.647  1.00  0.00     0.074 A 
ATOM     42  C   UNL A   1      40.305  27.740  28.682  1.00  0.00     0.049 A 
ATOM     43  N   UNL A   1      42.126  29.886  29.761  1.00  0.00    -0.248 NA
ATOM     44  C   UNL A   1      40.254  31.232  30.123  1.00  0.00     0.031 C 
ATOM     45  C   UNL A   1      39.495  26.690  28.060  1.00  0.00     0.029 A 
ATOM     46  N   UNL A   1      41.558  27.183  28.764  1.00  0.00    -0.354 N 
ATOM     47  C   UNL A   1      42.529  31.118  30.266  1.00  0.00     0.074 A 
ATOM     48  C   UNL A   1      41.344  31.935  30.394  1.00  0.00     0.031 C 
ATOM     49  C   UNL A   1      40.260  25.606  27.854  1.00  0.00     0.029 A 
ATOM     50  C   UNL A   1      41.624  25.897  28.282  1.00  0.00     0.049 A 
ATOM     51  H   UNL A   1      42.337  27.660  29.133  1.00  0.00     0.167 HD
ATOM     52  C   UNL A   1      43.770  31.527  30.617  1.00  0.00     0.031 A 
ATOM     53  C   UNL A   1      42.667  25.048  28.191  1.00  0.00     0.031 A 
ATOM     54  C   UNL A   1      44.932  30.685  30.578  1.00  0.00     0.049 A 
ATOM     55  C   UNL A   1      44.024  25.497  28.651  1.00  0.00     0.074 A 
ATOM     56  C   UNL A   1      46.219  30.977  30.990  1.00  0.00     0.029 A 
ATOM     57  N   UNL A   1      44.938  29.373  30.132  1.00  0.00    -0.354 N 
ATOM     58  N   UNL A   1      44.383  26.665  29.128  1.00  0.00    -0.248 NA
ATOM     59  C   UNL A   1      45.118  24.518  28.565  1.00  0.00     0.031 C 
ATOM     60  C   UNL A   1      47.010  29.843  30.780  1.00  0.00     0.029 A 
ATOM     61  C   UNL A   1      46.206  28.838  30.266  1.00  0.00     0.049 A 
ATOM     62  H   UNL A   1      44.157  28.893  29.774  1.00  0.00     0.167 HD
ATOM     63  C   UNL A   1      45.738  26.555  29.417  1.00  0.00     0.074 A 
ATOM     64  C   UNL A   1      46.135  25.207  29.067  1.00  0.00     0.031 C 
ATOM     65  C   UNL A   1      46.575  27.490  29.925  1.00  0.00     0.031 A 
BRANCH  52  66
ATOM     66  C   UNL A   1      43.930  32.937  31.115  1.00  0.00    -0.014 A 
ATOM     67  C   UNL A   1      44.178  33.991  30.218  1.00  0.00     0.010 A 
ATOM     68  C   UNL A   1      43.775  33.220  32.484  1.00  0.00     0.010 A 
ATOM     69  C   UNL A   1      44.299  35.302  30.686  1.00  0.00     0.020 A 
ATOM     70  C   UNL A   1      43.871  34.534  32.953  1.00  0.00     0.020 A 
ATOM     71  C   UNL A   1      44.141  35.565  32.050  1.00  0.00     0.054 A 
BRANCH  71  72
ATOM     72  S   UNL A   1      44.276  37.283  32.615  1.00  0.00     0.124 S 
ATOM     73  O   UNL A   1      43.244  37.345  33.648  1.00  0.00    -0.237 OA
ATOM     74  O   UNL A   1      45.652  37.347  33.098  1.00  0.00    -0.237 OA
ATOM     75  O   UNL A   1      43.999  38.069  31.415  1.00  0.00    -0.744 OA
ENDBRANCH  71  72
ENDBRANCH  52  66
BRANCH  53  76
ATOM     76  C   UNL A   1      42.450  23.669  27.676  1.00  0.00    -0.014 A 
ATOM     77  C   UNL A   1      42.586  23.406  26.301  1.00  0.00     0.010 A 
ATOM     78  C   UNL A   1      42.155  22.610  28.551  1.00  0.00     0.010 A 
ATOM     79  C   UNL A   1      42.432  22.108  25.811  1.00  0.00     0.020 A 
ATOM     80  C   UNL A   1      42.017  21.305  28.066  1.00  0.00     0.020 A 
ATOM     81  C   UNL A   1      42.158  21.063  26.698  1.00  0.00     0.054 A 
BRANCH  81  82
ATOM     82  S   UNL A   1      42.022  19.378  26.035  1.00  0.00     0.124 S 
ATOM     83  O   UNL A   1      42.524  18.571  27.143  1.00  0.00    -0.237 OA
ATOM     84  O   UNL A   1      40.590  19.268  25.769  1.00  0.00    -0.237 OA
ATOM     85  O   UNL A   1      42.872  19.407  24.847  1.00  0.00    -0.744 OA
ENDBRANCH  81  82
ENDBRANCH  53  76
BRANCH  65  86
ATOM     86  C   UNL A   1      48.004  27.097  30.167  1.00  0.00    -0.014 A 
ATOM     87  C   UNL A   1      48.997  27.388  29.217  1.00  0.00     0.010 A 
ATOM     88  C   UNL A   1      48.371  26.552  31.410  1.00  0.00     0.010 A 
ATOM     89  C   UNL A   1      50.340  27.145  29.512  1.00  0.00     0.020 A 
ATOM     90  C   UNL A   1      49.714  26.323  31.714  1.00  0.00     0.020 A 
ATOM     91  C   UNL A   1      50.691  26.626  30.764  1.00  0.00     0.054 A 
BRANCH  91  92
ATOM     92  S   UNL A   1      52.450  26.400  31.143  1.00  0.00     0.124 S 
ATOM     93  O   UNL A   1      52.436  25.185  31.952  1.00  0.00    -0.237 OA
ATOM     94  O   UNL A   1      53.041  26.264  29.815  1.00  0.00    -0.237 OA
ATOM     95  O   UNL A   1      52.812  27.619  31.862  1.00  0.00    -0.744 OA
ENDBRANCH  91  92
ENDBRANCH  65  86
ENDBRANCH  39  40
ENDBRANCH  31  34
ENDBRANCH  29  30
ENDBRANCH   1  29
TORSDOF 15
ENDMDL
MODEL 2
REMARK VINA RESULT:     -12.4      1.316      2.580
REMARK SMILES Cc1cccc2c1[C@H]1c3c(C)cccc3[C@H](CC(=O)NCCCCNC(=O)c3ccc(-c4c5nc(c(-c6ccc(S(=O)(=O)[O-])cc6)c6ccc([nH]6)c(-c6ccc(S(=O)(=O)[O-])cc6)c6nc(c(-c7ccc(S(=O)(=O)[O-])cc7)c7ccc4[nH]7)C=C6)C=C5)cc3)C[C@H]1CC2
REMARK SMILES IDX 23 1 22 2 21 3 20 4 18 5 19 6 17 8 16 9 1 10 2 11 3 12 7 13
REMARK SMILES IDX 4 14 6 15 8 16 5 17 91 18 9 19 89 20 90 21 10 22 15 23 88 24
REMARK SMILES IDX 12 25 11 26 14 27 13 28 24 29 25 30 26 31 27 33 28 34 29 35
REMARK SMILES IDX 87 36 30 37 86 38 31 39 32 40 33 41 80 42 34 43 85 44 79 45
REMARK SMILES IDX 81 46 35 47 84 48 78 49 77 50 36 52 66 53 47 54 65 55 48 56
REMARK SMILES IDX 51 57 64 58 82 59 49 60 50 61 63 63 83 64 52 65 37 66 38 67
REMARK SMILES IDX 46 68 39 69 45 70 40 71 41 72 42 73 43 74 44 75 67 76 68 77
REMARK SMILES IDX 76 78 69 79 75 80 70 81 71 82 72 83 73 84 74 85 53 86 54 87
REMARK SMILES IDX 62 88 55 89 61 90 56 91 57 92 58 93 59 94 60 95
REMARK H PARENT 20 7 25 32 81 51 51 62
REMARK Flexibility Score: inf
ROOT
ATOM      1  C   UNL A   1      33.187  27.404  25.356  1.00  0.00     0.023 C 
ENDROOT
BRANCH   1   2
ATOM      2  C   UNL A   1      31.710  27.327  25.704  1.00  0.00     0.023 C 
BRANCH   2   3
ATOM      3  C   UNL A   1      31.113  25.920  25.639  1.00  0.00     0.116 C 
BRANCH   3   4
ATOM      4  N   UNL A   1      31.616  25.105  26.728  1.00  0.00    -0.356 N 
ATOM      5  C   UNL A   1      31.517  23.777  26.990  1.00  0.00     0.220 C 
ATOM      6  O   UNL A   1      32.155  23.328  27.944  1.00  0.00    -0.275 OA
ATOM      7  H   UNL A   1      32.124  25.608  27.404  1.00  0.00     0.163 HD
BRANCH   5   8
ATOM      8  C   UNL A   1      30.717  22.855  26.099  1.00  0.00     0.108 C 
BRANCH   8   9
ATOM      9  C   UNL A   1      31.488  21.995  25.072  1.00  0.00     0.029 C 
ATOM     10  C   UNL A   1      36.556  23.883  26.204  1.00  0.00     0.044 C 
ATOM     11  C   UNL A   1      36.877  22.493  25.720  1.00  0.00    -0.047 A 
ATOM     12  C   UNL A   1      38.239  22.130  25.777  1.00  0.00     0.004 A 
ATOM     13  C   UNL A   1      35.911  21.552  25.273  1.00  0.00    -0.034 A 
ATOM     14  C   UNL A   1      38.664  20.860  25.413  1.00  0.00     0.001 A 
ATOM     15  C   UNL A   1      36.362  20.244  24.948  1.00  0.00    -0.044 A 
ATOM     16  C   UNL A   1      34.407  21.875  25.217  1.00  0.00     0.053 C 
ATOM     17  C   UNL A   1      37.730  19.920  25.012  1.00  0.00     0.004 A 
ATOM     18  C   UNL A   1      35.424  19.096  24.665  1.00  0.00     0.036 C 
ATOM     19  C   UNL A   1      33.776  22.621  24.028  1.00  0.00    -0.034 A 
ATOM     20  C   UNL A   1      33.624  20.580  25.554  1.00  0.00     0.002 C 
ATOM     21  C   UNL A   1      33.965  19.495  24.526  1.00  0.00     0.009 C 
ATOM     22  C   UNL A   1      34.466  23.313  22.998  1.00  0.00    -0.047 A 
ATOM     23  C   UNL A   1      32.350  22.729  24.059  1.00  0.00    -0.040 A 
ATOM     24  C   UNL A   1      32.114  20.744  25.693  1.00  0.00     0.013 C 
ATOM     25  C   UNL A   1      33.741  24.111  22.085  1.00  0.00     0.004 A 
ATOM     26  C   UNL A   1      35.957  23.332  22.799  1.00  0.00     0.044 C 
ATOM     27  C   UNL A   1      31.670  23.528  23.120  1.00  0.00     0.004 A 
ATOM     28  C   UNL A   1      32.361  24.223  22.145  1.00  0.00     0.001 A 
ENDBRANCH   8   9
ENDBRANCH   5   8
ENDBRANCH   3   4
ENDBRANCH   2   3
ENDBRANCH   1   2
BRANCH   1  29
ATOM     29  C   UNL A   1      34.042  27.867  26.534  1.00  0.00     0.116 C 
BRANCH  29  30
ATOM     30  N   UNL A   1      33.724  29.202  27.022  1.00  0.00    -0.352 N 
ATOM     31  C   UNL A   1      34.489  30.158  27.659  1.00  0.00     0.251 C 
ATOM     32  H   UNL A   1      32.790  29.473  26.870  1.00  0.00     0.163 HD
ATOM     33  O   UNL A   1      33.977  31.224  27.963  1.00  0.00    -0.269 OA
BRANCH  31  34
ATOM     34  C   UNL A   1      35.902  29.886  28.031  1.00  0.00     0.039 A 
ATOM     35  C   UNL A   1      36.176  29.383  29.309  1.00  0.00     0.014 A 
ATOM     36  C   UNL A   1      36.955  30.104  27.146  1.00  0.00     0.014 A 
ATOM     37  C   UNL A   1      37.486  29.034  29.662  1.00  0.00     0.010 A 
ATOM     38  C   UNL A   1      38.230  29.644  27.450  1.00  0.00     0.010 A 
ATOM     39  C   UNL A   1      38.519  29.119  28.717  1.00  0.00    -0.014 A 
BRANCH  39  40
ATOM     40  C   UNL A   1      39.922  28.723  29.015  1.00  0.00     0.031 A 
ATOM     41  C   UNL A   1      40.858  29.728  29.641  1.00  0.00     0.074 A 
ATOM     42  C   UNL A   1      40.388  27.516  28.634  1.00  0.00     0.049 A 
ATOM     43  N   UNL A   1      42.157  29.671  29.782  1.00  0.00    -0.248 NA
ATOM     44  C   UNL A   1      40.260  30.985  30.124  1.00  0.00     0.031 C 
ATOM     45  C   UNL A   1      39.605  26.465  27.980  1.00  0.00     0.029 A 
ATOM     46  N   UNL A   1      41.646  26.976  28.733  1.00  0.00    -0.354 N 
ATOM     47  C   UNL A   1      42.532  30.900  30.313  1.00  0.00     0.074 A 
ATOM     48  C   UNL A   1      41.333  31.699  30.428  1.00  0.00     0.031 C 
ATOM     49  C   UNL A   1      40.389  25.394  27.773  1.00  0.00     0.029 A 
ATOM     50  C   UNL A   1      41.740  25.697  28.233  1.00  0.00     0.049 A 
ATOM     51  H   UNL A   1      42.411  27.457  29.125  1.00  0.00     0.167 HD
ATOM     52  C   UNL A   1      43.760  31.320  30.695  1.00  0.00     0.031 A 
ATOM     53  C   UNL A   1      42.796  24.864  28.151  1.00  0.00     0.031 A 
ATOM     54  C   UNL A   1      44.934  30.494  30.667  1.00  0.00     0.049 A 
ATOM     55  C   UNL A   1      44.137  25.325  28.646  1.00  0.00     0.074 A 
ATOM     56  C   UNL A   1      46.208  30.798  31.110  1.00  0.00     0.029 A 
ATOM     57  N   UNL A   1      44.967  29.189  30.203  1.00  0.00    -0.354 N 
ATOM     58  N   UNL A   1      44.470  26.490  29.148  1.00  0.00    -0.248 NA
ATOM     59  C   UNL A   1      45.246  24.362  28.568  1.00  0.00     0.031 C 
ATOM     60  C   UNL A   1      47.018  29.678  30.901  1.00  0.00     0.029 A 
ATOM     61  C   UNL A   1      46.239  28.670  30.355  1.00  0.00     0.049 A 
ATOM     62  H   UNL A   1      44.200  28.705  29.821  1.00  0.00     0.167 HD
ATOM     63  C   UNL A   1      45.820  26.394  29.463  1.00  0.00     0.074 A 
ATOM     64  C   UNL A   1      46.243  25.057  29.101  1.00  0.00     0.031 C 
ATOM     65  C   UNL A   1      46.634  27.332  30.001  1.00  0.00     0.031 A 
BRANCH  52  66
ATOM     66  C   UNL A   1      43.890  32.725  31.217  1.00  0.00    -0.014 A 
ATOM     67  C   UNL A   1      44.217  33.785  30.352  1.00  0.00     0.010 A 
ATOM     68  C   UNL A   1      43.629  32.997  32.572  1.00  0.00     0.010 A 
ATOM     69  C   UNL A   1      44.310  35.090  30.840  1.00  0.00     0.020 A 
ATOM     70  C   UNL A   1      43.697  34.307  33.059  1.00  0.00     0.020 A 
ATOM     71  C   UNL A   1      44.045  35.343  32.189  1.00  0.00     0.054 A 
BRANCH  71  72
ATOM     72  S   UNL A   1      44.149  37.055  32.780  1.00  0.00     0.124 S 
ATOM     73  O   UNL A   1      43.079  37.098  33.775  1.00  0.00    -0.237 OA
ATOM     74  O   UNL A   1      45.506  37.123  33.311  1.00  0.00    -0.237 OA
ATOM     75  O   UNL A   1      43.908  37.853  31.579  1.00  0.00    -0.744 OA
ENDBRANCH  71  72
ENDBRANCH  52  66
BRANCH  53  76
ATOM     76  C   UNL A   1      42.608  23.491  27.612  1.00  0.00    -0.014 A 
ATOM     77  C   UNL A   1      43.069  23.177  26.321  1.00  0.00     0.010 A 
ATOM     78  C   UNL A   1      42.017  22.483  28.393  1.00  0.00     0.010 A 
ATOM     79  C   UNL A   1      42.942  21.879  25.820  1.00  0.00     0.020 A 
ATOM     80  C   UNL A   1      41.904  21.178  27.902  1.00  0.00     0.020 A 
ATOM     81  C   UNL A   1      42.369  20.885  26.618  1.00  0.00     0.054 A 
BRANCH  81  82
ATOM     82  S   UNL A   1      42.273  19.196  25.959  1.00  0.00     0.124 S 
ATOM     83  O   UNL A   1      40.838  19.026  25.759  1.00  0.00    -0.237 OA
ATOM     84  O   UNL A   1      43.076  19.295  24.743  1.00  0.00    -0.237 OA
ATOM     85  O   UNL A   1      42.858  18.380  27.021  1.00  0.00    -0.744 OA
ENDBRANCH  81  82
ENDBRANCH  53  76
BRANCH  65  86
ATOM     86  C   UNL A   1      48.062  26.955  30.267  1.00  0.00    -0.014 A 
ATOM     87  C   UNL A   1      49.060  27.210  29.312  1.00  0.00     0.010 A 
ATOM     88  C   UNL A   1      48.425  26.463  31.534  1.00  0.00     0.010 A 
ATOM     89  C   UNL A   1      50.402  26.985  29.624  1.00  0.00     0.020 A 
ATOM     90  C   UNL A   1      49.767  26.252  31.854  1.00  0.00     0.020 A 
ATOM     91  C   UNL A   1      50.748  26.519  30.897  1.00  0.00     0.054 A 
BRANCH  91  92
ATOM     92  S   UNL A   1      52.506  26.315  31.295  1.00  0.00     0.124 S 
ATOM     93  O   UNL A   1      52.515  25.036  31.999  1.00  0.00    -0.237 OA
ATOM     94  O   UNL A   1      53.127  26.310  29.973  1.00  0.00    -0.237 OA
ATOM     95  O   UNL A   1      52.814  27.480  32.121  1.00  0.00    -0.744 OA
ENDBRANCH  91  92
ENDBRANCH  65  86
ENDBRANCH  39  40
ENDBRANCH  31  34
ENDBRANCH  29  30
ENDBRANCH   1  29
TORSDOF 15
ENDMDL
MODEL 3
REMARK VINA RESULT:     -12.1      2.559      3.589
REMARK SMILES Cc1cccc2c1[C@H]1c3c(C)cccc3[C@H](CC(=O)NCCCCNC(=O)c3ccc(-c4c5nc(c(-c6ccc(S(=O)(=O)[O-])cc6)c6ccc([nH]6)c(-c6ccc(S(=O)(=O)[O-])cc6)c6nc(c(-c7ccc(S(=O)(=O)[O-])cc7)c7ccc4[nH]7)C=C6)C=C5)cc3)C[C@H]1CC2
REMARK SMILES IDX 23 1 22 2 21 3 20 4 18 5 19 6 17 8 16 9 1 10 2 11 3 12 7 13
REMARK SMILES IDX 4 14 6 15 8 16 5 17 91 18 9 19 89 20 90 21 10 22 15 23 88 24
REMARK SMILES IDX 12 25 11 26 14 27 13 28 24 29 25 30 26 31 27 33 28 34 29 35
REMARK SMILES IDX 87 36 30 37 86 38 31 39 32 40 33 41 80 42 34 43 85 44 79 45
REMARK SMILES IDX 81 46 35 47 84 48 78 49 77 50 36 52 66 53 47 54 65 55 48 56
REMARK SMILES IDX 51 57 64 58 82 59 49 60 50 61 63 63 83 64 52 65 37 66 38 67
REMARK SMILES IDX 46 68 39 69 45 70 40 71 41 72 42 73 43 74 44 75 67 76 68 77
REMARK SMILES IDX 76 78 69 79 75 80 70 81 71 82 72 83 73 84 74 85 53 86 54 87
REMARK SMILES IDX 62 88 55 89 61 90 56 91 57 92 58 93 59 94 60 95
REMARK H PARENT 20 7 25 32 81 51 51 62
REMARK Flexibility Score: inf
ROOT
ATOM      1  C   UNL A   1      34.367  30.722  27.723  1.00  0.00     0.023 C 
ENDROOT
BRANCH   1   2
ATOM      2  C   UNL A   1      34.837  29.295  27.493  1.00  0.00     0.023 C 
BRANCH   2   3
ATOM      3  C   UNL A   1      33.905  28.449  26.626  1.00  0.00     0.116 C 
BRANCH   3   4
ATOM      4  N   UNL A   1      34.090  28.766  25.223  1.00  0.00    -0.356 N 
ATOM      5  C   UNL A   1      33.206  28.986  24.217  1.00  0.00     0.220 C 
ATOM      6  O   UNL A   1      33.651  29.360  23.130  1.00  0.00    -0.275 OA
ATOM      7  H   UNL A   1      35.032  28.834  24.949  1.00  0.00     0.163 HD
BRANCH   5   8
ATOM      8  C   UNL A   1      31.716  28.859  24.434  1.00  0.00     0.108 C 
BRANCH   8   9
ATOM      9  C   UNL A   1      31.099  27.442  24.392  1.00  0.00     0.029 C 
ATOM     10  C   UNL A   1      35.723  24.606  25.446  1.00  0.00     0.044 C 
ATOM     11  C   UNL A   1      34.686  23.671  26.012  1.00  0.00    -0.047 A 
ATOM     12  C   UNL A   1      35.190  22.512  26.639  1.00  0.00     0.004 A 
ATOM     13  C   UNL A   1      33.285  23.912  25.991  1.00  0.00    -0.034 A 
ATOM     14  C   UNL A   1      34.347  21.595  27.251  1.00  0.00     0.001 A 
ATOM     15  C   UNL A   1      32.444  22.983  26.662  1.00  0.00    -0.044 A 
ATOM     16  C   UNL A   1      32.673  25.171  25.353  1.00  0.00     0.053 C 
ATOM     17  C   UNL A   1      32.984  21.836  27.272  1.00  0.00     0.004 A 
ATOM     18  C   UNL A   1      30.973  23.226  26.897  1.00  0.00     0.036 C 
ATOM     19  C   UNL A   1      32.400  25.270  23.841  1.00  0.00    -0.034 A 
ATOM     20  C   UNL A   1      31.427  25.574  26.182  1.00  0.00     0.002 C 
ATOM     21  C   UNL A   1      30.408  24.429  26.162  1.00  0.00     0.009 C 
ATOM     22  C   UNL A   1      32.876  24.389  22.834  1.00  0.00    -0.047 A 
ATOM     23  C   UNL A   1      31.708  26.447  23.419  1.00  0.00    -0.040 A 
ATOM     24  C   UNL A   1      30.773  26.894  25.784  1.00  0.00     0.013 C 
ATOM     25  C   UNL A   1      32.699  24.723  21.472  1.00  0.00     0.004 A 
ATOM     26  C   UNL A   1      33.631  23.109  23.071  1.00  0.00     0.044 C 
ATOM     27  C   UNL A   1      31.546  26.733  22.049  1.00  0.00     0.004 A 
ATOM     28  C   UNL A   1      32.047  25.881  21.082  1.00  0.00     0.001 A 
ENDBRANCH   8   9
ENDBRANCH   5   8
ENDBRANCH   3   4
ENDBRANCH   2   3
ENDBRANCH   1   2
BRANCH   1  29
ATOM     29  C   UNL A   1      35.404  31.569  28.456  1.00  0.00     0.116 C 
BRANCH  29  30
ATOM     30  N   UNL A   1      35.383  31.428  29.905  1.00  0.00    -0.352 N 
ATOM     31  C   UNL A   1      36.321  30.952  30.799  1.00  0.00     0.251 C 
ATOM     32  H   UNL A   1      34.544  31.726  30.325  1.00  0.00     0.163 HD
ATOM     33  O   UNL A   1      36.057  30.948  31.992  1.00  0.00    -0.269 OA
BRANCH  31  34
ATOM     34  C   UNL A   1      37.615  30.394  30.328  1.00  0.00     0.039 A 
ATOM     35  C   UNL A   1      37.942  30.506  28.971  1.00  0.00     0.014 A 
ATOM     36  C   UNL A   1      38.514  29.778  31.195  1.00  0.00     0.014 A 
ATOM     37  C   UNL A   1      39.190  30.069  28.509  1.00  0.00     0.010 A 
ATOM     38  C   UNL A   1      39.795  29.459  30.763  1.00  0.00     0.010 A 
ATOM     39  C   UNL A   1      40.147  29.583  29.412  1.00  0.00    -0.014 A 
BRANCH  39  40
ATOM     40  C   UNL A   1      41.505  29.145  28.992  1.00  0.00     0.031 A 
ATOM     41  C   UNL A   1      42.626  30.154  28.942  1.00  0.00     0.074 A 
ATOM     42  C   UNL A   1      41.715  27.885  28.558  1.00  0.00     0.049 A 
ATOM     43  N   UNL A   1      43.813  30.044  28.405  1.00  0.00    -0.248 NA
ATOM     44  C   UNL A   1      42.355  31.481  29.526  1.00  0.00     0.031 C 
ATOM     45  C   UNL A   1      40.712  26.819  28.511  1.00  0.00     0.029 A 
ATOM     46  N   UNL A   1      42.848  27.293  28.057  1.00  0.00    -0.354 N 
ATOM     47  C   UNL A   1      44.403  31.298  28.535  1.00  0.00     0.074 A 
ATOM     48  C   UNL A   1      43.430  32.164  29.161  1.00  0.00     0.031 C 
ATOM     49  C   UNL A   1      41.284  25.695  28.049  1.00  0.00     0.029 A 
ATOM     50  C   UNL A   1      42.678  25.970  27.720  1.00  0.00     0.049 A 
ATOM     51  H   UNL A   1      43.703  27.769  27.950  1.00  0.00     0.167 HD
ATOM     52  C   UNL A   1      45.651  31.688  28.190  1.00  0.00     0.031 A 
ATOM     53  C   UNL A   1      43.545  25.080  27.199  1.00  0.00     0.031 A 
ATOM     54  C   UNL A   1      46.648  30.804  27.655  1.00  0.00     0.049 A 
ATOM     55  C   UNL A   1      44.949  25.516  26.888  1.00  0.00     0.074 A 
ATOM     56  C   UNL A   1      47.968  31.082  27.350  1.00  0.00     0.029 A 
ATOM     57  N   UNL A   1      46.444  29.462  27.381  1.00  0.00    -0.354 N 
ATOM     58  N   UNL A   1      45.487  26.704  27.022  1.00  0.00    -0.248 NA
ATOM     59  C   UNL A   1      45.864  24.494  26.358  1.00  0.00     0.031 C 
ATOM     60  C   UNL A   1      48.561  29.908  26.877  1.00  0.00     0.029 A 
ATOM     61  C   UNL A   1      47.616  28.894  26.917  1.00  0.00     0.049 A 
ATOM     62  H   UNL A   1      45.592  28.983  27.498  1.00  0.00     0.167 HD
ATOM     63  C   UNL A   1      46.808  26.569  26.612  1.00  0.00     0.074 A 
ATOM     64  C   UNL A   1      46.991  25.184  26.230  1.00  0.00     0.031 C 
ATOM     65  C   UNL A   1      47.779  27.511  26.556  1.00  0.00     0.031 A 
BRANCH  52  66
ATOM     66  C   UNL A   1      46.025  33.127  28.419  1.00  0.00    -0.014 A 
ATOM     67  C   UNL A   1      45.801  34.094  27.424  1.00  0.00     0.010 A 
ATOM     68  C   UNL A   1      46.553  33.525  29.660  1.00  0.00     0.010 A 
ATOM     69  C   UNL A   1      46.126  35.433  27.654  1.00  0.00     0.020 A 
ATOM     70  C   UNL A   1      46.857  34.869  29.904  1.00  0.00     0.020 A 
ATOM     71  C   UNL A   1      46.649  35.812  28.895  1.00  0.00     0.054 A 
BRANCH  71  72
ATOM     72  S   UNL A   1      47.033  37.563  29.167  1.00  0.00     0.124 S 
ATOM     73  O   UNL A   1      45.750  38.203  28.881  1.00  0.00    -0.237 OA
ATOM     74  O   UNL A   1      47.446  37.581  30.566  1.00  0.00    -0.237 OA
ATOM     75  O   UNL A   1      48.092  37.842  28.200  1.00  0.00    -0.744 OA
ENDBRANCH  71  72
ENDBRANCH  52  66
BRANCH  53  76
ATOM     76  C   UNL A   1      43.113  23.673  26.981  1.00  0.00    -0.014 A 
ATOM     77  C   UNL A   1      42.664  23.269  25.711  1.00  0.00     0.010 A 
ATOM     78  C   UNL A   1      43.190  22.726  28.016  1.00  0.00     0.010 A 
ATOM     79  C   UNL A   1      42.301  21.940  25.480  1.00  0.00     0.020 A 
ATOM     80  C   UNL A   1      42.844  21.390  27.784  1.00  0.00     0.020 A 
ATOM     81  C   UNL A   1      42.402  21.006  26.516  1.00  0.00     0.054 A 
BRANCH  81  82
ATOM     82  S   UNL A   1      41.978  19.277  26.166  1.00  0.00     0.124 S 
ATOM     83  O   UNL A   1      40.549  19.362  25.882  1.00  0.00    -0.237 OA
ATOM     84  O   UNL A   1      42.835  18.976  25.021  1.00  0.00    -0.237 OA
ATOM     85  O   UNL A   1      42.330  18.580  27.401  1.00  0.00    -0.744 OA
ENDBRANCH  81  82
ENDBRANCH  53  76
BRANCH  65  86
ATOM     86  C   UNL A   1      49.143  27.087  26.094  1.00  0.00    -0.014 A 
ATOM     87  C   UNL A   1      49.534  27.267  24.756  1.00  0.00     0.010 A 
ATOM     88  C   UNL A   1      50.082  26.629  27.035  1.00  0.00     0.010 A 
ATOM     89  C   UNL A   1      50.848  27.001  24.369  1.00  0.00     0.020 A 
ATOM     90  C   UNL A   1      51.401  26.377  26.654  1.00  0.00     0.020 A 
ATOM     91  C   UNL A   1      51.777  26.569  25.323  1.00  0.00     0.054 A 
BRANCH  91  92
ATOM     92  S   UNL A   1      53.495  26.311  24.802  1.00  0.00     0.124 S 
ATOM     93  O   UNL A   1      54.242  26.777  25.967  1.00  0.00    -0.237 OA
ATOM     94  O   UNL A   1      53.536  24.871  24.564  1.00  0.00    -0.237 OA
ATOM     95  O   UNL A   1      53.626  27.142  23.608  1.00  0.00    -0.744 OA
ENDBRANCH  91  92
ENDBRANCH  65  86
ENDBRANCH  39  40
ENDBRANCH  31  34
ENDBRANCH  29  30
ENDBRANCH   1  29
TORSDOF 15
ENDMDL
