MODEL 1
REMARK VINA RESULT:     -11.7      0.000      0.000
REMARK SMILES CC1(C)C(n2c(SCC(=O)NCCCCNC(=O)c3ccc(-c4c5nc(c(-c6ccc(S(=O)(=O)[O-])cc6)c6ccc([nH]6)c(-c6ccc(S(=O)(=O)[O-])cc6)c6nc(c(-c7ccc(S(=O)(=O)[O-])cc7)c7ccc4[nH]7)C=C6)C=C5)cc3)nc3cnccc32)C1(C)C
REMARK SMILES IDX 13 1 12 2 11 3 9 4 10 5 8 7 7 8 6 9 5 10 85 11 79 12 80 13
REMARK SMILES IDX 84 14 81 15 83 16 82 17 4 18 1 19 2 20 3 21 86 22 87 23
REMARK SMILES IDX 88 24 14 25 15 26 16 27 17 28 18 30 19 31 20 32 78 33 21 34
REMARK SMILES IDX 77 35 22 36 23 37 24 38 71 39 25 40 76 41 70 42 72 43 26 44
REMARK SMILES IDX 75 45 69 46 68 47 27 49 57 50 38 51 56 52 39 53 42 54 55 55
REMARK SMILES IDX 73 56 40 57 41 58 54 60 74 61 43 62 28 63 29 64 37 65 30 66
REMARK SMILES IDX 36 67 31 68 32 69 33 70 34 71 35 72 58 73 59 74 67 75 60 76
REMARK SMILES IDX 66 77 61 78 62 79 63 80 64 81 65 82 44 83 45 84 53 85 46 86
REMARK SMILES IDX 52 87 47 88 48 89 49 90 50 91 51 92
REMARK H PARENT 11 6 16 29 72 48 42 59
REMARK Flexibility Score: inf
ROOT
ATOM      1  C   UNL A   1      39.520  21.967  26.296  1.00  0.00     0.023 C 
ENDROOT
BRANCH   1   2
ATOM      2  C   UNL A   1      38.577  23.161  26.190  1.00  0.00     0.116 C 
BRANCH   2   3
ATOM      3  N   UNL A   1      37.813  23.078  24.967  1.00  0.00    -0.355 N 
ATOM      4  C   UNL A   1      36.508  23.359  24.763  1.00  0.00     0.230 C 
ATOM      5  O   UNL A   1      36.018  22.902  23.731  1.00  0.00    -0.274 OA
ATOM      6  H   UNL A   1      38.312  22.776  24.174  1.00  0.00     0.163 HD
BRANCH   4   7
ATOM      7  C   UNL A   1      35.781  24.297  25.690  1.00  0.00     0.178 C 
BRANCH   7   8
ATOM      8  S   UNL A   1      34.052  24.522  25.393  1.00  0.00    -0.078 SA
BRANCH   8   9
ATOM      9  C   UNL A   1      33.540  26.161  25.578  1.00  0.00     0.169 A 
ATOM     10  N   UNL A   1      32.434  26.866  25.131  1.00  0.00    -0.315 N 
ATOM     11  C   UNL A   1      32.467  28.100  25.775  1.00  0.00     0.072 A 
ATOM     12  N   UNL A   1      34.367  26.955  26.232  1.00  0.00    -0.221 NA
ATOM     13  C   UNL A   1      33.704  28.133  26.412  1.00  0.00     0.108 A 
ATOM     14  C   UNL A   1      31.567  29.162  25.905  1.00  0.00     0.049 A 
ATOM     15  C   UNL A   1      34.077  29.264  27.145  1.00  0.00     0.141 A 
ATOM     16  C   UNL A   1      32.021  30.242  26.652  1.00  0.00     0.113 A 
ATOM     17  N   UNL A   1      33.234  30.325  27.239  1.00  0.00    -0.262 NA
BRANCH  10  18
ATOM     18  C   UNL A   1      31.220  26.383  24.494  1.00  0.00     0.102 C 
ATOM     19  C   UNL A   1      28.983  27.266  23.544  1.00  0.00     0.014 C 
ATOM     20  C   UNL A   1      30.478  27.068  23.352  1.00  0.00    -0.007 C 
ATOM     21  C   UNL A   1      31.095  28.151  22.497  1.00  0.00     0.014 C 
ATOM     22  C   UNL A   1      31.030  25.633  23.174  1.00  0.00    -0.007 C 
ATOM     23  C   UNL A   1      29.990  24.526  23.067  1.00  0.00     0.014 C 
ATOM     24  C   UNL A   1      32.225  25.393  22.265  1.00  0.00     0.014 C 
ENDBRANCH  10  18
ENDBRANCH   8   9
ENDBRANCH   7   8
ENDBRANCH   4   7
ENDBRANCH   2   3
ENDBRANCH   1   2
BRANCH   1  25
ATOM     25  C   UNL A   1      40.405  21.946  27.555  1.00  0.00     0.023 C 
BRANCH  25  26
ATOM     26  C   UNL A   1      41.871  21.566  27.333  1.00  0.00     0.116 C 
BRANCH  26  27
ATOM     27  N   UNL A   1      42.419  22.033  26.079  1.00  0.00    -0.352 N 
ATOM     28  C   UNL A   1      42.741  23.250  25.564  1.00  0.00     0.251 C 
ATOM     29  H   UNL A   1      42.601  21.296  25.451  1.00  0.00     0.163 HD
ATOM     30  O   UNL A   1      43.205  23.239  24.419  1.00  0.00    -0.269 OA
BRANCH  28  31
ATOM     31  C   UNL A   1      42.547  24.548  26.257  1.00  0.00     0.039 A 
ATOM     32  C   UNL A   1      43.240  24.973  27.389  1.00  0.00     0.014 A 
ATOM     33  C   UNL A   1      41.562  25.390  25.711  1.00  0.00     0.014 A 
ATOM     34  C   UNL A   1      42.902  26.167  28.012  1.00  0.00     0.010 A 
ATOM     35  C   UNL A   1      41.239  26.598  26.314  1.00  0.00     0.010 A 
ATOM     36  C   UNL A   1      41.881  26.962  27.491  1.00  0.00    -0.014 A 
BRANCH  36  37
ATOM     37  C   UNL A   1      41.576  28.199  28.195  1.00  0.00     0.031 A 
ATOM     38  C   UNL A   1      42.590  29.285  28.066  1.00  0.00     0.074 A 
ATOM     39  C   UNL A   1      40.428  28.406  28.868  1.00  0.00     0.049 A 
ATOM     40  N   UNL A   1      43.293  29.836  29.002  1.00  0.00    -0.248 NA
ATOM     41  C   UNL A   1      42.931  29.742  26.711  1.00  0.00     0.031 C 
ATOM     42  C   UNL A   1      39.218  27.581  28.887  1.00  0.00     0.029 A 
ATOM     43  N   UNL A   1      40.076  29.490  29.609  1.00  0.00    -0.354 N 
ATOM     44  C   UNL A   1      44.059  30.822  28.385  1.00  0.00     0.074 A 
ATOM     45  C   UNL A   1      43.879  30.645  26.965  1.00  0.00     0.031 C 
ATOM     46  C   UNL A   1      38.195  28.310  29.391  1.00  0.00     0.029 A 
ATOM     47  C   UNL A   1      38.719  29.575  29.876  1.00  0.00     0.049 A 
ATOM     48  H   UNL A   1      40.728  30.155  29.928  1.00  0.00     0.167 HD
ATOM     49  C   UNL A   1      44.677  31.818  29.081  1.00  0.00     0.031 A 
ATOM     50  C   UNL A   1      38.070  30.648  30.390  1.00  0.00     0.031 A 
ATOM     51  C   UNL A   1      44.778  31.518  30.483  1.00  0.00     0.049 A 
ATOM     52  C   UNL A   1      39.078  31.469  31.106  1.00  0.00     0.074 A 
ATOM     53  C   UNL A   1      45.418  30.541  31.218  1.00  0.00     0.029 A 
ATOM     54  N   UNL A   1      43.858  32.085  31.330  1.00  0.00    -0.354 N 
ATOM     55  N   UNL A   1      39.698  31.075  32.183  1.00  0.00    -0.248 NA
ATOM     56  C   UNL A   1      39.705  32.568  30.390  1.00  0.00     0.031 C 
ATOM     57  C   UNL A   1      44.523  30.241  32.284  1.00  0.00     0.029 A 
ATOM     58  C   UNL A   1      43.419  31.090  32.166  1.00  0.00     0.049 A 
ATOM     59  H   UNL A   1      43.567  33.026  31.337  1.00  0.00     0.167 HD
ATOM     60  C   UNL A   1      40.985  31.575  32.054  1.00  0.00     0.074 A 
ATOM     61  C   UNL A   1      40.901  32.565  30.983  1.00  0.00     0.031 C 
ATOM     62  C   UNL A   1      42.054  30.957  32.639  1.00  0.00     0.031 A 
BRANCH  49  63
ATOM     63  C   UNL A   1      44.943  33.194  28.530  1.00  0.00    -0.014 A 
ATOM     64  C   UNL A   1      43.907  34.095  28.206  1.00  0.00     0.010 A 
ATOM     65  C   UNL A   1      46.255  33.714  28.559  1.00  0.00     0.010 A 
ATOM     66  C   UNL A   1      44.157  35.435  27.907  1.00  0.00     0.020 A 
ATOM     67  C   UNL A   1      46.512  35.070  28.304  1.00  0.00     0.020 A 
ATOM     68  C   UNL A   1      45.458  35.920  27.975  1.00  0.00     0.054 A 
BRANCH  68  69
ATOM     69  S   UNL A   1      45.720  37.692  27.712  1.00  0.00     0.124 S 
ATOM     70  O   UNL A   1      46.998  37.705  27.006  1.00  0.00    -0.237 OA
ATOM     71  O   UNL A   1      44.555  38.064  26.914  1.00  0.00    -0.237 OA
ATOM     72  O   UNL A   1      45.747  38.239  29.066  1.00  0.00    -0.744 OA
ENDBRANCH  68  69
ENDBRANCH  49  63
BRANCH  50  73
ATOM     73  C   UNL A   1      36.800  31.226  29.883  1.00  0.00    -0.014 A 
ATOM     74  C   UNL A   1      36.734  31.736  28.571  1.00  0.00     0.010 A 
ATOM     75  C   UNL A   1      35.772  31.571  30.780  1.00  0.00     0.010 A 
ATOM     76  C   UNL A   1      35.731  32.634  28.191  1.00  0.00     0.020 A 
ATOM     77  C   UNL A   1      34.764  32.473  30.406  1.00  0.00     0.020 A 
ATOM     78  C   UNL A   1      34.775  33.029  29.125  1.00  0.00     0.054 A 
BRANCH  78  79
ATOM     79  S   UNL A   1      33.625  34.356  28.663  1.00  0.00     0.124 S 
ATOM     80  O   UNL A   1      33.069  34.739  29.957  1.00  0.00    -0.237 OA
ATOM     81  O   UNL A   1      34.508  35.337  28.043  1.00  0.00    -0.237 OA
ATOM     82  O   UNL A   1      32.689  33.700  27.751  1.00  0.00    -0.744 OA
ENDBRANCH  78  79
ENDBRANCH  50  73
BRANCH  62  83
ATOM     83  C   UNL A   1      41.810  29.853  33.647  1.00  0.00    -0.014 A 
ATOM     84  C   UNL A   1      41.985  30.165  35.008  1.00  0.00     0.010 A 
ATOM     85  C   UNL A   1      41.630  28.501  33.289  1.00  0.00     0.010 A 
ATOM     86  C   UNL A   1      42.020  29.162  35.979  1.00  0.00     0.020 A 
ATOM     87  C   UNL A   1      41.638  27.490  34.265  1.00  0.00     0.020 A 
ATOM     88  C   UNL A   1      41.861  27.828  35.602  1.00  0.00     0.054 A 
BRANCH  88  89
ATOM     89  S   UNL A   1      41.985  26.555  36.887  1.00  0.00     0.124 S 
ATOM     90  O   UNL A   1      43.130  27.016  37.668  1.00  0.00    -0.237 OA
ATOM     91  O   UNL A   1      40.691  26.652  37.563  1.00  0.00    -0.237 OA
ATOM     92  O   UNL A   1      42.199  25.317  36.142  1.00  0.00    -0.744 OA
ENDBRANCH  88  89
ENDBRANCH  62  83
ENDBRANCH  36  37
ENDBRANCH  28  31
ENDBRANCH  26  27
ENDBRANCH  25  26
ENDBRANCH   1  25
TORSDOF 17
ENDMDL
MODEL 2
REMARK VINA RESULT:     -11.5      1.683      2.978
REMARK SMILES CC1(C)C(n2c(SCC(=O)NCCCCNC(=O)c3ccc(-c4c5nc(c(-c6ccc(S(=O)(=O)[O-])cc6)c6ccc([nH]6)c(-c6ccc(S(=O)(=O)[O-])cc6)c6nc(c(-c7ccc(S(=O)(=O)[O-])cc7)c7ccc4[nH]7)C=C6)C=C5)cc3)nc3cnccc32)C1(C)C
REMARK SMILES IDX 13 1 12 2 11 3 9 4 10 5 8 7 7 8 6 9 5 10 85 11 79 12 80 13
REMARK SMILES IDX 84 14 81 15 83 16 82 17 4 18 1 19 2 20 3 21 86 22 87 23
REMARK SMILES IDX 88 24 14 25 15 26 16 27 17 28 18 30 19 31 20 32 78 33 21 34
REMARK SMILES IDX 77 35 22 36 23 37 24 38 71 39 25 40 76 41 70 42 72 43 26 44
REMARK SMILES IDX 75 45 69 46 68 47 27 49 57 50 38 51 56 52 39 53 42 54 55 55
REMARK SMILES IDX 73 56 40 57 41 58 54 60 74 61 43 62 28 63 29 64 37 65 30 66
REMARK SMILES IDX 36 67 31 68 32 69 33 70 34 71 35 72 58 73 59 74 67 75 60 76
REMARK SMILES IDX 66 77 61 78 62 79 63 80 64 81 65 82 44 83 45 84 53 85 46 86
REMARK SMILES IDX 52 87 47 88 48 89 49 90 50 91 51 92
REMARK H PARENT 11 6 16 29 72 48 42 59
REMARK Flexibility Score: inf
ROOT
ATOM      1  C   UNL A   1      39.642  22.299  26.692  1.00  0.00     0.023 C 
ENDROOT
BRANCH   1   2
ATOM      2  C   UNL A   1      38.871  23.611  26.592  1.00  0.00     0.116 C 
BRANCH   2   3
ATOM      3  N   UNL A   1      38.221  23.703  25.306  1.00  0.00    -0.355 N 
ATOM      4  C   UNL A   1      36.902  23.649  25.018  1.00  0.00     0.230 C 
ATOM      5  O   UNL A   1      36.621  23.420  23.842  1.00  0.00    -0.274 OA
ATOM      6  H   UNL A   1      38.820  23.820  24.534  1.00  0.00     0.163 HD
BRANCH   4   7
ATOM      7  C   UNL A   1      35.883  24.000  26.069  1.00  0.00     0.178 C 
BRANCH   7   8
ATOM      8  S   UNL A   1      34.845  22.684  26.636  1.00  0.00    -0.078 SA
BRANCH   8   9
ATOM      9  C   UNL A   1      33.853  22.019  25.389  1.00  0.00     0.169 A 
ATOM     10  N   UNL A   1      33.153  22.580  24.332  1.00  0.00    -0.315 N 
ATOM     11  C   UNL A   1      32.711  21.521  23.546  1.00  0.00     0.072 A 
ATOM     12  N   UNL A   1      33.651  20.716  25.442  1.00  0.00    -0.221 NA
ATOM     13  C   UNL A   1      33.001  20.382  24.291  1.00  0.00     0.108 A 
ATOM     14  C   UNL A   1      32.133  21.417  22.276  1.00  0.00     0.049 A 
ATOM     15  C   UNL A   1      32.659  19.121  23.793  1.00  0.00     0.141 A 
ATOM     16  C   UNL A   1      31.829  20.125  21.862  1.00  0.00     0.113 A 
ATOM     17  N   UNL A   1      32.051  19.007  22.584  1.00  0.00    -0.262 NA
BRANCH  10  18
ATOM     18  C   UNL A   1      33.183  23.939  23.816  1.00  0.00     0.102 C 
ATOM     19  C   UNL A   1      32.082  25.399  21.989  1.00  0.00     0.014 C 
ATOM     20  C   UNL A   1      31.974  24.747  23.358  1.00  0.00    -0.007 C 
ATOM     21  C   UNL A   1      30.552  24.376  23.706  1.00  0.00     0.014 C 
ATOM     22  C   UNL A   1      32.867  25.266  24.510  1.00  0.00    -0.007 C 
ATOM     23  C   UNL A   1      33.699  26.504  24.205  1.00  0.00     0.014 C 
ATOM     24  C   UNL A   1      32.335  25.263  25.934  1.00  0.00     0.014 C 
ENDBRANCH  10  18
ENDBRANCH   8   9
ENDBRANCH   7   8
ENDBRANCH   4   7
ENDBRANCH   2   3
ENDBRANCH   1   2
BRANCH   1  25
ATOM     25  C   UNL A   1      40.798  22.299  27.708  1.00  0.00     0.023 C 
BRANCH  25  26
ATOM     26  C   UNL A   1      42.077  21.584  27.263  1.00  0.00     0.116 C 
BRANCH  26  27
ATOM     27  N   UNL A   1      42.641  22.094  26.034  1.00  0.00    -0.352 N 
ATOM     28  C   UNL A   1      42.953  23.331  25.558  1.00  0.00     0.251 C 
ATOM     29  H   UNL A   1      42.848  21.379  25.390  1.00  0.00     0.163 HD
ATOM     30  O   UNL A   1      43.439  23.359  24.423  1.00  0.00    -0.269 OA
BRANCH  28  31
ATOM     31  C   UNL A   1      42.723  24.605  26.283  1.00  0.00     0.039 A 
ATOM     32  C   UNL A   1      43.374  25.003  27.449  1.00  0.00     0.014 A 
ATOM     33  C   UNL A   1      41.748  25.454  25.729  1.00  0.00     0.014 A 
ATOM     34  C   UNL A   1      43.004  26.175  28.095  1.00  0.00     0.010 A 
ATOM     35  C   UNL A   1      41.393  26.641  26.356  1.00  0.00     0.010 A 
ATOM     36  C   UNL A   1      41.993  26.976  27.564  1.00  0.00    -0.014 A 
BRANCH  36  37
ATOM     37  C   UNL A   1      41.652  28.189  28.294  1.00  0.00     0.031 A 
ATOM     38  C   UNL A   1      42.651  29.293  28.217  1.00  0.00     0.074 A 
ATOM     39  C   UNL A   1      40.486  28.359  28.946  1.00  0.00     0.049 A 
ATOM     40  N   UNL A   1      43.324  29.830  29.182  1.00  0.00    -0.248 NA
ATOM     41  C   UNL A   1      43.014  29.792  26.882  1.00  0.00     0.031 C 
ATOM     42  C   UNL A   1      39.289  27.515  28.916  1.00  0.00     0.029 A 
ATOM     43  N   UNL A   1      40.101  29.417  29.707  1.00  0.00    -0.354 N 
ATOM     44  C   UNL A   1      44.088  30.844  28.609  1.00  0.00     0.074 A 
ATOM     45  C   UNL A   1      43.942  30.703  27.181  1.00  0.00     0.031 C 
ATOM     46  C   UNL A   1      38.244  28.214  29.416  1.00  0.00     0.029 A 
ATOM     47  C   UNL A   1      38.737  29.474  29.947  1.00  0.00     0.049 A 
ATOM     48  H   UNL A   1      40.734  30.083  30.059  1.00  0.00     0.167 HD
ATOM     49  C   UNL A   1      44.674  31.830  29.346  1.00  0.00     0.031 A 
ATOM     50  C   UNL A   1      38.060  30.522  30.474  1.00  0.00     0.031 A 
ATOM     51  C   UNL A   1      44.749  31.494  30.740  1.00  0.00     0.049 A 
ATOM     52  C   UNL A   1      39.038  31.339  31.234  1.00  0.00     0.074 A 
ATOM     53  C   UNL A   1      45.388  30.508  31.464  1.00  0.00     0.029 A 
ATOM     54  N   UNL A   1      43.801  32.024  31.582  1.00  0.00    -0.354 N 
ATOM     55  N   UNL A   1      39.641  30.926  32.314  1.00  0.00    -0.248 NA
ATOM     56  C   UNL A   1      39.663  32.467  30.561  1.00  0.00     0.031 C 
ATOM     57  C   UNL A   1      44.475  30.165  32.501  1.00  0.00     0.029 A 
ATOM     58  C   UNL A   1      43.360  30.999  32.381  1.00  0.00     0.049 A 
ATOM     59  H   UNL A   1      43.495  32.959  31.607  1.00  0.00     0.167 HD
ATOM     60  C   UNL A   1      40.922  31.449  32.227  1.00  0.00     0.074 A 
ATOM     61  C   UNL A   1      40.845  32.466  31.181  1.00  0.00     0.031 C 
ATOM     62  C   UNL A   1      41.987  30.833  32.819  1.00  0.00     0.031 A 
BRANCH  49  63
ATOM     63  C   UNL A   1      44.930  33.225  28.837  1.00  0.00    -0.014 A 
ATOM     64  C   UNL A   1      43.896  34.166  28.653  1.00  0.00     0.010 A 
ATOM     65  C   UNL A   1      46.253  33.709  28.768  1.00  0.00     0.010 A 
ATOM     66  C   UNL A   1      44.158  35.513  28.396  1.00  0.00     0.020 A 
ATOM     67  C   UNL A   1      46.527  35.069  28.554  1.00  0.00     0.020 A 
ATOM     68  C   UNL A   1      45.473  35.960  28.365  1.00  0.00     0.054 A 
BRANCH  68  69
ATOM     69  S   UNL A   1      45.763  37.736  28.162  1.00  0.00     0.124 S 
ATOM     70  O   UNL A   1      47.014  37.922  28.892  1.00  0.00    -0.237 OA
ATOM     71  O   UNL A   1      45.853  37.874  26.712  1.00  0.00    -0.237 OA
ATOM     72  O   UNL A   1      44.586  38.347  28.774  1.00  0.00    -0.744 OA
ENDBRANCH  68  69
ENDBRANCH  49  63
BRANCH  50  73
ATOM     73  C   UNL A   1      36.791  31.093  29.955  1.00  0.00    -0.014 A 
ATOM     74  C   UNL A   1      36.700  31.490  28.604  1.00  0.00     0.010 A 
ATOM     75  C   UNL A   1      35.802  31.547  30.846  1.00  0.00     0.010 A 
ATOM     76  C   UNL A   1      35.712  32.383  28.176  1.00  0.00     0.020 A 
ATOM     77  C   UNL A   1      34.809  32.445  30.423  1.00  0.00     0.020 A 
ATOM     78  C   UNL A   1      34.797  32.887  29.099  1.00  0.00     0.054 A 
BRANCH  78  79
ATOM     79  S   UNL A   1      33.672  34.204  28.554  1.00  0.00     0.124 S 
ATOM     80  O   UNL A   1      32.774  33.484  27.657  1.00  0.00    -0.237 OA
ATOM     81  O   UNL A   1      33.079  34.651  29.810  1.00  0.00    -0.237 OA
ATOM     82  O   UNL A   1      34.558  35.171  27.907  1.00  0.00    -0.744 OA
ENDBRANCH  78  79
ENDBRANCH  50  73
BRANCH  62  83
ATOM     83  C   UNL A   1      41.740  29.698  33.792  1.00  0.00    -0.014 A 
ATOM     84  C   UNL A   1      41.907  29.969  35.162  1.00  0.00     0.010 A 
ATOM     85  C   UNL A   1      41.562  28.358  33.392  1.00  0.00     0.010 A 
ATOM     86  C   UNL A   1      41.939  28.937  36.103  1.00  0.00     0.020 A 
ATOM     87  C   UNL A   1      41.565  27.317  34.336  1.00  0.00     0.020 A 
ATOM     88  C   UNL A   1      41.782  27.614  35.684  1.00  0.00     0.054 A 
BRANCH  88  89
ATOM     89  S   UNL A   1      41.900  26.302  36.930  1.00  0.00     0.124 S 
ATOM     90  O   UNL A   1      42.989  26.781  37.779  1.00  0.00    -0.237 OA
ATOM     91  O   UNL A   1      40.575  26.324  37.548  1.00  0.00    -0.237 OA
ATOM     92  O   UNL A   1      42.200  25.101  36.155  1.00  0.00    -0.744 OA
ENDBRANCH  88  89
ENDBRANCH  62  83
ENDBRANCH  36  37
ENDBRANCH  28  31
ENDBRANCH  26  27
ENDBRANCH  25  26
ENDBRANCH   1  25
TORSDOF 17
ENDMDL
MODEL 3
REMARK VINA RESULT:     -11.3      2.701      9.356
REMARK SMILES CC1(C)C(n2c(SCC(=O)NCCCCNC(=O)c3ccc(-c4c5nc(c(-c6ccc(S(=O)(=O)[O-])cc6)c6ccc([nH]6)c(-c6ccc(S(=O)(=O)[O-])cc6)c6nc(c(-c7ccc(S(=O)(=O)[O-])cc7)c7ccc4[nH]7)C=C6)C=C5)cc3)nc3cnccc32)C1(C)C
REMARK SMILES IDX 13 1 12 2 11 3 9 4 10 5 8 7 7 8 6 9 5 10 85 11 79 12 80 13
REMARK SMILES IDX 84 14 81 15 83 16 82 17 4 18 1 19 2 20 3 21 86 22 87 23
REMARK SMILES IDX 88 24 14 25 15 26 16 27 17 28 18 30 19 31 20 32 78 33 21 34
REMARK SMILES IDX 77 35 22 36 23 37 24 38 71 39 25 40 76 41 70 42 72 43 26 44
REMARK SMILES IDX 75 45 69 46 68 47 27 49 57 50 38 51 56 52 39 53 42 54 55 55
REMARK SMILES IDX 73 56 40 57 41 58 54 60 74 61 43 62 28 63 29 64 37 65 30 66
REMARK SMILES IDX 36 67 31 68 32 69 33 70 34 71 35 72 58 73 59 74 67 75 60 76
REMARK SMILES IDX 66 77 61 78 62 79 63 80 64 81 65 82 44 83 45 84 53 85 46 86
REMARK SMILES IDX 52 87 47 88 48 89 49 90 50 91 51 92
REMARK H PARENT 11 6 16 29 72 48 42 59
REMARK Flexibility Score: inf
ROOT
ATOM      1  C   UNL A   1      34.049  32.290  28.008  1.00  0.00     0.023 C 
ENDROOT
BRANCH   1   2
ATOM      2  C   UNL A   1      34.467  30.925  27.470  1.00  0.00     0.116 C 
BRANCH   2   3
ATOM      3  N   UNL A   1      33.505  29.924  27.868  1.00  0.00    -0.355 N 
ATOM      4  C   UNL A   1      33.150  28.788  27.227  1.00  0.00     0.230 C 
ATOM      5  O   UNL A   1      32.091  28.279  27.590  1.00  0.00    -0.274 OA
ATOM      6  H   UNL A   1      33.044  30.092  28.721  1.00  0.00     0.163 HD
BRANCH   4   7
ATOM      7  C   UNL A   1      34.095  28.147  26.245  1.00  0.00     0.178 C 
BRANCH   7   8
ATOM      8  S   UNL A   1      33.711  28.351  24.530  1.00  0.00    -0.078 SA
BRANCH   8   9
ATOM      9  C   UNL A   1      32.086  27.915  24.142  1.00  0.00     0.169 A 
ATOM     10  N   UNL A   1      31.340  26.764  24.342  1.00  0.00    -0.315 N 
ATOM     11  C   UNL A   1      30.028  27.082  24.003  1.00  0.00     0.072 A 
ATOM     12  N   UNL A   1      31.389  28.813  23.474  1.00  0.00    -0.221 NA
ATOM     13  C   UNL A   1      30.109  28.346  23.426  1.00  0.00     0.108 A 
ATOM     14  C   UNL A   1      28.793  26.444  24.158  1.00  0.00     0.049 A 
ATOM     15  C   UNL A   1      28.951  28.963  22.944  1.00  0.00     0.141 A 
ATOM     16  C   UNL A   1      27.697  27.132  23.650  1.00  0.00     0.113 A 
ATOM     17  N   UNL A   1      27.751  28.335  23.041  1.00  0.00    -0.262 NA
BRANCH  10  18
ATOM     18  C   UNL A   1      31.647  25.583  25.133  1.00  0.00     0.102 C 
ATOM     19  C   UNL A   1      30.640  23.283  25.750  1.00  0.00     0.014 C 
ATOM     20  C   UNL A   1      31.369  24.140  24.727  1.00  0.00    -0.007 C 
ATOM     21  C   UNL A   1      31.062  23.725  23.307  1.00  0.00     0.014 C 
ATOM     22  C   UNL A   1      32.815  24.601  25.027  1.00  0.00    -0.007 C 
ATOM     23  C   UNL A   1      33.451  24.031  26.288  1.00  0.00     0.014 C 
ATOM     24  C   UNL A   1      33.813  24.738  23.888  1.00  0.00     0.014 C 
ENDBRANCH  10  18
ENDBRANCH   8   9
ENDBRANCH   7   8
ENDBRANCH   4   7
ENDBRANCH   2   3
ENDBRANCH   1   2
BRANCH   1  25
ATOM     25  C   UNL A   1      35.140  33.374  27.948  1.00  0.00     0.023 C 
BRANCH  25  26
ATOM     26  C   UNL A   1      35.392  34.140  29.250  1.00  0.00     0.116 C 
BRANCH  26  27
ATOM     27  N   UNL A   1      34.775  33.544  30.414  1.00  0.00    -0.352 N 
ATOM     28  C   UNL A   1      35.109  32.543  31.274  1.00  0.00     0.251 C 
ATOM     29  H   UNL A   1      33.910  33.959  30.635  1.00  0.00     0.163 HD
ATOM     30  O   UNL A   1      34.297  32.324  32.178  1.00  0.00    -0.269 OA
BRANCH  28  31
ATOM     31  C   UNL A   1      36.332  31.709  31.177  1.00  0.00     0.039 A 
ATOM     32  C   UNL A   1      37.636  32.155  31.390  1.00  0.00     0.014 A 
ATOM     33  C   UNL A   1      36.127  30.364  30.824  1.00  0.00     0.014 A 
ATOM     34  C   UNL A   1      38.712  31.306  31.172  1.00  0.00     0.010 A 
ATOM     35  C   UNL A   1      37.199  29.503  30.632  1.00  0.00     0.010 A 
ATOM     36  C   UNL A   1      38.493  29.990  30.763  1.00  0.00    -0.014 A 
BRANCH  36  37
ATOM     37  C   UNL A   1      39.666  29.155  30.549  1.00  0.00     0.031 A 
ATOM     38  C   UNL A   1      40.498  28.885  31.758  1.00  0.00     0.074 A 
ATOM     39  C   UNL A   1      39.968  28.590  29.365  1.00  0.00     0.049 A 
ATOM     40  N   UNL A   1      41.731  29.215  31.969  1.00  0.00    -0.248 NA
ATOM     41  C   UNL A   1      39.839  28.255  32.912  1.00  0.00     0.031 C 
ATOM     42  C   UNL A   1      39.152  28.516  28.152  1.00  0.00     0.029 A 
ATOM     43  N   UNL A   1      41.066  27.855  29.045  1.00  0.00    -0.354 N 
ATOM     44  C   UNL A   1      42.063  28.702  33.220  1.00  0.00     0.074 A 
ATOM     45  C   UNL A   1      40.834  28.220  33.799  1.00  0.00     0.031 C 
ATOM     46  C   UNL A   1      39.670  27.575  27.328  1.00  0.00     0.029 A 
ATOM     47  C   UNL A   1      40.931  27.114  27.882  1.00  0.00     0.049 A 
ATOM     48  H   UNL A   1      41.885  27.850  29.591  1.00  0.00     0.167 HD
ATOM     49  C   UNL A   1      43.353  28.569  33.642  1.00  0.00     0.031 A 
ATOM     50  C   UNL A   1      41.765  26.136  27.454  1.00  0.00     0.031 A 
ATOM     51  C   UNL A   1      44.265  29.352  32.855  1.00  0.00     0.049 A 
ATOM     52  C   UNL A   1      43.078  26.362  28.108  1.00  0.00     0.074 A 
ATOM     53  C   UNL A   1      44.429  30.702  32.625  1.00  0.00     0.029 A 
ATOM     54  N   UNL A   1      44.977  28.712  31.869  1.00  0.00    -0.354 N 
ATOM     55  N   UNL A   1      43.838  27.393  27.868  1.00  0.00    -0.248 NA
ATOM     56  C   UNL A   1      43.362  25.650  29.344  1.00  0.00     0.031 C 
ATOM     57  C   UNL A   1      44.803  30.797  31.254  1.00  0.00     0.029 A 
ATOM     58  C   UNL A   1      44.898  29.498  30.747  1.00  0.00     0.049 A 
ATOM     59  H   UNL A   1      45.452  27.854  31.951  1.00  0.00     0.167 HD
ATOM     60  C   UNL A   1      44.403  27.711  29.094  1.00  0.00     0.074 A 
ATOM     61  C   UNL A   1      44.151  26.547  29.939  1.00  0.00     0.031 C 
ATOM     62  C   UNL A   1      44.787  28.987  29.394  1.00  0.00     0.031 A 
BRANCH  49  63
ATOM     63  C   UNL A   1      43.822  27.506  34.600  1.00  0.00    -0.014 A 
ATOM     64  C   UNL A   1      43.031  26.388  34.940  1.00  0.00     0.010 A 
ATOM     65  C   UNL A   1      45.176  27.472  34.994  1.00  0.00     0.010 A 
ATOM     66  C   UNL A   1      43.548  25.302  35.648  1.00  0.00     0.020 A 
ATOM     67  C   UNL A   1      45.718  26.366  35.668  1.00  0.00     0.020 A 
ATOM     68  C   UNL A   1      44.895  25.290  35.993  1.00  0.00     0.054 A 
BRANCH  68  69
ATOM     69  S   UNL A   1      45.554  23.805  36.792  1.00  0.00     0.124 S 
ATOM     70  O   UNL A   1      44.890  22.741  36.043  1.00  0.00    -0.237 OA
ATOM     71  O   UNL A   1      46.989  23.937  36.562  1.00  0.00    -0.237 OA
ATOM     72  O   UNL A   1      45.131  23.948  38.183  1.00  0.00    -0.744 OA
ENDBRANCH  68  69
ENDBRANCH  49  63
BRANCH  50  73
ATOM     73  C   UNL A   1      41.359  24.803  26.942  1.00  0.00    -0.014 A 
ATOM     74  C   UNL A   1      40.345  24.076  27.600  1.00  0.00     0.010 A 
ATOM     75  C   UNL A   1      42.178  24.115  26.028  1.00  0.00     0.010 A 
ATOM     76  C   UNL A   1      40.212  22.695  27.425  1.00  0.00     0.020 A 
ATOM     77  C   UNL A   1      42.052  22.729  25.850  1.00  0.00     0.020 A 
ATOM     78  C   UNL A   1      41.095  22.023  26.581  1.00  0.00     0.054 A 
BRANCH  78  79
ATOM     79  S   UNL A   1      41.031  20.209  26.547  1.00  0.00     0.124 S 
ATOM     80  O   UNL A   1      39.826  19.963  25.763  1.00  0.00    -0.237 OA
ATOM     81  O   UNL A   1      42.288  19.861  25.893  1.00  0.00    -0.237 OA
ATOM     82  O   UNL A   1      40.943  19.839  27.959  1.00  0.00    -0.744 OA
ENDBRANCH  78  79
ENDBRANCH  50  73
BRANCH  62  83
ATOM     83  C   UNL A   1      44.830  30.026  28.292  1.00  0.00    -0.014 A 
ATOM     84  C   UNL A   1      46.094  30.497  27.892  1.00  0.00     0.010 A 
ATOM     85  C   UNL A   1      43.685  30.689  27.806  1.00  0.00     0.010 A 
ATOM     86  C   UNL A   1      46.219  31.617  27.066  1.00  0.00     0.020 A 
ATOM     87  C   UNL A   1      43.803  31.800  26.953  1.00  0.00     0.020 A 
ATOM     88  C   UNL A   1      45.072  32.272  26.612  1.00  0.00     0.054 A 
BRANCH  88  89
ATOM     89  S   UNL A   1      45.284  33.763  25.601  1.00  0.00     0.124 S 
ATOM     90  O   UNL A   1      44.621  33.386  24.355  1.00  0.00    -0.237 OA
ATOM     91  O   UNL A   1      44.595  34.785  26.388  1.00  0.00    -0.237 OA
ATOM     92  O   UNL A   1      46.732  33.927  25.509  1.00  0.00    -0.744 OA
ENDBRANCH  88  89
ENDBRANCH  62  83
ENDBRANCH  36  37
ENDBRANCH  28  31
ENDBRANCH  26  27
ENDBRANCH  25  26
ENDBRANCH   1  25
TORSDOF 17
ENDMDL
