MODEL 1
REMARK VINA RESULT:     -10.8      0.000      0.000
REMARK SMILES C[C@@H](C(=O)NCCCCNC(=O)c1ccc(-c2c3nc(c(-c4ccc(S(=O)(=O)[O-])cc4)c4ccc([nH]4)c(-c4ccc(S(=O)(=O)[O-])cc4)c4nc(c(-c5ccc(S(=O)(=O)[O-])cc5)c5ccc2[nH]5)C=C4)C=C3)cc1)N1C(=O)CC2(CCCC2)C1=O
REMARK SMILES IDX 8 1 7 2 6 3 5 4 3 5 4 6 2 8 1 9 73 10 74 11 82 12 75 13
REMARK SMILES IDX 76 14 77 15 83 16 78 17 81 18 79 19 80 20 9 21 10 22 11 23
REMARK SMILES IDX 12 25 13 26 14 27 72 28 15 29 71 30 16 31 17 32 18 33 65 34
REMARK SMILES IDX 19 35 70 36 64 37 66 38 20 39 69 40 63 41 62 42 21 44 51 45
REMARK SMILES IDX 32 46 50 47 33 48 36 49 49 50 67 51 34 52 35 53 48 55 68 56
REMARK SMILES IDX 37 57 22 58 23 59 31 60 24 61 30 62 25 63 26 64 27 65 28 66
REMARK SMILES IDX 29 67 52 68 53 69 61 70 54 71 60 72 55 73 56 74 57 75 58 76
REMARK SMILES IDX 59 77 38 78 39 79 47 80 40 81 46 82 41 83 42 84 43 85 44 86
REMARK SMILES IDX 45 87
REMARK H PARENT 5 7 10 24 66 43 36 54
REMARK Flexibility Score: inf
ROOT
ATOM      1  C   UNL A   1      34.554  33.709  27.900  1.00  0.00     0.023 C 
ENDROOT
BRANCH   1   2
ATOM      2  C   UNL A   1      34.622  35.049  28.637  1.00  0.00     0.023 C 
BRANCH   2   3
ATOM      3  C   UNL A   1      33.291  35.807  28.707  1.00  0.00     0.116 C 
BRANCH   3   4
ATOM      4  N   UNL A   1      33.375  36.892  29.668  1.00  0.00    -0.354 N 
ATOM      5  C   UNL A   1      33.021  36.913  30.990  1.00  0.00     0.243 C 
ATOM      6  O   UNL A   1      32.925  38.012  31.541  1.00  0.00    -0.273 OA
ATOM      7  H   UNL A   1      33.741  37.736  29.316  1.00  0.00     0.163 HD
BRANCH   5   8
ATOM      8  C   UNL A   1      32.738  35.584  31.734  1.00  0.00     0.179 C 
ATOM      9  C   UNL A   1      31.562  35.784  32.692  1.00  0.00     0.042 C 
BRANCH   8  10
ATOM     10  N   UNL A   1      33.979  35.143  32.394  1.00  0.00    -0.270 N 
ATOM     11  C   UNL A   1      34.578  35.739  33.466  1.00  0.00     0.231 C 
ATOM     12  C   UNL A   1      34.482  33.882  32.197  1.00  0.00     0.236 C 
ATOM     13  O   UNL A   1      34.224  36.743  34.070  1.00  0.00    -0.274 OA
ATOM     14  C   UNL A   1      35.727  34.898  33.938  1.00  0.00     0.117 C 
ATOM     15  C   UNL A   1      35.818  33.790  32.898  1.00  0.00     0.059 C 
ATOM     16  O   UNL A   1      33.936  32.971  31.595  1.00  0.00    -0.274 OA
ATOM     17  C   UNL A   1      37.000  33.993  31.946  1.00  0.00     0.017 C 
ATOM     18  C   UNL A   1      36.115  32.416  33.488  1.00  0.00     0.017 C 
ATOM     19  C   UNL A   1      38.196  33.411  32.701  1.00  0.00     0.001 C 
ATOM     20  C   UNL A   1      37.621  32.428  33.722  1.00  0.00     0.001 C 
ENDBRANCH   8  10
ENDBRANCH   5   8
ENDBRANCH   3   4
ENDBRANCH   2   3
ENDBRANCH   1   2
BRANCH   1  21
ATOM     21  C   UNL A   1      34.518  32.480  28.799  1.00  0.00     0.116 C 
BRANCH  21  22
ATOM     22  N   UNL A   1      33.853  31.348  28.173  1.00  0.00    -0.352 N 
ATOM     23  C   UNL A   1      34.369  30.136  27.787  1.00  0.00     0.251 C 
ATOM     24  H   UNL A   1      32.891  31.469  28.000  1.00  0.00     0.163 HD
ATOM     25  O   UNL A   1      33.671  29.368  27.132  1.00  0.00    -0.269 OA
BRANCH  23  26
ATOM     26  C   UNL A   1      35.762  29.770  28.129  1.00  0.00     0.039 A 
ATOM     27  C   UNL A   1      36.726  29.812  27.120  1.00  0.00     0.014 A 
ATOM     28  C   UNL A   1      36.121  29.377  29.422  1.00  0.00     0.014 A 
ATOM     29  C   UNL A   1      38.056  29.514  27.421  1.00  0.00     0.010 A 
ATOM     30  C   UNL A   1      37.462  29.160  29.739  1.00  0.00     0.010 A 
ATOM     31  C   UNL A   1      38.443  29.221  28.741  1.00  0.00    -0.014 A 
BRANCH  31  32
ATOM     32  C   UNL A   1      39.876  29.004  29.070  1.00  0.00     0.031 A 
ATOM     33  C   UNL A   1      40.548  27.692  28.769  1.00  0.00     0.074 A 
ATOM     34  C   UNL A   1      40.570  29.999  29.658  1.00  0.00     0.049 A 
ATOM     35  N   UNL A   1      41.799  27.351  28.947  1.00  0.00    -0.248 NA
ATOM     36  C   UNL A   1      39.709  26.616  28.216  1.00  0.00     0.031 C 
ATOM     37  C   UNL A   1      40.016  31.296  30.059  1.00  0.00     0.029 A 
ATOM     38  N   UNL A   1      41.894  30.082  30.012  1.00  0.00    -0.354 N 
ATOM     39  C   UNL A   1      41.899  26.030  28.521  1.00  0.00     0.074 A 
ATOM     40  C   UNL A   1      40.568  25.610  28.140  1.00  0.00     0.031 C 
ATOM     41  C   UNL A   1      40.999  32.058  30.564  1.00  0.00     0.029 A 
ATOM     42  C   UNL A   1      42.243  31.295  30.560  1.00  0.00     0.049 A 
ATOM     43  H   UNL A   1      42.533  29.343  29.888  1.00  0.00     0.167 HD
ATOM     44  C   UNL A   1      43.000  25.247  28.429  1.00  0.00     0.031 A 
ATOM     45  C   UNL A   1      43.430  31.747  31.006  1.00  0.00     0.031 A 
ATOM     46  C   UNL A   1      44.323  25.666  28.815  1.00  0.00     0.049 A 
ATOM     47  C   UNL A   1      44.637  30.856  30.897  1.00  0.00     0.074 A 
ATOM     48  C   UNL A   1      45.510  24.958  28.728  1.00  0.00     0.029 A 
ATOM     49  N   UNL A   1      44.637  26.900  29.365  1.00  0.00    -0.354 N 
ATOM     50  N   UNL A   1      44.720  29.634  30.423  1.00  0.00    -0.248 NA
ATOM     51  C   UNL A   1      45.913  31.412  31.364  1.00  0.00     0.031 C 
ATOM     52  C   UNL A   1      46.531  25.744  29.274  1.00  0.00     0.029 A 
ATOM     53  C   UNL A   1      45.993  26.967  29.640  1.00  0.00     0.049 A 
ATOM     54  H   UNL A   1      43.991  27.623  29.533  1.00  0.00     0.167 HD
ATOM     55  C   UNL A   1      46.063  29.284  30.520  1.00  0.00     0.074 A 
ATOM     56  C   UNL A   1      46.756  30.435  31.061  1.00  0.00     0.031 C 
ATOM     57  C   UNL A   1      46.667  28.113  30.196  1.00  0.00     0.031 A 
BRANCH  44  58
ATOM     58  C   UNL A   1      42.826  23.856  27.874  1.00  0.00    -0.014 A 
ATOM     59  C   UNL A   1      42.489  22.780  28.717  1.00  0.00     0.010 A 
ATOM     60  C   UNL A   1      42.936  23.629  26.490  1.00  0.00     0.010 A 
ATOM     61  C   UNL A   1      42.296  21.501  28.191  1.00  0.00     0.020 A 
ATOM     62  C   UNL A   1      42.714  22.355  25.956  1.00  0.00     0.020 A 
ATOM     63  C   UNL A   1      42.406  21.297  26.813  1.00  0.00     0.054 A 
BRANCH  63  64
ATOM     64  S   UNL A   1      42.103  19.633  26.157  1.00  0.00     0.124 S 
ATOM     65  O   UNL A   1      43.014  19.589  25.015  1.00  0.00    -0.237 OA
ATOM     66  O   UNL A   1      42.465  18.776  27.282  1.00  0.00    -0.237 OA
ATOM     67  O   UNL A   1      40.682  19.645  25.818  1.00  0.00    -0.744 OA
ENDBRANCH  63  64
ENDBRANCH  44  58
BRANCH  45  68
ATOM     68  C   UNL A   1      43.536  33.110  31.597  1.00  0.00    -0.014 A 
ATOM     69  C   UNL A   1      43.768  34.236  30.786  1.00  0.00     0.010 A 
ATOM     70  C   UNL A   1      43.409  33.287  32.987  1.00  0.00     0.010 A 
ATOM     71  C   UNL A   1      43.905  35.505  31.358  1.00  0.00     0.020 A 
ATOM     72  C   UNL A   1      43.510  34.557  33.558  1.00  0.00     0.020 A 
ATOM     73  C   UNL A   1      43.775  35.657  32.741  1.00  0.00     0.054 A 
BRANCH  73  74
ATOM     74  S   UNL A   1      43.926  37.316  33.459  1.00  0.00     0.124 S 
ATOM     75  O   UNL A   1      42.694  37.426  34.232  1.00  0.00    -0.237 OA
ATOM     76  O   UNL A   1      45.157  37.211  34.239  1.00  0.00    -0.237 OA
ATOM     77  O   UNL A   1      44.012  38.188  32.289  1.00  0.00    -0.744 OA
ENDBRANCH  73  74
ENDBRANCH  45  68
BRANCH  57  78
ATOM     78  C   UNL A   1      48.158  28.033  30.406  1.00  0.00    -0.014 A 
ATOM     79  C   UNL A   1      48.701  27.584  31.624  1.00  0.00     0.010 A 
ATOM     80  C   UNL A   1      49.028  28.409  29.367  1.00  0.00     0.010 A 
ATOM     81  C   UNL A   1      50.083  27.573  31.820  1.00  0.00     0.020 A 
ATOM     82  C   UNL A   1      50.413  28.364  29.547  1.00  0.00     0.020 A 
ATOM     83  C   UNL A   1      50.931  27.971  30.783  1.00  0.00     0.054 A 
BRANCH  83  84
ATOM     84  S   UNL A   1      52.722  27.952  31.063  1.00  0.00     0.124 S 
ATOM     85  O   UNL A   1      53.093  29.330  30.750  1.00  0.00    -0.237 OA
ATOM     86  O   UNL A   1      52.823  27.578  32.471  1.00  0.00    -0.237 OA
ATOM     87  O   UNL A   1      53.210  26.947  30.122  1.00  0.00    -0.744 OA
ENDBRANCH  83  84
ENDBRANCH  57  78
ENDBRANCH  31  32
ENDBRANCH  23  26
ENDBRANCH  21  22
ENDBRANCH   1  21
TORSDOF 15
ENDMDL
MODEL 2
REMARK VINA RESULT:     -10.7      3.190      6.444
REMARK SMILES C[C@@H](C(=O)NCCCCNC(=O)c1ccc(-c2c3nc(c(-c4ccc(S(=O)(=O)[O-])cc4)c4ccc([nH]4)c(-c4ccc(S(=O)(=O)[O-])cc4)c4nc(c(-c5ccc(S(=O)(=O)[O-])cc5)c5ccc2[nH]5)C=C4)C=C3)cc1)N1C(=O)CC2(CCCC2)C1=O
REMARK SMILES IDX 8 1 7 2 6 3 5 4 3 5 4 6 2 8 1 9 73 10 74 11 82 12 75 13
REMARK SMILES IDX 76 14 77 15 83 16 78 17 81 18 79 19 80 20 9 21 10 22 11 23
REMARK SMILES IDX 12 25 13 26 14 27 72 28 15 29 71 30 16 31 17 32 18 33 65 34
REMARK SMILES IDX 19 35 70 36 64 37 66 38 20 39 69 40 63 41 62 42 21 44 51 45
REMARK SMILES IDX 32 46 50 47 33 48 36 49 49 50 67 51 34 52 35 53 48 55 68 56
REMARK SMILES IDX 37 57 22 58 23 59 31 60 24 61 30 62 25 63 26 64 27 65 28 66
REMARK SMILES IDX 29 67 52 68 53 69 61 70 54 71 60 72 55 73 56 74 57 75 58 76
REMARK SMILES IDX 59 77 38 78 39 79 47 80 40 81 46 82 41 83 42 84 43 85 44 86
REMARK SMILES IDX 45 87
REMARK H PARENT 5 7 10 24 66 43 36 54
REMARK Flexibility Score: inf
ROOT
ATOM      1  C   UNL A   1      34.035  27.991  25.846  1.00  0.00     0.023 C 
ENDROOT
BRANCH   1   2
ATOM      2  C   UNL A   1      33.780  26.560  25.367  1.00  0.00     0.023 C 
BRANCH   2   3
ATOM      3  C   UNL A   1      32.302  26.205  25.171  1.00  0.00     0.116 C 
BRANCH   3   4
ATOM      4  N   UNL A   1      31.803  25.460  26.313  1.00  0.00    -0.354 N 
ATOM      5  C   UNL A   1      31.538  24.122  26.431  1.00  0.00     0.243 C 
ATOM      6  O   UNL A   1      30.869  23.752  27.398  1.00  0.00    -0.273 OA
ATOM      7  H   UNL A   1      31.631  25.996  27.121  1.00  0.00     0.163 HD
BRANCH   5   8
ATOM      8  C   UNL A   1      32.059  23.134  25.356  1.00  0.00     0.179 C 
ATOM      9  C   UNL A   1      31.132  21.920  25.296  1.00  0.00     0.042 C 
BRANCH   8  10
ATOM     10  N   UNL A   1      33.461  22.802  25.666  1.00  0.00    -0.270 N 
ATOM     11  C   UNL A   1      33.899  22.066  26.728  1.00  0.00     0.231 C 
ATOM     12  C   UNL A   1      34.448  22.927  24.721  1.00  0.00     0.236 C 
ATOM     13  O   UNL A   1      33.237  21.559  27.623  1.00  0.00    -0.274 OA
ATOM     14  C   UNL A   1      35.373  21.818  26.599  1.00  0.00     0.117 C 
ATOM     15  C   UNL A   1      35.776  22.642  25.384  1.00  0.00     0.059 C 
ATOM     16  O   UNL A   1      34.289  23.185  23.538  1.00  0.00    -0.274 OA
ATOM     17  C   UNL A   1      36.526  23.917  25.779  1.00  0.00     0.017 C 
ATOM     18  C   UNL A   1      36.785  21.947  24.476  1.00  0.00     0.017 C 
ATOM     19  C   UNL A   1      37.972  23.460  25.974  1.00  0.00     0.001 C 
ATOM     20  C   UNL A   1      38.124  22.168  25.169  1.00  0.00     0.001 C 
ENDBRANCH   8  10
ENDBRANCH   5   8
ENDBRANCH   3   4
ENDBRANCH   2   3
ENDBRANCH   1   2
BRANCH   1  21
ATOM     21  C   UNL A   1      33.599  28.279  27.277  1.00  0.00     0.116 C 
BRANCH  21  22
ATOM     22  N   UNL A   1      33.489  29.702  27.552  1.00  0.00    -0.352 N 
ATOM     23  C   UNL A   1      34.409  30.558  28.104  1.00  0.00     0.251 C 
ATOM     24  H   UNL A   1      32.628  30.112  27.308  1.00  0.00     0.163 HD
ATOM     25  O   UNL A   1      34.066  31.700  28.397  1.00  0.00    -0.269 OA
BRANCH  23  26
ATOM     26  C   UNL A   1      35.792  30.103  28.373  1.00  0.00     0.039 A 
ATOM     27  C   UNL A   1      36.733  30.196  27.346  1.00  0.00     0.014 A 
ATOM     28  C   UNL A   1      36.164  29.579  29.615  1.00  0.00     0.014 A 
ATOM     29  C   UNL A   1      38.055  29.816  27.581  1.00  0.00     0.010 A 
ATOM     30  C   UNL A   1      37.501  29.277  29.873  1.00  0.00     0.010 A 
ATOM     31  C   UNL A   1      38.459  29.387  28.858  1.00  0.00    -0.014 A 
BRANCH  31  32
ATOM     32  C   UNL A   1      39.888  29.081  29.127  1.00  0.00     0.031 A 
ATOM     33  C   UNL A   1      40.463  27.728  28.803  1.00  0.00     0.074 A 
ATOM     34  C   UNL A   1      40.669  30.030  29.681  1.00  0.00     0.049 A 
ATOM     35  N   UNL A   1      41.697  27.309  28.928  1.00  0.00    -0.248 NA
ATOM     36  C   UNL A   1      39.535  26.707  28.290  1.00  0.00     0.031 C 
ATOM     37  C   UNL A   1      40.216  31.360  30.100  1.00  0.00     0.029 A 
ATOM     38  N   UNL A   1      42.009  30.030  29.978  1.00  0.00    -0.354 N 
ATOM     39  C   UNL A   1      41.694  25.984  28.504  1.00  0.00     0.074 A 
ATOM     40  C   UNL A   1      40.324  25.648  28.182  1.00  0.00     0.031 C 
ATOM     41  C   UNL A   1      41.266  32.059  30.559  1.00  0.00     0.029 A 
ATOM     42  C   UNL A   1      42.457  31.219  30.505  1.00  0.00     0.049 A 
ATOM     43  H   UNL A   1      42.594  29.252  29.829  1.00  0.00     0.167 HD
ATOM     44  C   UNL A   1      42.739  25.133  28.368  1.00  0.00     0.031 A 
ATOM     45  C   UNL A   1      43.689  31.596  30.898  1.00  0.00     0.031 A 
ATOM     46  C   UNL A   1      44.101  25.467  28.696  1.00  0.00     0.049 A 
ATOM     47  C   UNL A   1      44.831  30.630  30.741  1.00  0.00     0.074 A 
ATOM     48  C   UNL A   1      45.237  24.686  28.561  1.00  0.00     0.029 A 
ATOM     49  N   UNL A   1      44.515  26.681  29.227  1.00  0.00    -0.354 N 
ATOM     50  N   UNL A   1      44.817  29.405  30.269  1.00  0.00    -0.248 NA
ATOM     51  C   UNL A   1      46.159  31.105  31.151  1.00  0.00     0.031 C 
ATOM     52  C   UNL A   1      46.328  25.407  29.059  1.00  0.00     0.029 A 
ATOM     53  C   UNL A   1      45.884  26.662  29.443  1.00  0.00     0.049 A 
ATOM     54  H   UNL A   1      43.924  27.443  29.420  1.00  0.00     0.167 HD
ATOM     55  C   UNL A   1      46.137  28.971  30.310  1.00  0.00     0.074 A 
ATOM     56  C   UNL A   1      46.925  30.076  30.817  1.00  0.00     0.031 C 
ATOM     57  C   UNL A   1      46.652  27.763  29.966  1.00  0.00     0.031 A 
BRANCH  44  58
ATOM     58  C   UNL A   1      42.454  23.755  27.827  1.00  0.00    -0.014 A 
ATOM     59  C   UNL A   1      42.308  23.540  26.443  1.00  0.00     0.010 A 
ATOM     60  C   UNL A   1      42.392  22.652  28.697  1.00  0.00     0.010 A 
ATOM     61  C   UNL A   1      42.077  22.256  25.945  1.00  0.00     0.020 A 
ATOM     62  C   UNL A   1      42.190  21.360  28.200  1.00  0.00     0.020 A 
ATOM     63  C   UNL A   1      42.022  21.173  26.827  1.00  0.00     0.054 A 
BRANCH  63  64
ATOM     64  S   UNL A   1      41.768  19.512  26.144  1.00  0.00     0.124 S 
ATOM     65  O   UNL A   1      42.652  19.526  24.980  1.00  0.00    -0.237 OA
ATOM     66  O   UNL A   1      42.190  18.648  27.242  1.00  0.00    -0.237 OA
ATOM     67  O   UNL A   1      40.340  19.475  25.839  1.00  0.00    -0.744 OA
ENDBRANCH  63  64
ENDBRANCH  44  58
BRANCH  45  68
ATOM     68  C   UNL A   1      43.906  32.951  31.479  1.00  0.00    -0.014 A 
ATOM     69  C   UNL A   1      43.803  33.171  32.864  1.00  0.00     0.010 A 
ATOM     70  C   UNL A   1      44.211  34.036  30.638  1.00  0.00     0.010 A 
ATOM     71  C   UNL A   1      43.969  34.455  33.392  1.00  0.00     0.020 A 
ATOM     72  C   UNL A   1      44.412  35.314  31.164  1.00  0.00     0.020 A 
ATOM     73  C   UNL A   1      44.273  35.519  32.537  1.00  0.00     0.054 A 
BRANCH  73  74
ATOM     74  S   UNL A   1      44.514  37.172  33.246  1.00  0.00     0.124 S 
ATOM     75  O   UNL A   1      43.665  37.121  34.431  1.00  0.00    -0.237 OA
ATOM     76  O   UNL A   1      45.953  37.199  33.497  1.00  0.00    -0.237 OA
ATOM     77  O   UNL A   1      44.057  38.067  32.185  1.00  0.00    -0.744 OA
ENDBRANCH  73  74
ENDBRANCH  45  68
BRANCH  57  78
ATOM     78  C   UNL A   1      48.142  27.589  30.112  1.00  0.00    -0.014 A 
ATOM     79  C   UNL A   1      49.024  27.944  29.074  1.00  0.00     0.010 A 
ATOM     80  C   UNL A   1      48.668  27.068  31.307  1.00  0.00     0.010 A 
ATOM     81  C   UNL A   1      50.396  27.722  29.205  1.00  0.00     0.020 A 
ATOM     82  C   UNL A   1      50.045  26.877  31.455  1.00  0.00     0.020 A 
ATOM     83  C   UNL A   1      50.898  27.181  30.393  1.00  0.00     0.054 A 
BRANCH  83  84
ATOM     84  S   UNL A   1      52.683  26.898  30.537  1.00  0.00     0.124 S 
ATOM     85  O   UNL A   1      53.174  28.230  30.880  1.00  0.00    -0.237 OA
ATOM     86  O   UNL A   1      52.765  25.903  31.602  1.00  0.00    -0.237 OA
ATOM     87  O   UNL A   1      53.065  26.416  29.212  1.00  0.00    -0.744 OA
ENDBRANCH  83  84
ENDBRANCH  57  78
ENDBRANCH  31  32
ENDBRANCH  23  26
ENDBRANCH  21  22
ENDBRANCH   1  21
TORSDOF 15
ENDMDL
MODEL 3
REMARK VINA RESULT:     -10.7      3.247     10.441
REMARK SMILES C[C@@H](C(=O)NCCCCNC(=O)c1ccc(-c2c3nc(c(-c4ccc(S(=O)(=O)[O-])cc4)c4ccc([nH]4)c(-c4ccc(S(=O)(=O)[O-])cc4)c4nc(c(-c5ccc(S(=O)(=O)[O-])cc5)c5ccc2[nH]5)C=C4)C=C3)cc1)N1C(=O)CC2(CCCC2)C1=O
REMARK SMILES IDX 8 1 7 2 6 3 5 4 3 5 4 6 2 8 1 9 73 10 74 11 82 12 75 13
REMARK SMILES IDX 76 14 77 15 83 16 78 17 81 18 79 19 80 20 9 21 10 22 11 23
REMARK SMILES IDX 12 25 13 26 14 27 72 28 15 29 71 30 16 31 17 32 18 33 65 34
REMARK SMILES IDX 19 35 70 36 64 37 66 38 20 39 69 40 63 41 62 42 21 44 51 45
REMARK SMILES IDX 32 46 50 47 33 48 36 49 49 50 67 51 34 52 35 53 48 55 68 56
REMARK SMILES IDX 37 57 22 58 23 59 31 60 24 61 30 62 25 63 26 64 27 65 28 66
REMARK SMILES IDX 29 67 52 68 53 69 61 70 54 71 60 72 55 73 56 74 57 75 58 76
REMARK SMILES IDX 59 77 38 78 39 79 47 80 40 81 46 82 41 83 42 84 43 85 44 86
REMARK SMILES IDX 45 87
REMARK H PARENT 5 7 10 24 66 43 36 54
REMARK Flexibility Score: inf
ROOT
ATOM      1  C   UNL A   1      33.922  27.981  25.843  1.00  0.00     0.023 C 
ENDROOT
BRANCH   1   2
ATOM      2  C   UNL A   1      33.184  28.817  24.795  1.00  0.00     0.023 C 
BRANCH   2   3
ATOM      3  C   UNL A   1      31.963  28.129  24.174  1.00  0.00     0.116 C 
BRANCH   3   4
ATOM      4  N   UNL A   1      31.357  27.214  25.124  1.00  0.00    -0.354 N 
ATOM      5  C   UNL A   1      30.988  25.906  24.959  1.00  0.00     0.243 C 
ATOM      6  O   UNL A   1      30.249  25.406  25.810  1.00  0.00    -0.273 OA
ATOM      7  H   UNL A   1      31.188  27.589  26.018  1.00  0.00     0.163 HD
BRANCH   5   8
ATOM      8  C   UNL A   1      31.483  25.115  23.722  1.00  0.00     0.179 C 
ATOM      9  C   UNL A   1      30.323  24.304  23.145  1.00  0.00     0.042 C 
BRANCH   8  10
ATOM     10  N   UNL A   1      32.643  24.298  24.122  1.00  0.00    -0.270 N 
ATOM     11  C   UNL A   1      32.602  23.130  24.826  1.00  0.00     0.231 C 
ATOM     12  C   UNL A   1      33.870  24.466  23.531  1.00  0.00     0.236 C 
ATOM     13  O   UNL A   1      31.622  22.548  25.271  1.00  0.00    -0.274 OA
ATOM     14  C   UNL A   1      33.974  22.527  24.890  1.00  0.00     0.117 C 
ATOM     15  C   UNL A   1      34.865  23.583  24.249  1.00  0.00     0.059 C 
ATOM     16  O   UNL A   1      34.119  25.174  22.568  1.00  0.00    -0.274 OA
ATOM     17  C   UNL A   1      35.690  24.345  25.290  1.00  0.00     0.017 C 
ATOM     18  C   UNL A   1      35.948  23.006  23.344  1.00  0.00     0.017 C 
ATOM     19  C   UNL A   1      36.901  23.447  25.543  1.00  0.00     0.001 C 
ATOM     20  C   UNL A   1      37.040  22.557  24.307  1.00  0.00     0.001 C 
ENDBRANCH   8  10
ENDBRANCH   5   8
ENDBRANCH   3   4
ENDBRANCH   2   3
ENDBRANCH   1   2
BRANCH   1  21
ATOM     21  C   UNL A   1      33.600  28.331  27.290  1.00  0.00     0.116 C 
BRANCH  21  22
ATOM     22  N   UNL A   1      33.543  29.765  27.519  1.00  0.00    -0.352 N 
ATOM     23  C   UNL A   1      34.496  30.604  28.042  1.00  0.00     0.251 C 
ATOM     24  H   UNL A   1      32.697  30.198  27.263  1.00  0.00     0.163 HD
ATOM     25  O   UNL A   1      34.195  31.767  28.298  1.00  0.00    -0.269 OA
BRANCH  23  26
ATOM     26  C   UNL A   1      35.861  30.108  28.324  1.00  0.00     0.039 A 
ATOM     27  C   UNL A   1      36.811  30.160  27.302  1.00  0.00     0.014 A 
ATOM     28  C   UNL A   1      36.209  29.584  29.574  1.00  0.00     0.014 A 
ATOM     29  C   UNL A   1      38.118  29.740  27.550  1.00  0.00     0.010 A 
ATOM     30  C   UNL A   1      37.533  29.241  29.843  1.00  0.00     0.010 A 
ATOM     31  C   UNL A   1      38.501  29.311  28.833  1.00  0.00    -0.014 A 
BRANCH  31  32
ATOM     32  C   UNL A   1      39.918  28.961  29.114  1.00  0.00     0.031 A 
ATOM     33  C   UNL A   1      40.844  29.953  29.765  1.00  0.00     0.074 A 
ATOM     34  C   UNL A   1      40.372  27.740  28.767  1.00  0.00     0.049 A 
ATOM     35  N   UNL A   1      42.093  29.796  30.125  1.00  0.00    -0.248 NA
ATOM     36  C   UNL A   1      40.311  31.299  30.031  1.00  0.00     0.031 C 
ATOM     37  C   UNL A   1      39.591  26.712  28.073  1.00  0.00     0.029 A 
ATOM     38  N   UNL A   1      41.597  27.150  28.958  1.00  0.00    -0.354 N 
ATOM     39  C   UNL A   1      42.490  31.014  30.664  1.00  0.00     0.074 A 
ATOM     40  C   UNL A   1      41.372  31.922  30.524  1.00  0.00     0.031 C 
ATOM     41  C   UNL A   1      40.340  25.607  27.935  1.00  0.00     0.029 A 
ATOM     42  C   UNL A   1      41.665  25.858  28.493  1.00  0.00     0.049 A 
ATOM     43  H   UNL A   1      42.356  27.610  29.386  1.00  0.00     0.167 HD
ATOM     44  C   UNL A   1      43.668  31.342  31.249  1.00  0.00     0.031 A 
ATOM     45  C   UNL A   1      42.677  24.969  28.515  1.00  0.00     0.031 A 
ATOM     46  C   UNL A   1      44.782  30.440  31.382  1.00  0.00     0.049 A 
ATOM     47  C   UNL A   1      43.975  25.360  29.165  1.00  0.00     0.074 A 
ATOM     48  C   UNL A   1      46.006  30.666  31.989  1.00  0.00     0.029 A 
ATOM     49  N   UNL A   1      44.813  29.139  30.899  1.00  0.00    -0.354 N 
ATOM     50  N   UNL A   1      44.304  26.497  29.734  1.00  0.00    -0.248 NA
ATOM     51  C   UNL A   1      45.033  24.341  29.195  1.00  0.00     0.031 C 
ATOM     52  C   UNL A   1      46.795  29.522  31.826  1.00  0.00     0.029 A 
ATOM     53  C   UNL A   1      46.040  28.559  31.176  1.00  0.00     0.049 A 
ATOM     54  H   UNL A   1      44.072  28.694  30.429  1.00  0.00     0.167 HD
ATOM     55  C   UNL A   1      45.601  26.320  30.204  1.00  0.00     0.074 A 
ATOM     56  C   UNL A   1      45.980  24.959  29.886  1.00  0.00     0.031 C 
ATOM     57  C   UNL A   1      46.410  27.208  30.837  1.00  0.00     0.031 A 
BRANCH  44  58
ATOM     58  C   UNL A   1      43.809  32.737  31.805  1.00  0.00    -0.014 A 
ATOM     59  C   UNL A   1      43.455  33.021  33.137  1.00  0.00     0.010 A 
ATOM     60  C   UNL A   1      44.359  33.761  31.013  1.00  0.00     0.010 A 
ATOM     61  C   UNL A   1      43.619  34.307  33.656  1.00  0.00     0.020 A 
ATOM     62  C   UNL A   1      44.553  35.044  31.538  1.00  0.00     0.020 A 
ATOM     63  C   UNL A   1      44.170  35.310  32.854  1.00  0.00     0.054 A 
BRANCH  63  64
ATOM     64  S   UNL A   1      44.415  36.958  33.572  1.00  0.00     0.124 S 
ATOM     65  O   UNL A   1      43.998  36.748  34.957  1.00  0.00    -0.237 OA
ATOM     66  O   UNL A   1      45.844  37.183  33.374  1.00  0.00    -0.237 OA
ATOM     67  O   UNL A   1      43.536  37.816  32.782  1.00  0.00    -0.744 OA
ENDBRANCH  63  64
ENDBRANCH  44  58
BRANCH  45  68
ATOM     68  C   UNL A   1      42.502  23.623  27.901  1.00  0.00    -0.014 A 
ATOM     69  C   UNL A   1      42.092  22.522  28.674  1.00  0.00     0.010 A 
ATOM     70  C   UNL A   1      42.754  23.436  26.530  1.00  0.00     0.010 A 
ATOM     71  C   UNL A   1      41.970  21.255  28.094  1.00  0.00     0.020 A 
ATOM     72  C   UNL A   1      42.599  22.180  25.940  1.00  0.00     0.020 A 
ATOM     73  C   UNL A   1      42.225  21.092  26.730  1.00  0.00     0.054 A 
BRANCH  73  74
ATOM     74  S   UNL A   1      42.032  19.447  25.991  1.00  0.00     0.124 S 
ATOM     75  O   UNL A   1      42.533  18.577  27.050  1.00  0.00    -0.237 OA
ATOM     76  O   UNL A   1      40.594  19.380  25.743  1.00  0.00    -0.237 OA
ATOM     77  O   UNL A   1      42.860  19.513  24.789  1.00  0.00    -0.744 OA
ENDBRANCH  73  74
ENDBRANCH  45  68
BRANCH  57  78
ATOM     78  C   UNL A   1      47.778  26.719  31.240  1.00  0.00    -0.014 A 
ATOM     79  C   UNL A   1      48.895  26.905  30.404  1.00  0.00     0.010 A 
ATOM     80  C   UNL A   1      47.948  26.067  32.474  1.00  0.00     0.010 A 
ATOM     81  C   UNL A   1      50.142  26.393  30.768  1.00  0.00     0.020 A 
ATOM     82  C   UNL A   1      49.203  25.585  32.857  1.00  0.00     0.020 A 
ATOM     83  C   UNL A   1      50.287  25.728  31.989  1.00  0.00     0.054 A 
BRANCH  83  84
ATOM     84  S   UNL A   1      51.915  25.069  32.436  1.00  0.00     0.124 S 
ATOM     85  O   UNL A   1      52.758  25.590  31.362  1.00  0.00    -0.237 OA
ATOM     86  O   UNL A   1      52.146  25.650  33.755  1.00  0.00    -0.237 OA
ATOM     87  O   UNL A   1      51.718  23.621  32.425  1.00  0.00    -0.744 OA
ENDBRANCH  83  84
ENDBRANCH  57  78
ENDBRANCH  31  32
ENDBRANCH  23  26
ENDBRANCH  21  22
ENDBRANCH   1  21
TORSDOF 15
ENDMDL
