MODEL 1
REMARK VINA RESULT:      -9.6      0.000      0.000
REMARK SMILES NC(=O)CC[C@H](C(=O)NCCCCNC(=O)c1ccc(-c2c3nc(c(-c4ccc(S(=O)(=O)[O-])cc4)c4ccc([nH]4)c(-c4ccc(S(=O)(=O)[O-])cc4)c4nc(c(-c5ccc(S(=O)(=O)[O-])cc5)c5ccc2[nH]5)C=C4)C=C3)cc1)N1CCOC1=O
REMARK SMILES IDX 11 1 10 2 9 3 7 4 8 5 6 7 5 8 4 9 2 10 1 11 3 14 77 15 78 16
REMARK SMILES IDX 81 17 79 18 80 19 82 20 12 21 13 22 14 23 15 24 16 26 17 27
REMARK SMILES IDX 18 28 76 29 19 30 75 31 20 32 21 33 22 34 69 35 23 36 74 37
REMARK SMILES IDX 68 38 70 39 24 40 73 41 67 42 66 43 25 45 55 46 36 47 54 48
REMARK SMILES IDX 37 49 40 50 53 51 71 52 38 53 39 54 52 56 72 57 41 58 26 59
REMARK SMILES IDX 27 60 35 61 28 62 34 63 29 64 30 65 31 66 32 67 33 68 56 69
REMARK SMILES IDX 57 70 65 71 58 72 64 73 59 74 60 75 61 76 62 77 63 78 42 79
REMARK SMILES IDX 43 80 51 81 44 82 50 83 45 84 46 85 47 86 48 87 49 88
REMARK H PARENT 9 6 1 12 1 13 14 25 70 44 40 55
REMARK Flexibility Score: inf
ROOT
ATOM      1  C   UNL A   1      38.152  32.416  31.998  1.00  0.00     0.023 C 
ENDROOT
BRANCH   1   2
ATOM      2  C   UNL A   1      37.158  33.571  32.048  1.00  0.00     0.116 C 
BRANCH   2   3
ATOM      3  N   UNL A   1      35.914  33.188  32.670  1.00  0.00    -0.354 N 
ATOM      4  C   UNL A   1      34.674  33.052  32.123  1.00  0.00     0.242 C 
ATOM      5  O   UNL A   1      33.754  32.755  32.895  1.00  0.00    -0.273 OA
ATOM      6  H   UNL A   1      35.971  32.996  33.634  1.00  0.00     0.163 HD
BRANCH   4   7
ATOM      7  C   UNL A   1      34.343  33.460  30.655  1.00  0.00     0.178 C 
BRANCH   7   8
ATOM      8  C   UNL A   1      33.994  34.975  30.633  1.00  0.00     0.045 C 
BRANCH   8   9
ATOM      9  C   UNL A   1      33.085  35.498  29.512  1.00  0.00     0.102 C 
BRANCH   9  10
ATOM     10  C   UNL A   1      33.606  36.745  28.834  1.00  0.00     0.217 C 
ATOM     11  N   UNL A   1      34.559  36.576  27.877  1.00  0.00    -0.370 N 
ATOM     12  H   UNL A   1      34.929  37.358  27.407  1.00  0.00     0.159 HD
ATOM     13  H   UNL A   1      34.878  35.672  27.654  1.00  0.00     0.159 HD
ATOM     14  O   UNL A   1      33.182  37.869  29.086  1.00  0.00    -0.275 OA
ENDBRANCH   9  10
ENDBRANCH   8   9
ENDBRANCH   7   8
BRANCH   7  15
ATOM     15  N   UNL A   1      35.267  33.033  29.600  1.00  0.00    -0.293 N 
ATOM     16  C   UNL A   1      36.369  33.836  29.152  1.00  0.00     0.165 C 
ATOM     17  C   UNL A   1      34.835  32.330  28.483  1.00  0.00     0.410 C 
ATOM     18  C   UNL A   1      36.977  32.934  28.112  1.00  0.00     0.256 C 
ATOM     19  O   UNL A   1      35.837  32.279  27.549  1.00  0.00    -0.448 OA
ATOM     20  O   UNL A   1      33.743  31.810  28.321  1.00  0.00    -0.224 OA
ENDBRANCH   7  15
ENDBRANCH   4   7
ENDBRANCH   2   3
ENDBRANCH   1   2
BRANCH   1  21
ATOM     21  C   UNL A   1      37.673  31.156  32.705  1.00  0.00     0.023 C 
BRANCH  21  22
ATOM     22  C   UNL A   1      37.848  29.877  31.898  1.00  0.00     0.116 C 
BRANCH  22  23
ATOM     23  N   UNL A   1      36.794  29.682  30.907  1.00  0.00    -0.352 N 
ATOM     24  C   UNL A   1      36.908  29.268  29.601  1.00  0.00     0.251 C 
ATOM     25  H   UNL A   1      35.879  29.872  31.216  1.00  0.00     0.163 HD
ATOM     26  O   UNL A   1      35.939  29.298  28.851  1.00  0.00    -0.269 OA
BRANCH  24  27
ATOM     27  C   UNL A   1      38.229  28.828  29.114  1.00  0.00     0.039 A 
ATOM     28  C   UNL A   1      38.679  29.277  27.873  1.00  0.00     0.014 A 
ATOM     29  C   UNL A   1      39.060  28.071  29.945  1.00  0.00     0.014 A 
ATOM     30  C   UNL A   1      40.007  29.052  27.509  1.00  0.00     0.010 A 
ATOM     31  C   UNL A   1      40.405  27.936  29.624  1.00  0.00     0.010 A 
ATOM     32  C   UNL A   1      40.895  28.437  28.408  1.00  0.00    -0.014 A 
BRANCH  32  33
ATOM     33  C   UNL A   1      42.349  28.350  28.119  1.00  0.00     0.031 A 
ATOM     34  C   UNL A   1      43.235  29.547  28.326  1.00  0.00     0.074 A 
ATOM     35  C   UNL A   1      42.854  27.216  27.594  1.00  0.00     0.049 A 
ATOM     36  N   UNL A   1      44.510  29.681  28.067  1.00  0.00    -0.248 NA
ATOM     37  C   UNL A   1      42.601  30.758  28.872  1.00  0.00     0.031 C 
ATOM     38  C   UNL A   1      42.087  26.003  27.297  1.00  0.00     0.029 A 
ATOM     39  N   UNL A   1      44.133  26.898  27.206  1.00  0.00    -0.354 N 
ATOM     40  C   UNL A   1      44.830  30.987  28.413  1.00  0.00     0.074 A 
ATOM     41  C   UNL A   1      43.602  31.625  28.838  1.00  0.00     0.031 C 
ATOM     42  C   UNL A   1      42.912  25.069  26.800  1.00  0.00     0.029 A 
ATOM     43  C   UNL A   1      44.255  25.629  26.691  1.00  0.00     0.049 A 
ATOM     44  H   UNL A   1      44.891  27.521  27.288  1.00  0.00     0.167 HD
ATOM     45  C   UNL A   1      46.039  31.597  28.400  1.00  0.00     0.031 A 
ATOM     46  C   UNL A   1      45.322  24.990  26.171  1.00  0.00     0.031 A 
ATOM     47  C   UNL A   1      47.254  30.962  27.962  1.00  0.00     0.049 A 
ATOM     48  C   UNL A   1      46.646  25.699  26.126  1.00  0.00     0.074 A 
ATOM     49  C   UNL A   1      48.538  31.478  27.949  1.00  0.00     0.029 A 
ATOM     50  N   UNL A   1      47.335  29.676  27.446  1.00  0.00    -0.354 N 
ATOM     51  N   UNL A   1      46.945  26.910  26.533  1.00  0.00    -0.248 NA
ATOM     52  C   UNL A   1      47.780  24.955  25.559  1.00  0.00     0.031 C 
ATOM     53  C   UNL A   1      49.383  30.530  27.365  1.00  0.00     0.029 A 
ATOM     54  C   UNL A   1      48.641  29.395  27.079  1.00  0.00     0.049 A 
ATOM     55  H   UNL A   1      46.576  29.055  27.356  1.00  0.00     0.167 HD
ATOM     56  C   UNL A   1      48.304  27.068  26.285  1.00  0.00     0.074 A 
ATOM     57  C   UNL A   1      48.773  25.820  25.718  1.00  0.00     0.031 C 
ATOM     58  C   UNL A   1      49.091  28.151  26.504  1.00  0.00     0.031 A 
BRANCH  45  59
ATOM     59  C   UNL A   1      46.099  33.028  28.869  1.00  0.00    -0.014 A 
ATOM     60  C   UNL A   1      45.913  34.096  27.970  1.00  0.00     0.010 A 
ATOM     61  C   UNL A   1      46.321  33.313  30.229  1.00  0.00     0.010 A 
ATOM     62  C   UNL A   1      45.998  35.418  28.412  1.00  0.00     0.020 A 
ATOM     63  C   UNL A   1      46.371  34.635  30.681  1.00  0.00     0.020 A 
ATOM     64  C   UNL A   1      46.230  35.679  29.765  1.00  0.00     0.054 A 
BRANCH  64  65
ATOM     65  S   UNL A   1      46.324  37.407  30.309  1.00  0.00     0.124 S 
ATOM     66  O   UNL A   1      46.313  38.124  29.036  1.00  0.00    -0.237 OA
ATOM     67  O   UNL A   1      45.119  37.551  31.121  1.00  0.00    -0.237 OA
ATOM     68  O   UNL A   1      47.582  37.471  31.048  1.00  0.00    -0.744 OA
ENDBRANCH  64  65
ENDBRANCH  45  59
BRANCH  46  69
ATOM     69  C   UNL A   1      45.168  23.606  25.641  1.00  0.00    -0.014 A 
ATOM     70  C   UNL A   1      44.962  23.378  24.269  1.00  0.00     0.010 A 
ATOM     71  C   UNL A   1      45.257  22.501  26.509  1.00  0.00     0.010 A 
ATOM     72  C   UNL A   1      44.839  22.074  23.777  1.00  0.00     0.020 A 
ATOM     73  C   UNL A   1      45.167  21.197  26.019  1.00  0.00     0.020 A 
ATOM     74  C   UNL A   1      44.950  20.992  24.656  1.00  0.00     0.054 A 
BRANCH  74  75
ATOM     75  S   UNL A   1      44.856  19.308  23.984  1.00  0.00     0.124 S 
ATOM     76  O   UNL A   1      46.246  18.871  24.064  1.00  0.00    -0.237 OA
ATOM     77  O   UNL A   1      43.931  18.654  24.905  1.00  0.00    -0.237 OA
ATOM     78  O   UNL A   1      44.339  19.509  22.632  1.00  0.00    -0.744 OA
ENDBRANCH  74  75
ENDBRANCH  46  69
BRANCH  58  79
ATOM     79  C   UNL A   1      50.549  28.035  26.141  1.00  0.00    -0.014 A 
ATOM     80  C   UNL A   1      51.492  27.548  27.064  1.00  0.00     0.010 A 
ATOM     81  C   UNL A   1      50.968  28.351  24.836  1.00  0.00     0.010 A 
ATOM     82  C   UNL A   1      52.831  27.403  26.694  1.00  0.00     0.020 A 
ATOM     83  C   UNL A   1      52.301  28.178  24.453  1.00  0.00     0.020 A 
ATOM     84  C   UNL A   1      53.227  27.713  25.389  1.00  0.00     0.054 A 
BRANCH  84  85
ATOM     85  S   UNL A   1      54.959  27.456  24.920  1.00  0.00     0.124 S 
ATOM     86  O   UNL A   1      55.290  28.721  24.271  1.00  0.00    -0.237 OA
ATOM     87  O   UNL A   1      55.607  27.224  26.209  1.00  0.00    -0.237 OA
ATOM     88  O   UNL A   1      54.912  26.295  24.034  1.00  0.00    -0.744 OA
ENDBRANCH  84  85
ENDBRANCH  58  79
ENDBRANCH  32  33
ENDBRANCH  24  27
ENDBRANCH  22  23
ENDBRANCH  21  22
ENDBRANCH   1  21
TORSDOF 18
ENDMDL
MODEL 2
REMARK VINA RESULT:      -9.5      7.578     14.027
REMARK SMILES NC(=O)CC[C@H](C(=O)NCCCCNC(=O)c1ccc(-c2c3nc(c(-c4ccc(S(=O)(=O)[O-])cc4)c4ccc([nH]4)c(-c4ccc(S(=O)(=O)[O-])cc4)c4nc(c(-c5ccc(S(=O)(=O)[O-])cc5)c5ccc2[nH]5)C=C4)C=C3)cc1)N1CCOC1=O
REMARK SMILES IDX 11 1 10 2 9 3 7 4 8 5 6 7 5 8 4 9 2 10 1 11 3 14 77 15 78 16
REMARK SMILES IDX 81 17 79 18 80 19 82 20 12 21 13 22 14 23 15 24 16 26 17 27
REMARK SMILES IDX 18 28 76 29 19 30 75 31 20 32 21 33 22 34 69 35 23 36 74 37
REMARK SMILES IDX 68 38 70 39 24 40 73 41 67 42 66 43 25 45 55 46 36 47 54 48
REMARK SMILES IDX 37 49 40 50 53 51 71 52 38 53 39 54 52 56 72 57 41 58 26 59
REMARK SMILES IDX 27 60 35 61 28 62 34 63 29 64 30 65 31 66 32 67 33 68 56 69
REMARK SMILES IDX 57 70 65 71 58 72 64 73 59 74 60 75 61 76 62 77 63 78 42 79
REMARK SMILES IDX 43 80 51 81 44 82 50 83 45 84 46 85 47 86 48 87 49 88
REMARK H PARENT 9 6 1 12 1 13 14 25 70 44 40 55
REMARK Flexibility Score: inf
ROOT
ATOM      1  C   UNL A   1      36.330  23.420  26.441  1.00  0.00     0.023 C 
ENDROOT
BRANCH   1   2
ATOM      2  C   UNL A   1      35.839  22.144  25.764  1.00  0.00     0.116 C 
BRANCH   2   3
ATOM      3  N   UNL A   1      34.962  21.381  26.619  1.00  0.00    -0.354 N 
ATOM      4  C   UNL A   1      33.846  20.667  26.304  1.00  0.00     0.242 C 
ATOM      5  O   UNL A   1      33.239  20.137  27.243  1.00  0.00    -0.273 OA
ATOM      6  H   UNL A   1      35.207  21.376  27.572  1.00  0.00     0.163 HD
BRANCH   4   7
ATOM      7  C   UNL A   1      33.202  20.677  24.883  1.00  0.00     0.178 C 
BRANCH   7   8
ATOM      8  C   UNL A   1      32.390  19.364  24.704  1.00  0.00     0.045 C 
BRANCH   8   9
ATOM      9  C   UNL A   1      33.157  18.062  24.432  1.00  0.00     0.102 C 
BRANCH   9  10
ATOM     10  C   UNL A   1      33.063  17.585  23.000  1.00  0.00     0.217 C 
ATOM     11  N   UNL A   1      32.031  18.066  22.255  1.00  0.00    -0.370 N 
ATOM     12  H   UNL A   1      31.928  17.785  21.317  1.00  0.00     0.159 HD
ATOM     13  H   UNL A   1      31.388  18.695  22.653  1.00  0.00     0.159 HD
ATOM     14  O   UNL A   1      33.887  16.829  22.493  1.00  0.00    -0.275 OA
ENDBRANCH   9  10
ENDBRANCH   8   9
ENDBRANCH   7   8
BRANCH   7  15
ATOM     15  N   UNL A   1      32.500  21.891  24.458  1.00  0.00    -0.293 N 
ATOM     16  C   UNL A   1      31.598  22.613  25.310  1.00  0.00     0.165 C 
ATOM     17  C   UNL A   1      32.000  22.040  23.170  1.00  0.00     0.410 C 
ATOM     18  C   UNL A   1      31.197  23.748  24.407  1.00  0.00     0.256 C 
ATOM     19  O   UNL A   1      31.181  23.137  23.113  1.00  0.00    -0.448 OA
ATOM     20  O   UNL A   1      32.238  21.332  22.205  1.00  0.00    -0.224 OA
ENDBRANCH   7  15
ENDBRANCH   4   7
ENDBRANCH   2   3
ENDBRANCH   1   2
BRANCH   1  21
ATOM     21  C   UNL A   1      37.511  24.077  25.741  1.00  0.00     0.023 C 
BRANCH  21  22
ATOM     22  C   UNL A   1      38.619  24.537  26.678  1.00  0.00     0.116 C 
BRANCH  22  23
ATOM     23  N   UNL A   1      39.836  24.925  25.972  1.00  0.00    -0.352 N 
ATOM     24  C   UNL A   1      40.634  26.027  26.176  1.00  0.00     0.251 C 
ATOM     25  H   UNL A   1      40.124  24.317  25.254  1.00  0.00     0.163 HD
ATOM     26  O   UNL A   1      41.542  26.291  25.397  1.00  0.00    -0.269 OA
BRANCH  24  27
ATOM     27  C   UNL A   1      40.344  26.903  27.327  1.00  0.00     0.039 A 
ATOM     28  C   UNL A   1      39.818  26.343  28.491  1.00  0.00     0.014 A 
ATOM     29  C   UNL A   1      40.706  28.252  27.284  1.00  0.00     0.014 A 
ATOM     30  C   UNL A   1      39.754  27.117  29.650  1.00  0.00     0.010 A 
ATOM     31  C   UNL A   1      40.733  28.989  28.461  1.00  0.00     0.010 A 
ATOM     32  C   UNL A   1      40.270  28.424  29.660  1.00  0.00    -0.014 A 
BRANCH  32  33
ATOM     33  C   UNL A   1      40.379  29.202  30.920  1.00  0.00     0.031 A 
ATOM     34  C   UNL A   1      41.470  28.893  31.908  1.00  0.00     0.074 A 
ATOM     35  C   UNL A   1      39.447  30.131  31.208  1.00  0.00     0.049 A 
ATOM     36  N   UNL A   1      41.684  29.418  33.087  1.00  0.00    -0.248 NA
ATOM     37  C   UNL A   1      42.429  27.842  31.533  1.00  0.00     0.031 C 
ATOM     38  C   UNL A   1      38.308  30.485  30.355  1.00  0.00     0.029 A 
ATOM     39  N   UNL A   1      39.299  30.944  32.305  1.00  0.00    -0.354 N 
ATOM     40  C   UNL A   1      42.796  28.760  33.595  1.00  0.00     0.074 A 
ATOM     41  C   UNL A   1      43.172  27.753  32.626  1.00  0.00     0.031 C 
ATOM     42  C   UNL A   1      37.598  31.458  30.947  1.00  0.00     0.029 A 
ATOM     43  C   UNL A   1      38.194  31.761  32.244  1.00  0.00     0.049 A 
ATOM     44  H   UNL A   1      39.925  30.941  33.066  1.00  0.00     0.167 HD
ATOM     45  C   UNL A   1      43.460  28.987  34.753  1.00  0.00     0.031 A 
ATOM     46  C   UNL A   1      37.701  32.643  33.136  1.00  0.00     0.031 A 
ATOM     47  C   UNL A   1      43.072  29.979  35.720  1.00  0.00     0.049 A 
ATOM     48  C   UNL A   1      38.429  32.849  34.435  1.00  0.00     0.074 A 
ATOM     49  C   UNL A   1      43.700  30.317  36.906  1.00  0.00     0.029 A 
ATOM     50  N   UNL A   1      41.946  30.786  35.622  1.00  0.00    -0.354 N 
ATOM     51  N   UNL A   1      39.527  32.273  34.864  1.00  0.00    -0.248 NA
ATOM     52  C   UNL A   1      37.857  33.829  35.369  1.00  0.00     0.031 C 
ATOM     53  C   UNL A   1      42.920  31.279  37.555  1.00  0.00     0.029 A 
ATOM     54  C   UNL A   1      41.842  31.594  36.742  1.00  0.00     0.049 A 
ATOM     55  H   UNL A   1      41.315  30.783  34.866  1.00  0.00     0.167 HD
ATOM     56  C   UNL A   1      39.786  32.831  36.111  1.00  0.00     0.074 A 
ATOM     57  C   UNL A   1      38.745  33.808  36.355  1.00  0.00     0.031 C 
ATOM     58  C   UNL A   1      40.794  32.555  36.977  1.00  0.00     0.031 A 
BRANCH  45  59
ATOM     59  C   UNL A   1      44.672  28.136  35.037  1.00  0.00    -0.014 A 
ATOM     60  C   UNL A   1      45.956  28.538  34.622  1.00  0.00     0.010 A 
ATOM     61  C   UNL A   1      44.532  26.930  35.746  1.00  0.00     0.010 A 
ATOM     62  C   UNL A   1      47.066  27.728  34.866  1.00  0.00     0.020 A 
ATOM     63  C   UNL A   1      45.647  26.133  36.024  1.00  0.00     0.020 A 
ATOM     64  C   UNL A   1      46.904  26.528  35.564  1.00  0.00     0.054 A 
BRANCH  64  65
ATOM     65  S   UNL A   1      48.368  25.504  35.875  1.00  0.00     0.124 S 
ATOM     66  O   UNL A   1      48.660  25.812  37.273  1.00  0.00    -0.237 OA
ATOM     67  O   UNL A   1      47.872  24.154  35.622  1.00  0.00    -0.237 OA
ATOM     68  O   UNL A   1      49.349  25.996  34.911  1.00  0.00    -0.744 OA
ENDBRANCH  64  65
ENDBRANCH  45  59
BRANCH  46  69
ATOM     69  C   UNL A   1      36.447  33.383  32.828  1.00  0.00    -0.014 A 
ATOM     70  C   UNL A   1      36.482  34.603  32.130  1.00  0.00     0.010 A 
ATOM     71  C   UNL A   1      35.199  32.853  33.207  1.00  0.00     0.010 A 
ATOM     72  C   UNL A   1      35.298  35.282  31.826  1.00  0.00     0.020 A 
ATOM     73  C   UNL A   1      34.012  33.510  32.878  1.00  0.00     0.020 A 
ATOM     74  C   UNL A   1      34.069  34.726  32.196  1.00  0.00     0.054 A 
BRANCH  74  75
ATOM     75  S   UNL A   1      32.543  35.590  31.730  1.00  0.00     0.124 S 
ATOM     76  O   UNL A   1      32.429  35.264  30.313  1.00  0.00    -0.237 OA
ATOM     77  O   UNL A   1      31.552  34.970  32.606  1.00  0.00    -0.237 OA
ATOM     78  O   UNL A   1      32.838  36.990  32.029  1.00  0.00    -0.744 OA
ENDBRANCH  74  75
ENDBRANCH  46  69
BRANCH  58  79
ATOM     79  C   UNL A   1      40.829  33.329  38.269  1.00  0.00    -0.014 A 
ATOM     80  C   UNL A   1      40.132  32.881  39.405  1.00  0.00     0.010 A 
ATOM     81  C   UNL A   1      41.628  34.483  38.367  1.00  0.00     0.010 A 
ATOM     82  C   UNL A   1      40.214  33.586  40.608  1.00  0.00     0.020 A 
ATOM     83  C   UNL A   1      41.738  35.173  39.577  1.00  0.00     0.020 A 
ATOM     84  C   UNL A   1      41.022  34.725  40.688  1.00  0.00     0.054 A 
BRANCH  84  85
ATOM     85  S   UNL A   1      41.158  35.585  42.279  1.00  0.00     0.124 S 
ATOM     86  O   UNL A   1      41.381  36.966  41.861  1.00  0.00    -0.237 OA
ATOM     87  O   UNL A   1      39.862  35.317  42.898  1.00  0.00    -0.237 OA
ATOM     88  O   UNL A   1      42.298  34.940  42.927  1.00  0.00    -0.744 OA
ENDBRANCH  84  85
ENDBRANCH  58  79
ENDBRANCH  32  33
ENDBRANCH  24  27
ENDBRANCH  22  23
ENDBRANCH  21  22
ENDBRANCH   1  21
TORSDOF 18
ENDMDL
MODEL 3
REMARK VINA RESULT:      -9.4      4.551     10.507
REMARK SMILES NC(=O)CC[C@H](C(=O)NCCCCNC(=O)c1ccc(-c2c3nc(c(-c4ccc(S(=O)(=O)[O-])cc4)c4ccc([nH]4)c(-c4ccc(S(=O)(=O)[O-])cc4)c4nc(c(-c5ccc(S(=O)(=O)[O-])cc5)c5ccc2[nH]5)C=C4)C=C3)cc1)N1CCOC1=O
REMARK SMILES IDX 11 1 10 2 9 3 7 4 8 5 6 7 5 8 4 9 2 10 1 11 3 14 77 15 78 16
REMARK SMILES IDX 81 17 79 18 80 19 82 20 12 21 13 22 14 23 15 24 16 26 17 27
REMARK SMILES IDX 18 28 76 29 19 30 75 31 20 32 21 33 22 34 69 35 23 36 74 37
REMARK SMILES IDX 68 38 70 39 24 40 73 41 67 42 66 43 25 45 55 46 36 47 54 48
REMARK SMILES IDX 37 49 40 50 53 51 71 52 38 53 39 54 52 56 72 57 41 58 26 59
REMARK SMILES IDX 27 60 35 61 28 62 34 63 29 64 30 65 31 66 32 67 33 68 56 69
REMARK SMILES IDX 57 70 65 71 58 72 64 73 59 74 60 75 61 76 62 77 63 78 42 79
REMARK SMILES IDX 43 80 51 81 44 82 50 83 45 84 46 85 47 86 48 87 49 88
REMARK H PARENT 9 6 1 12 1 13 14 25 70 44 40 55
REMARK Flexibility Score: inf
ROOT
ATOM      1  C   UNL A   1      35.111  22.434  24.191  1.00  0.00     0.023 C 
ENDROOT
BRANCH   1   2
ATOM      2  C   UNL A   1      33.597  22.601  24.268  1.00  0.00     0.116 C 
BRANCH   2   3
ATOM      3  N   UNL A   1      33.132  22.692  25.632  1.00  0.00    -0.354 N 
ATOM      4  C   UNL A   1      32.402  23.670  26.237  1.00  0.00     0.242 C 
ATOM      5  O   UNL A   1      32.174  23.528  27.445  1.00  0.00    -0.273 OA
ATOM      6  H   UNL A   1      33.378  21.934  26.209  1.00  0.00     0.163 HD
BRANCH   4   7
ATOM      7  C   UNL A   1      32.048  25.021  25.543  1.00  0.00     0.178 C 
BRANCH   7   8
ATOM      8  C   UNL A   1      30.501  25.134  25.450  1.00  0.00     0.045 C 
BRANCH   8   9
ATOM      9  C   UNL A   1      29.862  25.288  24.063  1.00  0.00     0.102 C 
BRANCH   9  10
ATOM     10  C   UNL A   1      29.073  26.567  23.891  1.00  0.00     0.217 C 
ATOM     11  N   UNL A   1      27.716  26.460  23.888  1.00  0.00    -0.370 N 
ATOM     12  H   UNL A   1      27.159  27.264  23.780  1.00  0.00     0.159 HD
ATOM     13  H   UNL A   1      27.292  25.578  23.995  1.00  0.00     0.159 HD
ATOM     14  O   UNL A   1      29.602  27.670  23.795  1.00  0.00    -0.275 OA
ENDBRANCH   9  10
ENDBRANCH   8   9
ENDBRANCH   7   8
BRANCH   7  15
ATOM     15  N   UNL A   1      32.720  26.233  26.021  1.00  0.00    -0.293 N 
ATOM     16  C   UNL A   1      32.075  27.211  26.851  1.00  0.00     0.165 C 
ATOM     17  C   UNL A   1      33.609  26.945  25.225  1.00  0.00     0.410 C 
ATOM     18  C   UNL A   1      33.194  28.196  27.055  1.00  0.00     0.256 C 
ATOM     19  O   UNL A   1      33.892  28.152  25.808  1.00  0.00    -0.448 OA
ATOM     20  O   UNL A   1      34.098  26.582  24.167  1.00  0.00    -0.224 OA
ENDBRANCH   7  15
ENDBRANCH   4   7
ENDBRANCH   2   3
ENDBRANCH   1   2
BRANCH   1  21
ATOM     21  C   UNL A   1      35.764  22.089  25.522  1.00  0.00     0.023 C 
BRANCH  21  22
ATOM     22  C   UNL A   1      37.037  22.871  25.817  1.00  0.00     0.116 C 
BRANCH  22  23
ATOM     23  N   UNL A   1      38.208  22.013  25.969  1.00  0.00    -0.352 N 
ATOM     24  C   UNL A   1      39.480  22.358  26.363  1.00  0.00     0.251 C 
ATOM     25  H   UNL A   1      38.070  21.061  25.762  1.00  0.00     0.163 HD
ATOM     26  O   UNL A   1      40.395  21.544  26.296  1.00  0.00    -0.269 OA
BRANCH  24  27
ATOM     27  C   UNL A   1      39.725  23.737  26.827  1.00  0.00     0.039 A 
ATOM     28  C   UNL A   1      39.979  23.963  28.180  1.00  0.00     0.014 A 
ATOM     29  C   UNL A   1      39.817  24.777  25.899  1.00  0.00     0.014 A 
ATOM     30  C   UNL A   1      40.430  25.219  28.586  1.00  0.00     0.010 A 
ATOM     31  C   UNL A   1      40.360  25.994  26.291  1.00  0.00     0.010 A 
ATOM     32  C   UNL A   1      40.685  26.223  27.637  1.00  0.00    -0.014 A 
BRANCH  32  33
ATOM     33  C   UNL A   1      41.335  27.501  28.021  1.00  0.00     0.031 A 
ATOM     34  C   UNL A   1      42.829  27.647  27.935  1.00  0.00     0.074 A 
ATOM     35  C   UNL A   1      40.584  28.502  28.523  1.00  0.00     0.049 A 
ATOM     36  N   UNL A   1      43.578  28.660  28.288  1.00  0.00    -0.248 NA
ATOM     37  C   UNL A   1      43.580  26.497  27.408  1.00  0.00     0.031 C 
ATOM     38  C   UNL A   1      39.130  28.463  28.706  1.00  0.00     0.029 A 
ATOM     39  N   UNL A   1      40.939  29.747  28.982  1.00  0.00    -0.354 N 
ATOM     40  C   UNL A   1      44.885  28.269  28.030  1.00  0.00     0.074 A 
ATOM     41  C   UNL A   1      44.833  26.904  27.554  1.00  0.00     0.031 C 
ATOM     42  C   UNL A   1      38.717  29.636  29.212  1.00  0.00     0.029 A 
ATOM     43  C   UNL A   1      39.877  30.491  29.441  1.00  0.00     0.049 A 
ATOM     44  H   UNL A   1      41.867  30.076  28.984  1.00  0.00     0.167 HD
ATOM     45  C   UNL A   1      46.026  28.987  28.156  1.00  0.00     0.031 A 
ATOM     46  C   UNL A   1      39.838  31.716  30.002  1.00  0.00     0.031 A 
ATOM     47  C   UNL A   1      46.074  30.340  28.645  1.00  0.00     0.049 A 
ATOM     48  C   UNL A   1      41.121  32.480  30.173  1.00  0.00     0.074 A 
ATOM     49  C   UNL A   1      47.173  31.170  28.772  1.00  0.00     0.029 A 
ATOM     50  N   UNL A   1      44.976  31.058  29.101  1.00  0.00    -0.354 N 
ATOM     51  N   UNL A   1      42.341  32.123  29.848  1.00  0.00    -0.248 NA
ATOM     52  C   UNL A   1      41.024  33.815  30.779  1.00  0.00     0.031 C 
ATOM     53  C   UNL A   1      46.752  32.364  29.367  1.00  0.00     0.029 A 
ATOM     54  C   UNL A   1      45.378  32.307  29.544  1.00  0.00     0.049 A 
ATOM     55  H   UNL A   1      44.049  30.726  29.108  1.00  0.00     0.167 HD
ATOM     56  C   UNL A   1      43.155  33.196  30.197  1.00  0.00     0.074 A 
ATOM     57  C   UNL A   1      42.285  34.223  30.733  1.00  0.00     0.031 C 
ATOM     58  C   UNL A   1      44.502  33.316  30.086  1.00  0.00     0.031 A 
BRANCH  45  59
ATOM     59  C   UNL A   1      47.317  28.314  27.764  1.00  0.00    -0.014 A 
ATOM     60  C   UNL A   1      47.849  28.462  26.469  1.00  0.00     0.010 A 
ATOM     61  C   UNL A   1      48.021  27.543  28.706  1.00  0.00     0.010 A 
ATOM     62  C   UNL A   1      49.031  27.811  26.109  1.00  0.00     0.020 A 
ATOM     63  C   UNL A   1      49.223  26.919  28.360  1.00  0.00     0.020 A 
ATOM     64  C   UNL A   1      49.710  27.041  27.057  1.00  0.00     0.054 A 
BRANCH  64  65
ATOM     65  S   UNL A   1      51.248  26.218  26.563  1.00  0.00     0.124 S 
ATOM     66  O   UNL A   1      51.070  24.882  27.128  1.00  0.00    -0.237 OA
ATOM     67  O   UNL A   1      51.195  26.293  25.105  1.00  0.00    -0.237 OA
ATOM     68  O   UNL A   1      52.292  27.024  27.188  1.00  0.00    -0.744 OA
ENDBRANCH  64  65
ENDBRANCH  45  59
BRANCH  46  69
ATOM     69  C   UNL A   1      38.536  32.282  30.450  1.00  0.00    -0.014 A 
ATOM     70  C   UNL A   1      37.780  33.112  29.603  1.00  0.00     0.010 A 
ATOM     71  C   UNL A   1      38.028  31.967  31.725  1.00  0.00     0.010 A 
ATOM     72  C   UNL A   1      36.548  33.623  30.025  1.00  0.00     0.020 A 
ATOM     73  C   UNL A   1      36.783  32.448  32.138  1.00  0.00     0.020 A 
ATOM     74  C   UNL A   1      36.055  33.281  31.288  1.00  0.00     0.054 A 
BRANCH  74  75
ATOM     75  S   UNL A   1      34.423  33.900  31.785  1.00  0.00     0.124 S 
ATOM     76  O   UNL A   1      33.785  34.146  30.496  1.00  0.00    -0.237 OA
ATOM     77  O   UNL A   1      33.885  32.781  32.555  1.00  0.00    -0.237 OA
ATOM     78  O   UNL A   1      34.734  35.093  32.569  1.00  0.00    -0.744 OA
ENDBRANCH  74  75
ENDBRANCH  46  69
BRANCH  58  79
ATOM     79  C   UNL A   1      45.123  34.611  30.543  1.00  0.00    -0.014 A 
ATOM     80  C   UNL A   1      45.607  34.762  31.855  1.00  0.00     0.010 A 
ATOM     81  C   UNL A   1      45.287  35.665  29.627  1.00  0.00     0.010 A 
ATOM     82  C   UNL A   1      46.222  35.953  32.248  1.00  0.00     0.020 A 
ATOM     83  C   UNL A   1      45.930  36.846  30.007  1.00  0.00     0.020 A 
ATOM     84  C   UNL A   1      46.385  36.986  31.319  1.00  0.00     0.054 A 
BRANCH  84  85
ATOM     85  S   UNL A   1      47.242  38.497  31.840  1.00  0.00     0.124 S 
ATOM     86  O   UNL A   1      46.724  38.691  33.192  1.00  0.00    -0.237 OA
ATOM     87  O   UNL A   1      48.648  38.111  31.755  1.00  0.00    -0.237 OA
ATOM     88  O   UNL A   1      46.815  39.495  30.861  1.00  0.00    -0.744 OA
ENDBRANCH  84  85
ENDBRANCH  58  79
ENDBRANCH  32  33
ENDBRANCH  24  27
ENDBRANCH  22  23
ENDBRANCH  21  22
ENDBRANCH   1  21
TORSDOF 18
ENDMDL
