MODEL 1
REMARK VINA RESULT:     -13.1      0.000      0.000
REMARK SMILES Cc1ccccc1NC(=O)NC[C@@H]1CC[C@@H](C(=O)NCCCCNC(=O)c2ccc(-c3c4nc(c(-c5ccc(S(=O)(=O)[O-])cc5)c5ccc([nH]5)c(-c5ccc(S(=O)(=O)[O-])cc5)c5nc(c(-c6ccc(S(=O)(=O)[O-])cc6)c6ccc3[nH]6)C=C5)C=C4)cc2)O1
REMARK SMILES IDX 21 1 20 2 19 3 17 4 18 5 16 7 13 8 14 9 87 10 15 11 12 12
REMARK SMILES IDX 11 13 8 14 9 15 10 17 7 19 1 20 2 21 3 22 4 23 6 24 5 25
REMARK SMILES IDX 22 26 23 27 24 28 25 29 26 31 27 32 28 33 86 34 29 35 85 36
REMARK SMILES IDX 30 37 31 38 32 39 79 40 33 41 84 42 78 43 80 44 34 45 83 46
REMARK SMILES IDX 77 47 76 48 35 50 65 51 46 52 64 53 47 54 50 55 63 56 81 57
REMARK SMILES IDX 48 58 49 59 62 61 82 62 51 63 36 64 37 65 45 66 38 67 44 68
REMARK SMILES IDX 39 69 40 70 41 71 42 72 43 73 66 74 67 75 75 76 68 77 74 78
REMARK SMILES IDX 69 79 70 80 71 81 72 82 73 83 52 84 53 85 61 86 54 87 60 88
REMARK SMILES IDX 55 89 56 90 57 91 58 92 59 93
REMARK H PARENT 19 6 8 16 11 18 24 30 80 49 50 60
REMARK Flexibility Score: inf
ROOT
ATOM      1  C   UNL A   1      33.285  29.807  25.348  1.00  0.00     0.023 C 
ENDROOT
BRANCH   1   2
ATOM      2  C   UNL A   1      31.766  29.584  25.489  1.00  0.00     0.116 C 
BRANCH   2   3
ATOM      3  N   UNL A   1      31.095  29.454  24.201  1.00  0.00    -0.354 N 
ATOM      4  C   UNL A   1      31.147  28.504  23.221  1.00  0.00     0.249 C 
ATOM      5  O   UNL A   1      30.462  28.717  22.213  1.00  0.00    -0.272 OA
ATOM      6  H   UNL A   1      30.483  30.197  23.997  1.00  0.00     0.163 HD
BRANCH   4   7
ATOM      7  C   UNL A   1      31.964  27.198  23.376  1.00  0.00     0.207 C 
ATOM      8  C   UNL A   1      31.128  25.047  22.939  1.00  0.00     0.138 C 
ATOM      9  C   UNL A   1      32.482  25.166  22.278  1.00  0.00     0.037 C 
ATOM     10  O   UNL A   1      31.158  26.105  23.919  1.00  0.00    -0.363 OA
ATOM     11  C   UNL A   1      32.561  26.653  22.092  1.00  0.00     0.045 C 
BRANCH   8  12
ATOM     12  C   UNL A   1      30.861  23.654  23.541  1.00  0.00     0.149 C 
BRANCH  12  13
ATOM     13  N   UNL A   1      30.462  23.744  24.946  1.00  0.00    -0.335 N 
ATOM     14  N   UNL A   1      32.355  23.571  26.428  1.00  0.00    -0.308 N 
ATOM     15  C   UNL A   1      31.069  23.818  26.133  1.00  0.00     0.319 C 
ATOM     16  H   UNL A   1      32.587  23.959  27.303  1.00  0.00     0.171 HD
ATOM     17  O   UNL A   1      30.371  24.216  27.077  1.00  0.00    -0.249 OA
ATOM     18  H   UNL A   1      29.482  23.750  25.042  1.00  0.00     0.165 HD
BRANCH  14  19
ATOM     19  C   UNL A   1      33.470  22.926  25.865  1.00  0.00     0.045 A 
ATOM     20  C   UNL A   1      34.560  25.178  25.225  1.00  0.00     0.046 C 
ATOM     21  C   UNL A   1      34.470  23.674  25.202  1.00  0.00    -0.027 A 
ATOM     22  C   UNL A   1      35.538  23.002  24.567  1.00  0.00     0.005 A 
ATOM     23  C   UNL A   1      35.641  21.617  24.603  1.00  0.00     0.000 A 
ATOM     24  C   UNL A   1      33.680  21.562  26.001  1.00  0.00     0.026 A 
ATOM     25  C   UNL A   1      34.724  20.898  25.350  1.00  0.00     0.002 A 
ENDBRANCH  14  19
ENDBRANCH  12  13
ENDBRANCH   8  12
ENDBRANCH   4   7
ENDBRANCH   2   3
ENDBRANCH   1   2
BRANCH   1  26
ATOM     26  C   UNL A   1      34.158  28.918  26.242  1.00  0.00     0.023 C 
BRANCH  26  27
ATOM     27  C   UNL A   1      34.402  29.521  27.618  1.00  0.00     0.116 C 
BRANCH  27  28
ATOM     28  N   UNL A   1      35.225  30.721  27.628  1.00  0.00    -0.352 N 
ATOM     29  C   UNL A   1      36.508  30.826  28.139  1.00  0.00     0.251 C 
ATOM     30  H   UNL A   1      34.834  31.534  27.235  1.00  0.00     0.163 HD
ATOM     31  O   UNL A   1      37.029  31.900  28.426  1.00  0.00    -0.269 OA
BRANCH  29  32
ATOM     32  C   UNL A   1      37.300  29.579  28.167  1.00  0.00     0.039 A 
ATOM     33  C   UNL A   1      37.370  28.916  29.399  1.00  0.00     0.014 A 
ATOM     34  C   UNL A   1      38.219  29.322  27.155  1.00  0.00     0.014 A 
ATOM     35  C   UNL A   1      38.490  28.148  29.697  1.00  0.00     0.010 A 
ATOM     36  C   UNL A   1      39.372  28.635  27.486  1.00  0.00     0.010 A 
ATOM     37  C   UNL A   1      39.535  28.109  28.778  1.00  0.00    -0.014 A 
BRANCH  37  38
ATOM     38  C   UNL A   1      40.868  27.599  29.083  1.00  0.00     0.031 A 
ATOM     39  C   UNL A   1      41.192  26.192  28.724  1.00  0.00     0.074 A 
ATOM     40  C   UNL A   1      41.831  28.417  29.577  1.00  0.00     0.049 A 
ATOM     41  N   UNL A   1      42.264  25.579  29.091  1.00  0.00    -0.248 NA
ATOM     42  C   UNL A   1      40.280  25.328  27.969  1.00  0.00     0.031 C 
ATOM     43  C   UNL A   1      43.270  28.145  29.601  1.00  0.00     0.029 A 
ATOM     44  N   UNL A   1      41.725  29.591  30.334  1.00  0.00    -0.354 N 
ATOM     45  C   UNL A   1      42.341  24.408  28.377  1.00  0.00     0.074 A 
ATOM     46  C   UNL A   1      41.031  24.235  27.803  1.00  0.00     0.031 C 
ATOM     47  C   UNL A   1      43.832  28.888  30.565  1.00  0.00     0.029 A 
ATOM     48  C   UNL A   1      42.748  29.506  31.301  1.00  0.00     0.049 A 
ATOM     49  H   UNL A   1      41.075  30.321  30.216  1.00  0.00     0.167 HD
ATOM     50  C   UNL A   1      43.548  23.791  28.252  1.00  0.00     0.031 A 
ATOM     51  C   UNL A   1      42.526  29.327  32.642  1.00  0.00     0.031 A 
ATOM     52  C   UNL A   1      44.516  24.305  29.224  1.00  0.00     0.049 A 
ATOM     53  C   UNL A   1      43.145  28.052  33.216  1.00  0.00     0.074 A 
ATOM     54  C   UNL A   1      45.674  25.060  29.170  1.00  0.00     0.029 A 
ATOM     55  N   UNL A   1      44.169  24.241  30.566  1.00  0.00    -0.354 N 
ATOM     56  N   UNL A   1      43.833  27.189  32.518  1.00  0.00    -0.248 NA
ATOM     57  C   UNL A   1      42.962  27.602  34.600  1.00  0.00     0.031 C 
ATOM     58  C   UNL A   1      45.985  25.488  30.501  1.00  0.00     0.029 A 
ATOM     59  C   UNL A   1      45.038  24.962  31.359  1.00  0.00     0.049 A 
ATOM     60  H   UNL A   1      43.393  23.742  30.911  1.00  0.00     0.167 HD
ATOM     61  C   UNL A   1      44.139  26.097  33.285  1.00  0.00     0.074 A 
ATOM     62  C   UNL A   1      43.583  26.407  34.590  1.00  0.00     0.031 C 
ATOM     63  C   UNL A   1      44.782  24.998  32.791  1.00  0.00     0.031 A 
BRANCH  50  64
ATOM     64  C   UNL A   1      43.894  22.823  27.139  1.00  0.00    -0.014 A 
ATOM     65  C   UNL A   1      42.991  21.797  26.789  1.00  0.00     0.010 A 
ATOM     66  C   UNL A   1      45.141  22.791  26.479  1.00  0.00     0.010 A 
ATOM     67  C   UNL A   1      43.328  20.790  25.865  1.00  0.00     0.020 A 
ATOM     68  C   UNL A   1      45.480  21.813  25.535  1.00  0.00     0.020 A 
ATOM     69  C   UNL A   1      44.578  20.801  25.249  1.00  0.00     0.054 A 
BRANCH  69  70
ATOM     70  S   UNL A   1      45.039  19.474  24.106  1.00  0.00     0.124 S 
ATOM     71  O   UNL A   1      44.365  18.316  24.688  1.00  0.00    -0.237 OA
ATOM     72  O   UNL A   1      44.501  19.946  22.834  1.00  0.00    -0.237 OA
ATOM     73  O   UNL A   1      46.499  19.440  24.184  1.00  0.00    -0.744 OA
ENDBRANCH  69  70
ENDBRANCH  50  64
BRANCH  51  74
ATOM     74  C   UNL A   1      41.296  30.002  33.142  1.00  0.00    -0.014 A 
ATOM     75  C   UNL A   1      41.372  31.401  33.325  1.00  0.00     0.010 A 
ATOM     76  C   UNL A   1      40.035  29.404  32.986  1.00  0.00     0.010 A 
ATOM     77  C   UNL A   1      40.250  32.203  33.115  1.00  0.00     0.020 A 
ATOM     78  C   UNL A   1      38.902  30.208  32.796  1.00  0.00     0.020 A 
ATOM     79  C   UNL A   1      39.041  31.599  32.773  1.00  0.00     0.054 A 
BRANCH  79  80
ATOM     80  S   UNL A   1      37.739  32.656  32.069  1.00  0.00     0.124 S 
ATOM     81  O   UNL A   1      37.391  33.518  33.195  1.00  0.00    -0.237 OA
ATOM     82  O   UNL A   1      38.453  33.309  30.972  1.00  0.00    -0.237 OA
ATOM     83  O   UNL A   1      36.714  31.699  31.666  1.00  0.00    -0.744 OA
ENDBRANCH  79  80
ENDBRANCH  51  74
BRANCH  63  84
ATOM     84  C   UNL A   1      45.168  23.804  33.628  1.00  0.00    -0.014 A 
ATOM     85  C   UNL A   1      44.246  22.811  33.997  1.00  0.00     0.010 A 
ATOM     86  C   UNL A   1      46.466  23.717  34.182  1.00  0.00     0.010 A 
ATOM     87  C   UNL A   1      44.625  21.741  34.820  1.00  0.00     0.020 A 
ATOM     88  C   UNL A   1      46.849  22.666  35.019  1.00  0.00     0.020 A 
ATOM     89  C   UNL A   1      45.930  21.668  35.315  1.00  0.00     0.054 A 
BRANCH  89  90
ATOM     90  S   UNL A   1      46.397  20.288  36.389  1.00  0.00     0.124 S 
ATOM     91  O   UNL A   1      45.821  19.135  35.702  1.00  0.00    -0.237 OA
ATOM     92  O   UNL A   1      47.856  20.368  36.363  1.00  0.00    -0.237 OA
ATOM     93  O   UNL A   1      45.777  20.617  37.670  1.00  0.00    -0.744 OA
ENDBRANCH  89  90
ENDBRANCH  63  84
ENDBRANCH  37  38
ENDBRANCH  29  32
ENDBRANCH  27  28
ENDBRANCH  26  27
ENDBRANCH   1  26
TORSDOF 17
ENDMDL
MODEL 2
REMARK VINA RESULT:     -13.0      1.467      2.245
REMARK SMILES Cc1ccccc1NC(=O)NC[C@@H]1CC[C@@H](C(=O)NCCCCNC(=O)c2ccc(-c3c4nc(c(-c5ccc(S(=O)(=O)[O-])cc5)c5ccc([nH]5)c(-c5ccc(S(=O)(=O)[O-])cc5)c5nc(c(-c6ccc(S(=O)(=O)[O-])cc6)c6ccc3[nH]6)C=C5)C=C4)cc2)O1
REMARK SMILES IDX 21 1 20 2 19 3 17 4 18 5 16 7 13 8 14 9 87 10 15 11 12 12
REMARK SMILES IDX 11 13 8 14 9 15 10 17 7 19 1 20 2 21 3 22 4 23 6 24 5 25
REMARK SMILES IDX 22 26 23 27 24 28 25 29 26 31 27 32 28 33 86 34 29 35 85 36
REMARK SMILES IDX 30 37 31 38 32 39 79 40 33 41 84 42 78 43 80 44 34 45 83 46
REMARK SMILES IDX 77 47 76 48 35 50 65 51 46 52 64 53 47 54 50 55 63 56 81 57
REMARK SMILES IDX 48 58 49 59 62 61 82 62 51 63 36 64 37 65 45 66 38 67 44 68
REMARK SMILES IDX 39 69 40 70 41 71 42 72 43 73 66 74 67 75 75 76 68 77 74 78
REMARK SMILES IDX 69 79 70 80 71 81 72 82 73 83 52 84 53 85 61 86 54 87 60 88
REMARK SMILES IDX 55 89 56 90 57 91 58 92 59 93
REMARK H PARENT 19 6 8 16 11 18 24 30 80 49 50 60
REMARK Flexibility Score: inf
ROOT
ATOM      1  C   UNL A   1      32.107  28.952  26.347  1.00  0.00     0.023 C 
ENDROOT
BRANCH   1   2
ATOM      2  C   UNL A   1      32.303  28.894  24.819  1.00  0.00     0.116 C 
BRANCH   2   3
ATOM      3  N   UNL A   1      31.318  29.691  24.096  1.00  0.00    -0.354 N 
ATOM      4  C   UNL A   1      30.305  29.360  23.244  1.00  0.00     0.249 C 
ATOM      5  O   UNL A   1      29.661  30.301  22.764  1.00  0.00    -0.272 OA
ATOM      6  H   UNL A   1      31.400  30.659  24.255  1.00  0.00     0.163 HD
BRANCH   4   7
ATOM      7  C   UNL A   1      29.931  27.890  22.933  1.00  0.00     0.207 C 
ATOM      8  C   UNL A   1      31.471  26.120  22.827  1.00  0.00     0.138 C 
ATOM      9  C   UNL A   1      30.295  25.666  23.660  1.00  0.00     0.037 C 
ATOM     10  O   UNL A   1      30.928  27.233  22.089  1.00  0.00    -0.363 OA
ATOM     11  C   UNL A   1      29.783  26.990  24.147  1.00  0.00     0.045 C 
BRANCH   8  12
ATOM     12  C   UNL A   1      32.051  25.008  21.931  1.00  0.00     0.149 C 
BRANCH  12  13
ATOM     13  N   UNL A   1      33.469  24.776  22.212  1.00  0.00    -0.335 N 
ATOM     14  N   UNL A   1      33.778  23.335  24.120  1.00  0.00    -0.308 N 
ATOM     15  C   UNL A   1      34.189  24.012  23.036  1.00  0.00     0.319 C 
ATOM     16  H   UNL A   1      34.443  22.655  24.372  1.00  0.00     0.171 HD
ATOM     17  O   UNL A   1      35.383  23.864  22.735  1.00  0.00    -0.249 OA
ATOM     18  H   UNL A   1      34.045  25.333  21.642  1.00  0.00     0.165 HD
BRANCH  14  19
ATOM     19  C   UNL A   1      32.684  23.306  25.003  1.00  0.00     0.045 A 
ATOM     20  C   UNL A   1      33.388  25.542  26.088  1.00  0.00     0.046 C 
ATOM     21  C   UNL A   1      32.548  24.293  26.006  1.00  0.00    -0.027 A 
ATOM     22  C   UNL A   1      31.490  24.199  26.938  1.00  0.00     0.005 A 
ATOM     23  C   UNL A   1      30.562  23.168  26.873  1.00  0.00     0.000 A 
ATOM     24  C   UNL A   1      31.663  22.376  24.882  1.00  0.00     0.026 A 
ATOM     25  C   UNL A   1      30.632  22.271  25.821  1.00  0.00     0.002 A 
ENDBRANCH  14  19
ENDBRANCH  12  13
ENDBRANCH   8  12
ENDBRANCH   4   7
ENDBRANCH   2   3
ENDBRANCH   1   2
BRANCH   1  26
ATOM     26  C   UNL A   1      32.866  30.080  27.058  1.00  0.00     0.023 C 
BRANCH  26  27
ATOM     27  C   UNL A   1      34.369  29.850  27.095  1.00  0.00     0.116 C 
BRANCH  27  28
ATOM     28  N   UNL A   1      35.168  31.039  27.349  1.00  0.00    -0.352 N 
ATOM     29  C   UNL A   1      36.384  31.080  28.013  1.00  0.00     0.251 C 
ATOM     30  H   UNL A   1      34.812  31.895  27.019  1.00  0.00     0.163 HD
ATOM     31  O   UNL A   1      36.853  32.109  28.490  1.00  0.00    -0.269 OA
BRANCH  29  32
ATOM     32  C   UNL A   1      37.186  29.839  27.975  1.00  0.00     0.039 A 
ATOM     33  C   UNL A   1      37.220  29.086  29.156  1.00  0.00     0.014 A 
ATOM     34  C   UNL A   1      38.140  29.664  26.978  1.00  0.00     0.014 A 
ATOM     35  C   UNL A   1      38.337  28.306  29.434  1.00  0.00     0.010 A 
ATOM     36  C   UNL A   1      39.287  28.962  27.297  1.00  0.00     0.010 A 
ATOM     37  C   UNL A   1      39.412  28.342  28.551  1.00  0.00    -0.014 A 
BRANCH  37  38
ATOM     38  C   UNL A   1      40.738  27.819  28.863  1.00  0.00     0.031 A 
ATOM     39  C   UNL A   1      41.022  26.386  28.585  1.00  0.00     0.074 A 
ATOM     40  C   UNL A   1      41.729  28.643  29.288  1.00  0.00     0.049 A 
ATOM     41  N   UNL A   1      42.087  25.771  28.969  1.00  0.00    -0.248 NA
ATOM     42  C   UNL A   1      40.076  25.499  27.901  1.00  0.00     0.031 C 
ATOM     43  C   UNL A   1      43.162  28.338  29.303  1.00  0.00     0.029 A 
ATOM     44  N   UNL A   1      41.665  29.862  29.973  1.00  0.00    -0.354 N 
ATOM     45  C   UNL A   1      42.123  24.556  28.327  1.00  0.00     0.074 A 
ATOM     46  C   UNL A   1      40.798  24.380  27.789  1.00  0.00     0.031 C 
ATOM     47  C   UNL A   1      43.760  29.125  30.208  1.00  0.00     0.029 A 
ATOM     48  C   UNL A   1      42.705  29.812  30.924  1.00  0.00     0.049 A 
ATOM     49  H   UNL A   1      41.030  30.599  29.822  1.00  0.00     0.167 HD
ATOM     50  C   UNL A   1      43.312  23.904  28.218  1.00  0.00     0.031 A 
ATOM     51  C   UNL A   1      42.505  29.720  32.278  1.00  0.00     0.031 A 
ATOM     52  C   UNL A   1      44.311  24.452  29.139  1.00  0.00     0.049 A 
ATOM     53  C   UNL A   1      43.106  28.469  32.918  1.00  0.00     0.074 A 
ATOM     54  C   UNL A   1      45.485  25.175  29.018  1.00  0.00     0.029 A 
ATOM     55  N   UNL A   1      43.989  24.479  30.488  1.00  0.00    -0.354 N 
ATOM     56  N   UNL A   1      43.760  27.547  32.262  1.00  0.00    -0.248 NA
ATOM     57  C   UNL A   1      42.939  28.108  34.330  1.00  0.00     0.031 C 
ATOM     58  C   UNL A   1      45.832  25.675  30.314  1.00  0.00     0.029 A 
ATOM     59  C   UNL A   1      44.890  25.225  31.220  1.00  0.00     0.049 A 
ATOM     60  H   UNL A   1      43.209  24.021  30.877  1.00  0.00     0.167 HD
ATOM     61  C   UNL A   1      44.056  26.497  33.089  1.00  0.00     0.074 A 
ATOM     62  C   UNL A   1      43.532  26.900  34.382  1.00  0.00     0.031 C 
ATOM     63  C   UNL A   1      44.663  25.355  32.652  1.00  0.00     0.031 A 
BRANCH  50  64
ATOM     64  C   UNL A   1      43.614  22.862  27.160  1.00  0.00    -0.014 A 
ATOM     65  C   UNL A   1      42.742  21.768  26.977  1.00  0.00     0.010 A 
ATOM     66  C   UNL A   1      44.801  22.832  26.396  1.00  0.00     0.010 A 
ATOM     67  C   UNL A   1      43.053  20.703  26.112  1.00  0.00     0.020 A 
ATOM     68  C   UNL A   1      45.110  21.794  25.508  1.00  0.00     0.020 A 
ATOM     69  C   UNL A   1      44.243  20.720  25.387  1.00  0.00     0.054 A 
BRANCH  69  70
ATOM     70  S   UNL A   1      44.676  19.323  24.318  1.00  0.00     0.124 S 
ATOM     71  O   UNL A   1      46.093  19.133  24.617  1.00  0.00    -0.237 OA
ATOM     72  O   UNL A   1      43.783  18.270  24.792  1.00  0.00    -0.237 OA
ATOM     73  O   UNL A   1      44.391  19.814  22.971  1.00  0.00    -0.744 OA
ENDBRANCH  69  70
ENDBRANCH  50  64
BRANCH  51  74
ATOM     74  C   UNL A   1      41.301  30.455  32.757  1.00  0.00    -0.014 A 
ATOM     75  C   UNL A   1      40.140  29.684  32.991  1.00  0.00     0.010 A 
ATOM     76  C   UNL A   1      41.427  31.704  33.386  1.00  0.00     0.010 A 
ATOM     77  C   UNL A   1      39.251  30.037  34.006  1.00  0.00     0.020 A 
ATOM     78  C   UNL A   1      40.520  32.072  34.392  1.00  0.00     0.020 A 
ATOM     79  C   UNL A   1      39.497  31.190  34.751  1.00  0.00     0.054 A 
BRANCH  79  80
ATOM     80  S   UNL A   1      38.610  31.382  36.327  1.00  0.00     0.124 S 
ATOM     81  O   UNL A   1      37.483  32.231  35.953  1.00  0.00    -0.237 OA
ATOM     82  O   UNL A   1      38.273  29.993  36.645  1.00  0.00    -0.237 OA
ATOM     83  O   UNL A   1      39.605  31.998  37.197  1.00  0.00    -0.744 OA
ENDBRANCH  79  80
ENDBRANCH  51  74
BRANCH  63  84
ATOM     84  C   UNL A   1      45.038  24.206  33.553  1.00  0.00    -0.014 A 
ATOM     85  C   UNL A   1      46.351  24.000  34.007  1.00  0.00     0.010 A 
ATOM     86  C   UNL A   1      44.083  23.212  33.868  1.00  0.00     0.010 A 
ATOM     87  C   UNL A   1      46.676  22.890  34.802  1.00  0.00     0.020 A 
ATOM     88  C   UNL A   1      44.400  22.093  34.642  1.00  0.00     0.020 A 
ATOM     89  C   UNL A   1      45.694  21.951  35.125  1.00  0.00     0.054 A 
BRANCH  89  90
ATOM     90  S   UNL A   1      46.136  20.517  36.139  1.00  0.00     0.124 S 
ATOM     91  O   UNL A   1      45.676  20.909  37.469  1.00  0.00    -0.237 OA
ATOM     92  O   UNL A   1      45.369  19.450  35.500  1.00  0.00    -0.237 OA
ATOM     93  O   UNL A   1      47.586  20.418  35.991  1.00  0.00    -0.744 OA
ENDBRANCH  89  90
ENDBRANCH  63  84
ENDBRANCH  37  38
ENDBRANCH  29  32
ENDBRANCH  27  28
ENDBRANCH  26  27
ENDBRANCH   1  26
TORSDOF 17
ENDMDL
MODEL 3
REMARK VINA RESULT:     -12.7      1.801      2.449
REMARK SMILES Cc1ccccc1NC(=O)NC[C@@H]1CC[C@@H](C(=O)NCCCCNC(=O)c2ccc(-c3c4nc(c(-c5ccc(S(=O)(=O)[O-])cc5)c5ccc([nH]5)c(-c5ccc(S(=O)(=O)[O-])cc5)c5nc(c(-c6ccc(S(=O)(=O)[O-])cc6)c6ccc3[nH]6)C=C5)C=C4)cc2)O1
REMARK SMILES IDX 21 1 20 2 19 3 17 4 18 5 16 7 13 8 14 9 87 10 15 11 12 12
REMARK SMILES IDX 11 13 8 14 9 15 10 17 7 19 1 20 2 21 3 22 4 23 6 24 5 25
REMARK SMILES IDX 22 26 23 27 24 28 25 29 26 31 27 32 28 33 86 34 29 35 85 36
REMARK SMILES IDX 30 37 31 38 32 39 79 40 33 41 84 42 78 43 80 44 34 45 83 46
REMARK SMILES IDX 77 47 76 48 35 50 65 51 46 52 64 53 47 54 50 55 63 56 81 57
REMARK SMILES IDX 48 58 49 59 62 61 82 62 51 63 36 64 37 65 45 66 38 67 44 68
REMARK SMILES IDX 39 69 40 70 41 71 42 72 43 73 66 74 67 75 75 76 68 77 74 78
REMARK SMILES IDX 69 79 70 80 71 81 72 82 73 83 52 84 53 85 61 86 54 87 60 88
REMARK SMILES IDX 55 89 56 90 57 91 58 92 59 93
REMARK H PARENT 19 6 8 16 11 18 24 30 80 49 50 60
REMARK Flexibility Score: inf
ROOT
ATOM      1  C   UNL A   1      31.365  30.117  25.461  1.00  0.00     0.023 C 
ENDROOT
BRANCH   1   2
ATOM      2  C   UNL A   1      31.733  29.025  24.437  1.00  0.00     0.116 C 
BRANCH   2   3
ATOM      3  N   UNL A   1      30.679  28.029  24.276  1.00  0.00    -0.354 N 
ATOM      4  C   UNL A   1      30.488  26.787  24.809  1.00  0.00     0.249 C 
ATOM      5  O   UNL A   1      29.483  26.174  24.429  1.00  0.00    -0.272 OA
ATOM      6  H   UNL A   1      29.963  28.308  23.661  1.00  0.00     0.163 HD
BRANCH   4   7
ATOM      7  C   UNL A   1      31.436  26.192  25.879  1.00  0.00     0.207 C 
ATOM      8  C   UNL A   1      32.118  23.945  25.948  1.00  0.00     0.138 C 
ATOM      9  C   UNL A   1      33.342  24.811  26.141  1.00  0.00     0.037 C 
ATOM     10  O   UNL A   1      31.038  24.842  26.279  1.00  0.00    -0.363 OA
ATOM     11  C   UNL A   1      32.890  26.070  25.460  1.00  0.00     0.045 C 
BRANCH   8  12
ATOM     12  C   UNL A   1      32.138  22.661  26.801  1.00  0.00     0.149 C 
BRANCH  12  13
ATOM     13  N   UNL A   1      31.835  21.477  25.996  1.00  0.00    -0.335 N 
ATOM     14  N   UNL A   1      33.802  20.609  24.907  1.00  0.00    -0.308 N 
ATOM     15  C   UNL A   1      32.520  20.566  25.302  1.00  0.00     0.319 C 
ATOM     16  H   UNL A   1      34.116  19.709  24.657  1.00  0.00     0.171 HD
ATOM     17  O   UNL A   1      31.912  19.520  25.030  1.00  0.00    -0.249 OA
ATOM     18  H   UNL A   1      30.867  21.308  25.954  1.00  0.00     0.165 HD
BRANCH  14  19
ATOM     19  C   UNL A   1      34.833  21.551  24.742  1.00  0.00     0.045 A 
ATOM     20  C   UNL A   1      33.556  22.745  22.840  1.00  0.00     0.046 C 
ATOM     21  C   UNL A   1      34.771  22.503  23.699  1.00  0.00    -0.027 A 
ATOM     22  C   UNL A   1      35.855  23.387  23.495  1.00  0.00     0.005 A 
ATOM     23  C   UNL A   1      36.973  23.356  24.319  1.00  0.00     0.000 A 
ATOM     24  C   UNL A   1      35.896  21.644  25.627  1.00  0.00     0.026 A 
ATOM     25  C   UNL A   1      36.979  22.502  25.408  1.00  0.00     0.002 A 
ENDBRANCH  14  19
ENDBRANCH  12  13
ENDBRANCH   8  12
ENDBRANCH   4   7
ENDBRANCH   2   3
ENDBRANCH   1   2
BRANCH   1  26
ATOM     26  C   UNL A   1      31.820  29.841  26.899  1.00  0.00     0.023 C 
BRANCH  26  27
ATOM     27  C   UNL A   1      33.333  29.878  27.058  1.00  0.00     0.116 C 
BRANCH  27  28
ATOM     28  N   UNL A   1      33.876  31.157  27.490  1.00  0.00    -0.352 N 
ATOM     29  C   UNL A   1      34.898  31.343  28.407  1.00  0.00     0.251 C 
ATOM     30  H   UNL A   1      33.480  31.967  27.095  1.00  0.00     0.163 HD
ATOM     31  O   UNL A   1      35.098  32.408  28.982  1.00  0.00    -0.269 OA
BRANCH  29  32
ATOM     32  C   UNL A   1      35.861  30.229  28.539  1.00  0.00     0.039 A 
ATOM     33  C   UNL A   1      36.019  29.696  29.825  1.00  0.00     0.014 A 
ATOM     34  C   UNL A   1      36.812  30.017  27.547  1.00  0.00     0.014 A 
ATOM     35  C   UNL A   1      37.236  29.127  30.181  1.00  0.00     0.010 A 
ATOM     36  C   UNL A   1      38.049  29.535  27.929  1.00  0.00     0.010 A 
ATOM     37  C   UNL A   1      38.280  29.155  29.262  1.00  0.00    -0.014 A 
BRANCH  37  38
ATOM     38  C   UNL A   1      39.671  28.870  29.600  1.00  0.00     0.031 A 
ATOM     39  C   UNL A   1      40.252  27.566  29.185  1.00  0.00     0.074 A 
ATOM     40  C   UNL A   1      40.455  29.815  30.177  1.00  0.00     0.049 A 
ATOM     41  N   UNL A   1      41.403  27.130  29.569  1.00  0.00    -0.248 NA
ATOM     42  C   UNL A   1      39.536  26.599  28.347  1.00  0.00     0.031 C 
ATOM     43  C   UNL A   1      41.918  29.799  30.252  1.00  0.00     0.029 A 
ATOM     44  N   UNL A   1      40.115  30.906  30.987  1.00  0.00    -0.354 N 
ATOM     45  C   UNL A   1      41.712  26.034  28.800  1.00  0.00     0.074 A 
ATOM     46  C   UNL A   1      40.475  25.667  28.160  1.00  0.00     0.031 C 
ATOM     47  C   UNL A   1      42.304  30.573  31.277  1.00  0.00     0.029 A 
ATOM     48  C   UNL A   1      41.102  30.947  31.993  1.00  0.00     0.049 A 
ATOM     49  H   UNL A   1      39.350  31.516  30.876  1.00  0.00     0.167 HD
ATOM     50  C   UNL A   1      43.013  25.647  28.698  1.00  0.00     0.031 A 
ATOM     51  C   UNL A   1      40.868  30.655  33.313  1.00  0.00     0.031 A 
ATOM     52  C   UNL A   1      43.840  26.266  29.738  1.00  0.00     0.049 A 
ATOM     53  C   UNL A   1      41.684  29.478  33.849  1.00  0.00     0.074 A 
ATOM     54  C   UNL A   1      44.846  27.215  29.774  1.00  0.00     0.029 A 
ATOM     55  N   UNL A   1      43.462  26.065  31.058  1.00  0.00    -0.354 N 
ATOM     56  N   UNL A   1      42.539  28.790  33.140  1.00  0.00    -0.248 NA
ATOM     57  C   UNL A   1      41.535  28.923  35.198  1.00  0.00     0.031 C 
ATOM     58  C   UNL A   1      45.029  27.613  31.137  1.00  0.00     0.029 A 
ATOM     59  C   UNL A   1      44.161  26.880  31.925  1.00  0.00     0.049 A 
ATOM     60  H   UNL A   1      42.776  25.419  31.342  1.00  0.00     0.167 HD
ATOM     61  C   UNL A   1      43.007  27.727  33.863  1.00  0.00     0.074 A 
ATOM     62  C   UNL A   1      42.358  27.859  35.156  1.00  0.00     0.031 C 
ATOM     63  C   UNL A   1      43.852  26.788  33.344  1.00  0.00     0.031 A 
BRANCH  50  64
ATOM     64  C   UNL A   1      43.565  24.821  27.555  1.00  0.00    -0.014 A 
ATOM     65  C   UNL A   1      43.945  23.480  27.771  1.00  0.00     0.010 A 
ATOM     66  C   UNL A   1      43.849  25.337  26.272  1.00  0.00     0.010 A 
ATOM     67  C   UNL A   1      44.595  22.719  26.781  1.00  0.00     0.020 A 
ATOM     68  C   UNL A   1      44.467  24.584  25.266  1.00  0.00     0.020 A 
ATOM     69  C   UNL A   1      44.859  23.282  25.533  1.00  0.00     0.054 A 
BRANCH  69  70
ATOM     70  S   UNL A   1      45.749  22.328  24.277  1.00  0.00     0.124 S 
ATOM     71  O   UNL A   1      46.624  23.337  23.685  1.00  0.00    -0.237 OA
ATOM     72  O   UNL A   1      46.415  21.299  25.070  1.00  0.00    -0.237 OA
ATOM     73  O   UNL A   1      44.689  21.839  23.397  1.00  0.00    -0.744 OA
ENDBRANCH  69  70
ENDBRANCH  50  64
BRANCH  51  74
ATOM     74  C   UNL A   1      39.521  31.074  33.790  1.00  0.00    -0.014 A 
ATOM     75  C   UNL A   1      39.370  32.433  34.145  1.00  0.00     0.010 A 
ATOM     76  C   UNL A   1      38.380  30.324  33.463  1.00  0.00     0.010 A 
ATOM     77  C   UNL A   1      38.153  33.084  33.944  1.00  0.00     0.020 A 
ATOM     78  C   UNL A   1      37.149  30.974  33.281  1.00  0.00     0.020 A 
ATOM     79  C   UNL A   1      37.074  32.361  33.436  1.00  0.00     0.054 A 
BRANCH  79  80
ATOM     80  S   UNL A   1      35.670  33.301  32.763  1.00  0.00     0.124 S 
ATOM     81  O   UNL A   1      35.187  34.028  33.933  1.00  0.00    -0.237 OA
ATOM     82  O   UNL A   1      36.327  34.117  31.741  1.00  0.00    -0.237 OA
ATOM     83  O   UNL A   1      34.783  32.259  32.257  1.00  0.00    -0.744 OA
ENDBRANCH  79  80
ENDBRANCH  51  74
BRANCH  63  84
ATOM     84  C   UNL A   1      44.415  25.635  34.136  1.00  0.00    -0.014 A 
ATOM     85  C   UNL A   1      43.755  24.399  34.242  1.00  0.00     0.010 A 
ATOM     86  C   UNL A   1      45.583  25.811  34.913  1.00  0.00     0.010 A 
ATOM     87  C   UNL A   1      44.280  23.364  35.030  1.00  0.00     0.020 A 
ATOM     88  C   UNL A   1      46.103  24.794  35.717  1.00  0.00     0.020 A 
ATOM     89  C   UNL A   1      45.458  23.564  35.752  1.00  0.00     0.054 A 
BRANCH  89  90
ATOM     90  S   UNL A   1      46.112  22.222  36.776  1.00  0.00     0.124 S 
ATOM     91  O   UNL A   1      45.449  21.043  36.225  1.00  0.00    -0.237 OA
ATOM     92  O   UNL A   1      47.546  22.315  36.514  1.00  0.00    -0.237 OA
ATOM     93  O   UNL A   1      45.701  22.584  38.131  1.00  0.00    -0.744 OA
ENDBRANCH  89  90
ENDBRANCH  63  84
ENDBRANCH  37  38
ENDBRANCH  29  32
ENDBRANCH  27  28
ENDBRANCH  26  27
ENDBRANCH   1  26
TORSDOF 17
ENDMDL
