MODEL 1
REMARK VINA RESULT:     -12.1      0.000      0.000
REMARK SMILES CC(=O)Nc1cccc(-c2cc(F)ccc2C(=O)NCCCCNC(=O)c2ccc(-c3c4nc(c(-c5ccc(S(=O)(=O)[O-])cc5)c5ccc([nH]5)c(-c5ccc(S(=O)(=O)[O-])cc5)c5nc(c(-c6ccc(S(=O)(=O)[O-])cc6)c6ccc3[nH]6)C=C5)C=C4)cc2)c1
REMARK SMILES IDX 22 1 21 2 20 3 19 4 17 5 18 6 16 8 10 9 11 10 12 11 15 12
REMARK SMILES IDX 13 13 14 14 9 15 5 16 6 17 87 18 7 19 8 20 4 21 1 22 2 23
REMARK SMILES IDX 3 24 23 26 24 27 25 28 26 30 27 31 28 32 86 33 29 34 85 35
REMARK SMILES IDX 30 36 31 37 32 38 79 39 33 40 84 41 78 42 80 43 34 44 83 45
REMARK SMILES IDX 77 46 76 47 35 49 65 50 46 51 64 52 47 53 50 54 63 55 81 56
REMARK SMILES IDX 48 57 49 58 62 60 82 61 51 62 36 63 37 64 45 65 38 66 44 67
REMARK SMILES IDX 39 68 40 69 41 70 42 71 43 72 66 73 67 74 75 75 68 76 74 77
REMARK SMILES IDX 69 78 70 79 71 80 72 81 73 82 52 83 53 84 61 85 54 86 60 87
REMARK SMILES IDX 55 88 56 89 57 90 58 91 59 92
REMARK H PARENT 19 7 4 25 24 29 80 48 50 59
REMARK Flexibility Score: inf
ROOT
ATOM      1  C   UNL A   1      31.745  28.486  27.397  1.00  0.00     0.023 C 
ENDROOT
BRANCH   1   2
ATOM      2  C   UNL A   1      31.369  27.329  26.470  1.00  0.00     0.023 C 
BRANCH   2   3
ATOM      3  C   UNL A   1      32.024  25.977  26.709  1.00  0.00     0.116 C 
BRANCH   3   4
ATOM      4  N   UNL A   1      31.253  24.800  26.408  1.00  0.00    -0.352 N 
ATOM      5  C   UNL A   1      31.250  23.986  25.300  1.00  0.00     0.251 C 
ATOM      6  O   UNL A   1      30.596  22.941  25.405  1.00  0.00    -0.269 OA
ATOM      7  H   UNL A   1      30.620  24.534  27.114  1.00  0.00     0.163 HD
BRANCH   5   8
ATOM      8  C   UNL A   1      31.876  24.266  23.953  1.00  0.00     0.047 A 
ATOM      9  C   UNL A   1      32.932  23.602  23.273  1.00  0.00    -0.003 A 
ATOM     10  C   UNL A   1      33.264  24.038  21.961  1.00  0.00     0.048 A 
ATOM     11  C   UNL A   1      32.592  25.078  21.336  1.00  0.00     0.123 A 
ATOM     12  C   UNL A   1      31.211  25.325  23.271  1.00  0.00     0.017 A 
ATOM     13  F   UNL A   1      32.944  25.447  20.097  1.00  0.00    -0.207 F 
ATOM     14  C   UNL A   1      31.562  25.729  21.981  1.00  0.00     0.040 A 
BRANCH   9  15
ATOM     15  C   UNL A   1      33.745  22.485  23.781  1.00  0.00    -0.015 A 
ATOM     16  C   UNL A   1      33.959  20.250  24.728  1.00  0.00     0.041 A 
ATOM     17  C   UNL A   1      35.320  20.491  24.963  1.00  0.00     0.026 A 
ATOM     18  C   UNL A   1      33.186  21.238  24.104  1.00  0.00     0.034 A 
ATOM     19  C   UNL A   1      35.908  21.694  24.586  1.00  0.00     0.003 A 
ATOM     20  C   UNL A   1      35.126  22.682  23.997  1.00  0.00     0.009 A 
BRANCH  16  21
ATOM     21  N   UNL A   1      33.429  19.088  25.312  1.00  0.00    -0.326 N 
ATOM     22  C   UNL A   1      32.983  17.641  23.337  1.00  0.00     0.114 C 
ATOM     23  C   UNL A   1      32.791  18.006  24.783  1.00  0.00     0.221 C 
ATOM     24  O   UNL A   1      32.096  17.306  25.522  1.00  0.00    -0.275 OA
ATOM     25  H   UNL A   1      33.538  19.047  26.290  1.00  0.00     0.169 HD
ENDBRANCH  16  21
ENDBRANCH   9  15
ENDBRANCH   5   8
ENDBRANCH   3   4
ENDBRANCH   2   3
ENDBRANCH   1   2
BRANCH   1  26
ATOM     26  C   UNL A   1      33.173  29.035  27.357  1.00  0.00     0.116 C 
BRANCH  26  27
ATOM     27  N   UNL A   1      33.341  30.404  27.816  1.00  0.00    -0.352 N 
ATOM     28  C   UNL A   1      34.496  31.066  28.193  1.00  0.00     0.251 C 
ATOM     29  H   UNL A   1      32.515  30.938  27.865  1.00  0.00     0.163 HD
ATOM     30  O   UNL A   1      34.462  32.266  28.408  1.00  0.00    -0.269 OA
BRANCH  28  31
ATOM     31  C   UNL A   1      35.755  30.304  28.391  1.00  0.00     0.039 A 
ATOM     32  C   UNL A   1      36.681  30.269  27.344  1.00  0.00     0.014 A 
ATOM     33  C   UNL A   1      36.057  29.695  29.610  1.00  0.00     0.014 A 
ATOM     34  C   UNL A   1      37.957  29.740  27.565  1.00  0.00     0.010 A 
ATOM     35  C   UNL A   1      37.355  29.241  29.852  1.00  0.00     0.010 A 
ATOM     36  C   UNL A   1      38.329  29.289  28.843  1.00  0.00    -0.014 A 
BRANCH  36  37
ATOM     37  C   UNL A   1      39.746  28.950  29.150  1.00  0.00     0.031 A 
ATOM     38  C   UNL A   1      40.661  29.953  29.800  1.00  0.00     0.074 A 
ATOM     39  C   UNL A   1      40.229  27.745  28.777  1.00  0.00     0.049 A 
ATOM     40  N   UNL A   1      41.924  29.825  30.124  1.00  0.00    -0.248 NA
ATOM     41  C   UNL A   1      40.094  31.275  30.105  1.00  0.00     0.031 C 
ATOM     42  C   UNL A   1      39.467  26.707  28.074  1.00  0.00     0.029 A 
ATOM     43  N   UNL A   1      41.473  27.185  28.933  1.00  0.00    -0.354 N 
ATOM     44  C   UNL A   1      42.305  31.049  30.662  1.00  0.00     0.074 A 
ATOM     45  C   UNL A   1      41.153  31.922  30.575  1.00  0.00     0.031 C 
ATOM     46  C   UNL A   1      40.246  25.628  27.898  1.00  0.00     0.029 A 
ATOM     47  C   UNL A   1      41.571  25.904  28.440  1.00  0.00     0.049 A 
ATOM     48  H   UNL A   1      42.225  27.656  29.358  1.00  0.00     0.167 HD
ATOM     49  C   UNL A   1      43.495  31.410  31.199  1.00  0.00     0.031 A 
ATOM     50  C   UNL A   1      42.607  25.042  28.431  1.00  0.00     0.031 A 
ATOM     51  C   UNL A   1      44.640  30.541  31.289  1.00  0.00     0.049 A 
ATOM     52  C   UNL A   1      43.910  25.460  29.053  1.00  0.00     0.074 A 
ATOM     53  C   UNL A   1      45.876  30.798  31.857  1.00  0.00     0.029 A 
ATOM     54  N   UNL A   1      44.690  29.243  30.801  1.00  0.00    -0.354 N 
ATOM     55  N   UNL A   1      44.224  26.601  29.619  1.00  0.00    -0.248 NA
ATOM     56  C   UNL A   1      44.993  24.466  29.052  1.00  0.00     0.031 C 
ATOM     57  C   UNL A   1      46.686  29.671  31.679  1.00  0.00     0.029 A 
ATOM     58  C   UNL A   1      45.938  28.693  31.044  1.00  0.00     0.049 A 
ATOM     59  H   UNL A   1      43.947  28.782  30.348  1.00  0.00     0.167 HD
ATOM     60  C   UNL A   1      45.535  26.454  30.060  1.00  0.00     0.074 A 
ATOM     61  C   UNL A   1      45.942  25.106  29.718  1.00  0.00     0.031 C 
ATOM     62  C   UNL A   1      46.331  27.354  30.688  1.00  0.00     0.031 A 
BRANCH  49  63
ATOM     63  C   UNL A   1      43.616  32.810  31.745  1.00  0.00    -0.014 A 
ATOM     64  C   UNL A   1      43.135  33.125  33.029  1.00  0.00     0.010 A 
ATOM     65  C   UNL A   1      44.258  33.808  30.992  1.00  0.00     0.010 A 
ATOM     66  C   UNL A   1      43.262  34.421  33.535  1.00  0.00     0.020 A 
ATOM     67  C   UNL A   1      44.410  35.101  31.505  1.00  0.00     0.020 A 
ATOM     68  C   UNL A   1      43.897  35.402  32.769  1.00  0.00     0.054 A 
BRANCH  68  69
ATOM     69  S   UNL A   1      44.077  37.068  33.465  1.00  0.00     0.124 S 
ATOM     70  O   UNL A   1      42.951  37.131  34.394  1.00  0.00    -0.237 OA
ATOM     71  O   UNL A   1      45.400  37.015  34.086  1.00  0.00    -0.237 OA
ATOM     72  O   UNL A   1      43.975  37.944  32.301  1.00  0.00    -0.744 OA
ENDBRANCH  68  69
ENDBRANCH  49  63
BRANCH  50  73
ATOM     73  C   UNL A   1      42.451  23.685  27.837  1.00  0.00    -0.014 A 
ATOM     74  C   UNL A   1      42.042  22.601  28.634  1.00  0.00     0.010 A 
ATOM     75  C   UNL A   1      42.722  23.466  26.473  1.00  0.00     0.010 A 
ATOM     76  C   UNL A   1      41.934  21.318  28.087  1.00  0.00     0.020 A 
ATOM     77  C   UNL A   1      42.589  22.190  25.918  1.00  0.00     0.020 A 
ATOM     78  C   UNL A   1      42.212  21.120  26.732  1.00  0.00     0.054 A 
BRANCH  78  79
ATOM     79  S   UNL A   1      42.032  19.455  26.033  1.00  0.00     0.124 S 
ATOM     80  O   UNL A   1      42.869  19.537  24.840  1.00  0.00    -0.237 OA
ATOM     81  O   UNL A   1      42.539  18.602  27.105  1.00  0.00    -0.237 OA
ATOM     82  O   UNL A   1      40.597  19.343  25.786  1.00  0.00    -0.744 OA
ENDBRANCH  78  79
ENDBRANCH  50  73
BRANCH  62  83
ATOM     83  C   UNL A   1      47.713  26.893  31.066  1.00  0.00    -0.014 A 
ATOM     84  C   UNL A   1      48.813  27.118  30.220  1.00  0.00     0.010 A 
ATOM     85  C   UNL A   1      47.913  26.224  32.288  1.00  0.00     0.010 A 
ATOM     86  C   UNL A   1      50.079  26.636  30.562  1.00  0.00     0.020 A 
ATOM     87  C   UNL A   1      49.183  25.765  32.647  1.00  0.00     0.020 A 
ATOM     88  C   UNL A   1      50.253  25.954  31.771  1.00  0.00     0.054 A 
BRANCH  88  89
ATOM     89  S   UNL A   1      51.903  25.334  32.196  1.00  0.00     0.124 S 
ATOM     90  O   UNL A   1      52.694  25.762  31.045  1.00  0.00    -0.237 OA
ATOM     91  O   UNL A   1      52.195  26.025  33.451  1.00  0.00    -0.237 OA
ATOM     92  O   UNL A   1      51.709  23.891  32.319  1.00  0.00    -0.744 OA
ENDBRANCH  88  89
ENDBRANCH  62  83
ENDBRANCH  36  37
ENDBRANCH  28  31
ENDBRANCH  26  27
ENDBRANCH   1  26
TORSDOF 16
ENDMDL
MODEL 2
REMARK VINA RESULT:     -11.8      4.634      9.528
REMARK SMILES CC(=O)Nc1cccc(-c2cc(F)ccc2C(=O)NCCCCNC(=O)c2ccc(-c3c4nc(c(-c5ccc(S(=O)(=O)[O-])cc5)c5ccc([nH]5)c(-c5ccc(S(=O)(=O)[O-])cc5)c5nc(c(-c6ccc(S(=O)(=O)[O-])cc6)c6ccc3[nH]6)C=C5)C=C4)cc2)c1
REMARK SMILES IDX 22 1 21 2 20 3 19 4 17 5 18 6 16 8 10 9 11 10 12 11 15 12
REMARK SMILES IDX 13 13 14 14 9 15 5 16 6 17 87 18 7 19 8 20 4 21 1 22 2 23
REMARK SMILES IDX 3 24 23 26 24 27 25 28 26 30 27 31 28 32 86 33 29 34 85 35
REMARK SMILES IDX 30 36 31 37 32 38 79 39 33 40 84 41 78 42 80 43 34 44 83 45
REMARK SMILES IDX 77 46 76 47 35 49 65 50 46 51 64 52 47 53 50 54 63 55 81 56
REMARK SMILES IDX 48 57 49 58 62 60 82 61 51 62 36 63 37 64 45 65 38 66 44 67
REMARK SMILES IDX 39 68 40 69 41 70 42 71 43 72 66 73 67 74 75 75 68 76 74 77
REMARK SMILES IDX 69 78 70 79 71 80 72 81 73 82 52 83 53 84 61 85 54 86 60 87
REMARK SMILES IDX 55 88 56 89 57 90 58 91 59 92
REMARK H PARENT 19 7 4 25 24 29 80 48 50 59
REMARK Flexibility Score: inf
ROOT
ATOM      1  C   UNL A   1      40.180  22.083  26.583  1.00  0.00     0.023 C 
ENDROOT
BRANCH   1   2
ATOM      2  C   UNL A   1      38.813  22.658  26.208  1.00  0.00     0.023 C 
BRANCH   2   3
ATOM      3  C   UNL A   1      37.788  21.723  25.584  1.00  0.00     0.116 C 
BRANCH   3   4
ATOM      4  N   UNL A   1      37.371  21.996  24.234  1.00  0.00    -0.352 N 
ATOM      5  C   UNL A   1      36.267  22.659  23.750  1.00  0.00     0.251 C 
ATOM      6  O   UNL A   1      36.270  22.887  22.535  1.00  0.00    -0.269 OA
ATOM      7  H   UNL A   1      37.977  21.649  23.540  1.00  0.00     0.163 HD
BRANCH   5   8
ATOM      8  C   UNL A   1      35.026  23.056  24.517  1.00  0.00     0.047 A 
ATOM      9  C   UNL A   1      33.876  22.297  24.863  1.00  0.00    -0.003 A 
ATOM     10  C   UNL A   1      32.884  22.913  25.674  1.00  0.00     0.048 A 
ATOM     11  C   UNL A   1      33.010  24.216  26.132  1.00  0.00     0.123 A 
ATOM     12  C   UNL A   1      35.115  24.387  25.015  1.00  0.00     0.017 A 
ATOM     13  F   UNL A   1      32.046  24.747  26.896  1.00  0.00    -0.207 F 
ATOM     14  C   UNL A   1      34.122  24.964  25.810  1.00  0.00     0.040 A 
BRANCH   9  15
ATOM     15  C   UNL A   1      33.582  20.909  24.468  1.00  0.00    -0.015 A 
ATOM     16  C   UNL A   1      34.133  18.536  24.415  1.00  0.00     0.041 A 
ATOM     17  C   UNL A   1      33.106  18.329  23.485  1.00  0.00     0.026 A 
ATOM     18  C   UNL A   1      34.342  19.823  24.930  1.00  0.00     0.034 A 
ATOM     19  C   UNL A   1      32.296  19.380  23.069  1.00  0.00     0.003 A 
ATOM     20  C   UNL A   1      32.532  20.660  23.560  1.00  0.00     0.009 A 
BRANCH  16  21
ATOM     21  N   UNL A   1      35.004  17.454  24.624  1.00  0.00    -0.326 N 
ATOM     22  C   UNL A   1      33.448  15.621  25.266  1.00  0.00     0.114 C 
ATOM     23  C   UNL A   1      34.822  16.228  25.191  1.00  0.00     0.221 C 
ATOM     24  O   UNL A   1      35.807  15.607  25.596  1.00  0.00    -0.275 OA
ATOM     25  H   UNL A   1      35.920  17.610  24.300  1.00  0.00     0.169 HD
ENDBRANCH  16  21
ENDBRANCH   9  15
ENDBRANCH   5   8
ENDBRANCH   3   4
ENDBRANCH   2   3
ENDBRANCH   1   2
BRANCH   1  26
ATOM     26  C   UNL A   1      41.362  23.038  26.763  1.00  0.00     0.116 C 
BRANCH  26  27
ATOM     27  N   UNL A   1      41.456  24.121  25.798  1.00  0.00    -0.352 N 
ATOM     28  C   UNL A   1      41.633  25.476  26.018  1.00  0.00     0.251 C 
ATOM     29  H   UNL A   1      41.385  23.853  24.853  1.00  0.00     0.163 HD
ATOM     30  O   UNL A   1      41.841  26.219  25.072  1.00  0.00    -0.269 OA
BRANCH  28  31
ATOM     31  C   UNL A   1      41.513  26.026  27.391  1.00  0.00     0.039 A 
ATOM     32  C   UNL A   1      42.648  26.594  27.981  1.00  0.00     0.014 A 
ATOM     33  C   UNL A   1      40.291  26.052  28.064  1.00  0.00     0.014 A 
ATOM     34  C   UNL A   1      42.524  27.301  29.181  1.00  0.00     0.010 A 
ATOM     35  C   UNL A   1      40.154  26.826  29.218  1.00  0.00     0.010 A 
ATOM     36  C   UNL A   1      41.262  27.486  29.772  1.00  0.00    -0.014 A 
BRANCH  36  37
ATOM     37  C   UNL A   1      41.083  28.431  30.908  1.00  0.00     0.031 A 
ATOM     38  C   UNL A   1      40.012  29.488  30.879  1.00  0.00     0.074 A 
ATOM     39  C   UNL A   1      41.941  28.375  31.950  1.00  0.00     0.049 A 
ATOM     40  N   UNL A   1      39.728  30.398  31.778  1.00  0.00    -0.248 NA
ATOM     41  C   UNL A   1      39.164  29.546  29.678  1.00  0.00     0.031 C 
ATOM     42  C   UNL A   1      43.070  27.446  32.071  1.00  0.00     0.029 A 
ATOM     43  N   UNL A   1      42.004  29.114  33.106  1.00  0.00    -0.354 N 
ATOM     44  C   UNL A   1      38.678  31.140  31.249  1.00  0.00     0.074 A 
ATOM     45  C   UNL A   1      38.408  30.607  29.931  1.00  0.00     0.031 C 
ATOM     46  C   UNL A   1      43.683  27.644  33.248  1.00  0.00     0.029 A 
ATOM     47  C   UNL A   1      43.020  28.734  33.954  1.00  0.00     0.049 A 
ATOM     48  H   UNL A   1      41.380  29.848  33.310  1.00  0.00     0.167 HD
ATOM     49  C   UNL A   1      37.987  32.159  31.815  1.00  0.00     0.031 A 
ATOM     50  C   UNL A   1      43.375  29.202  35.166  1.00  0.00     0.031 A 
ATOM     51  C   UNL A   1      38.252  32.687  33.129  1.00  0.00     0.049 A 
ATOM     52  C   UNL A   1      42.577  30.318  35.780  1.00  0.00     0.074 A 
ATOM     53  C   UNL A   1      37.578  33.687  33.809  1.00  0.00     0.029 A 
ATOM     54  N   UNL A   1      39.273  32.258  33.964  1.00  0.00    -0.354 N 
ATOM     55  N   UNL A   1      41.543  30.959  35.289  1.00  0.00    -0.248 NA
ATOM     56  C   UNL A   1      42.984  30.762  37.121  1.00  0.00     0.031 C 
ATOM     57  C   UNL A   1      38.215  33.889  35.039  1.00  0.00     0.029 A 
ATOM     58  C   UNL A   1      39.254  32.980  35.146  1.00  0.00     0.049 A 
ATOM     59  H   UNL A   1      39.917  31.545  33.747  1.00  0.00     0.167 HD
ATOM     60  C   UNL A   1      41.162  31.867  36.271  1.00  0.00     0.074 A 
ATOM     61  C   UNL A   1      42.060  31.672  37.391  1.00  0.00     0.031 C 
ATOM     62  C   UNL A   1      40.161  32.782  36.247  1.00  0.00     0.031 A 
BRANCH  49  63
ATOM     63  C   UNL A   1      36.861  32.764  31.017  1.00  0.00    -0.014 A 
ATOM     64  C   UNL A   1      35.521  32.449  31.309  1.00  0.00     0.010 A 
ATOM     65  C   UNL A   1      37.138  33.691  29.996  1.00  0.00     0.010 A 
ATOM     66  C   UNL A   1      34.481  33.023  30.573  1.00  0.00     0.020 A 
ATOM     67  C   UNL A   1      36.098  34.287  29.274  1.00  0.00     0.020 A 
ATOM     68  C   UNL A   1      34.777  33.937  29.558  1.00  0.00     0.054 A 
BRANCH  68  69
ATOM     69  S   UNL A   1      33.404  34.692  28.642  1.00  0.00     0.124 S 
ATOM     70  O   UNL A   1      32.484  35.051  29.718  1.00  0.00    -0.237 OA
ATOM     71  O   UNL A   1      34.050  35.816  27.967  1.00  0.00    -0.237 OA
ATOM     72  O   UNL A   1      32.945  33.622  27.761  1.00  0.00    -0.744 OA
ENDBRANCH  68  69
ENDBRANCH  49  63
BRANCH  50  73
ATOM     73  C   UNL A   1      44.526  28.601  35.897  1.00  0.00    -0.014 A 
ATOM     74  C   UNL A   1      45.824  29.115  35.726  1.00  0.00     0.010 A 
ATOM     75  C   UNL A   1      44.333  27.506  36.758  1.00  0.00     0.010 A 
ATOM     76  C   UNL A   1      46.912  28.527  36.380  1.00  0.00     0.020 A 
ATOM     77  C   UNL A   1      45.415  26.934  37.435  1.00  0.00     0.020 A 
ATOM     78  C   UNL A   1      46.700  27.438  37.228  1.00  0.00     0.054 A 
BRANCH  78  79
ATOM     79  S   UNL A   1      48.119  26.711  38.096  1.00  0.00     0.124 S 
ATOM     80  O   UNL A   1      47.747  25.302  38.157  1.00  0.00    -0.237 OA
ATOM     81  O   UNL A   1      49.235  27.034  37.208  1.00  0.00    -0.237 OA
ATOM     82  O   UNL A   1      48.131  27.413  39.376  1.00  0.00    -0.744 OA
ENDBRANCH  78  79
ENDBRANCH  50  73
BRANCH  62  83
ATOM     83  C   UNL A   1      39.976  33.620  37.483  1.00  0.00    -0.014 A 
ATOM     84  C   UNL A   1      40.669  34.832  37.651  1.00  0.00     0.010 A 
ATOM     85  C   UNL A   1      39.094  33.188  38.491  1.00  0.00     0.010 A 
ATOM     86  C   UNL A   1      40.525  35.570  38.829  1.00  0.00     0.020 A 
ATOM     87  C   UNL A   1      38.926  33.938  39.657  1.00  0.00     0.020 A 
ATOM     88  C   UNL A   1      39.661  35.113  39.828  1.00  0.00     0.054 A 
BRANCH  88  89
ATOM     89  S   UNL A   1      39.489  36.084  41.350  1.00  0.00     0.124 S 
ATOM     90  O   UNL A   1      38.493  35.315  42.090  1.00  0.00    -0.237 OA
ATOM     91  O   UNL A   1      40.841  36.060  41.904  1.00  0.00    -0.237 OA
ATOM     92  O   UNL A   1      39.041  37.392  40.876  1.00  0.00    -0.744 OA
ENDBRANCH  88  89
ENDBRANCH  62  83
ENDBRANCH  36  37
ENDBRANCH  28  31
ENDBRANCH  26  27
ENDBRANCH   1  26
TORSDOF 16
ENDMDL
MODEL 3
REMARK VINA RESULT:     -11.8      1.769      3.237
REMARK SMILES CC(=O)Nc1cccc(-c2cc(F)ccc2C(=O)NCCCCNC(=O)c2ccc(-c3c4nc(c(-c5ccc(S(=O)(=O)[O-])cc5)c5ccc([nH]5)c(-c5ccc(S(=O)(=O)[O-])cc5)c5nc(c(-c6ccc(S(=O)(=O)[O-])cc6)c6ccc3[nH]6)C=C5)C=C4)cc2)c1
REMARK SMILES IDX 22 1 21 2 20 3 19 4 17 5 18 6 16 8 10 9 11 10 12 11 15 12
REMARK SMILES IDX 13 13 14 14 9 15 5 16 6 17 87 18 7 19 8 20 4 21 1 22 2 23
REMARK SMILES IDX 3 24 23 26 24 27 25 28 26 30 27 31 28 32 86 33 29 34 85 35
REMARK SMILES IDX 30 36 31 37 32 38 79 39 33 40 84 41 78 42 80 43 34 44 83 45
REMARK SMILES IDX 77 46 76 47 35 49 65 50 46 51 64 52 47 53 50 54 63 55 81 56
REMARK SMILES IDX 48 57 49 58 62 60 82 61 51 62 36 63 37 64 45 65 38 66 44 67
REMARK SMILES IDX 39 68 40 69 41 70 42 71 43 72 66 73 67 74 75 75 68 76 74 77
REMARK SMILES IDX 69 78 70 79 71 80 72 81 73 82 52 83 53 84 61 85 54 86 60 87
REMARK SMILES IDX 55 88 56 89 57 90 58 91 59 92
REMARK H PARENT 19 7 4 25 24 29 80 48 50 59
REMARK Flexibility Score: inf
ROOT
ATOM      1  C   UNL A   1      32.080  29.013  26.035  1.00  0.00     0.023 C 
ENDROOT
BRANCH   1   2
ATOM      2  C   UNL A   1      31.323  27.685  25.984  1.00  0.00     0.023 C 
BRANCH   2   3
ATOM      3  C   UNL A   1      31.894  26.504  26.753  1.00  0.00     0.116 C 
BRANCH   3   4
ATOM      4  N   UNL A   1      31.385  25.195  26.440  1.00  0.00    -0.352 N 
ATOM      5  C   UNL A   1      32.040  24.030  26.112  1.00  0.00     0.251 C 
ATOM      6  O   UNL A   1      31.335  23.015  26.066  1.00  0.00    -0.269 OA
ATOM      7  H   UNL A   1      30.404  25.121  26.461  1.00  0.00     0.163 HD
BRANCH   5   8
ATOM      8  C   UNL A   1      33.491  23.872  25.722  1.00  0.00     0.047 A 
ATOM      9  C   UNL A   1      34.178  24.279  24.546  1.00  0.00    -0.003 A 
ATOM     10  C   UNL A   1      35.583  24.071  24.483  1.00  0.00     0.048 A 
ATOM     11  C   UNL A   1      36.291  23.493  25.526  1.00  0.00     0.123 A 
ATOM     12  C   UNL A   1      34.260  23.289  26.769  1.00  0.00     0.017 A 
ATOM     13  F   UNL A   1      37.615  23.323  25.416  1.00  0.00    -0.207 F 
ATOM     14  C   UNL A   1      35.641  23.098  26.676  1.00  0.00     0.040 A 
BRANCH   9  15
ATOM     15  C   UNL A   1      33.588  24.906  23.351  1.00  0.00    -0.015 A 
ATOM     16  C   UNL A   1      32.532  26.790  22.224  1.00  0.00     0.041 A 
ATOM     17  C   UNL A   1      32.256  25.964  21.125  1.00  0.00     0.026 A 
ATOM     18  C   UNL A   1      33.230  26.263  23.318  1.00  0.00     0.034 A 
ATOM     19  C   UNL A   1      32.666  24.635  21.109  1.00  0.00     0.003 A 
ATOM     20  C   UNL A   1      33.329  24.112  22.214  1.00  0.00     0.009 A 
BRANCH  16  21
ATOM     21  N   UNL A   1      31.915  28.052  22.216  1.00  0.00    -0.326 N 
ATOM     22  C   UNL A   1      29.612  27.539  23.003  1.00  0.00     0.114 C 
ATOM     23  C   UNL A   1      30.613  28.437  22.332  1.00  0.00     0.221 C 
ATOM     24  O   UNL A   1      30.284  29.552  21.923  1.00  0.00    -0.275 OA
ATOM     25  H   UNL A   1      32.544  28.802  22.105  1.00  0.00     0.169 HD
ENDBRANCH  16  21
ENDBRANCH   9  15
ENDBRANCH   5   8
ENDBRANCH   3   4
ENDBRANCH   2   3
ENDBRANCH   1   2
BRANCH   1  26
ATOM     26  C   UNL A   1      33.241  29.168  27.019  1.00  0.00     0.116 C 
BRANCH  26  27
ATOM     27  N   UNL A   1      33.320  30.443  27.713  1.00  0.00    -0.352 N 
ATOM     28  C   UNL A   1      34.418  31.064  28.282  1.00  0.00     0.251 C 
ATOM     29  H   UNL A   1      32.471  30.935  27.790  1.00  0.00     0.163 HD
ATOM     30  O   UNL A   1      34.319  32.208  28.693  1.00  0.00    -0.269 OA
BRANCH  28  31
ATOM     31  C   UNL A   1      35.691  30.317  28.442  1.00  0.00     0.039 A 
ATOM     32  C   UNL A   1      36.608  30.334  27.386  1.00  0.00     0.014 A 
ATOM     33  C   UNL A   1      36.014  29.670  29.635  1.00  0.00     0.014 A 
ATOM     34  C   UNL A   1      37.895  29.819  27.577  1.00  0.00     0.010 A 
ATOM     35  C   UNL A   1      37.321  29.230  29.850  1.00  0.00     0.010 A 
ATOM     36  C   UNL A   1      38.286  29.329  28.835  1.00  0.00    -0.014 A 
BRANCH  36  37
ATOM     37  C   UNL A   1      39.711  29.004  29.118  1.00  0.00     0.031 A 
ATOM     38  C   UNL A   1      40.635  30.025  29.726  1.00  0.00     0.074 A 
ATOM     39  C   UNL A   1      40.191  27.793  28.760  1.00  0.00     0.049 A 
ATOM     40  N   UNL A   1      41.905  29.910  30.025  1.00  0.00    -0.248 NA
ATOM     41  C   UNL A   1      40.068  31.351  30.015  1.00  0.00     0.031 C 
ATOM     42  C   UNL A   1      39.420  26.737  28.097  1.00  0.00     0.029 A 
ATOM     43  N   UNL A   1      41.441  27.243  28.901  1.00  0.00    -0.354 N 
ATOM     44  C   UNL A   1      42.291  31.147  30.528  1.00  0.00     0.074 A 
ATOM     45  C   UNL A   1      41.134  32.012  30.448  1.00  0.00     0.031 C 
ATOM     46  C   UNL A   1      40.200  25.658  27.926  1.00  0.00     0.029 A 
ATOM     47  C   UNL A   1      41.535  25.952  28.433  1.00  0.00     0.049 A 
ATOM     48  H   UNL A   1      42.200  27.727  29.299  1.00  0.00     0.167 HD
ATOM     49  C   UNL A   1      43.491  31.525  31.031  1.00  0.00     0.031 A 
ATOM     50  C   UNL A   1      42.574  25.095  28.419  1.00  0.00     0.031 A 
ATOM     51  C   UNL A   1      44.643  30.663  31.114  1.00  0.00     0.049 A 
ATOM     52  C   UNL A   1      43.889  25.532  29.004  1.00  0.00     0.074 A 
ATOM     53  C   UNL A   1      45.889  30.938  31.649  1.00  0.00     0.029 A 
ATOM     54  N   UNL A   1      44.688  29.355  30.653  1.00  0.00    -0.354 N 
ATOM     55  N   UNL A   1      44.210  26.687  29.538  1.00  0.00    -0.248 NA
ATOM     56  C   UNL A   1      44.977  24.543  28.999  1.00  0.00     0.031 C 
ATOM     57  C   UNL A   1      46.701  29.811  31.477  1.00  0.00     0.029 A 
ATOM     58  C   UNL A   1      45.944  28.816  30.879  1.00  0.00     0.049 A 
ATOM     59  H   UNL A   1      43.938  28.881  30.226  1.00  0.00     0.167 HD
ATOM     60  C   UNL A   1      45.531  26.554  29.953  1.00  0.00     0.074 A 
ATOM     61  C   UNL A   1      45.937  25.202  29.631  1.00  0.00     0.031 C 
ATOM     62  C   UNL A   1      46.336  27.471  30.544  1.00  0.00     0.031 A 
BRANCH  49  63
ATOM     63  C   UNL A   1      43.617  32.936  31.544  1.00  0.00    -0.014 A 
ATOM     64  C   UNL A   1      43.370  33.235  32.897  1.00  0.00     0.010 A 
ATOM     65  C   UNL A   1      44.033  33.966  30.682  1.00  0.00     0.010 A 
ATOM     66  C   UNL A   1      43.501  34.543  33.369  1.00  0.00     0.020 A 
ATOM     67  C   UNL A   1      44.190  35.273  31.158  1.00  0.00     0.020 A 
ATOM     68  C   UNL A   1      43.908  35.554  32.496  1.00  0.00     0.054 A 
BRANCH  68  69
ATOM     69  S   UNL A   1      44.102  37.238  33.146  1.00  0.00     0.124 S 
ATOM     70  O   UNL A   1      45.371  37.140  33.864  1.00  0.00    -0.237 OA
ATOM     71  O   UNL A   1      44.130  38.049  31.931  1.00  0.00    -0.237 OA
ATOM     72  O   UNL A   1      42.923  37.423  33.987  1.00  0.00    -0.744 OA
ENDBRANCH  68  69
ENDBRANCH  49  63
BRANCH  50  73
ATOM     73  C   UNL A   1      42.413  23.724  27.858  1.00  0.00    -0.014 A 
ATOM     74  C   UNL A   1      42.470  23.513  26.468  1.00  0.00     0.010 A 
ATOM     75  C   UNL A   1      42.190  22.625  28.707  1.00  0.00     0.010 A 
ATOM     76  C   UNL A   1      42.279  22.234  25.936  1.00  0.00     0.020 A 
ATOM     77  C   UNL A   1      42.025  21.340  28.179  1.00  0.00     0.020 A 
ATOM     78  C   UNL A   1      42.054  21.156  26.796  1.00  0.00     0.054 A 
BRANCH  78  79
ATOM     79  S   UNL A   1      41.844  19.498  26.088  1.00  0.00     0.124 S 
ATOM     80  O   UNL A   1      40.418  19.480  25.777  1.00  0.00    -0.237 OA
ATOM     81  O   UNL A   1      42.743  19.525  24.937  1.00  0.00    -0.237 OA
ATOM     82  O   UNL A   1      42.260  18.611  27.172  1.00  0.00    -0.744 OA
ENDBRANCH  78  79
ENDBRANCH  50  73
BRANCH  62  83
ATOM     83  C   UNL A   1      47.728  27.025  30.901  1.00  0.00    -0.014 A 
ATOM     84  C   UNL A   1      48.798  27.191  30.004  1.00  0.00     0.010 A 
ATOM     85  C   UNL A   1      47.968  26.431  32.154  1.00  0.00     0.010 A 
ATOM     86  C   UNL A   1      50.073  26.722  30.332  1.00  0.00     0.020 A 
ATOM     87  C   UNL A   1      49.248  25.986  32.496  1.00  0.00     0.020 A 
ATOM     88  C   UNL A   1      50.287  26.113  31.573  1.00  0.00     0.054 A 
BRANCH  88  89
ATOM     89  S   UNL A   1      51.948  25.510  31.978  1.00  0.00     0.124 S 
ATOM     90  O   UNL A   1      52.722  25.952  30.821  1.00  0.00    -0.237 OA
ATOM     91  O   UNL A   1      52.245  26.197  33.232  1.00  0.00    -0.237 OA
ATOM     92  O   UNL A   1      51.771  24.064  32.095  1.00  0.00    -0.744 OA
ENDBRANCH  88  89
ENDBRANCH  62  83
ENDBRANCH  36  37
ENDBRANCH  28  31
ENDBRANCH  26  27
ENDBRANCH   1  26
TORSDOF 16
ENDMDL
