MODEL 1
REMARK VINA RESULT:     -12.3      0.000      0.000
REMARK SMILES Cn1c(=O)c(=O)n(C)c2cc(S(=O)(=O)N3CCC[C@H]3C(=O)NCCCCNC(=O)c3ccc(-c4c5nc(c(-c6ccc(S(=O)(=O)[O-])cc6)c6ccc([nH]6)c(-c6ccc(S(=O)(=O)[O-])cc6)c6nc(c(-c7ccc(S(=O)(=O)[O-])cc7)c7ccc4[nH]7)C=C6)C=C5)cc3)ccc21
REMARK SMILES IDX 25 1 24 2 23 3 22 4 20 5 21 6 19 8 15 9 16 10 17 11 18 12
REMARK SMILES IDX 12 13 13 14 14 15 11 16 1 17 2 18 3 19 92 20 4 21 5 22 9 23
REMARK SMILES IDX 91 24 6 25 7 26 10 27 90 28 8 29 26 30 27 31 28 32 29 34
REMARK SMILES IDX 30 35 31 36 89 37 32 38 88 39 33 40 34 41 35 42 82 43 36 44
REMARK SMILES IDX 87 45 81 46 83 47 37 48 86 49 80 50 79 51 38 53 68 54 49 55
REMARK SMILES IDX 67 56 50 57 53 58 66 59 84 60 51 61 52 62 65 64 85 65 54 66
REMARK SMILES IDX 39 67 40 68 48 69 41 70 47 71 42 72 43 73 44 74 45 75 46 76
REMARK SMILES IDX 69 77 70 78 78 79 71 80 77 81 72 82 73 83 74 84 75 85 76 86
REMARK SMILES IDX 55 87 56 88 64 89 57 90 63 91 58 92 59 93 60 94 61 95 62 96
REMARK H PARENT 22 7 27 33 83 52 53 63
REMARK Flexibility Score: inf
ROOT
ATOM      1  C   UNL A   1      37.262  23.723  25.381  1.00  0.00     0.023 C 
ENDROOT
BRANCH   1   2
ATOM      2  C   UNL A   1      37.461  22.373  24.690  1.00  0.00     0.023 C 
BRANCH   2   3
ATOM      3  C   UNL A   1      37.178  21.155  25.568  1.00  0.00     0.116 C 
BRANCH   3   4
ATOM      4  N   UNL A   1      35.965  20.476  25.156  1.00  0.00    -0.355 N 
ATOM      5  C   UNL A   1      34.652  20.743  25.360  1.00  0.00     0.238 C 
ATOM      6  O   UNL A   1      33.853  19.869  24.996  1.00  0.00    -0.273 OA
ATOM      7  H   UNL A   1      36.127  19.664  24.625  1.00  0.00     0.163 HD
BRANCH   5   8
ATOM      8  C   UNL A   1      34.099  22.065  25.876  1.00  0.00     0.162 C 
ATOM      9  N   UNL A   1      32.920  22.683  25.261  1.00  0.00    -0.185 NA
ATOM     10  C   UNL A   1      31.764  22.665  26.161  1.00  0.00     0.103 C 
ATOM     11  C   UNL A   1      32.357  22.547  27.549  1.00  0.00     0.019 C 
ATOM     12  C   UNL A   1      33.706  21.872  27.354  1.00  0.00     0.032 C 
BRANCH   9  13
ATOM     13  S   UNL A   1      33.059  23.782  24.013  1.00  0.00     0.243 S 
ATOM     14  O   UNL A   1      31.945  23.571  23.117  1.00  0.00    -0.207 OA
ATOM     15  O   UNL A   1      34.428  23.740  23.543  1.00  0.00    -0.207 OA
BRANCH  13  16
ATOM     16  C   UNL A   1      32.848  25.410  24.694  1.00  0.00     0.084 A 
ATOM     17  C   UNL A   1      33.290  29.953  26.992  1.00  0.00     0.154 C 
ATOM     18  N   UNL A   1      32.395  29.415  25.978  1.00  0.00    -0.305 N 
ATOM     19  C   UNL A   1      31.447  30.273  25.425  1.00  0.00     0.316 A 
ATOM     20  C   UNL A   1      32.520  28.068  25.553  1.00  0.00     0.068 A 
ATOM     21  O   UNL A   1      31.318  31.448  25.762  1.00  0.00    -0.263 OA
ATOM     22  C   UNL A   1      30.517  29.712  24.342  1.00  0.00     0.316 A 
ATOM     23  C   UNL A   1      31.693  27.559  24.535  1.00  0.00     0.069 A 
ATOM     24  C   UNL A   1      33.481  27.226  26.136  1.00  0.00     0.030 A 
ATOM     25  O   UNL A   1      29.654  30.451  23.874  1.00  0.00    -0.263 OA
ATOM     26  N   UNL A   1      30.701  28.389  23.943  1.00  0.00    -0.305 N 
ATOM     27  C   UNL A   1      31.871  26.228  24.112  1.00  0.00     0.050 A 
ATOM     28  C   UNL A   1      33.641  25.907  25.715  1.00  0.00     0.024 A 
ATOM     29  C   UNL A   1      29.836  27.870  22.893  1.00  0.00     0.154 C 
ENDBRANCH  13  16
ENDBRANCH   9  13
ENDBRANCH   5   8
ENDBRANCH   3   4
ENDBRANCH   2   3
ENDBRANCH   1   2
BRANCH   1  30
ATOM     30  C   UNL A   1      38.253  24.036  26.493  1.00  0.00     0.116 C 
BRANCH  30  31
ATOM     31  N   UNL A   1      39.647  23.884  26.102  1.00  0.00    -0.352 N 
ATOM     32  C   UNL A   1      40.729  24.647  26.483  1.00  0.00     0.251 C 
ATOM     33  H   UNL A   1      39.841  23.141  25.486  1.00  0.00     0.163 HD
ATOM     34  O   UNL A   1      41.838  24.434  26.004  1.00  0.00    -0.269 OA
BRANCH  32  35
ATOM     35  C   UNL A   1      40.521  25.756  27.436  1.00  0.00     0.039 A 
ATOM     36  C   UNL A   1      41.225  26.952  27.291  1.00  0.00     0.014 A 
ATOM     37  C   UNL A   1      39.663  25.570  28.523  1.00  0.00     0.014 A 
ATOM     38  C   UNL A   1      41.210  27.883  28.321  1.00  0.00     0.010 A 
ATOM     39  C   UNL A   1      39.577  26.552  29.514  1.00  0.00     0.010 A 
ATOM     40  C   UNL A   1      40.389  27.694  29.447  1.00  0.00    -0.014 A 
BRANCH  40  41
ATOM     41  C   UNL A   1      40.392  28.730  30.512  1.00  0.00     0.031 A 
ATOM     42  C   UNL A   1      39.338  29.803  30.565  1.00  0.00     0.074 A 
ATOM     43  C   UNL A   1      41.315  28.643  31.489  1.00  0.00     0.049 A 
ATOM     44  N   UNL A   1      39.128  30.693  31.503  1.00  0.00    -0.248 NA
ATOM     45  C   UNL A   1      38.408  29.901  29.429  1.00  0.00     0.031 C 
ATOM     46  C   UNL A   1      42.391  27.649  31.534  1.00  0.00     0.029 A 
ATOM     47  N   UNL A   1      41.468  29.355  32.650  1.00  0.00    -0.354 N 
ATOM     48  C   UNL A   1      38.063  31.469  31.061  1.00  0.00     0.074 A 
ATOM     49  C   UNL A   1      37.682  30.960  29.762  1.00  0.00     0.031 C 
ATOM     50  C   UNL A   1      43.034  27.755  32.704  1.00  0.00     0.029 A 
ATOM     51  C   UNL A   1      42.461  28.862  33.465  1.00  0.00     0.049 A 
ATOM     52  H   UNL A   1      40.923  30.142  32.879  1.00  0.00     0.167 HD
ATOM     53  C   UNL A   1      37.456  32.506  31.688  1.00  0.00     0.031 A 
ATOM     54  C   UNL A   1      42.867  29.244  34.691  1.00  0.00     0.031 A 
ATOM     55  C   UNL A   1      37.826  32.991  32.992  1.00  0.00     0.049 A 
ATOM     56  C   UNL A   1      42.171  30.383  35.370  1.00  0.00     0.074 A 
ATOM     57  C   UNL A   1      37.231  34.000  33.730  1.00  0.00     0.029 A 
ATOM     58  N   UNL A   1      38.883  32.513  33.752  1.00  0.00    -0.354 N 
ATOM     59  N   UNL A   1      41.146  31.083  34.950  1.00  0.00    -0.248 NA
ATOM     60  C   UNL A   1      42.687  30.788  36.683  1.00  0.00     0.031 C 
ATOM     61  C   UNL A   1      37.964  34.173  34.908  1.00  0.00     0.029 A 
ATOM     62  C   UNL A   1      38.979  33.230  34.934  1.00  0.00     0.049 A 
ATOM     63  H   UNL A   1      39.478  31.774  33.490  1.00  0.00     0.167 HD
ATOM     64  C   UNL A   1      40.900  32.024  35.940  1.00  0.00     0.074 A 
ATOM     65  C   UNL A   1      41.861  31.780  36.998  1.00  0.00     0.031 C 
ATOM     66  C   UNL A   1      39.966  33.007  35.962  1.00  0.00     0.031 A 
BRANCH  53  67
ATOM     67  C   UNL A   1      36.330  33.208  30.974  1.00  0.00    -0.014 A 
ATOM     68  C   UNL A   1      36.592  33.897  29.774  1.00  0.00     0.010 A 
ATOM     69  C   UNL A   1      35.039  33.274  31.530  1.00  0.00     0.010 A 
ATOM     70  C   UNL A   1      35.593  34.651  29.153  1.00  0.00     0.020 A 
ATOM     71  C   UNL A   1      34.030  34.008  30.898  1.00  0.00     0.020 A 
ATOM     72  C   UNL A   1      34.320  34.709  29.724  1.00  0.00     0.054 A 
BRANCH  72  73
ATOM     73  S   UNL A   1      33.033  35.693  28.906  1.00  0.00     0.124 S 
ATOM     74  O   UNL A   1      32.366  34.697  28.074  1.00  0.00    -0.237 OA
ATOM     75  O   UNL A   1      32.253  36.204  30.031  1.00  0.00    -0.237 OA
ATOM     76  O   UNL A   1      33.795  36.708  28.180  1.00  0.00    -0.744 OA
ENDBRANCH  72  73
ENDBRANCH  53  67
BRANCH  54  77
ATOM     77  C   UNL A   1      43.969  28.483  35.339  1.00  0.00    -0.014 A 
ATOM     78  C   UNL A   1      45.309  28.765  35.011  1.00  0.00     0.010 A 
ATOM     79  C   UNL A   1      43.679  27.380  36.159  1.00  0.00     0.010 A 
ATOM     80  C   UNL A   1      46.332  27.907  35.421  1.00  0.00     0.020 A 
ATOM     81  C   UNL A   1      44.705  26.536  36.595  1.00  0.00     0.020 A 
ATOM     82  C   UNL A   1      46.019  26.783  36.188  1.00  0.00     0.054 A 
BRANCH  82  83
ATOM     83  S   UNL A   1      47.344  25.620  36.613  1.00  0.00     0.124 S 
ATOM     84  O   UNL A   1      47.164  24.582  35.600  1.00  0.00    -0.237 OA
ATOM     85  O   UNL A   1      48.546  26.434  36.473  1.00  0.00    -0.237 OA
ATOM     86  O   UNL A   1      47.021  25.220  37.980  1.00  0.00    -0.744 OA
ENDBRANCH  82  83
ENDBRANCH  54  77
BRANCH  66  87
ATOM     87  C   UNL A   1      39.957  33.931  37.151  1.00  0.00    -0.014 A 
ATOM     88  C   UNL A   1      39.165  33.629  38.273  1.00  0.00     0.010 A 
ATOM     89  C   UNL A   1      40.669  35.143  37.119  1.00  0.00     0.010 A 
ATOM     90  C   UNL A   1      39.071  34.530  39.336  1.00  0.00     0.020 A 
ATOM     91  C   UNL A   1      40.598  36.035  38.193  1.00  0.00     0.020 A 
ATOM     92  C   UNL A   1      39.784  35.730  39.287  1.00  0.00     0.054 A 
BRANCH  92  93
ATOM     93  S   UNL A   1      39.664  36.886  40.680  1.00  0.00     0.124 S 
ATOM     94  O   UNL A   1      39.447  38.161  40.003  1.00  0.00    -0.237 OA
ATOM     95  O   UNL A   1      38.523  36.369  41.432  1.00  0.00    -0.237 OA
ATOM     96  O   UNL A   1      40.955  36.745  41.351  1.00  0.00    -0.744 OA
ENDBRANCH  92  93
ENDBRANCH  66  87
ENDBRANCH  40  41
ENDBRANCH  32  35
ENDBRANCH  30  31
ENDBRANCH   1  30
TORSDOF 16
ENDMDL
MODEL 2
REMARK VINA RESULT:     -12.3      4.471     10.513
REMARK SMILES Cn1c(=O)c(=O)n(C)c2cc(S(=O)(=O)N3CCC[C@H]3C(=O)NCCCCNC(=O)c3ccc(-c4c5nc(c(-c6ccc(S(=O)(=O)[O-])cc6)c6ccc([nH]6)c(-c6ccc(S(=O)(=O)[O-])cc6)c6nc(c(-c7ccc(S(=O)(=O)[O-])cc7)c7ccc4[nH]7)C=C6)C=C5)cc3)ccc21
REMARK SMILES IDX 25 1 24 2 23 3 22 4 20 5 21 6 19 8 15 9 16 10 17 11 18 12
REMARK SMILES IDX 12 13 13 14 14 15 11 16 1 17 2 18 3 19 92 20 4 21 5 22 9 23
REMARK SMILES IDX 91 24 6 25 7 26 10 27 90 28 8 29 26 30 27 31 28 32 29 34
REMARK SMILES IDX 30 35 31 36 89 37 32 38 88 39 33 40 34 41 35 42 82 43 36 44
REMARK SMILES IDX 87 45 81 46 83 47 37 48 86 49 80 50 79 51 38 53 68 54 49 55
REMARK SMILES IDX 67 56 50 57 53 58 66 59 84 60 51 61 52 62 65 64 85 65 54 66
REMARK SMILES IDX 39 67 40 68 48 69 41 70 47 71 42 72 43 73 44 74 45 75 46 76
REMARK SMILES IDX 69 77 70 78 78 79 71 80 77 81 72 82 73 83 74 84 75 85 76 86
REMARK SMILES IDX 55 87 56 88 64 89 57 90 63 91 58 92 59 93 60 94 61 95 62 96
REMARK H PARENT 22 7 27 33 83 52 53 63
REMARK Flexibility Score: inf
ROOT
ATOM      1  C   UNL A   1      32.412  28.223  26.940  1.00  0.00     0.023 C 
ENDROOT
BRANCH   1   2
ATOM      2  C   UNL A   1      31.613  28.973  25.873  1.00  0.00     0.023 C 
BRANCH   2   3
ATOM      3  C   UNL A   1      32.379  29.260  24.582  1.00  0.00     0.116 C 
BRANCH   3   4
ATOM      4  N   UNL A   1      31.491  29.718  23.532  1.00  0.00    -0.355 N 
ATOM      5  C   UNL A   1      30.813  29.064  22.556  1.00  0.00     0.238 C 
ATOM      6  O   UNL A   1      30.250  29.775  21.711  1.00  0.00    -0.273 OA
ATOM      7  H   UNL A   1      31.355  30.692  23.525  1.00  0.00     0.163 HD
BRANCH   5   8
ATOM      8  C   UNL A   1      30.593  27.559  22.504  1.00  0.00     0.162 C 
ATOM      9  N   UNL A   1      31.612  26.628  23.001  1.00  0.00    -0.185 NA
ATOM     10  C   UNL A   1      31.172  25.935  24.214  1.00  0.00     0.103 C 
ATOM     11  C   UNL A   1      29.660  26.004  24.172  1.00  0.00     0.019 C 
ATOM     12  C   UNL A   1      29.337  27.233  23.338  1.00  0.00     0.032 C 
BRANCH   9  13
ATOM     13  S   UNL A   1      32.789  26.004  21.996  1.00  0.00     0.243 S 
ATOM     14  O   UNL A   1      33.867  26.963  21.935  1.00  0.00    -0.207 OA
ATOM     15  O   UNL A   1      32.133  25.523  20.798  1.00  0.00    -0.207 OA
BRANCH  13  16
ATOM     16  C   UNL A   1      33.459  24.553  22.776  1.00  0.00     0.084 A 
ATOM     17  C   UNL A   1      35.800  21.116  25.745  1.00  0.00     0.154 C 
ATOM     18  N   UNL A   1      34.720  21.043  24.771  1.00  0.00    -0.305 N 
ATOM     19  C   UNL A   1      34.103  19.810  24.574  1.00  0.00     0.316 A 
ATOM     20  C   UNL A   1      34.301  22.207  24.078  1.00  0.00     0.068 A 
ATOM     21  O   UNL A   1      34.433  18.785  25.165  1.00  0.00    -0.263 OA
ATOM     22  C   UNL A   1      32.953  19.738  23.562  1.00  0.00     0.316 A 
ATOM     23  C   UNL A   1      33.223  22.153  23.175  1.00  0.00     0.069 A 
ATOM     24  C   UNL A   1      34.950  23.434  24.293  1.00  0.00     0.030 A 
ATOM     25  O   UNL A   1      32.425  18.648  23.356  1.00  0.00    -0.263 OA
ATOM     26  N   UNL A   1      32.563  20.918  22.929  1.00  0.00    -0.305 N 
ATOM     27  C   UNL A   1      32.809  23.336  22.534  1.00  0.00     0.050 A 
ATOM     28  C   UNL A   1      34.537  24.597  23.645  1.00  0.00     0.024 A 
ATOM     29  C   UNL A   1      31.450  20.850  21.992  1.00  0.00     0.154 C 
ENDBRANCH  13  16
ENDBRANCH   9  13
ENDBRANCH   5   8
ENDBRANCH   3   4
ENDBRANCH   2   3
ENDBRANCH   1   2
BRANCH   1  30
ATOM     30  C   UNL A   1      33.773  28.817  27.273  1.00  0.00     0.116 C 
BRANCH  30  31
ATOM     31  N   UNL A   1      33.712  30.174  27.797  1.00  0.00    -0.352 N 
ATOM     32  C   UNL A   1      34.704  30.891  28.427  1.00  0.00     0.251 C 
ATOM     33  H   UNL A   1      32.851  30.638  27.686  1.00  0.00     0.163 HD
ATOM     34  O   UNL A   1      34.471  32.007  28.880  1.00  0.00    -0.269 OA
BRANCH  32  35
ATOM     35  C   UNL A   1      36.036  30.273  28.594  1.00  0.00     0.039 A 
ATOM     36  C   UNL A   1      36.401  29.704  29.814  1.00  0.00     0.014 A 
ATOM     37  C   UNL A   1      36.950  30.327  27.539  1.00  0.00     0.014 A 
ATOM     38  C   UNL A   1      37.727  29.355  30.036  1.00  0.00     0.010 A 
ATOM     39  C   UNL A   1      38.262  29.886  27.736  1.00  0.00     0.010 A 
ATOM     40  C   UNL A   1      38.675  29.445  29.001  1.00  0.00    -0.014 A 
BRANCH  40  41
ATOM     41  C   UNL A   1      40.076  29.038  29.282  1.00  0.00     0.031 A 
ATOM     42  C   UNL A   1      40.613  27.709  28.826  1.00  0.00     0.074 A 
ATOM     43  C   UNL A   1      40.892  29.924  29.886  1.00  0.00     0.049 A 
ATOM     44  N   UNL A   1      41.846  27.267  28.877  1.00  0.00    -0.248 NA
ATOM     45  C   UNL A   1      39.659  26.750  28.248  1.00  0.00     0.031 C 
ATOM     46  C   UNL A   1      40.476  31.239  30.380  1.00  0.00     0.029 A 
ATOM     47  N   UNL A   1      42.238  29.882  30.138  1.00  0.00    -0.354 N 
ATOM     48  C   UNL A   1      41.810  25.976  28.363  1.00  0.00     0.074 A 
ATOM     49  C   UNL A   1      40.432  25.696  28.026  1.00  0.00     0.031 C 
ATOM     50  C   UNL A   1      41.558  31.913  30.791  1.00  0.00     0.029 A 
ATOM     51  C   UNL A   1      42.734  31.058  30.651  1.00  0.00     0.049 A 
ATOM     52  H   UNL A   1      42.796  29.088  29.971  1.00  0.00     0.167 HD
ATOM     53  C   UNL A   1      42.836  25.109  28.185  1.00  0.00     0.031 A 
ATOM     54  C   UNL A   1      43.991  31.423  30.966  1.00  0.00     0.031 A 
ATOM     55  C   UNL A   1      44.210  25.405  28.502  1.00  0.00     0.049 A 
ATOM     56  C   UNL A   1      45.111  30.454  30.746  1.00  0.00     0.074 A 
ATOM     57  C   UNL A   1      45.324  24.609  28.301  1.00  0.00     0.029 A 
ATOM     58  N   UNL A   1      44.659  26.580  29.086  1.00  0.00    -0.354 N 
ATOM     59  N   UNL A   1      45.061  29.250  30.230  1.00  0.00    -0.248 NA
ATOM     60  C   UNL A   1      46.453  30.886  31.154  1.00  0.00     0.031 C 
ATOM     61  C   UNL A   1      46.438  25.276  28.820  1.00  0.00     0.029 A 
ATOM     62  C   UNL A   1      46.028  26.515  29.287  1.00  0.00     0.049 A 
ATOM     63  H   UNL A   1      44.089  27.346  29.324  1.00  0.00     0.167 HD
ATOM     64  C   UNL A   1      46.364  28.771  30.263  1.00  0.00     0.074 A 
ATOM     65  C   UNL A   1      47.186  29.830  30.817  1.00  0.00     0.031 C 
ATOM     66  C   UNL A   1      46.831  27.558  29.877  1.00  0.00     0.031 A 
BRANCH  53  67
ATOM     67  C   UNL A   1      42.525  23.743  27.631  1.00  0.00    -0.014 A 
ATOM     68  C   UNL A   1      42.083  22.727  28.501  1.00  0.00     0.010 A 
ATOM     69  C   UNL A   1      42.759  23.430  26.280  1.00  0.00     0.010 A 
ATOM     70  C   UNL A   1      41.899  21.422  28.036  1.00  0.00     0.020 A 
ATOM     71  C   UNL A   1      42.551  22.130  25.805  1.00  0.00     0.020 A 
ATOM     72  C   UNL A   1      42.142  21.130  26.691  1.00  0.00     0.054 A 
BRANCH  72  73
ATOM     73  S   UNL A   1      41.897  19.431  26.103  1.00  0.00     0.124 S 
ATOM     74  O   UNL A   1      42.718  19.402  24.897  1.00  0.00    -0.237 OA
ATOM     75  O   UNL A   1      42.387  18.628  27.221  1.00  0.00    -0.237 OA
ATOM     76  O   UNL A   1      40.454  19.354  25.881  1.00  0.00    -0.744 OA
ENDBRANCH  72  73
ENDBRANCH  53  67
BRANCH  54  77
ATOM     77  C   UNL A   1      44.219  32.799  31.483  1.00  0.00    -0.014 A 
ATOM     78  C   UNL A   1      44.178  33.048  32.869  1.00  0.00     0.010 A 
ATOM     79  C   UNL A   1      44.320  33.882  30.593  1.00  0.00     0.010 A 
ATOM     80  C   UNL A   1      44.147  34.358  33.350  1.00  0.00     0.020 A 
ATOM     81  C   UNL A   1      44.318  35.194  31.075  1.00  0.00     0.020 A 
ATOM     82  C   UNL A   1      44.191  35.423  32.447  1.00  0.00     0.054 A 
BRANCH  82  83
ATOM     83  S   UNL A   1      44.033  37.114  33.084  1.00  0.00     0.124 S 
ATOM     84  O   UNL A   1      42.810  37.020  33.877  1.00  0.00    -0.237 OA
ATOM     85  O   UNL A   1      45.265  37.288  33.846  1.00  0.00    -0.237 OA
ATOM     86  O   UNL A   1      43.933  37.925  31.873  1.00  0.00    -0.744 OA
ENDBRANCH  82  83
ENDBRANCH  54  77
BRANCH  66  87
ATOM     87  C   UNL A   1      48.298  27.282  30.077  1.00  0.00    -0.014 A 
ATOM     88  C   UNL A   1      48.754  26.738  31.290  1.00  0.00     0.010 A 
ATOM     89  C   UNL A   1      49.233  27.644  29.091  1.00  0.00     0.010 A 
ATOM     90  C   UNL A   1      50.122  26.574  31.522  1.00  0.00     0.020 A 
ATOM     91  C   UNL A   1      50.601  27.458  29.310  1.00  0.00     0.020 A 
ATOM     92  C   UNL A   1      51.038  26.941  30.532  1.00  0.00     0.054 A 
BRANCH  92  93
ATOM     93  S   UNL A   1      52.811  26.712  30.840  1.00  0.00     0.124 S 
ATOM     94  O   UNL A   1      53.310  26.361  29.515  1.00  0.00    -0.237 OA
ATOM     95  O   UNL A   1      53.224  28.021  31.343  1.00  0.00    -0.237 OA
ATOM     96  O   UNL A   1      52.847  25.636  31.828  1.00  0.00    -0.744 OA
ENDBRANCH  92  93
ENDBRANCH  66  87
ENDBRANCH  40  41
ENDBRANCH  32  35
ENDBRANCH  30  31
ENDBRANCH   1  30
TORSDOF 16
ENDMDL
MODEL 3
REMARK VINA RESULT:     -12.2      5.919     10.304
REMARK SMILES Cn1c(=O)c(=O)n(C)c2cc(S(=O)(=O)N3CCC[C@H]3C(=O)NCCCCNC(=O)c3ccc(-c4c5nc(c(-c6ccc(S(=O)(=O)[O-])cc6)c6ccc([nH]6)c(-c6ccc(S(=O)(=O)[O-])cc6)c6nc(c(-c7ccc(S(=O)(=O)[O-])cc7)c7ccc4[nH]7)C=C6)C=C5)cc3)ccc21
REMARK SMILES IDX 25 1 24 2 23 3 22 4 20 5 21 6 19 8 15 9 16 10 17 11 18 12
REMARK SMILES IDX 12 13 13 14 14 15 11 16 1 17 2 18 3 19 92 20 4 21 5 22 9 23
REMARK SMILES IDX 91 24 6 25 7 26 10 27 90 28 8 29 26 30 27 31 28 32 29 34
REMARK SMILES IDX 30 35 31 36 89 37 32 38 88 39 33 40 34 41 35 42 82 43 36 44
REMARK SMILES IDX 87 45 81 46 83 47 37 48 86 49 80 50 79 51 38 53 68 54 49 55
REMARK SMILES IDX 67 56 50 57 53 58 66 59 84 60 51 61 52 62 65 64 85 65 54 66
REMARK SMILES IDX 39 67 40 68 48 69 41 70 47 71 42 72 43 73 44 74 45 75 46 76
REMARK SMILES IDX 69 77 70 78 78 79 71 80 77 81 72 82 73 83 74 84 75 85 76 86
REMARK SMILES IDX 55 87 56 88 64 89 57 90 63 91 58 92 59 93 60 94 61 95 62 96
REMARK H PARENT 22 7 27 33 83 52 53 63
REMARK Flexibility Score: inf
ROOT
ATOM      1  C   UNL A   1      37.860  21.309  25.005  1.00  0.00     0.023 C 
ENDROOT
BRANCH   1   2
ATOM      2  C   UNL A   1      36.772  20.234  24.992  1.00  0.00     0.023 C 
BRANCH   2   3
ATOM      3  C   UNL A   1      35.342  20.770  25.055  1.00  0.00     0.116 C 
BRANCH   3   4
ATOM      4  N   UNL A   1      34.395  19.713  25.351  1.00  0.00    -0.355 N 
ATOM      5  C   UNL A   1      33.042  19.652  25.290  1.00  0.00     0.238 C 
ATOM      6  O   UNL A   1      32.519  18.633  25.762  1.00  0.00    -0.273 OA
ATOM      7  H   UNL A   1      34.816  18.877  25.656  1.00  0.00     0.163 HD
BRANCH   5   8
ATOM      8  C   UNL A   1      32.154  20.666  24.583  1.00  0.00     0.162 C 
ATOM      9  N   UNL A   1      32.392  22.107  24.721  1.00  0.00    -0.185 NA
ATOM     10  C   UNL A   1      32.860  22.704  23.468  1.00  0.00     0.103 C 
ATOM     11  C   UNL A   1      32.381  21.758  22.386  1.00  0.00     0.019 C 
ATOM     12  C   UNL A   1      32.249  20.405  23.066  1.00  0.00     0.032 C 
BRANCH   9  13
ATOM     13  S   UNL A   1      31.646  23.006  25.911  1.00  0.00     0.243 S 
ATOM     14  O   UNL A   1      32.628  23.281  26.934  1.00  0.00    -0.207 OA
ATOM     15  O   UNL A   1      30.387  22.362  26.223  1.00  0.00    -0.207 OA
BRANCH  13  16
ATOM     16  C   UNL A   1      31.204  24.579  25.211  1.00  0.00     0.084 A 
ATOM     17  C   UNL A   1      29.023  28.559  22.862  1.00  0.00     0.154 C 
ATOM     18  N   UNL A   1      30.057  28.427  23.878  1.00  0.00    -0.305 N 
ATOM     19  C   UNL A   1      30.595  29.593  24.416  1.00  0.00     0.316 A 
ATOM     20  C   UNL A   1      30.468  27.143  24.319  1.00  0.00     0.068 A 
ATOM     21  O   UNL A   1      30.254  30.721  24.065  1.00  0.00    -0.263 OA
ATOM     22  C   UNL A   1      31.669  29.453  25.501  1.00  0.00     0.316 A 
ATOM     23  C   UNL A   1      31.428  27.010  25.339  1.00  0.00     0.069 A 
ATOM     24  C   UNL A   1      29.912  25.985  23.751  1.00  0.00     0.030 A 
ATOM     25  O   UNL A   1      32.175  30.477  25.956  1.00  0.00    -0.263 OA
ATOM     26  N   UNL A   1      32.017  28.169  25.917  1.00  0.00    -0.305 N 
ATOM     27  C   UNL A   1      31.784  25.721  25.779  1.00  0.00     0.050 A 
ATOM     28  C   UNL A   1      30.280  24.714  24.188  1.00  0.00     0.024 A 
ATOM     29  C   UNL A   1      33.016  28.042  26.969  1.00  0.00     0.154 C 
ENDBRANCH  13  16
ENDBRANCH   9  13
ENDBRANCH   5   8
ENDBRANCH   3   4
ENDBRANCH   2   3
ENDBRANCH   1   2
BRANCH   1  30
ATOM     30  C   UNL A   1      38.908  21.163  26.099  1.00  0.00     0.116 C 
BRANCH  30  31
ATOM     31  N   UNL A   1      39.717  19.957  25.984  1.00  0.00    -0.352 N 
ATOM     32  C   UNL A   1      41.082  19.831  26.108  1.00  0.00     0.251 C 
ATOM     33  H   UNL A   1      39.224  19.127  25.794  1.00  0.00     0.163 HD
ATOM     34  O   UNL A   1      41.626  18.749  25.909  1.00  0.00    -0.269 OA
BRANCH  32  35
ATOM     35  C   UNL A   1      41.885  21.029  26.431  1.00  0.00     0.039 A 
ATOM     36  C   UNL A   1      42.238  21.306  27.752  1.00  0.00     0.014 A 
ATOM     37  C   UNL A   1      42.228  21.916  25.407  1.00  0.00     0.014 A 
ATOM     38  C   UNL A   1      42.770  22.548  28.069  1.00  0.00     0.010 A 
ATOM     39  C   UNL A   1      42.851  23.127  25.721  1.00  0.00     0.010 A 
ATOM     40  C   UNL A   1      43.081  23.476  27.060  1.00  0.00    -0.014 A 
BRANCH  40  41
ATOM     41  C   UNL A   1      43.669  24.783  27.450  1.00  0.00     0.031 A 
ATOM     42  C   UNL A   1      45.107  25.115  27.155  1.00  0.00     0.074 A 
ATOM     43  C   UNL A   1      42.863  25.710  28.003  1.00  0.00     0.049 A 
ATOM     44  N   UNL A   1      45.728  26.258  27.312  1.00  0.00    -0.248 NA
ATOM     45  C   UNL A   1      45.960  24.039  26.628  1.00  0.00     0.031 C 
ATOM     46  C   UNL A   1      41.455  25.495  28.344  1.00  0.00     0.029 A 
ATOM     47  N   UNL A   1      43.088  27.023  28.326  1.00  0.00    -0.354 N 
ATOM     48  C   UNL A   1      47.045  26.032  26.927  1.00  0.00     0.074 A 
ATOM     49  C   UNL A   1      47.140  24.640  26.550  1.00  0.00     0.031 C 
ATOM     50  C   UNL A   1      40.919  26.656  28.740  1.00  0.00     0.029 A 
ATOM     51  C   UNL A   1      41.957  27.683  28.744  1.00  0.00     0.049 A 
ATOM     52  H   UNL A   1      43.973  27.451  28.267  1.00  0.00     0.167 HD
ATOM     53  C   UNL A   1      48.075  26.911  26.887  1.00  0.00     0.031 A 
ATOM     54  C   UNL A   1      41.761  28.972  29.085  1.00  0.00     0.031 A 
ATOM     55  C   UNL A   1      47.966  28.303  27.243  1.00  0.00     0.049 A 
ATOM     56  C   UNL A   1      42.912  29.928  29.019  1.00  0.00     0.074 A 
ATOM     57  C   UNL A   1      48.943  29.281  27.178  1.00  0.00     0.029 A 
ATOM     58  N   UNL A   1      46.821  28.915  27.730  1.00  0.00    -0.354 N 
ATOM     59  N   UNL A   1      44.141  29.703  28.622  1.00  0.00    -0.248 NA
ATOM     60  C   UNL A   1      42.655  31.308  29.449  1.00  0.00     0.031 C 
ATOM     61  C   UNL A   1      48.408  30.469  27.684  1.00  0.00     0.029 A 
ATOM     62  C   UNL A   1      47.078  30.249  28.005  1.00  0.00     0.049 A 
ATOM     63  H   UNL A   1      45.954  28.468  27.862  1.00  0.00     0.167 HD
ATOM     64  C   UNL A   1      44.812  30.909  28.768  1.00  0.00     0.074 A 
ATOM     65  C   UNL A   1      43.842  31.871  29.255  1.00  0.00     0.031 C 
ATOM     66  C   UNL A   1      46.117  31.188  28.529  1.00  0.00     0.031 A 
BRANCH  53  67
ATOM     67  C   UNL A   1      49.427  26.403  26.457  1.00  0.00    -0.014 A 
ATOM     68  C   UNL A   1      50.278  25.807  27.407  1.00  0.00     0.010 A 
ATOM     69  C   UNL A   1      49.899  26.600  25.146  1.00  0.00     0.010 A 
ATOM     70  C   UNL A   1      51.579  25.433  27.062  1.00  0.00     0.020 A 
ATOM     71  C   UNL A   1      51.193  26.203  24.791  1.00  0.00     0.020 A 
ATOM     72  C   UNL A   1      52.032  25.640  25.756  1.00  0.00     0.054 A 
BRANCH  72  73
ATOM     73  S   UNL A   1      53.724  25.149  25.323  1.00  0.00     0.124 S 
ATOM     74  O   UNL A   1      54.505  25.754  26.398  1.00  0.00    -0.237 OA
ATOM     75  O   UNL A   1      53.650  23.689  25.339  1.00  0.00    -0.237 OA
ATOM     76  O   UNL A   1      53.919  25.737  23.999  1.00  0.00    -0.744 OA
ENDBRANCH  72  73
ENDBRANCH  53  67
BRANCH  54  77
ATOM     77  C   UNL A   1      40.392  29.400  29.474  1.00  0.00    -0.014 A 
ATOM     78  C   UNL A   1      39.460  29.770  28.485  1.00  0.00     0.010 A 
ATOM     79  C   UNL A   1      40.068  29.591  30.829  1.00  0.00     0.010 A 
ATOM     80  C   UNL A   1      38.266  30.400  28.840  1.00  0.00     0.020 A 
ATOM     81  C   UNL A   1      38.860  30.196  31.187  1.00  0.00     0.020 A 
ATOM     82  C   UNL A   1      37.986  30.632  30.188  1.00  0.00     0.054 A 
BRANCH  82  83
ATOM     83  S   UNL A   1      36.486  31.555  30.622  1.00  0.00     0.124 S 
ATOM     84  O   UNL A   1      36.995  32.921  30.723  1.00  0.00    -0.237 OA
ATOM     85  O   UNL A   1      35.607  31.294  29.487  1.00  0.00    -0.237 OA
ATOM     86  O   UNL A   1      36.067  30.949  31.884  1.00  0.00    -0.744 OA
ENDBRANCH  82  83
ENDBRANCH  54  77
BRANCH  66  87
ATOM     87  C   UNL A   1      46.596  32.584  28.828  1.00  0.00    -0.014 A 
ATOM     88  C   UNL A   1      46.524  33.582  27.840  1.00  0.00     0.010 A 
ATOM     89  C   UNL A   1      47.198  32.883  30.063  1.00  0.00     0.010 A 
ATOM     90  C   UNL A   1      47.059  34.850  28.074  1.00  0.00     0.020 A 
ATOM     91  C   UNL A   1      47.712  34.159  30.311  1.00  0.00     0.020 A 
ATOM     92  C   UNL A   1      47.655  35.130  29.307  1.00  0.00     0.054 A 
BRANCH  92  93
ATOM     93  S   UNL A   1      48.335  36.785  29.604  1.00  0.00     0.124 S 
ATOM     94  O   UNL A   1      48.174  37.421  28.301  1.00  0.00    -0.237 OA
ATOM     95  O   UNL A   1      47.476  37.302  30.668  1.00  0.00    -0.237 OA
ATOM     96  O   UNL A   1      49.715  36.519  30.005  1.00  0.00    -0.744 OA
ENDBRANCH  92  93
ENDBRANCH  66  87
ENDBRANCH  40  41
ENDBRANCH  32  35
ENDBRANCH  30  31
ENDBRANCH   1  30
TORSDOF 16
ENDMDL
