MODEL 1
REMARK VINA RESULT:     -12.5      0.000      0.000
REMARK SMILES CC1=C(C(=O)NCCCCNC(=O)c2ccc(-c3c4nc(c(-c5ccc(S(=O)(=O)[O-])cc5)c5ccc([nH]5)c(-c5ccc(S(=O)(=O)[O-])cc5)c5nc(c(-c6ccc(S(=O)(=O)[O-])cc6)c6ccc3[nH]6)C=C5)C=C4)cc2)[C@H](c2ccc(Cl)cc2)n2ncnc2N1
REMARK SMILES IDX 9 1 8 2 7 3 6 4 4 5 5 6 3 8 1 9 2 10 87 11 74 12 86 13 82 15
REMARK SMILES IDX 85 16 83 17 84 18 75 19 76 20 81 21 77 22 80 23 78 24 79 25
REMARK SMILES IDX 10 26 11 27 12 28 13 30 14 31 15 32 73 33 16 34 72 35 17 36
REMARK SMILES IDX 18 37 19 38 66 39 20 40 71 41 65 42 67 43 21 44 70 45 64 46
REMARK SMILES IDX 63 47 22 49 52 50 33 51 51 52 34 53 37 54 50 55 68 56 35 57
REMARK SMILES IDX 36 58 49 60 69 61 38 62 23 63 24 64 32 65 25 66 31 67 26 68
REMARK SMILES IDX 27 69 28 70 29 71 30 72 53 73 54 74 62 75 55 76 61 77 56 78
REMARK SMILES IDX 57 79 58 80 59 81 60 82 39 83 40 84 48 85 41 86 47 87 42 88
REMARK SMILES IDX 43 89 44 90 45 91 46 92
REMARK H PARENT 6 7 87 14 11 29 67 48 37 59
REMARK Flexibility Score: inf
ROOT
ATOM      1  C   UNL A   1      39.425  22.189  26.398  1.00  0.00     0.023 C 
ENDROOT
BRANCH   1   2
ATOM      2  C   UNL A   1      38.945  23.631  26.614  1.00  0.00     0.023 C 
BRANCH   2   3
ATOM      3  C   UNL A   1      37.601  24.030  25.996  1.00  0.00     0.116 C 
BRANCH   3   4
ATOM      4  N   UNL A   1      37.442  23.648  24.609  1.00  0.00    -0.352 N 
ATOM      5  C   UNL A   1      36.381  23.206  23.879  1.00  0.00     0.251 C 
ATOM      6  O   UNL A   1      36.659  22.824  22.743  1.00  0.00    -0.270 OA
ATOM      7  H   UNL A   1      38.273  23.723  24.084  1.00  0.00     0.163 HD
BRANCH   5   8
ATOM      8  C   UNL A   1      34.999  22.995  24.422  1.00  0.00     0.065 C 
ATOM      9  C   UNL A   1      33.561  24.217  22.710  1.00  0.00     0.065 C 
ATOM     10  C   UNL A   1      33.825  23.563  24.036  1.00  0.00     0.026 C 
ATOM     11  N   UNL A   1      32.719  23.520  24.891  1.00  0.00    -0.328 N 
ATOM     12  C   UNL A   1      34.934  21.931  25.558  1.00  0.00     0.179 C 
ATOM     13  C   UNL A   1      32.787  23.048  26.150  1.00  0.00     0.226 A 
ATOM     14  H   UNL A   1      31.853  23.848  24.557  1.00  0.00     0.169 HD
ATOM     15  N   UNL A   1      33.900  22.340  26.522  1.00  0.00    -0.219 N 
ATOM     16  N   UNL A   1      31.945  23.097  27.150  1.00  0.00    -0.200 NA
ATOM     17  N   UNL A   1      33.819  21.941  27.811  1.00  0.00    -0.157 NA
ATOM     18  C   UNL A   1      32.609  22.413  28.137  1.00  0.00     0.248 A 
BRANCH  12  19
ATOM     19  C   UNL A   1      34.629  20.510  24.996  1.00  0.00    -0.018 A 
ATOM     20  C   UNL A   1      35.606  19.496  24.891  1.00  0.00     0.008 A 
ATOM     21  C   UNL A   1      33.318  20.165  24.609  1.00  0.00     0.008 A 
ATOM     22  C   UNL A   1      35.283  18.206  24.449  1.00  0.00     0.021 A 
ATOM     23  C   UNL A   1      32.988  18.868  24.190  1.00  0.00     0.021 A 
ATOM     24  C   UNL A   1      33.973  17.893  24.113  1.00  0.00     0.041 A 
ATOM     25  Cl  UNL A   1      33.585  16.301  23.598  1.00  0.00    -0.084 Cl
ENDBRANCH  12  19
ENDBRANCH   5   8
ENDBRANCH   3   4
ENDBRANCH   2   3
ENDBRANCH   1   2
BRANCH   1  26
ATOM     26  C   UNL A   1      40.726  21.816  27.094  1.00  0.00     0.116 C 
BRANCH  26  27
ATOM     27  N   UNL A   1      41.824  21.518  26.180  1.00  0.00    -0.352 N 
ATOM     28  C   UNL A   1      42.746  22.416  25.658  1.00  0.00     0.251 C 
ATOM     29  H   UNL A   1      41.923  20.578  25.903  1.00  0.00     0.163 HD
ATOM     30  O   UNL A   1      43.443  22.118  24.708  1.00  0.00    -0.269 OA
BRANCH  28  31
ATOM     31  C   UNL A   1      42.840  23.753  26.283  1.00  0.00     0.039 A 
ATOM     32  C   UNL A   1      42.224  24.864  25.700  1.00  0.00     0.014 A 
ATOM     33  C   UNL A   1      43.493  23.861  27.507  1.00  0.00     0.014 A 
ATOM     34  C   UNL A   1      42.181  26.066  26.411  1.00  0.00     0.010 A 
ATOM     35  C   UNL A   1      43.345  25.007  28.255  1.00  0.00     0.010 A 
ATOM     36  C   UNL A   1      42.718  26.126  27.704  1.00  0.00    -0.014 A 
BRANCH  36  37
ATOM     37  C   UNL A   1      42.550  27.321  28.535  1.00  0.00     0.031 A 
ATOM     38  C   UNL A   1      43.592  28.384  28.407  1.00  0.00     0.074 A 
ATOM     39  C   UNL A   1      41.396  27.590  29.183  1.00  0.00     0.049 A 
ATOM     40  N   UNL A   1      44.348  28.867  29.337  1.00  0.00    -0.248 NA
ATOM     41  C   UNL A   1      43.871  28.938  27.073  1.00  0.00     0.031 C 
ATOM     42  C   UNL A   1      40.155  26.807  29.172  1.00  0.00     0.029 A 
ATOM     43  N   UNL A   1      41.035  28.717  29.859  1.00  0.00    -0.354 N 
ATOM     44  C   UNL A   1      45.080  29.903  28.760  1.00  0.00     0.074 A 
ATOM     45  C   UNL A   1      44.843  29.814  27.339  1.00  0.00     0.031 C 
ATOM     46  C   UNL A   1      39.127  27.593  29.559  1.00  0.00     0.029 A 
ATOM     47  C   UNL A   1      39.661  28.866  30.007  1.00  0.00     0.049 A 
ATOM     48  H   UNL A   1      41.688  29.364  30.211  1.00  0.00     0.167 HD
ATOM     49  C   UNL A   1      45.680  30.876  29.504  1.00  0.00     0.031 A 
ATOM     50  C   UNL A   1      38.998  29.971  30.422  1.00  0.00     0.031 A 
ATOM     51  C   UNL A   1      45.684  30.552  30.907  1.00  0.00     0.049 A 
ATOM     52  C   UNL A   1      39.964  30.805  31.177  1.00  0.00     0.074 A 
ATOM     53  C   UNL A   1      46.207  29.527  31.670  1.00  0.00     0.029 A 
ATOM     54  N   UNL A   1      44.741  31.170  31.696  1.00  0.00    -0.354 N 
ATOM     55  N   UNL A   1      40.485  30.436  32.313  1.00  0.00    -0.248 NA
ATOM     56  C   UNL A   1      40.685  31.859  30.480  1.00  0.00     0.031 C 
ATOM     57  C   UNL A   1      45.221  29.277  32.670  1.00  0.00     0.029 A 
ATOM     58  C   UNL A   1      44.189  30.202  32.496  1.00  0.00     0.049 A 
ATOM     59  H   UNL A   1      44.508  32.127  31.688  1.00  0.00     0.167 HD
ATOM     60  C   UNL A   1      41.803  30.863  32.254  1.00  0.00     0.074 A 
ATOM     61  C   UNL A   1      41.829  31.844  31.172  1.00  0.00     0.031 C 
ATOM     62  C   UNL A   1      42.796  30.173  32.891  1.00  0.00     0.031 A 
BRANCH  49  63
ATOM     63  C   UNL A   1      45.963  32.283  29.032  1.00  0.00    -0.014 A 
ATOM     64  C   UNL A   1      44.890  33.081  28.580  1.00  0.00     0.010 A 
ATOM     65  C   UNL A   1      47.264  32.747  28.760  1.00  0.00     0.010 A 
ATOM     66  C   UNL A   1      45.111  34.242  27.825  1.00  0.00     0.020 A 
ATOM     67  C   UNL A   1      47.495  33.927  28.046  1.00  0.00     0.020 A 
ATOM     68  C   UNL A   1      46.416  34.646  27.548  1.00  0.00     0.054 A 
BRANCH  68  69
ATOM     69  S   UNL A   1      46.692  36.068  26.461  1.00  0.00     0.124 S 
ATOM     70  O   UNL A   1      46.832  35.425  25.157  1.00  0.00    -0.237 OA
ATOM     71  O   UNL A   1      45.475  36.850  26.655  1.00  0.00    -0.237 OA
ATOM     72  O   UNL A   1      47.909  36.674  26.996  1.00  0.00    -0.744 OA
ENDBRANCH  68  69
ENDBRANCH  49  63
BRANCH  50  73
ATOM     73  C   UNL A   1      37.664  30.451  29.992  1.00  0.00    -0.014 A 
ATOM     74  C   UNL A   1      36.839  31.175  30.873  1.00  0.00     0.010 A 
ATOM     75  C   UNL A   1      37.309  30.437  28.626  1.00  0.00     0.010 A 
ATOM     76  C   UNL A   1      35.754  31.926  30.394  1.00  0.00     0.020 A 
ATOM     77  C   UNL A   1      36.220  31.170  28.142  1.00  0.00     0.020 A 
ATOM     78  C   UNL A   1      35.469  31.940  29.026  1.00  0.00     0.054 A 
BRANCH  78  79
ATOM     79  S   UNL A   1      34.224  33.098  28.383  1.00  0.00     0.124 S 
ATOM     80  O   UNL A   1      35.026  33.974  27.535  1.00  0.00    -0.237 OA
ATOM     81  O   UNL A   1      33.298  32.212  27.683  1.00  0.00    -0.237 OA
ATOM     82  O   UNL A   1      33.682  33.719  29.591  1.00  0.00    -0.744 OA
ENDBRANCH  78  79
ENDBRANCH  50  73
BRANCH  62  83
ATOM     83  C   UNL A   1      42.401  29.101  33.884  1.00  0.00    -0.014 A 
ATOM     84  C   UNL A   1      42.162  27.759  33.524  1.00  0.00     0.010 A 
ATOM     85  C   UNL A   1      42.413  29.430  35.251  1.00  0.00     0.010 A 
ATOM     86  C   UNL A   1      41.897  26.787  34.499  1.00  0.00     0.020 A 
ATOM     87  C   UNL A   1      42.171  28.462  36.229  1.00  0.00     0.020 A 
ATOM     88  C   UNL A   1      41.899  27.147  35.848  1.00  0.00     0.054 A 
BRANCH  88  89
ATOM     89  S   UNL A   1      41.590  25.878  37.107  1.00  0.00     0.124 S 
ATOM     90  O   UNL A   1      40.237  26.198  37.554  1.00  0.00    -0.237 OA
ATOM     91  O   UNL A   1      41.725  24.632  36.355  1.00  0.00    -0.237 OA
ATOM     92  O   UNL A   1      42.639  26.109  38.100  1.00  0.00    -0.744 OA
ENDBRANCH  88  89
ENDBRANCH  62  83
ENDBRANCH  36  37
ENDBRANCH  28  31
ENDBRANCH  26  27
ENDBRANCH   1  26
TORSDOF 15
ENDMDL
MODEL 2
REMARK VINA RESULT:     -12.4      2.989      4.514
REMARK SMILES CC1=C(C(=O)NCCCCNC(=O)c2ccc(-c3c4nc(c(-c5ccc(S(=O)(=O)[O-])cc5)c5ccc([nH]5)c(-c5ccc(S(=O)(=O)[O-])cc5)c5nc(c(-c6ccc(S(=O)(=O)[O-])cc6)c6ccc3[nH]6)C=C5)C=C4)cc2)[C@H](c2ccc(Cl)cc2)n2ncnc2N1
REMARK SMILES IDX 9 1 8 2 7 3 6 4 4 5 5 6 3 8 1 9 2 10 87 11 74 12 86 13 82 15
REMARK SMILES IDX 85 16 83 17 84 18 75 19 76 20 81 21 77 22 80 23 78 24 79 25
REMARK SMILES IDX 10 26 11 27 12 28 13 30 14 31 15 32 73 33 16 34 72 35 17 36
REMARK SMILES IDX 18 37 19 38 66 39 20 40 71 41 65 42 67 43 21 44 70 45 64 46
REMARK SMILES IDX 63 47 22 49 52 50 33 51 51 52 34 53 37 54 50 55 68 56 35 57
REMARK SMILES IDX 36 58 49 60 69 61 38 62 23 63 24 64 32 65 25 66 31 67 26 68
REMARK SMILES IDX 27 69 28 70 29 71 30 72 53 73 54 74 62 75 55 76 61 77 56 78
REMARK SMILES IDX 57 79 58 80 59 81 60 82 39 83 40 84 48 85 41 86 47 87 42 88
REMARK SMILES IDX 43 89 44 90 45 91 46 92
REMARK H PARENT 6 7 87 14 11 29 67 48 37 59
REMARK Flexibility Score: inf
ROOT
ATOM      1  C   UNL A   1      35.930  23.223  25.662  1.00  0.00     0.023 C 
ENDROOT
BRANCH   1   2
ATOM      2  C   UNL A   1      34.950  23.350  24.488  1.00  0.00     0.023 C 
BRANCH   2   3
ATOM      3  C   UNL A   1      34.325  24.725  24.234  1.00  0.00     0.116 C 
BRANCH   3   4
ATOM      4  N   UNL A   1      33.972  24.977  22.852  1.00  0.00    -0.352 N 
ATOM      5  C   UNL A   1      32.874  25.516  22.255  1.00  0.00     0.251 C 
ATOM      6  O   UNL A   1      32.857  25.427  21.028  1.00  0.00    -0.270 OA
ATOM      7  H   UNL A   1      34.668  24.700  22.213  1.00  0.00     0.163 HD
BRANCH   5   8
ATOM      8  C   UNL A   1      31.663  26.018  22.985  1.00  0.00     0.065 C 
ATOM      9  C   UNL A   1      31.042  24.015  24.431  1.00  0.00     0.065 C 
ATOM     10  C   UNL A   1      30.784  25.338  23.768  1.00  0.00     0.026 C 
ATOM     11  N   UNL A   1      29.533  25.894  24.053  1.00  0.00    -0.328 N 
ATOM     12  C   UNL A   1      31.442  27.553  22.837  1.00  0.00     0.179 C 
ATOM     13  C   UNL A   1      29.093  27.032  23.484  1.00  0.00     0.226 A 
ATOM     14  H   UNL A   1      28.950  25.434  24.698  1.00  0.00     0.169 HD
ATOM     15  N   UNL A   1      29.995  27.816  22.812  1.00  0.00    -0.219 N 
ATOM     16  N   UNL A   1      27.916  27.603  23.463  1.00  0.00    -0.200 NA
ATOM     17  N   UNL A   1      29.400  28.916  22.297  1.00  0.00    -0.157 NA
ATOM     18  C   UNL A   1      28.147  28.742  22.734  1.00  0.00     0.248 A 
BRANCH  12  19
ATOM     19  C   UNL A   1      32.124  28.344  23.995  1.00  0.00    -0.018 A 
ATOM     20  C   UNL A   1      31.478  29.381  24.705  1.00  0.00     0.008 A 
ATOM     21  C   UNL A   1      33.425  28.007  24.417  1.00  0.00     0.008 A 
ATOM     22  C   UNL A   1      32.093  30.023  25.789  1.00  0.00     0.021 A 
ATOM     23  C   UNL A   1      34.031  28.630  25.516  1.00  0.00     0.021 A 
ATOM     24  C   UNL A   1      33.362  29.636  26.198  1.00  0.00     0.041 A 
ATOM     25  Cl  UNL A   1      34.093  30.413  27.545  1.00  0.00    -0.084 Cl
ENDBRANCH  12  19
ENDBRANCH   5   8
ENDBRANCH   3   4
ENDBRANCH   2   3
ENDBRANCH   1   2
BRANCH   1  26
ATOM     26  C   UNL A   1      37.406  23.223  25.292  1.00  0.00     0.116 C 
BRANCH  26  27
ATOM     27  N   UNL A   1      38.166  22.122  25.875  1.00  0.00    -0.352 N 
ATOM     28  C   UNL A   1      39.388  22.202  26.529  1.00  0.00     0.251 C 
ATOM     29  H   UNL A   1      37.769  21.225  25.796  1.00  0.00     0.163 HD
ATOM     30  O   UNL A   1      40.056  21.207  26.735  1.00  0.00    -0.269 OA
BRANCH  28  31
ATOM     31  C   UNL A   1      39.862  23.538  26.952  1.00  0.00     0.039 A 
ATOM     32  C   UNL A   1      39.133  24.690  26.643  1.00  0.00     0.014 A 
ATOM     33  C   UNL A   1      41.012  23.609  27.733  1.00  0.00     0.014 A 
ATOM     34  C   UNL A   1      39.515  25.906  27.215  1.00  0.00     0.010 A 
ATOM     35  C   UNL A   1      41.313  24.782  28.389  1.00  0.00     0.010 A 
ATOM     36  C   UNL A   1      40.590  25.944  28.113  1.00  0.00    -0.014 A 
BRANCH  36  37
ATOM     37  C   UNL A   1      40.916  27.168  28.848  1.00  0.00     0.031 A 
ATOM     38  C   UNL A   1      41.992  28.032  28.277  1.00  0.00     0.074 A 
ATOM     39  C   UNL A   1      40.125  27.647  29.833  1.00  0.00     0.049 A 
ATOM     40  N   UNL A   1      43.096  28.398  28.842  1.00  0.00    -0.248 NA
ATOM     41  C   UNL A   1      41.857  28.499  26.888  1.00  0.00     0.031 C 
ATOM     42  C   UNL A   1      38.859  27.090  30.321  1.00  0.00     0.029 A 
ATOM     43  N   UNL A   1      40.208  28.834  30.496  1.00  0.00    -0.354 N 
ATOM     44  C   UNL A   1      43.722  29.279  27.962  1.00  0.00     0.074 A 
ATOM     45  C   UNL A   1      42.982  29.200  26.726  1.00  0.00     0.031 C 
ATOM     46  C   UNL A   1      38.171  28.050  30.976  1.00  0.00     0.029 A 
ATOM     47  C   UNL A   1      39.018  29.222  31.102  1.00  0.00     0.049 A 
ATOM     48  H   UNL A   1      41.034  29.367  30.544  1.00  0.00     0.167 HD
ATOM     49  C   UNL A   1      44.691  30.150  28.367  1.00  0.00     0.031 A 
ATOM     50  C   UNL A   1      38.726  30.435  31.629  1.00  0.00     0.031 A 
ATOM     51  C   UNL A   1      45.146  29.862  29.702  1.00  0.00     0.049 A 
ATOM     52  C   UNL A   1      40.013  31.106  31.927  1.00  0.00     0.074 A 
ATOM     53  C   UNL A   1      45.744  28.780  30.316  1.00  0.00     0.029 A 
ATOM     54  N   UNL A   1      44.655  30.652  30.715  1.00  0.00    -0.354 N 
ATOM     55  N   UNL A   1      40.843  30.678  32.837  1.00  0.00    -0.248 NA
ATOM     56  C   UNL A   1      40.589  32.003  30.938  1.00  0.00     0.031 C 
ATOM     57  C   UNL A   1      45.155  28.728  31.614  1.00  0.00     0.029 A 
ATOM     58  C   UNL A   1      44.285  29.813  31.735  1.00  0.00     0.049 A 
ATOM     59  H   UNL A   1      44.584  31.634  30.710  1.00  0.00     0.167 HD
ATOM     60  C   UNL A   1      42.101  30.870  32.287  1.00  0.00     0.074 A 
ATOM     61  C   UNL A   1      41.888  31.807  31.186  1.00  0.00     0.031 C 
ATOM     62  C   UNL A   1      43.138  30.033  32.593  1.00  0.00     0.031 A 
BRANCH  49  63
ATOM     63  C   UNL A   1      44.998  31.476  27.711  1.00  0.00    -0.014 A 
ATOM     64  C   UNL A   1      46.341  31.795  27.411  1.00  0.00     0.010 A 
ATOM     65  C   UNL A   1      44.059  32.522  27.632  1.00  0.00     0.010 A 
ATOM     66  C   UNL A   1      46.732  33.111  27.125  1.00  0.00     0.020 A 
ATOM     67  C   UNL A   1      44.433  33.829  27.305  1.00  0.00     0.020 A 
ATOM     68  C   UNL A   1      45.774  34.123  27.093  1.00  0.00     0.054 A 
BRANCH  68  69
ATOM     69  S   UNL A   1      46.304  35.839  26.858  1.00  0.00     0.124 S 
ATOM     70  O   UNL A   1      45.089  36.576  27.194  1.00  0.00    -0.237 OA
ATOM     71  O   UNL A   1      47.403  35.960  27.812  1.00  0.00    -0.237 OA
ATOM     72  O   UNL A   1      46.698  35.884  25.451  1.00  0.00    -0.744 OA
ENDBRANCH  68  69
ENDBRANCH  49  63
BRANCH  50  73
ATOM     73  C   UNL A   1      37.416  31.128  31.654  1.00  0.00    -0.014 A 
ATOM     74  C   UNL A   1      36.751  31.370  32.870  1.00  0.00     0.010 A 
ATOM     75  C   UNL A   1      36.944  31.798  30.504  1.00  0.00     0.010 A 
ATOM     76  C   UNL A   1      35.713  32.311  32.950  1.00  0.00     0.020 A 
ATOM     77  C   UNL A   1      35.899  32.726  30.572  1.00  0.00     0.020 A 
ATOM     78  C   UNL A   1      35.312  33.004  31.804  1.00  0.00     0.054 A 
BRANCH  78  79
ATOM     79  S   UNL A   1      34.144  34.388  31.957  1.00  0.00     0.124 S 
ATOM     80  O   UNL A   1      33.201  33.889  32.952  1.00  0.00    -0.237 OA
ATOM     81  O   UNL A   1      35.006  35.484  32.393  1.00  0.00    -0.237 OA
ATOM     82  O   UNL A   1      33.609  34.532  30.603  1.00  0.00    -0.744 OA
ENDBRANCH  78  79
ENDBRANCH  50  73
BRANCH  62  83
ATOM     83  C   UNL A   1      42.965  29.069  33.746  1.00  0.00    -0.014 A 
ATOM     84  C   UNL A   1      43.338  29.369  35.072  1.00  0.00     0.010 A 
ATOM     85  C   UNL A   1      42.268  27.872  33.506  1.00  0.00     0.010 A 
ATOM     86  C   UNL A   1      43.062  28.477  36.118  1.00  0.00     0.020 A 
ATOM     87  C   UNL A   1      41.970  26.989  34.548  1.00  0.00     0.020 A 
ATOM     88  C   UNL A   1      42.382  27.288  35.847  1.00  0.00     0.054 A 
BRANCH  88  89
ATOM     89  S   UNL A   1      41.997  26.155  37.211  1.00  0.00     0.124 S 
ATOM     90  O   UNL A   1      42.065  24.847  36.564  1.00  0.00    -0.237 OA
ATOM     91  O   UNL A   1      43.057  26.434  38.177  1.00  0.00    -0.237 OA
ATOM     92  O   UNL A   1      40.659  26.563  37.637  1.00  0.00    -0.744 OA
ENDBRANCH  88  89
ENDBRANCH  62  83
ENDBRANCH  36  37
ENDBRANCH  28  31
ENDBRANCH  26  27
ENDBRANCH   1  26
TORSDOF 15
ENDMDL
MODEL 3
REMARK VINA RESULT:     -12.1      2.450      8.873
REMARK SMILES CC1=C(C(=O)NCCCCNC(=O)c2ccc(-c3c4nc(c(-c5ccc(S(=O)(=O)[O-])cc5)c5ccc([nH]5)c(-c5ccc(S(=O)(=O)[O-])cc5)c5nc(c(-c6ccc(S(=O)(=O)[O-])cc6)c6ccc3[nH]6)C=C5)C=C4)cc2)[C@H](c2ccc(Cl)cc2)n2ncnc2N1
REMARK SMILES IDX 9 1 8 2 7 3 6 4 4 5 5 6 3 8 1 9 2 10 87 11 74 12 86 13 82 15
REMARK SMILES IDX 85 16 83 17 84 18 75 19 76 20 81 21 77 22 80 23 78 24 79 25
REMARK SMILES IDX 10 26 11 27 12 28 13 30 14 31 15 32 73 33 16 34 72 35 17 36
REMARK SMILES IDX 18 37 19 38 66 39 20 40 71 41 65 42 67 43 21 44 70 45 64 46
REMARK SMILES IDX 63 47 22 49 52 50 33 51 51 52 34 53 37 54 50 55 68 56 35 57
REMARK SMILES IDX 36 58 49 60 69 61 38 62 23 63 24 64 32 65 25 66 31 67 26 68
REMARK SMILES IDX 27 69 28 70 29 71 30 72 53 73 54 74 62 75 55 76 61 77 56 78
REMARK SMILES IDX 57 79 58 80 59 81 60 82 39 83 40 84 48 85 41 86 47 87 42 88
REMARK SMILES IDX 43 89 44 90 45 91 46 92
REMARK H PARENT 6 7 87 14 11 29 67 48 37 59
REMARK Flexibility Score: inf
ROOT
ATOM      1  C   UNL A   1      32.688  28.101  26.025  1.00  0.00     0.023 C 
ENDROOT
BRANCH   1   2
ATOM      2  C   UNL A   1      32.048  26.750  26.374  1.00  0.00     0.023 C 
BRANCH   2   3
ATOM      3  C   UNL A   1      31.842  25.749  25.233  1.00  0.00     0.116 C 
BRANCH   3   4
ATOM      4  N   UNL A   1      31.234  24.499  25.636  1.00  0.00    -0.352 N 
ATOM      5  C   UNL A   1      31.738  23.266  25.917  1.00  0.00     0.251 C 
ATOM      6  O   UNL A   1      30.893  22.386  26.076  1.00  0.00    -0.270 OA
ATOM      7  H   UNL A   1      30.255  24.549  25.723  1.00  0.00     0.163 HD
BRANCH   5   8
ATOM      8  C   UNL A   1      33.193  22.904  25.861  1.00  0.00     0.065 C 
ATOM      9  C   UNL A   1      33.803  22.761  28.331  1.00  0.00     0.065 C 
ATOM     10  C   UNL A   1      34.111  22.862  26.864  1.00  0.00     0.026 C 
ATOM     11  N   UNL A   1      35.475  22.861  26.557  1.00  0.00    -0.328 N 
ATOM     12  C   UNL A   1      33.671  22.474  24.442  1.00  0.00     0.179 C 
ATOM     13  C   UNL A   1      35.942  23.027  25.305  1.00  0.00     0.226 A 
ATOM     14  H   UNL A   1      36.121  22.733  27.288  1.00  0.00     0.169 HD
ATOM     15  N   UNL A   1      35.059  22.925  24.261  1.00  0.00    -0.219 N 
ATOM     16  N   UNL A   1      37.145  23.247  24.841  1.00  0.00    -0.200 NA
ATOM     17  N   UNL A   1      35.678  23.121  23.075  1.00  0.00    -0.157 NA
ATOM     18  C   UNL A   1      36.941  23.296  23.485  1.00  0.00     0.248 A 
BRANCH  12  19
ATOM     19  C   UNL A   1      33.565  20.931  24.244  1.00  0.00    -0.018 A 
ATOM     20  C   UNL A   1      34.528  20.023  24.737  1.00  0.00     0.008 A 
ATOM     21  C   UNL A   1      32.447  20.373  23.593  1.00  0.00     0.008 A 
ATOM     22  C   UNL A   1      34.367  18.637  24.606  1.00  0.00     0.021 A 
ATOM     23  C   UNL A   1      32.272  18.987  23.483  1.00  0.00     0.021 A 
ATOM     24  C   UNL A   1      33.233  18.124  23.991  1.00  0.00     0.041 A 
ATOM     25  Cl  UNL A   1      33.034  16.423  23.860  1.00  0.00    -0.084 Cl
ENDBRANCH  12  19
ENDBRANCH   5   8
ENDBRANCH   3   4
ENDBRANCH   2   3
ENDBRANCH   1   2
BRANCH   1  26
ATOM     26  C   UNL A   1      33.563  28.717  27.108  1.00  0.00     0.116 C 
BRANCH  26  27
ATOM     27  N   UNL A   1      33.235  30.104  27.420  1.00  0.00    -0.352 N 
ATOM     28  C   UNL A   1      34.071  31.053  27.992  1.00  0.00     0.251 C 
ATOM     29  H   UNL A   1      32.322  30.399  27.202  1.00  0.00     0.163 HD
ATOM     30  O   UNL A   1      33.625  32.086  28.454  1.00  0.00    -0.269 OA
BRANCH  28  31
ATOM     31  C   UNL A   1      35.520  30.762  28.040  1.00  0.00     0.039 A 
ATOM     32  C   UNL A   1      36.446  31.766  28.334  1.00  0.00     0.014 A 
ATOM     33  C   UNL A   1      35.930  29.444  27.861  1.00  0.00     0.014 A 
ATOM     34  C   UNL A   1      37.781  31.415  28.549  1.00  0.00     0.010 A 
ATOM     35  C   UNL A   1      37.218  29.085  28.190  1.00  0.00     0.010 A 
ATOM     36  C   UNL A   1      38.159  30.066  28.505  1.00  0.00    -0.014 A 
BRANCH  36  37
ATOM     37  C   UNL A   1      39.513  29.650  28.880  1.00  0.00     0.031 A 
ATOM     38  C   UNL A   1      39.792  29.496  30.339  1.00  0.00     0.074 A 
ATOM     39  C   UNL A   1      40.393  29.169  27.975  1.00  0.00     0.049 A 
ATOM     40  N   UNL A   1      40.688  30.106  31.043  1.00  0.00    -0.248 NA
ATOM     41  C   UNL A   1      38.933  28.599  31.128  1.00  0.00     0.031 C 
ATOM     42  C   UNL A   1      40.184  28.959  26.539  1.00  0.00     0.029 A 
ATOM     43  N   UNL A   1      41.616  28.605  28.187  1.00  0.00    -0.354 N 
ATOM     44  C   UNL A   1      40.635  29.557  32.323  1.00  0.00     0.074 A 
ATOM     45  C   UNL A   1      39.451  28.732  32.352  1.00  0.00     0.031 C 
ATOM     46  C   UNL A   1      41.101  28.083  26.076  1.00  0.00     0.029 A 
ATOM     47  C   UNL A   1      42.056  27.812  27.134  1.00  0.00     0.049 A 
ATOM     48  H   UNL A   1      42.139  28.747  29.009  1.00  0.00     0.167 HD
ATOM     49  C   UNL A   1      41.665  29.671  33.209  1.00  0.00     0.031 A 
ATOM     50  C   UNL A   1      43.104  26.954  27.138  1.00  0.00     0.031 A 
ATOM     51  C   UNL A   1      42.654  30.617  32.764  1.00  0.00     0.049 A 
ATOM     52  C   UNL A   1      44.005  27.367  28.241  1.00  0.00     0.074 A 
ATOM     53  C   UNL A   1      42.650  31.965  32.467  1.00  0.00     0.029 A 
ATOM     54  N   UNL A   1      43.800  30.107  32.199  1.00  0.00    -0.354 N 
ATOM     55  N   UNL A   1      44.660  28.494  28.237  1.00  0.00    -0.248 NA
ATOM     56  C   UNL A   1      43.864  26.738  29.544  1.00  0.00     0.031 C 
ATOM     57  C   UNL A   1      43.517  32.093  31.342  1.00  0.00     0.029 A 
ATOM     58  C   UNL A   1      44.045  30.832  31.060  1.00  0.00     0.049 A 
ATOM     59  H   UNL A   1      44.344  29.363  32.547  1.00  0.00     0.167 HD
ATOM     60  C   UNL A   1      44.609  28.936  29.551  1.00  0.00     0.074 A 
ATOM     61  C   UNL A   1      44.231  27.758  30.327  1.00  0.00     0.031 C 
ATOM     62  C   UNL A   1      44.598  30.272  29.845  1.00  0.00     0.031 A 
BRANCH  49  63
ATOM     63  C   UNL A   1      41.974  28.688  34.315  1.00  0.00    -0.014 A 
ATOM     64  C   UNL A   1      42.231  29.179  35.614  1.00  0.00     0.010 A 
ATOM     65  C   UNL A   1      42.289  27.338  34.068  1.00  0.00     0.010 A 
ATOM     66  C   UNL A   1      42.846  28.380  36.588  1.00  0.00     0.020 A 
ATOM     67  C   UNL A   1      42.862  26.520  35.046  1.00  0.00     0.020 A 
ATOM     68  C   UNL A   1      43.174  27.058  36.288  1.00  0.00     0.054 A 
BRANCH  68  69
ATOM     69  S   UNL A   1      44.088  26.074  37.503  1.00  0.00     0.124 S 
ATOM     70  O   UNL A   1      45.454  26.551  37.308  1.00  0.00    -0.237 OA
ATOM     71  O   UNL A   1      43.455  26.464  38.760  1.00  0.00    -0.237 OA
ATOM     72  O   UNL A   1      43.837  24.697  37.085  1.00  0.00    -0.744 OA
ENDBRANCH  68  69
ENDBRANCH  49  63
BRANCH  50  73
ATOM     73  C   UNL A   1      43.235  25.669  26.412  1.00  0.00    -0.014 A 
ATOM     74  C   UNL A   1      44.126  25.539  25.331  1.00  0.00     0.010 A 
ATOM     75  C   UNL A   1      42.686  24.486  26.953  1.00  0.00     0.010 A 
ATOM     76  C   UNL A   1      44.520  24.274  24.867  1.00  0.00     0.020 A 
ATOM     77  C   UNL A   1      43.061  23.222  26.487  1.00  0.00     0.020 A 
ATOM     78  C   UNL A   1      44.004  23.122  25.468  1.00  0.00     0.054 A 
BRANCH  78  79
ATOM     79  S   UNL A   1      44.697  21.499  25.032  1.00  0.00     0.124 S 
ATOM     80  O   UNL A   1      44.737  21.560  23.575  1.00  0.00    -0.237 OA
ATOM     81  O   UNL A   1      45.994  21.517  25.704  1.00  0.00    -0.237 OA
ATOM     82  O   UNL A   1      43.730  20.556  25.593  1.00  0.00    -0.744 OA
ENDBRANCH  78  79
ENDBRANCH  50  73
BRANCH  62  83
ATOM     83  C   UNL A   1      44.918  31.252  28.737  1.00  0.00    -0.014 A 
ATOM     84  C   UNL A   1      43.944  31.797  27.876  1.00  0.00     0.010 A 
ATOM     85  C   UNL A   1      46.231  31.751  28.656  1.00  0.00     0.010 A 
ATOM     86  C   UNL A   1      44.282  32.777  26.933  1.00  0.00     0.020 A 
ATOM     87  C   UNL A   1      46.570  32.744  27.733  1.00  0.00     0.020 A 
ATOM     88  C   UNL A   1      45.598  33.242  26.865  1.00  0.00     0.054 A 
BRANCH  88  89
ATOM     89  S   UNL A   1      46.022  34.535  25.666  1.00  0.00     0.124 S 
ATOM     90  O   UNL A   1      45.161  34.210  24.531  1.00  0.00    -0.237 OA
ATOM     91  O   UNL A   1      45.685  35.765  26.378  1.00  0.00    -0.237 OA
ATOM     92  O   UNL A   1      47.452  34.338  25.432  1.00  0.00    -0.744 OA
ENDBRANCH  88  89
ENDBRANCH  62  83
ENDBRANCH  36  37
ENDBRANCH  28  31
ENDBRANCH  26  27
ENDBRANCH   1  26
TORSDOF 15
ENDMDL
