MODEL 1
REMARK VINA RESULT:     -10.2      0.000      0.000
REMARK SMILES COC(=O)CCN(C)C(=O)NCc1ccc(C(=O)NCCCCNC(=O)c2ccc(-c3c4nc(c(-c5ccc(S(=O)(=O)[O-])cc5)c5ccc([nH]5)c(-c5ccc(S(=O)(=O)[O-])cc5)c5nc(c(-c6ccc(S(=O)(=O)[O-])cc6)c6ccc3[nH]6)C=C5)C=C4)cc2)o1
REMARK SMILES IDX 17 1 18 2 19 3 16 5 13 6 14 7 87 8 15 9 12 10 11 11 9 12
REMARK SMILES IDX 10 13 7 15 8 16 6 17 5 18 3 19 4 20 2 21 1 22 20 23 21 24
REMARK SMILES IDX 22 25 23 26 24 27 25 28 26 30 27 31 28 32 86 33 29 34 85 35
REMARK SMILES IDX 30 36 31 37 32 38 79 39 33 40 84 41 78 42 80 43 34 44 83 45
REMARK SMILES IDX 77 46 76 47 35 49 65 50 46 51 64 52 47 53 50 54 63 55 81 56
REMARK SMILES IDX 48 57 49 58 62 60 82 61 51 62 36 63 37 64 45 65 38 66 44 67
REMARK SMILES IDX 39 68 40 69 41 70 42 71 43 72 66 73 67 74 75 75 68 76 74 77
REMARK SMILES IDX 69 78 70 79 71 80 72 81 73 82 52 83 53 84 61 85 54 86 60 87
REMARK SMILES IDX 55 88 56 89 57 90 58 91 59 92
REMARK H PARENT 19 4 11 14 24 29 80 48 50 59
REMARK Flexibility Score: inf
ROOT
ATOM      1  C   UNL A   1      36.106  20.847  25.208  1.00  0.00     0.286 C 
ATOM      2  O   UNL A   1      36.569  19.727  24.997  1.00  0.00    -0.266 OA
ATOM      3  N   UNL A   1      37.024  21.832  25.492  1.00  0.00    -0.349 N 
ATOM      4  H   UNL A   1      37.958  21.524  25.527  1.00  0.00     0.163 HD
ENDROOT
BRANCH   1   5
ATOM      5  C   UNL A   1      34.684  21.137  25.148  1.00  0.00     0.191 A 
ATOM      6  C   UNL A   1      32.855  21.715  24.046  1.00  0.00     0.124 A 
ATOM      7  C   UNL A   1      32.484  21.564  25.363  1.00  0.00     0.048 A 
ATOM      8  O   UNL A   1      34.185  21.481  23.910  1.00  0.00    -0.454 OA
ATOM      9  C   UNL A   1      33.635  21.134  26.050  1.00  0.00     0.056 A 
BRANCH   6  10
ATOM     10  C   UNL A   1      32.096  22.003  22.804  1.00  0.00     0.193 C 
BRANCH  10  11
ATOM     11  N   UNL A   1      32.900  22.922  22.030  1.00  0.00    -0.331 N 
ATOM     12  C   UNL A   1      32.900  24.257  21.891  1.00  0.00     0.317 C 
ATOM     13  O   UNL A   1      33.242  24.670  20.778  1.00  0.00    -0.249 OA
ATOM     14  H   UNL A   1      33.593  22.475  21.493  1.00  0.00     0.165 HD
BRANCH  12  15
ATOM     15  N   UNL A   1      32.647  25.111  22.926  1.00  0.00    -0.327 N 
ATOM     16  C   UNL A   1      33.605  25.600  23.901  1.00  0.00     0.148 C 
BRANCH  15  17
ATOM     17  C   UNL A   1      31.308  25.719  22.950  1.00  0.00     0.132 C 
BRANCH  17  18
ATOM     18  C   UNL A   1      31.258  27.062  22.217  1.00  0.00     0.144 C 
BRANCH  18  19
ATOM     19  C   UNL A   1      30.269  28.005  22.859  1.00  0.00     0.307 C 
ATOM     20  O   UNL A   1      29.347  28.539  22.254  1.00  0.00    -0.252 OA
BRANCH  19  21
ATOM     21  O   UNL A   1      30.564  28.187  24.176  1.00  0.00    -0.469 OA
ATOM     22  C   UNL A   1      31.100  29.473  24.501  1.00  0.00     0.282 C 
ENDBRANCH  19  21
ENDBRANCH  18  19
ENDBRANCH  17  18
ENDBRANCH  15  17
ENDBRANCH  12  15
ENDBRANCH  10  11
ENDBRANCH   6  10
ENDBRANCH   1   5
BRANCH   3  23
ATOM     23  C   UNL A   1      36.849  23.244  25.751  1.00  0.00     0.116 C 
BRANCH  23  24
ATOM     24  C   UNL A   1      38.144  23.873  26.264  1.00  0.00     0.023 C 
BRANCH  24  25
ATOM     25  C   UNL A   1      39.260  22.852  26.500  1.00  0.00     0.023 C 
BRANCH  25  26
ATOM     26  C   UNL A   1      40.586  23.454  26.959  1.00  0.00     0.116 C 
BRANCH  26  27
ATOM     27  N   UNL A   1      41.287  24.172  25.905  1.00  0.00    -0.352 N 
ATOM     28  C   UNL A   1      41.773  25.457  25.934  1.00  0.00     0.251 C 
ATOM     29  H   UNL A   1      41.430  23.677  25.066  1.00  0.00     0.163 HD
ATOM     30  O   UNL A   1      42.236  25.973  24.923  1.00  0.00    -0.269 OA
BRANCH  28  31
ATOM     31  C   UNL A   1      41.688  26.215  27.198  1.00  0.00     0.039 A 
ATOM     32  C   UNL A   1      42.565  27.279  27.409  1.00  0.00     0.014 A 
ATOM     33  C   UNL A   1      40.691  25.916  28.131  1.00  0.00     0.014 A 
ATOM     34  C   UNL A   1      42.397  28.090  28.531  1.00  0.00     0.010 A 
ATOM     35  C   UNL A   1      40.476  26.773  29.204  1.00  0.00     0.010 A 
ATOM     36  C   UNL A   1      41.327  27.869  29.415  1.00  0.00    -0.014 A 
BRANCH  36  37
ATOM     37  C   UNL A   1      41.079  28.778  30.563  1.00  0.00     0.031 A 
ATOM     38  C   UNL A   1      41.893  28.640  31.822  1.00  0.00     0.074 A 
ATOM     39  C   UNL A   1      40.085  29.685  30.492  1.00  0.00     0.049 A 
ATOM     40  N   UNL A   1      41.795  29.309  32.941  1.00  0.00    -0.248 NA
ATOM     41  C   UNL A   1      42.935  27.600  31.834  1.00  0.00     0.031 C 
ATOM     42  C   UNL A   1      39.198  29.886  29.343  1.00  0.00     0.029 A 
ATOM     43  N   UNL A   1      39.650  30.610  31.410  1.00  0.00    -0.354 N 
ATOM     44  C   UNL A   1      42.750  28.765  33.791  1.00  0.00     0.074 A 
ATOM     45  C   UNL A   1      43.378  27.674  33.080  1.00  0.00     0.031 C 
ATOM     46  C   UNL A   1      38.348  30.890  29.612  1.00  0.00     0.029 A 
ATOM     47  C   UNL A   1      38.597  31.376  30.965  1.00  0.00     0.049 A 
ATOM     48  H   UNL A   1      40.053  30.715  32.301  1.00  0.00     0.167 HD
ATOM     49  C   UNL A   1      43.092  29.154  35.042  1.00  0.00     0.031 A 
ATOM     50  C   UNL A   1      37.904  32.354  31.580  1.00  0.00     0.031 A 
ATOM     51  C   UNL A   1      42.470  30.246  35.742  1.00  0.00     0.049 A 
ATOM     52  C   UNL A   1      38.287  32.752  32.981  1.00  0.00     0.074 A 
ATOM     53  C   UNL A   1      42.781  30.753  36.992  1.00  0.00     0.029 A 
ATOM     54  N   UNL A   1      41.409  30.996  35.259  1.00  0.00    -0.354 N 
ATOM     55  N   UNL A   1      39.246  32.275  33.739  1.00  0.00    -0.248 NA
ATOM     56  C   UNL A   1      37.503  33.827  33.604  1.00  0.00     0.031 C 
ATOM     57  C   UNL A   1      41.868  31.769  37.289  1.00  0.00     0.029 A 
ATOM     58  C   UNL A   1      41.032  31.941  36.198  1.00  0.00     0.049 A 
ATOM     59  H   UNL A   1      40.985  30.874  34.378  1.00  0.00     0.167 HD
ATOM     60  C   UNL A   1      39.195  33.010  34.919  1.00  0.00     0.074 A 
ATOM     61  C   UNL A   1      38.127  33.975  34.765  1.00  0.00     0.031 C 
ATOM     62  C   UNL A   1      39.966  32.896  36.029  1.00  0.00     0.031 A 
BRANCH  49  63
ATOM     63  C   UNL A   1      44.188  28.389  35.737  1.00  0.00    -0.014 A 
ATOM     64  C   UNL A   1      45.541  28.737  35.562  1.00  0.00     0.010 A 
ATOM     65  C   UNL A   1      43.861  27.340  36.615  1.00  0.00     0.010 A 
ATOM     66  C   UNL A   1      46.546  28.026  36.221  1.00  0.00     0.020 A 
ATOM     67  C   UNL A   1      44.862  26.647  37.301  1.00  0.00     0.020 A 
ATOM     68  C   UNL A   1      46.200  26.985  37.088  1.00  0.00     0.054 A 
BRANCH  68  69
ATOM     69  S   UNL A   1      47.526  26.102  37.955  1.00  0.00     0.124 S 
ATOM     70  O   UNL A   1      48.657  26.294  37.051  1.00  0.00    -0.237 OA
ATOM     71  O   UNL A   1      47.608  26.819  39.225  1.00  0.00    -0.237 OA
ATOM     72  O   UNL A   1      47.029  24.731  38.047  1.00  0.00    -0.744 OA
ENDBRANCH  68  69
ENDBRANCH  49  63
BRANCH  50  73
ATOM     73  C   UNL A   1      36.778  33.031  30.876  1.00  0.00    -0.014 A 
ATOM     74  C   UNL A   1      37.029  33.950  29.841  1.00  0.00     0.010 A 
ATOM     75  C   UNL A   1      35.446  32.759  31.239  1.00  0.00     0.010 A 
ATOM     76  C   UNL A   1      35.971  34.603  29.201  1.00  0.00     0.020 A 
ATOM     77  C   UNL A   1      34.384  33.386  30.579  1.00  0.00     0.020 A 
ATOM     78  C   UNL A   1      34.656  34.315  29.573  1.00  0.00     0.054 A 
BRANCH  78  79
ATOM     79  S   UNL A   1      33.297  35.145  28.701  1.00  0.00     0.124 S 
ATOM     80  O   UNL A   1      34.010  36.148  27.915  1.00  0.00    -0.237 OA
ATOM     81  O   UNL A   1      32.699  34.051  27.941  1.00  0.00    -0.237 OA
ATOM     82  O   UNL A   1      32.467  35.670  29.783  1.00  0.00    -0.744 OA
ENDBRANCH  78  79
ENDBRANCH  50  73
BRANCH  62  83
ATOM     83  C   UNL A   1      39.704  33.859  37.158  1.00  0.00    -0.014 A 
ATOM     84  C   UNL A   1      38.990  33.466  38.304  1.00  0.00     0.010 A 
ATOM     85  C   UNL A   1      40.240  35.159  37.097  1.00  0.00     0.010 A 
ATOM     86  C   UNL A   1      38.791  34.365  39.354  1.00  0.00     0.020 A 
ATOM     87  C   UNL A   1      40.071  36.050  38.159  1.00  0.00     0.020 A 
ATOM     88  C   UNL A   1      39.335  35.651  39.276  1.00  0.00     0.054 A 
BRANCH  88  89
ATOM     89  S   UNL A   1      39.107  36.780  40.677  1.00  0.00     0.124 S 
ATOM     90  O   UNL A   1      40.450  36.832  41.247  1.00  0.00    -0.237 OA
ATOM     91  O   UNL A   1      38.652  38.007  40.027  1.00  0.00    -0.237 OA
ATOM     92  O   UNL A   1      38.105  36.112  41.503  1.00  0.00    -0.744 OA
ENDBRANCH  88  89
ENDBRANCH  62  83
ENDBRANCH  36  37
ENDBRANCH  28  31
ENDBRANCH  26  27
ENDBRANCH  25  26
ENDBRANCH  24  25
ENDBRANCH  23  24
ENDBRANCH   3  23
TORSDOF 21
ENDMDL
MODEL 2
REMARK VINA RESULT:      -9.9      5.830      8.126
REMARK SMILES COC(=O)CCN(C)C(=O)NCc1ccc(C(=O)NCCCCNC(=O)c2ccc(-c3c4nc(c(-c5ccc(S(=O)(=O)[O-])cc5)c5ccc([nH]5)c(-c5ccc(S(=O)(=O)[O-])cc5)c5nc(c(-c6ccc(S(=O)(=O)[O-])cc6)c6ccc3[nH]6)C=C5)C=C4)cc2)o1
REMARK SMILES IDX 17 1 18 2 19 3 16 5 13 6 14 7 87 8 15 9 12 10 11 11 9 12
REMARK SMILES IDX 10 13 7 15 8 16 6 17 5 18 3 19 4 20 2 21 1 22 20 23 21 24
REMARK SMILES IDX 22 25 23 26 24 27 25 28 26 30 27 31 28 32 86 33 29 34 85 35
REMARK SMILES IDX 30 36 31 37 32 38 79 39 33 40 84 41 78 42 80 43 34 44 83 45
REMARK SMILES IDX 77 46 76 47 35 49 65 50 46 51 64 52 47 53 50 54 63 55 81 56
REMARK SMILES IDX 48 57 49 58 62 60 82 61 51 62 36 63 37 64 45 65 38 66 44 67
REMARK SMILES IDX 39 68 40 69 41 70 42 71 43 72 66 73 67 74 75 75 68 76 74 77
REMARK SMILES IDX 69 78 70 79 71 80 72 81 73 82 52 83 53 84 61 85 54 86 60 87
REMARK SMILES IDX 55 88 56 89 57 90 58 91 59 92
REMARK H PARENT 19 4 11 14 24 29 80 48 50 59
REMARK Flexibility Score: inf
ROOT
ATOM      1  C   UNL A   1      35.216  20.935  25.263  1.00  0.00     0.286 C 
ATOM      2  O   UNL A   1      34.847  19.943  24.635  1.00  0.00    -0.266 OA
ATOM      3  N   UNL A   1      36.492  21.374  24.997  1.00  0.00    -0.349 N 
ATOM      4  H   UNL A   1      36.988  20.823  24.350  1.00  0.00     0.163 HD
ENDROOT
BRANCH   1   5
ATOM      5  C   UNL A   1      34.364  21.625  26.216  1.00  0.00     0.191 A 
ATOM      6  C   UNL A   1      32.777  23.081  26.718  1.00  0.00     0.124 A 
ATOM      7  C   UNL A   1      33.214  22.555  27.913  1.00  0.00     0.048 A 
ATOM      8  O   UNL A   1      33.480  22.542  25.690  1.00  0.00    -0.454 OA
ATOM      9  C   UNL A   1      34.178  21.583  27.586  1.00  0.00     0.056 A 
BRANCH   6  10
ATOM     10  C   UNL A   1      31.690  24.026  26.362  1.00  0.00     0.193 C 
BRANCH  10  11
ATOM     11  N   UNL A   1      31.403  23.818  24.960  1.00  0.00    -0.331 N 
ATOM     12  C   UNL A   1      30.992  24.629  23.972  1.00  0.00     0.317 C 
ATOM     13  O   UNL A   1      30.279  24.095  23.116  1.00  0.00    -0.249 OA
ATOM     14  H   UNL A   1      31.536  22.887  24.670  1.00  0.00     0.165 HD
BRANCH  12  15
ATOM     15  N   UNL A   1      31.411  25.923  23.851  1.00  0.00    -0.327 N 
ATOM     16  C   UNL A   1      32.538  26.400  23.069  1.00  0.00     0.148 C 
BRANCH  15  17
ATOM     17  C   UNL A   1      30.532  26.945  24.439  1.00  0.00     0.132 C 
BRANCH  17  18
ATOM     18  C   UNL A   1      29.486  27.462  23.449  1.00  0.00     0.144 C 
BRANCH  18  19
ATOM     19  C   UNL A   1      29.741  28.902  23.078  1.00  0.00     0.307 C 
ATOM     20  O   UNL A   1      30.304  29.705  23.812  1.00  0.00    -0.252 OA
BRANCH  19  21
ATOM     21  O   UNL A   1      29.241  29.176  21.841  1.00  0.00    -0.469 OA
ATOM     22  C   UNL A   1      29.000  30.562  21.580  1.00  0.00     0.282 C 
ENDBRANCH  19  21
ENDBRANCH  18  19
ENDBRANCH  17  18
ENDBRANCH  15  17
ENDBRANCH  12  15
ENDBRANCH  10  11
ENDBRANCH   6  10
ENDBRANCH   1   5
BRANCH   3  23
ATOM     23  C   UNL A   1      37.230  22.508  25.509  1.00  0.00     0.116 C 
BRANCH  23  24
ATOM     24  C   UNL A   1      38.694  22.147  25.750  1.00  0.00     0.023 C 
BRANCH  24  25
ATOM     25  C   UNL A   1      39.025  20.694  25.399  1.00  0.00     0.023 C 
BRANCH  25  26
ATOM     26  C   UNL A   1      39.675  19.898  26.528  1.00  0.00     0.116 C 
BRANCH  26  27
ATOM     27  N   UNL A   1      40.861  19.167  26.107  1.00  0.00    -0.352 N 
ATOM     28  C   UNL A   1      42.133  19.653  25.921  1.00  0.00     0.251 C 
ATOM     29  H   UNL A   1      40.737  18.206  25.933  1.00  0.00     0.163 HD
ATOM     30  O   UNL A   1      43.009  18.941  25.443  1.00  0.00    -0.269 OA
BRANCH  28  31
ATOM     31  C   UNL A   1      42.409  21.060  26.270  1.00  0.00     0.039 A 
ATOM     32  C   UNL A   1      42.658  21.391  27.602  1.00  0.00     0.014 A 
ATOM     33  C   UNL A   1      42.496  22.029  25.266  1.00  0.00     0.014 A 
ATOM     34  C   UNL A   1      43.062  22.687  27.920  1.00  0.00     0.010 A 
ATOM     35  C   UNL A   1      42.977  23.296  25.575  1.00  0.00     0.010 A 
ATOM     36  C   UNL A   1      43.265  23.638  26.905  1.00  0.00    -0.014 A 
BRANCH  36  37
ATOM     37  C   UNL A   1      43.784  24.994  27.216  1.00  0.00     0.031 A 
ATOM     38  C   UNL A   1      45.242  25.308  27.012  1.00  0.00     0.074 A 
ATOM     39  C   UNL A   1      42.956  25.922  27.737  1.00  0.00     0.049 A 
ATOM     40  N   UNL A   1      45.888  26.416  27.265  1.00  0.00    -0.248 NA
ATOM     41  C   UNL A   1      46.089  24.229  26.475  1.00  0.00     0.031 C 
ATOM     42  C   UNL A   1      41.532  25.725  28.023  1.00  0.00     0.029 A 
ATOM     43  N   UNL A   1      43.193  27.219  28.122  1.00  0.00    -0.354 N 
ATOM     44  C   UNL A   1      47.213  26.165  26.932  1.00  0.00     0.074 A 
ATOM     45  C   UNL A   1      47.291  24.783  26.513  1.00  0.00     0.031 C 
ATOM     46  C   UNL A   1      41.017  26.867  28.506  1.00  0.00     0.029 A 
ATOM     47  C   UNL A   1      42.079  27.864  28.608  1.00  0.00     0.049 A 
ATOM     48  H   UNL A   1      44.077  27.646  28.056  1.00  0.00     0.167 HD
ATOM     49  C   UNL A   1      48.267  27.014  26.950  1.00  0.00     0.031 A 
ATOM     50  C   UNL A   1      41.930  29.113  29.089  1.00  0.00     0.031 A 
ATOM     51  C   UNL A   1      48.184  28.390  27.361  1.00  0.00     0.049 A 
ATOM     52  C   UNL A   1      43.123  30.031  29.121  1.00  0.00     0.074 A 
ATOM     53  C   UNL A   1      49.183  29.348  27.363  1.00  0.00     0.029 A 
ATOM     54  N   UNL A   1      47.039  29.005  27.846  1.00  0.00    -0.354 N 
ATOM     55  N   UNL A   1      44.353  29.797  28.729  1.00  0.00    -0.248 NA
ATOM     56  C   UNL A   1      42.905  31.384  29.651  1.00  0.00     0.031 C 
ATOM     57  C   UNL A   1      48.658  30.524  27.908  1.00  0.00     0.029 A 
ATOM     58  C   UNL A   1      47.315  30.320  28.181  1.00  0.00     0.049 A 
ATOM     59  H   UNL A   1      46.160  28.570  27.939  1.00  0.00     0.167 HD
ATOM     60  C   UNL A   1      45.049  30.983  28.941  1.00  0.00     0.074 A 
ATOM     61  C   UNL A   1      44.099  31.936  29.475  1.00  0.00     0.031 C 
ATOM     62  C   UNL A   1      46.357  31.257  28.712  1.00  0.00     0.031 A 
BRANCH  49  63
ATOM     63  C   UNL A   1      49.606  26.477  26.516  1.00  0.00    -0.014 A 
ATOM     64  C   UNL A   1      50.041  26.599  25.182  1.00  0.00     0.010 A 
ATOM     65  C   UNL A   1      50.462  25.885  27.462  1.00  0.00     0.010 A 
ATOM     66  C   UNL A   1      51.289  26.105  24.797  1.00  0.00     0.020 A 
ATOM     67  C   UNL A   1      51.725  25.419  27.086  1.00  0.00     0.020 A 
ATOM     68  C   UNL A   1      52.124  25.519  25.753  1.00  0.00     0.054 A 
BRANCH  68  69
ATOM     69  S   UNL A   1      53.753  24.917  25.227  1.00  0.00     0.124 S 
ATOM     70  O   UNL A   1      53.955  25.646  23.977  1.00  0.00    -0.237 OA
ATOM     71  O   UNL A   1      54.614  25.322  26.335  1.00  0.00    -0.237 OA
ATOM     72  O   UNL A   1      53.562  23.476  25.083  1.00  0.00    -0.744 OA
ENDBRANCH  68  69
ENDBRANCH  49  63
BRANCH  50  73
ATOM     73  C   UNL A   1      40.599  29.574  29.576  1.00  0.00    -0.014 A 
ATOM     74  C   UNL A   1      40.268  29.494  30.941  1.00  0.00     0.010 A 
ATOM     75  C   UNL A   1      39.654  30.096  28.674  1.00  0.00     0.010 A 
ATOM     76  C   UNL A   1      39.009  29.904  31.390  1.00  0.00     0.020 A 
ATOM     77  C   UNL A   1      38.405  30.536  29.124  1.00  0.00     0.020 A 
ATOM     78  C   UNL A   1      38.086  30.423  30.479  1.00  0.00     0.054 A 
BRANCH  78  79
ATOM     79  S   UNL A   1      36.472  30.984  31.090  1.00  0.00     0.124 S 
ATOM     80  O   UNL A   1      35.621  30.793  29.920  1.00  0.00    -0.237 OA
ATOM     81  O   UNL A   1      36.227  30.074  32.207  1.00  0.00    -0.237 OA
ATOM     82  O   UNL A   1      36.714  32.374  31.470  1.00  0.00    -0.744 OA
ENDBRANCH  78  79
ENDBRANCH  50  73
BRANCH  62  83
ATOM     83  C   UNL A   1      46.836  32.653  29.009  1.00  0.00    -0.014 A 
ATOM     84  C   UNL A   1      47.325  33.005  30.280  1.00  0.00     0.010 A 
ATOM     85  C   UNL A   1      46.858  33.612  27.978  1.00  0.00     0.010 A 
ATOM     86  C   UNL A   1      47.799  34.296  30.523  1.00  0.00     0.020 A 
ATOM     87  C   UNL A   1      47.361  34.895  28.208  1.00  0.00     0.020 A 
ATOM     88  C   UNL A   1      47.816  35.233  29.484  1.00  0.00     0.054 A 
BRANCH  88  89
ATOM     89  S   UNL A   1      48.484  36.886  29.812  1.00  0.00     0.124 S 
ATOM     90  O   UNL A   1      47.674  37.322  30.947  1.00  0.00    -0.237 OA
ATOM     91  O   UNL A   1      49.888  36.610  30.111  1.00  0.00    -0.237 OA
ATOM     92  O   UNL A   1      48.250  37.611  28.566  1.00  0.00    -0.744 OA
ENDBRANCH  88  89
ENDBRANCH  62  83
ENDBRANCH  36  37
ENDBRANCH  28  31
ENDBRANCH  26  27
ENDBRANCH  25  26
ENDBRANCH  24  25
ENDBRANCH  23  24
ENDBRANCH   3  23
TORSDOF 21
ENDMDL
MODEL 3
REMARK VINA RESULT:      -9.3      6.411      8.878
REMARK SMILES COC(=O)CCN(C)C(=O)NCc1ccc(C(=O)NCCCCNC(=O)c2ccc(-c3c4nc(c(-c5ccc(S(=O)(=O)[O-])cc5)c5ccc([nH]5)c(-c5ccc(S(=O)(=O)[O-])cc5)c5nc(c(-c6ccc(S(=O)(=O)[O-])cc6)c6ccc3[nH]6)C=C5)C=C4)cc2)o1
REMARK SMILES IDX 17 1 18 2 19 3 16 5 13 6 14 7 87 8 15 9 12 10 11 11 9 12
REMARK SMILES IDX 10 13 7 15 8 16 6 17 5 18 3 19 4 20 2 21 1 22 20 23 21 24
REMARK SMILES IDX 22 25 23 26 24 27 25 28 26 30 27 31 28 32 86 33 29 34 85 35
REMARK SMILES IDX 30 36 31 37 32 38 79 39 33 40 84 41 78 42 80 43 34 44 83 45
REMARK SMILES IDX 77 46 76 47 35 49 65 50 46 51 64 52 47 53 50 54 63 55 81 56
REMARK SMILES IDX 48 57 49 58 62 60 82 61 51 62 36 63 37 64 45 65 38 66 44 67
REMARK SMILES IDX 39 68 40 69 41 70 42 71 43 72 66 73 67 74 75 75 68 76 74 77
REMARK SMILES IDX 69 78 70 79 71 80 72 81 73 82 52 83 53 84 61 85 54 86 60 87
REMARK SMILES IDX 55 88 56 89 57 90 58 91 59 92
REMARK H PARENT 19 4 11 14 24 29 80 48 50 59
REMARK Flexibility Score: inf
ROOT
ATOM      1  C   UNL A   1      38.494  23.334  26.242  1.00  0.00     0.286 C 
ATOM      2  O   UNL A   1      38.873  24.281  26.931  1.00  0.00    -0.266 OA
ATOM      3  N   UNL A   1      39.220  22.172  26.367  1.00  0.00    -0.349 N 
ATOM      4  H   UNL A   1      39.991  22.234  26.975  1.00  0.00     0.163 HD
ENDROOT
BRANCH   1   5
ATOM      5  C   UNL A   1      37.342  23.412  25.362  1.00  0.00     0.191 A 
ATOM      6  C   UNL A   1      35.369  24.238  24.797  1.00  0.00     0.124 A 
ATOM      7  C   UNL A   1      35.680  23.291  23.847  1.00  0.00     0.048 A 
ATOM      8  O   UNL A   1      36.356  24.303  25.727  1.00  0.00    -0.454 OA
ATOM      9  C   UNL A   1      36.964  22.813  24.173  1.00  0.00     0.056 A 
BRANCH   6  10
ATOM     10  C   UNL A   1      34.247  25.198  24.944  1.00  0.00     0.193 C 
BRANCH  10  11
ATOM     11  N   UNL A   1      33.701  25.404  23.621  1.00  0.00    -0.331 N 
ATOM     12  C   UNL A   1      33.071  24.604  22.747  1.00  0.00     0.317 C 
ATOM     13  O   UNL A   1      33.276  24.860  21.556  1.00  0.00    -0.249 OA
ATOM     14  H   UNL A   1      33.817  26.325  23.292  1.00  0.00     0.165 HD
BRANCH  12  15
ATOM     15  N   UNL A   1      32.180  23.643  23.130  1.00  0.00    -0.327 N 
ATOM     16  C   UNL A   1      32.205  22.239  22.760  1.00  0.00     0.148 C 
BRANCH  15  17
ATOM     17  C   UNL A   1      31.198  24.042  24.150  1.00  0.00     0.132 C 
BRANCH  17  18
ATOM     18  C   UNL A   1      30.669  22.853  24.955  1.00  0.00     0.144 C 
BRANCH  18  19
ATOM     19  C   UNL A   1      31.209  22.856  26.365  1.00  0.00     0.307 C 
ATOM     20  O   UNL A   1      30.647  23.400  27.307  1.00  0.00    -0.252 OA
BRANCH  19  21
ATOM     21  O   UNL A   1      32.400  22.198  26.425  1.00  0.00    -0.469 OA
ATOM     22  C   UNL A   1      33.266  22.614  27.486  1.00  0.00     0.282 C 
ENDBRANCH  19  21
ENDBRANCH  18  19
ENDBRANCH  17  18
ENDBRANCH  15  17
ENDBRANCH  12  15
ENDBRANCH  10  11
ENDBRANCH   6  10
ENDBRANCH   1   5
BRANCH   3  23
ATOM     23  C   UNL A   1      39.044  20.874  25.754  1.00  0.00     0.116 C 
BRANCH  23  24
ATOM     24  C   UNL A   1      40.181  19.927  26.135  1.00  0.00     0.023 C 
BRANCH  24  25
ATOM     25  C   UNL A   1      41.151  20.527  27.155  1.00  0.00     0.023 C 
BRANCH  25  26
ATOM     26  C   UNL A   1      42.444  19.737  27.346  1.00  0.00     0.116 C 
BRANCH  26  27
ATOM     27  N   UNL A   1      42.939  19.140  26.115  1.00  0.00    -0.352 N 
ATOM     28  C   UNL A   1      43.691  19.732  25.129  1.00  0.00     0.251 C 
ATOM     29  H   UNL A   1      42.705  18.195  25.969  1.00  0.00     0.163 HD
ATOM     30  O   UNL A   1      43.932  19.137  24.085  1.00  0.00    -0.269 OA
BRANCH  28  31
ATOM     31  C   UNL A   1      44.166  21.114  25.337  1.00  0.00     0.039 A 
ATOM     32  C   UNL A   1      43.711  22.122  24.487  1.00  0.00     0.014 A 
ATOM     33  C   UNL A   1      44.998  21.415  26.420  1.00  0.00     0.014 A 
ATOM     34  C   UNL A   1      44.038  23.449  24.765  1.00  0.00     0.010 A 
ATOM     35  C   UNL A   1      45.254  22.743  26.740  1.00  0.00     0.010 A 
ATOM     36  C   UNL A   1      44.777  23.774  25.915  1.00  0.00    -0.014 A 
BRANCH  36  37
ATOM     37  C   UNL A   1      45.055  25.187  26.276  1.00  0.00     0.031 A 
ATOM     38  C   UNL A   1      46.449  25.739  26.142  1.00  0.00     0.074 A 
ATOM     39  C   UNL A   1      44.066  25.954  26.778  1.00  0.00     0.049 A 
ATOM     40  N   UNL A   1      46.895  26.929  26.446  1.00  0.00    -0.248 NA
ATOM     41  C   UNL A   1      47.481  24.826  25.622  1.00  0.00     0.031 C 
ATOM     42  C   UNL A   1      42.683  25.522  26.997  1.00  0.00     0.029 A 
ATOM     43  N   UNL A   1      44.073  27.262  27.198  1.00  0.00    -0.354 N 
ATOM     44  C   UNL A   1      48.256  26.906  26.166  1.00  0.00     0.074 A 
ATOM     45  C   UNL A   1      48.575  25.566  25.724  1.00  0.00     0.031 C 
ATOM     46  C   UNL A   1      41.970  26.552  27.479  1.00  0.00     0.029 A 
ATOM     47  C   UNL A   1      42.850  27.704  27.647  1.00  0.00     0.049 A 
ATOM     48  H   UNL A   1      44.877  27.828  27.179  1.00  0.00     0.167 HD
ATOM     49  C   UNL A   1      49.156  27.914  26.248  1.00  0.00     0.031 A 
ATOM     50  C   UNL A   1      42.480  28.900  28.145  1.00  0.00     0.031 A 
ATOM     51  C   UNL A   1      48.833  29.246  26.682  1.00  0.00     0.049 A 
ATOM     52  C   UNL A   1      43.505  29.998  28.248  1.00  0.00     0.074 A 
ATOM     53  C   UNL A   1      49.661  30.353  26.747  1.00  0.00     0.029 A 
ATOM     54  N   UNL A   1      47.585  29.654  27.128  1.00  0.00    -0.354 N 
ATOM     55  N   UNL A   1      44.772  29.977  27.907  1.00  0.00    -0.248 NA
ATOM     56  C   UNL A   1      43.048  31.283  28.795  1.00  0.00     0.031 C 
ATOM     57  C   UNL A   1      48.930  31.413  27.291  1.00  0.00     0.029 A 
ATOM     58  C   UNL A   1      47.628  30.987  27.500  1.00  0.00     0.049 A 
ATOM     59  H   UNL A   1      46.785  29.080  27.173  1.00  0.00     0.167 HD
ATOM     60  C   UNL A   1      45.255  31.253  28.172  1.00  0.00     0.074 A 
ATOM     61  C   UNL A   1      44.142  32.025  28.683  1.00  0.00     0.031 C 
ATOM     62  C   UNL A   1      46.510  31.742  28.007  1.00  0.00     0.031 A 
BRANCH  49  63
ATOM     63  C   UNL A   1      50.581  27.612  25.863  1.00  0.00    -0.014 A 
ATOM     64  C   UNL A   1      51.514  27.166  26.818  1.00  0.00     0.010 A 
ATOM     65  C   UNL A   1      50.981  27.728  24.519  1.00  0.00     0.010 A 
ATOM     66  C   UNL A   1      52.828  26.879  26.444  1.00  0.00     0.020 A 
ATOM     67  C   UNL A   1      52.288  27.411  24.136  1.00  0.00     0.020 A 
ATOM     68  C   UNL A   1      53.207  27.002  25.104  1.00  0.00     0.054 A 
BRANCH  68  69
ATOM     69  S   UNL A   1      54.912  26.591  24.644  1.00  0.00     0.124 S 
ATOM     70  O   UNL A   1      54.991  25.179  25.009  1.00  0.00    -0.237 OA
ATOM     71  O   UNL A   1      54.932  26.871  23.211  1.00  0.00    -0.237 OA
ATOM     72  O   UNL A   1      55.720  27.491  25.463  1.00  0.00    -0.744 OA
ENDBRANCH  68  69
ENDBRANCH  49  63
BRANCH  50  73
ATOM     73  C   UNL A   1      41.073  29.126  28.582  1.00  0.00    -0.014 A 
ATOM     74  C   UNL A   1      40.734  29.108  29.947  1.00  0.00     0.010 A 
ATOM     75  C   UNL A   1      40.062  29.360  27.632  1.00  0.00     0.010 A 
ATOM     76  C   UNL A   1      39.409  29.295  30.351  1.00  0.00     0.020 A 
ATOM     77  C   UNL A   1      38.741  29.579  28.034  1.00  0.00     0.020 A 
ATOM     78  C   UNL A   1      38.421  29.530  29.392  1.00  0.00     0.054 A 
BRANCH  78  79
ATOM     79  S   UNL A   1      36.714  29.808  29.942  1.00  0.00     0.124 S 
ATOM     80  O   UNL A   1      36.636  28.960  31.128  1.00  0.00    -0.237 OA
ATOM     81  O   UNL A   1      36.695  31.248  30.190  1.00  0.00    -0.237 OA
ATOM     82  O   UNL A   1      35.912  29.369  28.803  1.00  0.00    -0.744 OA
ENDBRANCH  78  79
ENDBRANCH  50  73
BRANCH  62  83
ATOM     83  C   UNL A   1      46.743  33.189  28.352  1.00  0.00    -0.014 A 
ATOM     84  C   UNL A   1      47.187  33.575  29.629  1.00  0.00     0.010 A 
ATOM     85  C   UNL A   1      46.575  34.174  27.360  1.00  0.00     0.010 A 
ATOM     86  C   UNL A   1      47.431  34.920  29.916  1.00  0.00     0.020 A 
ATOM     87  C   UNL A   1      46.850  35.516  27.633  1.00  0.00     0.020 A 
ATOM     88  C   UNL A   1      47.263  35.882  28.915  1.00  0.00     0.054 A 
BRANCH  88  89
ATOM     89  S   UNL A   1      47.638  37.614  29.299  1.00  0.00     0.124 S 
ATOM     90  O   UNL A   1      48.460  37.488  30.500  1.00  0.00    -0.237 OA
ATOM     91  O   UNL A   1      48.343  38.062  28.100  1.00  0.00    -0.237 OA
ATOM     92  O   UNL A   1      46.324  38.218  29.505  1.00  0.00    -0.744 OA
ENDBRANCH  88  89
ENDBRANCH  62  83
ENDBRANCH  36  37
ENDBRANCH  28  31
ENDBRANCH  26  27
ENDBRANCH  25  26
ENDBRANCH  24  25
ENDBRANCH  23  24
ENDBRANCH   3  23
TORSDOF 21
ENDMDL
