MODEL 1
REMARK VINA RESULT:     -11.6      0.000      0.000
REMARK SMILES Cc1nc2nc(CNC(=O)OC(C)(C)C)nn2c(C)c1CCC(=O)NCCCCNC(=O)c1ccc(-c2c3nc(c(-c4ccc(S(=O)(=O)[O-])cc4)c4ccc([nH]4)c(-c4ccc(S(=O)(=O)[O-])cc4)c4nc(c(-c5ccc(S(=O)(=O)[O-])cc5)c5ccc2[nH]5)C=C4)C=C3)cc1
REMARK SMILES IDX 26 1 25 2 23 3 24 4 22 6 21 7 20 8 1 9 2 10 3 11 4 12 18 13
REMARK SMILES IDX 5 14 17 15 19 16 6 17 16 18 7 19 8 20 9 21 10 23 11 24 12 25
REMARK SMILES IDX 13 26 14 27 15 28 27 29 28 30 29 31 30 32 31 33 32 35 33 36
REMARK SMILES IDX 34 37 92 38 35 39 91 40 36 41 37 42 38 43 85 44 39 45 90 46
REMARK SMILES IDX 84 47 86 48 40 49 89 50 83 51 82 52 41 54 71 55 52 56 70 57
REMARK SMILES IDX 53 58 56 59 69 60 87 61 54 62 55 63 68 65 88 66 57 67 42 68
REMARK SMILES IDX 43 69 51 70 44 71 50 72 45 73 46 74 47 75 48 76 49 77 72 78
REMARK SMILES IDX 73 79 81 80 74 81 80 82 75 83 76 84 77 85 78 86 79 87 58 88
REMARK SMILES IDX 59 89 67 90 60 91 66 92 61 93 62 94 63 95 64 96 65 97
REMARK H PARENT 25 5 8 22 30 34 86 53 56 64
REMARK Flexibility Score: inf
ROOT
ATOM      1  C   UNL A   1      36.636  23.664  25.660  1.00  0.00     0.116 C 
ENDROOT
BRANCH   1   2
ATOM      2  N   UNL A   1      36.280  22.425  24.984  1.00  0.00    -0.356 N 
ATOM      3  C   UNL A   1      35.288  21.538  25.306  1.00  0.00     0.220 C 
ATOM      4  O   UNL A   1      35.309  20.415  24.803  1.00  0.00    -0.275 OA
ATOM      5  H   UNL A   1      36.822  22.196  24.194  1.00  0.00     0.163 HD
BRANCH   3   6
ATOM      6  C   UNL A   1      34.167  21.943  26.259  1.00  0.00     0.105 C 
BRANCH   6   7
ATOM      7  C   UNL A   1      32.775  21.410  25.848  1.00  0.00     0.049 C 
BRANCH   7   8
ATOM      8  C   UNL A   1      31.943  22.397  25.042  1.00  0.00    -0.005 A 
ATOM      9  C   UNL A   1      32.473  21.098  22.823  1.00  0.00     0.067 C 
ATOM     10  C   UNL A   1      32.007  22.364  23.520  1.00  0.00     0.046 A 
ATOM     11  N   UNL A   1      31.614  23.324  22.736  1.00  0.00    -0.216 NA
ATOM     12  C   UNL A   1      31.107  24.439  23.324  1.00  0.00     0.252 A 
ATOM     13  C   UNL A   1      31.211  23.424  25.552  1.00  0.00     0.048 A 
ATOM     14  N   UNL A   1      30.919  25.635  22.811  1.00  0.00    -0.192 NA
ATOM     15  N   UNL A   1      30.798  24.469  24.688  1.00  0.00    -0.201 N 
ATOM     16  C   UNL A   1      31.007  23.654  27.026  1.00  0.00     0.067 C 
ATOM     17  C   UNL A   1      30.408  26.379  23.844  1.00  0.00     0.172 A 
ATOM     18  N   UNL A   1      30.265  25.694  24.992  1.00  0.00    -0.148 NA
BRANCH  17  19
ATOM     19  C   UNL A   1      30.145  27.868  23.711  1.00  0.00     0.199 C 
BRANCH  19  20
ATOM     20  N   UNL A   1      31.383  28.577  23.458  1.00  0.00    -0.314 N 
ATOM     21  C   UNL A   1      32.521  28.709  24.183  1.00  0.00     0.408 C 
ATOM     22  H   UNL A   1      31.400  29.054  22.598  1.00  0.00     0.167 HD
ATOM     23  O   UNL A   1      33.476  29.303  23.720  1.00  0.00    -0.225 OA
BRANCH  21  24
ATOM     24  O   UNL A   1      32.481  28.140  25.409  1.00  0.00    -0.444 OA
BRANCH  24  25
ATOM     25  C   UNL A   1      32.516  29.032  26.559  1.00  0.00     0.106 C 
ATOM     26  C   UNL A   1      33.940  29.262  27.095  1.00  0.00     0.056 C 
ATOM     27  C   UNL A   1      31.819  30.368  26.250  1.00  0.00     0.056 C 
ATOM     28  C   UNL A   1      31.709  28.299  27.638  1.00  0.00     0.056 C 
ENDBRANCH  24  25
ENDBRANCH  21  24
ENDBRANCH  19  20
ENDBRANCH  17  19
ENDBRANCH   7   8
ENDBRANCH   6   7
ENDBRANCH   3   6
ENDBRANCH   1   2
BRANCH   1  29
ATOM     29  C   UNL A   1      38.024  23.523  26.259  1.00  0.00     0.023 C 
BRANCH  29  30
ATOM     30  C   UNL A   1      38.796  22.241  25.974  1.00  0.00     0.023 C 
BRANCH  30  31
ATOM     31  C   UNL A   1      40.030  22.064  26.834  1.00  0.00     0.116 C 
BRANCH  31  32
ATOM     32  N   UNL A   1      41.302  22.254  26.110  1.00  0.00    -0.352 N 
ATOM     33  C   UNL A   1      41.996  23.448  25.945  1.00  0.00     0.251 C 
ATOM     34  H   UNL A   1      41.701  21.452  25.703  1.00  0.00     0.163 HD
ATOM     35  O   UNL A   1      42.978  23.547  25.226  1.00  0.00    -0.269 OA
BRANCH  33  36
ATOM     36  C   UNL A   1      41.554  24.538  26.814  1.00  0.00     0.039 A 
ATOM     37  C   UNL A   1      42.099  24.757  28.081  1.00  0.00     0.014 A 
ATOM     38  C   UNL A   1      40.888  25.530  26.107  1.00  0.00     0.014 A 
ATOM     39  C   UNL A   1      42.022  26.038  28.623  1.00  0.00     0.010 A 
ATOM     40  C   UNL A   1      41.018  26.815  26.558  1.00  0.00     0.010 A 
ATOM     41  C   UNL A   1      41.497  27.080  27.845  1.00  0.00    -0.014 A 
BRANCH  41  42
ATOM     42  C   UNL A   1      41.434  28.457  28.331  1.00  0.00     0.031 A 
ATOM     43  C   UNL A   1      42.545  29.392  28.000  1.00  0.00     0.074 A 
ATOM     44  C   UNL A   1      40.342  28.921  28.976  1.00  0.00     0.049 A 
ATOM     45  N   UNL A   1      43.456  29.822  28.811  1.00  0.00    -0.248 NA
ATOM     46  C   UNL A   1      42.709  29.873  26.622  1.00  0.00     0.031 C 
ATOM     47  C   UNL A   1      39.066  28.229  29.236  1.00  0.00     0.029 A 
ATOM     48  N   UNL A   1      40.101  30.168  29.456  1.00  0.00    -0.354 N 
ATOM     49  C   UNL A   1      44.172  30.798  28.122  1.00  0.00     0.074 A 
ATOM     50  C   UNL A   1      43.775  30.672  26.742  1.00  0.00     0.031 C 
ATOM     51  C   UNL A   1      38.116  29.125  29.559  1.00  0.00     0.029 A 
ATOM     52  C   UNL A   1      38.774  30.391  29.783  1.00  0.00     0.049 A 
ATOM     53  H   UNL A   1      40.803  30.851  29.560  1.00  0.00     0.167 HD
ATOM     54  C   UNL A   1      44.853  31.781  28.782  1.00  0.00     0.031 A 
ATOM     55  C   UNL A   1      38.222  31.506  30.301  1.00  0.00     0.031 A 
ATOM     56  C   UNL A   1      44.955  31.502  30.193  1.00  0.00     0.049 A 
ATOM     57  C   UNL A   1      39.301  32.202  31.031  1.00  0.00     0.074 A 
ATOM     58  C   UNL A   1      45.508  30.498  30.960  1.00  0.00     0.029 A 
ATOM     59  N   UNL A   1      44.077  32.174  31.012  1.00  0.00    -0.354 N 
ATOM     60  N   UNL A   1      39.896  31.690  32.077  1.00  0.00    -0.248 NA
ATOM     61  C   UNL A   1      40.022  33.278  30.373  1.00  0.00     0.031 C 
ATOM     62  C   UNL A   1      44.613  30.336  32.058  1.00  0.00     0.029 A 
ATOM     63  C   UNL A   1      43.592  31.284  31.934  1.00  0.00     0.049 A 
ATOM     64  H   UNL A   1      43.840  33.127  30.947  1.00  0.00     0.167 HD
ATOM     65  C   UNL A   1      41.223  32.074  31.955  1.00  0.00     0.074 A 
ATOM     66  C   UNL A   1      41.208  33.156  30.976  1.00  0.00     0.031 C 
ATOM     67  C   UNL A   1      42.236  31.305  32.455  1.00  0.00     0.031 A 
BRANCH  54  68
ATOM     68  C   UNL A   1      45.071  33.184  28.256  1.00  0.00    -0.014 A 
ATOM     69  C   UNL A   1      46.361  33.552  27.809  1.00  0.00     0.010 A 
ATOM     70  C   UNL A   1      44.150  34.229  28.462  1.00  0.00     0.010 A 
ATOM     71  C   UNL A   1      46.735  34.897  27.675  1.00  0.00     0.020 A 
ATOM     72  C   UNL A   1      44.498  35.572  28.289  1.00  0.00     0.020 A 
ATOM     73  C   UNL A   1      45.803  35.899  27.940  1.00  0.00     0.054 A 
BRANCH  73  74
ATOM     74  S   UNL A   1      46.329  37.631  27.920  1.00  0.00     0.124 S 
ATOM     75  O   UNL A   1      45.215  38.289  28.595  1.00  0.00    -0.237 OA
ATOM     76  O   UNL A   1      47.585  37.584  28.665  1.00  0.00    -0.237 OA
ATOM     77  O   UNL A   1      46.466  37.930  26.497  1.00  0.00    -0.744 OA
ENDBRANCH  73  74
ENDBRANCH  54  68
BRANCH  55  78
ATOM     78  C   UNL A   1      36.889  32.050  29.971  1.00  0.00    -0.014 A 
ATOM     79  C   UNL A   1      36.028  32.521  30.971  1.00  0.00     0.010 A 
ATOM     80  C   UNL A   1      36.560  32.329  28.624  1.00  0.00     0.010 A 
ATOM     81  C   UNL A   1      34.914  33.308  30.641  1.00  0.00     0.020 A 
ATOM     82  C   UNL A   1      35.449  33.106  28.286  1.00  0.00     0.020 A 
ATOM     83  C   UNL A   1      34.648  33.618  29.302  1.00  0.00     0.054 A 
BRANCH  83  84
ATOM     84  S   UNL A   1      33.324  34.796  28.909  1.00  0.00     0.124 S 
ATOM     85  O   UNL A   1      34.070  35.949  28.414  1.00  0.00    -0.237 OA
ATOM     86  O   UNL A   1      32.545  34.069  27.911  1.00  0.00    -0.237 OA
ATOM     87  O   UNL A   1      32.649  34.997  30.190  1.00  0.00    -0.744 OA
ENDBRANCH  83  84
ENDBRANCH  55  78
BRANCH  67  88
ATOM     88  C   UNL A   1      41.906  30.212  33.447  1.00  0.00    -0.014 A 
ATOM     89  C   UNL A   1      41.553  28.902  33.071  1.00  0.00     0.010 A 
ATOM     90  C   UNL A   1      42.174  30.471  34.805  1.00  0.00     0.010 A 
ATOM     91  C   UNL A   1      41.483  27.877  34.030  1.00  0.00     0.020 A 
ATOM     92  C   UNL A   1      42.119  29.453  35.759  1.00  0.00     0.020 A 
ATOM     93  C   UNL A   1      41.778  28.158  35.368  1.00  0.00     0.054 A 
BRANCH  93  94
ATOM     94  S   UNL A   1      41.795  26.809  36.585  1.00  0.00     0.124 S 
ATOM     95  O   UNL A   1      41.804  25.618  35.739  1.00  0.00    -0.237 OA
ATOM     96  O   UNL A   1      43.026  27.059  37.332  1.00  0.00    -0.237 OA
ATOM     97  O   UNL A   1      40.567  27.013  37.350  1.00  0.00    -0.744 OA
ENDBRANCH  93  94
ENDBRANCH  67  88
ENDBRANCH  41  42
ENDBRANCH  33  36
ENDBRANCH  31  32
ENDBRANCH  30  31
ENDBRANCH  29  30
ENDBRANCH   1  29
TORSDOF 20
ENDMDL
MODEL 2
REMARK VINA RESULT:     -11.4      2.831      8.396
REMARK SMILES Cc1nc2nc(CNC(=O)OC(C)(C)C)nn2c(C)c1CCC(=O)NCCCCNC(=O)c1ccc(-c2c3nc(c(-c4ccc(S(=O)(=O)[O-])cc4)c4ccc([nH]4)c(-c4ccc(S(=O)(=O)[O-])cc4)c4nc(c(-c5ccc(S(=O)(=O)[O-])cc5)c5ccc2[nH]5)C=C4)C=C3)cc1
REMARK SMILES IDX 26 1 25 2 23 3 24 4 22 6 21 7 20 8 1 9 2 10 3 11 4 12 18 13
REMARK SMILES IDX 5 14 17 15 19 16 6 17 16 18 7 19 8 20 9 21 10 23 11 24 12 25
REMARK SMILES IDX 13 26 14 27 15 28 27 29 28 30 29 31 30 32 31 33 32 35 33 36
REMARK SMILES IDX 34 37 92 38 35 39 91 40 36 41 37 42 38 43 85 44 39 45 90 46
REMARK SMILES IDX 84 47 86 48 40 49 89 50 83 51 82 52 41 54 71 55 52 56 70 57
REMARK SMILES IDX 53 58 56 59 69 60 87 61 54 62 55 63 68 65 88 66 57 67 42 68
REMARK SMILES IDX 43 69 51 70 44 71 50 72 45 73 46 74 47 75 48 76 49 77 72 78
REMARK SMILES IDX 73 79 81 80 74 81 80 82 75 83 76 84 77 85 78 86 79 87 58 88
REMARK SMILES IDX 59 89 67 90 60 91 66 92 61 93 62 94 63 95 64 96 65 97
REMARK H PARENT 25 5 8 22 30 34 86 53 56 64
REMARK Flexibility Score: inf
ROOT
ATOM      1  C   UNL A   1      33.270  29.350  25.368  1.00  0.00     0.116 C 
ENDROOT
BRANCH   1   2
ATOM      2  N   UNL A   1      32.217  29.520  24.377  1.00  0.00    -0.356 N 
ATOM      3  C   UNL A   1      31.998  28.792  23.239  1.00  0.00     0.220 C 
ATOM      4  O   UNL A   1      31.240  29.244  22.380  1.00  0.00    -0.275 OA
ATOM      5  H   UNL A   1      31.580  30.251  24.549  1.00  0.00     0.163 HD
BRANCH   3   6
ATOM      6  C   UNL A   1      32.669  27.435  23.046  1.00  0.00     0.105 C 
BRANCH   6   7
ATOM      7  C   UNL A   1      31.800  26.411  22.279  1.00  0.00     0.049 C 
BRANCH   7   8
ATOM      8  C   UNL A   1      31.564  25.108  23.030  1.00  0.00    -0.005 A 
ATOM      9  C   UNL A   1      29.615  26.202  24.406  1.00  0.00     0.067 C 
ATOM     10  C   UNL A   1      30.644  25.098  24.243  1.00  0.00     0.046 A 
ATOM     11  N   UNL A   1      30.606  24.158  25.142  1.00  0.00    -0.216 NA
ATOM     12  C   UNL A   1      31.452  23.108  24.980  1.00  0.00     0.252 A 
ATOM     13  C   UNL A   1      32.203  23.929  22.797  1.00  0.00     0.048 A 
ATOM     14  N   UNL A   1      31.825  22.200  25.856  1.00  0.00    -0.192 NA
ATOM     15  N   UNL A   1      32.161  22.918  23.790  1.00  0.00    -0.201 N 
ATOM     16  C   UNL A   1      33.156  23.706  21.654  1.00  0.00     0.067 C 
ATOM     17  C   UNL A   1      32.700  21.397  25.171  1.00  0.00     0.172 A 
ATOM     18  N   UNL A   1      32.893  21.764  23.891  1.00  0.00    -0.148 NA
BRANCH  17  19
ATOM     19  C   UNL A   1      33.460  20.273  25.849  1.00  0.00     0.199 C 
BRANCH  19  20
ATOM     20  N   UNL A   1      34.784  20.141  25.275  1.00  0.00    -0.314 N 
ATOM     21  C   UNL A   1      35.887  20.926  25.338  1.00  0.00     0.408 C 
ATOM     22  H   UNL A   1      34.904  19.327  24.735  1.00  0.00     0.167 HD
ATOM     23  O   UNL A   1      36.928  20.561  24.828  1.00  0.00    -0.225 OA
BRANCH  21  24
ATOM     24  O   UNL A   1      35.712  22.095  25.996  1.00  0.00    -0.444 OA
BRANCH  24  25
ATOM     25  C   UNL A   1      35.988  23.321  25.260  1.00  0.00     0.106 C 
ATOM     26  C   UNL A   1      36.155  23.087  23.749  1.00  0.00     0.056 C 
ATOM     27  C   UNL A   1      34.918  24.391  25.541  1.00  0.00     0.056 C 
ATOM     28  C   UNL A   1      37.327  23.812  25.822  1.00  0.00     0.056 C 
ENDBRANCH  24  25
ENDBRANCH  21  24
ENDBRANCH  19  20
ENDBRANCH  17  19
ENDBRANCH   7   8
ENDBRANCH   6   7
ENDBRANCH   3   6
ENDBRANCH   1   2
BRANCH   1  29
ATOM     29  C   UNL A   1      32.734  29.735  26.735  1.00  0.00     0.023 C 
BRANCH  29  30
ATOM     30  C   UNL A   1      32.108  31.115  26.892  1.00  0.00     0.023 C 
BRANCH  30  31
ATOM     31  C   UNL A   1      33.064  32.166  27.418  1.00  0.00     0.116 C 
BRANCH  31  32
ATOM     32  N   UNL A   1      32.473  33.512  27.540  1.00  0.00    -0.352 N 
ATOM     33  C   UNL A   1      32.901  34.537  28.378  1.00  0.00     0.251 C 
ATOM     34  H   UNL A   1      31.696  33.706  26.968  1.00  0.00     0.163 HD
ATOM     35  O   UNL A   1      32.283  35.581  28.512  1.00  0.00    -0.269 OA
BRANCH  33  36
ATOM     36  C   UNL A   1      34.224  34.333  28.966  1.00  0.00     0.039 A 
ATOM     37  C   UNL A   1      34.412  33.675  30.184  1.00  0.00     0.014 A 
ATOM     38  C   UNL A   1      35.238  34.467  28.026  1.00  0.00     0.014 A 
ATOM     39  C   UNL A   1      35.648  33.080  30.432  1.00  0.00     0.010 A 
ATOM     40  C   UNL A   1      36.354  33.695  28.196  1.00  0.00     0.010 A 
ATOM     41  C   UNL A   1      36.618  33.071  29.419  1.00  0.00    -0.014 A 
BRANCH  41  42
ATOM     42  C   UNL A   1      37.915  32.419  29.593  1.00  0.00     0.031 A 
ATOM     43  C   UNL A   1      38.026  30.954  29.349  1.00  0.00     0.074 A 
ATOM     44  C   UNL A   1      39.027  33.138  29.861  1.00  0.00     0.049 A 
ATOM     45  N   UNL A   1      38.159  30.033  30.247  1.00  0.00    -0.248 NA
ATOM     46  C   UNL A   1      37.933  30.432  27.979  1.00  0.00     0.031 C 
ATOM     47  C   UNL A   1      39.176  34.601  29.949  1.00  0.00     0.029 A 
ATOM     48  N   UNL A   1      40.305  32.704  30.012  1.00  0.00    -0.354 N 
ATOM     49  C   UNL A   1      38.397  28.844  29.563  1.00  0.00     0.074 A 
ATOM     50  C   UNL A   1      38.088  29.119  28.181  1.00  0.00     0.031 C 
ATOM     51  C   UNL A   1      40.475  34.938  29.858  1.00  0.00     0.029 A 
ATOM     52  C   UNL A   1      41.245  33.720  29.971  1.00  0.00     0.049 A 
ATOM     53  H   UNL A   1      40.542  31.757  30.138  1.00  0.00     0.167 HD
ATOM     54  C   UNL A   1      39.052  27.801  30.153  1.00  0.00     0.031 A 
ATOM     55  C   UNL A   1      42.581  33.623  30.113  1.00  0.00     0.031 A 
ATOM     56  C   UNL A   1      39.187  27.993  31.576  1.00  0.00     0.049 A 
ATOM     57  C   UNL A   1      42.825  32.409  30.920  1.00  0.00     0.074 A 
ATOM     58  C   UNL A   1      38.317  28.146  32.635  1.00  0.00     0.029 A 
ATOM     59  N   UNL A   1      40.412  28.436  32.017  1.00  0.00    -0.354 N 
ATOM     60  N   UNL A   1      42.416  32.285  32.156  1.00  0.00    -0.248 NA
ATOM     61  C   UNL A   1      43.150  31.164  30.246  1.00  0.00     0.031 C 
ATOM     62  C   UNL A   1      38.952  29.080  33.505  1.00  0.00     0.029 A 
ATOM     63  C   UNL A   1      40.199  29.406  32.960  1.00  0.00     0.049 A 
ATOM     64  H   UNL A   1      41.289  28.110  31.710  1.00  0.00     0.167 HD
ATOM     65  C   UNL A   1      42.031  30.957  32.272  1.00  0.00     0.074 A 
ATOM     66  C   UNL A   1      42.634  30.294  31.120  1.00  0.00     0.031 C 
ATOM     67  C   UNL A   1      41.045  30.574  33.137  1.00  0.00     0.031 A 
BRANCH  54  68
ATOM     68  C   UNL A   1      39.934  26.809  29.423  1.00  0.00    -0.014 A 
ATOM     69  C   UNL A   1      41.296  27.130  29.220  1.00  0.00     0.010 A 
ATOM     70  C   UNL A   1      39.418  25.732  28.677  1.00  0.00     0.010 A 
ATOM     71  C   UNL A   1      42.067  26.472  28.251  1.00  0.00     0.020 A 
ATOM     72  C   UNL A   1      40.190  25.041  27.739  1.00  0.00     0.020 A 
ATOM     73  C   UNL A   1      41.497  25.446  27.499  1.00  0.00     0.054 A 
BRANCH  73  74
ATOM     74  S   UNL A   1      42.442  24.706  26.143  1.00  0.00     0.124 S 
ATOM     75  O   UNL A   1      42.135  25.611  25.039  1.00  0.00    -0.237 OA
ATOM     76  O   UNL A   1      43.811  24.763  26.648  1.00  0.00    -0.237 OA
ATOM     77  O   UNL A   1      41.879  23.363  26.028  1.00  0.00    -0.744 OA
ENDBRANCH  73  74
ENDBRANCH  54  68
BRANCH  55  78
ATOM     78  C   UNL A   1      43.593  34.410  29.381  1.00  0.00    -0.014 A 
ATOM     79  C   UNL A   1      43.638  34.415  27.981  1.00  0.00     0.010 A 
ATOM     80  C   UNL A   1      44.377  35.362  30.075  1.00  0.00     0.010 A 
ATOM     81  C   UNL A   1      44.383  35.386  27.294  1.00  0.00     0.020 A 
ATOM     82  C   UNL A   1      45.127  36.327  29.398  1.00  0.00     0.020 A 
ATOM     83  C   UNL A   1      45.101  36.353  28.007  1.00  0.00     0.054 A 
BRANCH  83  84
ATOM     84  S   UNL A   1      45.894  37.714  27.108  1.00  0.00     0.124 S 
ATOM     85  O   UNL A   1      44.748  38.463  26.602  1.00  0.00    -0.237 OA
ATOM     86  O   UNL A   1      46.668  38.372  28.157  1.00  0.00    -0.237 OA
ATOM     87  O   UNL A   1      46.692  37.036  26.087  1.00  0.00    -0.744 OA
ENDBRANCH  83  84
ENDBRANCH  55  78
BRANCH  67  88
ATOM     88  C   UNL A   1      40.609  31.532  34.222  1.00  0.00    -0.014 A 
ATOM     89  C   UNL A   1      41.162  31.542  35.517  1.00  0.00     0.010 A 
ATOM     90  C   UNL A   1      39.767  32.595  33.845  1.00  0.00     0.010 A 
ATOM     91  C   UNL A   1      40.886  32.596  36.405  1.00  0.00     0.020 A 
ATOM     92  C   UNL A   1      39.500  33.652  34.719  1.00  0.00     0.020 A 
ATOM     93  C   UNL A   1      40.064  33.651  35.995  1.00  0.00     0.054 A 
BRANCH  93  94
ATOM     94  S   UNL A   1      39.799  35.065  37.103  1.00  0.00     0.124 S 
ATOM     95  O   UNL A   1      39.513  36.152  36.169  1.00  0.00    -0.237 OA
ATOM     96  O   UNL A   1      38.671  34.629  37.925  1.00  0.00    -0.237 OA
ATOM     97  O   UNL A   1      41.065  35.187  37.824  1.00  0.00    -0.744 OA
ENDBRANCH  93  94
ENDBRANCH  67  88
ENDBRANCH  41  42
ENDBRANCH  33  36
ENDBRANCH  31  32
ENDBRANCH  30  31
ENDBRANCH  29  30
ENDBRANCH   1  29
TORSDOF 20
ENDMDL
MODEL 3
REMARK VINA RESULT:     -11.4      2.826      9.399
REMARK SMILES Cc1nc2nc(CNC(=O)OC(C)(C)C)nn2c(C)c1CCC(=O)NCCCCNC(=O)c1ccc(-c2c3nc(c(-c4ccc(S(=O)(=O)[O-])cc4)c4ccc([nH]4)c(-c4ccc(S(=O)(=O)[O-])cc4)c4nc(c(-c5ccc(S(=O)(=O)[O-])cc5)c5ccc2[nH]5)C=C4)C=C3)cc1
REMARK SMILES IDX 26 1 25 2 23 3 24 4 22 6 21 7 20 8 1 9 2 10 3 11 4 12 18 13
REMARK SMILES IDX 5 14 17 15 19 16 6 17 16 18 7 19 8 20 9 21 10 23 11 24 12 25
REMARK SMILES IDX 13 26 14 27 15 28 27 29 28 30 29 31 30 32 31 33 32 35 33 36
REMARK SMILES IDX 34 37 92 38 35 39 91 40 36 41 37 42 38 43 85 44 39 45 90 46
REMARK SMILES IDX 84 47 86 48 40 49 89 50 83 51 82 52 41 54 71 55 52 56 70 57
REMARK SMILES IDX 53 58 56 59 69 60 87 61 54 62 55 63 68 65 88 66 57 67 42 68
REMARK SMILES IDX 43 69 51 70 44 71 50 72 45 73 46 74 47 75 48 76 49 77 72 78
REMARK SMILES IDX 73 79 81 80 74 81 80 82 75 83 76 84 77 85 78 86 79 87 58 88
REMARK SMILES IDX 59 89 67 90 60 91 66 92 61 93 62 94 63 95 64 96 65 97
REMARK H PARENT 25 5 8 22 30 34 86 53 56 64
REMARK Flexibility Score: inf
ROOT
ATOM      1  C   UNL A   1      32.958  29.304  23.822  1.00  0.00     0.116 C 
ENDROOT
BRANCH   1   2
ATOM      2  N   UNL A   1      31.550  29.265  23.455  1.00  0.00    -0.356 N 
ATOM      3  C   UNL A   1      30.919  28.398  22.604  1.00  0.00     0.220 C 
ATOM      4  O   UNL A   1      29.793  28.681  22.194  1.00  0.00    -0.275 OA
ATOM      5  H   UNL A   1      30.978  29.949  23.874  1.00  0.00     0.163 HD
BRANCH   3   6
ATOM      6  C   UNL A   1      31.595  27.096  22.184  1.00  0.00     0.105 C 
BRANCH   6   7
ATOM      7  C   UNL A   1      32.622  26.565  23.211  1.00  0.00     0.049 C 
BRANCH   7   8
ATOM      8  C   UNL A   1      32.255  25.221  23.822  1.00  0.00    -0.005 A 
ATOM      9  C   UNL A   1      30.952  26.410  25.766  1.00  0.00     0.067 C 
ATOM     10  C   UNL A   1      31.637  25.173  25.213  1.00  0.00     0.046 A 
ATOM     11  N   UNL A   1      31.573  24.113  25.965  1.00  0.00    -0.216 NA
ATOM     12  C   UNL A   1      32.097  22.963  25.464  1.00  0.00     0.252 A 
ATOM     13  C   UNL A   1      32.537  24.001  23.289  1.00  0.00     0.048 A 
ATOM     14  N   UNL A   1      32.427  21.858  26.097  1.00  0.00    -0.192 NA
ATOM     15  N   UNL A   1      32.473  22.856  24.122  1.00  0.00    -0.201 N 
ATOM     16  C   UNL A   1      33.147  23.805  21.927  1.00  0.00     0.067 C 
ATOM     17  C   UNL A   1      32.925  21.036  25.119  1.00  0.00     0.172 A 
ATOM     18  N   UNL A   1      32.921  21.582  23.890  1.00  0.00    -0.148 NA
BRANCH  17  19
ATOM     19  C   UNL A   1      33.529  19.680  25.438  1.00  0.00     0.199 C 
BRANCH  19  20
ATOM     20  N   UNL A   1      34.901  19.619  24.975  1.00  0.00    -0.314 N 
ATOM     21  C   UNL A   1      35.965  20.436  25.168  1.00  0.00     0.408 C 
ATOM     22  H   UNL A   1      35.097  18.835  24.414  1.00  0.00     0.167 HD
ATOM     23  O   UNL A   1      37.058  20.130  24.735  1.00  0.00    -0.225 OA
BRANCH  21  24
ATOM     24  O   UNL A   1      35.691  21.567  25.858  1.00  0.00    -0.444 OA
BRANCH  24  25
ATOM     25  C   UNL A   1      36.269  22.808  25.359  1.00  0.00     0.106 C 
ATOM     26  C   UNL A   1      35.445  24.049  25.742  1.00  0.00     0.056 C 
ATOM     27  C   UNL A   1      37.735  22.957  25.804  1.00  0.00     0.056 C 
ATOM     28  C   UNL A   1      36.235  22.660  23.834  1.00  0.00     0.056 C 
ENDBRANCH  24  25
ENDBRANCH  21  24
ENDBRANCH  19  20
ENDBRANCH  17  19
ENDBRANCH   7   8
ENDBRANCH   6   7
ENDBRANCH   3   6
ENDBRANCH   1   2
BRANCH   1  29
ATOM     29  C   UNL A   1      33.075  29.468  25.327  1.00  0.00     0.023 C 
BRANCH  29  30
ATOM     30  C   UNL A   1      34.057  28.568  26.068  1.00  0.00     0.023 C 
BRANCH  30  31
ATOM     31  C   UNL A   1      34.777  29.255  27.210  1.00  0.00     0.116 C 
BRANCH  31  32
ATOM     32  N   UNL A   1      34.593  30.718  27.246  1.00  0.00    -0.352 N 
ATOM     33  C   UNL A   1      35.117  31.601  28.185  1.00  0.00     0.251 C 
ATOM     34  H   UNL A   1      34.043  31.111  26.530  1.00  0.00     0.163 HD
ATOM     35  O   UNL A   1      34.816  32.783  28.218  1.00  0.00    -0.269 OA
BRANCH  33  36
ATOM     36  C   UNL A   1      36.170  31.040  29.030  1.00  0.00     0.039 A 
ATOM     37  C   UNL A   1      35.955  29.949  29.875  1.00  0.00     0.014 A 
ATOM     38  C   UNL A   1      37.437  31.409  28.597  1.00  0.00     0.014 A 
ATOM     39  C   UNL A   1      37.050  29.170  30.243  1.00  0.00     0.010 A 
ATOM     40  C   UNL A   1      38.451  30.512  28.790  1.00  0.00     0.010 A 
ATOM     41  C   UNL A   1      38.303  29.440  29.677  1.00  0.00    -0.014 A 
BRANCH  41  42
ATOM     42  C   UNL A   1      39.483  28.631  29.979  1.00  0.00     0.031 A 
ATOM     43  C   UNL A   1      39.941  28.519  31.391  1.00  0.00     0.074 A 
ATOM     44  C   UNL A   1      40.093  27.901  29.020  1.00  0.00     0.049 A 
ATOM     45  N   UNL A   1      40.982  29.083  31.910  1.00  0.00    -0.248 NA
ATOM     46  C   UNL A   1      39.148  27.746  32.357  1.00  0.00     0.031 C 
ATOM     47  C   UNL A   1      39.694  27.716  27.613  1.00  0.00     0.029 A 
ATOM     48  N   UNL A   1      41.163  27.072  29.131  1.00  0.00    -0.354 N 
ATOM     49  C   UNL A   1      41.116  28.565  33.195  1.00  0.00     0.074 A 
ATOM     50  C   UNL A   1      39.878  27.877  33.470  1.00  0.00     0.031 C 
ATOM     51  C   UNL A   1      40.321  26.646  27.094  1.00  0.00     0.029 A 
ATOM     52  C   UNL A   1      41.342  26.245  28.035  1.00  0.00     0.049 A 
ATOM     53  H   UNL A   1      41.755  27.059  29.918  1.00  0.00     0.167 HD
ATOM     54  C   UNL A   1      42.323  28.546  33.835  1.00  0.00     0.031 A 
ATOM     55  C   UNL A   1      42.316  25.337  27.829  1.00  0.00     0.031 A 
ATOM     56  C   UNL A   1      43.302  29.350  33.147  1.00  0.00     0.049 A 
ATOM     57  C   UNL A   1      43.476  25.785  28.628  1.00  0.00     0.074 A 
ATOM     58  C   UNL A   1      43.417  30.682  32.805  1.00  0.00     0.029 A 
ATOM     59  N   UNL A   1      44.205  28.672  32.362  1.00  0.00    -0.354 N 
ATOM     60  N   UNL A   1      44.106  26.907  28.396  1.00  0.00    -0.248 NA
ATOM     61  C   UNL A   1      43.692  25.212  29.945  1.00  0.00     0.031 C 
ATOM     62  C   UNL A   1      44.055  30.683  31.531  1.00  0.00     0.029 A 
ATOM     63  C   UNL A   1      44.346  29.359  31.185  1.00  0.00     0.049 A 
ATOM     64  H   UNL A   1      44.671  27.839  32.604  1.00  0.00     0.167 HD
ATOM     65  C   UNL A   1      44.444  27.391  29.652  1.00  0.00     0.074 A 
ATOM     66  C   UNL A   1      44.291  26.246  30.544  1.00  0.00     0.031 C 
ATOM     67  C   UNL A   1      44.557  28.731  29.893  1.00  0.00     0.031 A 
BRANCH  54  68
ATOM     68  C   UNL A   1      42.755  27.493  34.834  1.00  0.00    -0.014 A 
ATOM     69  C   UNL A   1      43.501  27.895  35.966  1.00  0.00     0.010 A 
ATOM     70  C   UNL A   1      42.719  26.114  34.555  1.00  0.00     0.010 A 
ATOM     71  C   UNL A   1      44.250  26.975  36.714  1.00  0.00     0.020 A 
ATOM     72  C   UNL A   1      43.427  25.182  35.321  1.00  0.00     0.020 A 
ATOM     73  C   UNL A   1      44.225  25.625  36.368  1.00  0.00     0.054 A 
BRANCH  73  74
ATOM     74  S   UNL A   1      45.313  24.464  37.233  1.00  0.00     0.124 S 
ATOM     75  O   UNL A   1      45.237  23.288  36.372  1.00  0.00    -0.237 OA
ATOM     76  O   UNL A   1      46.590  25.172  37.230  1.00  0.00    -0.237 OA
ATOM     77  O   UNL A   1      44.687  24.323  38.545  1.00  0.00    -0.744 OA
ENDBRANCH  73  74
ENDBRANCH  54  68
BRANCH  55  78
ATOM     78  C   UNL A   1      42.157  24.027  27.166  1.00  0.00    -0.014 A 
ATOM     79  C   UNL A   1      43.163  23.501  26.346  1.00  0.00     0.010 A 
ATOM     80  C   UNL A   1      41.093  23.175  27.545  1.00  0.00     0.010 A 
ATOM     81  C   UNL A   1      43.146  22.148  25.974  1.00  0.00     0.020 A 
ATOM     82  C   UNL A   1      41.065  21.829  27.173  1.00  0.00     0.020 A 
ATOM     83  C   UNL A   1      42.111  21.314  26.413  1.00  0.00     0.054 A 
BRANCH  83  84
ATOM     84  S   UNL A   1      42.208  19.531  26.090  1.00  0.00     0.124 S 
ATOM     85  O   UNL A   1      40.846  19.216  25.670  1.00  0.00    -0.237 OA
ATOM     86  O   UNL A   1      43.226  19.458  25.046  1.00  0.00    -0.237 OA
ATOM     87  O   UNL A   1      42.606  18.968  27.379  1.00  0.00    -0.744 OA
ENDBRANCH  83  84
ENDBRANCH  55  78
BRANCH  67  88
ATOM     88  C   UNL A   1      44.659  29.680  28.719  1.00  0.00    -0.014 A 
ATOM     89  C   UNL A   1      43.547  30.111  27.970  1.00  0.00     0.010 A 
ATOM     90  C   UNL A   1      45.896  30.319  28.512  1.00  0.00     0.010 A 
ATOM     91  C   UNL A   1      43.672  31.163  27.047  1.00  0.00     0.020 A 
ATOM     92  C   UNL A   1      46.022  31.374  27.606  1.00  0.00     0.020 A 
ATOM     93  C   UNL A   1      44.908  31.796  26.879  1.00  0.00     0.054 A 
BRANCH  93  94
ATOM     94  S   UNL A   1      45.040  33.227  25.768  1.00  0.00     0.124 S 
ATOM     95  O   UNL A   1      46.485  33.417  25.666  1.00  0.00    -0.237 OA
ATOM     96  O   UNL A   1      44.381  32.758  24.551  1.00  0.00    -0.237 OA
ATOM     97  O   UNL A   1      44.326  34.287  26.477  1.00  0.00    -0.744 OA
ENDBRANCH  93  94
ENDBRANCH  67  88
ENDBRANCH  41  42
ENDBRANCH  33  36
ENDBRANCH  31  32
ENDBRANCH  30  31
ENDBRANCH  29  30
ENDBRANCH   1  29
TORSDOF 20
ENDMDL
