MODEL 1
REMARK VINA RESULT:     -11.0      0.000      0.000
REMARK SMILES CS(=O)(=O)c1ccc(/C=C(/C(=O)NCCCCNC(=O)c2ccc(-c3c4nc(c(-c5ccc(S(=O)(=O)[O-])cc5)c5ccc([nH]5)c(-c5ccc(S(=O)(=O)[O-])cc5)c5nc(c(-c6ccc(S(=O)(=O)[O-])cc6)c6ccc3[nH]6)C=C5)C=C4)cc2)c2cccc(Br)c2)cc1
REMARK SMILES IDX 16 1 15 2 14 3 13 4 11 5 12 6 10 8 9 9 8 10 5 11 6 12 89 13
REMARK SMILES IDX 7 14 88 15 2 16 1 17 3 18 4 19 81 20 82 21 87 22 83 23 85 24
REMARK SMILES IDX 84 25 86 26 17 27 18 28 19 29 20 31 21 32 22 33 80 34 23 35
REMARK SMILES IDX 79 36 24 37 25 38 26 39 73 40 27 41 78 42 72 43 74 44 28 45
REMARK SMILES IDX 77 46 71 47 70 48 29 50 59 51 40 52 58 53 41 54 44 55 57 56
REMARK SMILES IDX 75 57 42 58 43 59 56 61 76 62 45 63 30 64 31 65 39 66 32 67
REMARK SMILES IDX 38 68 33 69 34 70 35 71 36 72 37 73 60 74 61 75 69 76 62 77
REMARK SMILES IDX 68 78 63 79 64 80 65 81 66 82 67 83 46 84 47 85 55 86 48 87
REMARK SMILES IDX 54 88 49 89 50 90 51 91 52 92 53 93
REMARK H PARENT 13 7 18 30 74 49 44 60
REMARK Flexibility Score: inf
ROOT
ATOM      1  C   UNL A   1      38.014  20.633  25.229  1.00  0.00     0.023 C 
ENDROOT
BRANCH   1   2
ATOM      2  C   UNL A   1      37.403  21.905  24.628  1.00  0.00     0.023 C 
BRANCH   2   3
ATOM      3  C   UNL A   1      36.914  22.920  25.666  1.00  0.00     0.116 C 
BRANCH   3   4
ATOM      4  N   UNL A   1      36.010  22.286  26.604  1.00  0.00    -0.352 N 
ATOM      5  C   UNL A   1      34.675  22.388  26.842  1.00  0.00     0.251 C 
ATOM      6  O   UNL A   1      34.236  21.711  27.775  1.00  0.00    -0.269 OA
ATOM      7  H   UNL A   1      36.459  21.642  27.198  1.00  0.00     0.163 HD
BRANCH   5   8
ATOM      8  C   UNL A   1      33.730  23.205  25.986  1.00  0.00     0.047 C 
ATOM      9  C   UNL A   1      33.122  24.320  26.448  1.00  0.00     0.022 C 
BRANCH   9  10
ATOM     10  C   UNL A   1      32.275  25.305  25.740  1.00  0.00    -0.025 A 
ATOM     11  C   UNL A   1      30.846  27.199  24.244  1.00  0.00     0.067 A 
ATOM     12  C   UNL A   1      30.191  26.077  24.753  1.00  0.00     0.021 A 
ATOM     13  C   UNL A   1      32.201  27.405  24.497  1.00  0.00     0.021 A 
ATOM     14  C   UNL A   1      30.900  25.157  25.530  1.00  0.00     0.009 A 
ATOM     15  C   UNL A   1      32.909  26.458  25.240  1.00  0.00     0.009 A 
BRANCH  11  16
ATOM     16  S   UNL A   1      29.934  28.360  23.258  1.00  0.00     0.175 S 
ATOM     17  C   UNL A   1      28.251  27.824  23.421  1.00  0.00     0.163 C 
ATOM     18  O   UNL A   1      30.343  28.170  21.884  1.00  0.00    -0.224 OA
ATOM     19  O   UNL A   1      30.034  29.662  23.898  1.00  0.00    -0.224 OA
ENDBRANCH  11  16
ENDBRANCH   9  10
BRANCH   8  20
ATOM     20  C   UNL A   1      33.355  22.628  24.668  1.00  0.00    -0.012 A 
ATOM     21  C   UNL A   1      32.712  21.377  24.643  1.00  0.00     0.009 A 
ATOM     22  C   UNL A   1      33.529  23.326  23.466  1.00  0.00     0.024 A 
ATOM     23  C   UNL A   1      32.225  20.843  23.452  1.00  0.00     0.002 A 
ATOM     24  C   UNL A   1      33.016  22.795  22.279  1.00  0.00     0.018 A 
ATOM     25  C   UNL A   1      32.363  21.561  22.267  1.00  0.00     0.016 A 
ATOM     26  Br  UNL A   1      33.154  23.785  20.674  1.00  0.00    -0.051 Br
ENDBRANCH   8  20
ENDBRANCH   5   8
ENDBRANCH   3   4
ENDBRANCH   2   3
ENDBRANCH   1   2
BRANCH   1  27
ATOM     27  C   UNL A   1      39.296  20.849  26.025  1.00  0.00     0.116 C 
BRANCH  27  28
ATOM     28  N   UNL A   1      40.192  19.705  25.980  1.00  0.00    -0.352 N 
ATOM     29  C   UNL A   1      41.563  19.692  26.091  1.00  0.00     0.251 C 
ATOM     30  H   UNL A   1      39.764  18.827  25.855  1.00  0.00     0.163 HD
ATOM     31  O   UNL A   1      42.187  18.651  25.913  1.00  0.00    -0.269 OA
BRANCH  29  32
ATOM     32  C   UNL A   1      42.272  20.953  26.387  1.00  0.00     0.039 A 
ATOM     33  C   UNL A   1      42.631  21.792  25.330  1.00  0.00     0.014 A 
ATOM     34  C   UNL A   1      42.549  21.316  27.707  1.00  0.00     0.014 A 
ATOM     35  C   UNL A   1      43.216  23.031  25.602  1.00  0.00     0.010 A 
ATOM     36  C   UNL A   1      43.073  22.576  27.978  1.00  0.00     0.010 A 
ATOM     37  C   UNL A   1      43.412  23.444  26.929  1.00  0.00    -0.014 A 
BRANCH  37  38
ATOM     38  C   UNL A   1      43.988  24.773  27.254  1.00  0.00     0.031 A 
ATOM     39  C   UNL A   1      43.085  25.881  27.720  1.00  0.00     0.074 A 
ATOM     40  C   UNL A   1      45.299  25.007  27.049  1.00  0.00     0.049 A 
ATOM     41  N   UNL A   1      43.365  27.140  27.930  1.00  0.00    -0.248 NA
ATOM     42  C   UNL A   1      41.673  25.531  27.949  1.00  0.00     0.031 C 
ATOM     43  C   UNL A   1      46.274  24.022  26.571  1.00  0.00     0.029 A 
ATOM     44  N   UNL A   1      46.037  26.155  27.200  1.00  0.00    -0.354 N 
ATOM     45  C   UNL A   1      42.162  27.739  28.288  1.00  0.00     0.074 A 
ATOM     46  C   UNL A   1      41.144  26.714  28.226  1.00  0.00     0.031 C 
ATOM     47  C   UNL A   1      47.481  24.605  26.484  1.00  0.00     0.029 A 
ATOM     48  C   UNL A   1      47.360  26.011  26.857  1.00  0.00     0.049 A 
ATOM     49  H   UNL A   1      45.653  27.001  27.524  1.00  0.00     0.167 HD
ATOM     50  C   UNL A   1      41.929  29.023  28.650  1.00  0.00     0.031 A 
ATOM     51  C   UNL A   1      48.362  26.913  26.832  1.00  0.00     0.031 A 
ATOM     52  C   UNL A   1      42.949  30.033  28.731  1.00  0.00     0.049 A 
ATOM     53  C   UNL A   1      48.080  28.332  27.245  1.00  0.00     0.074 A 
ATOM     54  C   UNL A   1      42.824  31.351  29.133  1.00  0.00     0.029 A 
ATOM     55  N   UNL A   1      44.283  29.836  28.410  1.00  0.00    -0.354 N 
ATOM     56  N   UNL A   1      46.945  28.869  27.624  1.00  0.00    -0.248 NA
ATOM     57  C   UNL A   1      49.216  29.264  27.240  1.00  0.00     0.031 C 
ATOM     58  C   UNL A   1      44.077  31.961  29.020  1.00  0.00     0.029 A 
ATOM     59  C   UNL A   1      44.992  31.009  28.597  1.00  0.00     0.049 A 
ATOM     60  H   UNL A   1      44.669  28.987  28.096  1.00  0.00     0.167 HD
ATOM     61  C   UNL A   1      47.238  30.192  27.937  1.00  0.00     0.074 A 
ATOM     62  C   UNL A   1      48.656  30.374  27.705  1.00  0.00     0.031 C 
ATOM     63  C   UNL A   1      46.407  31.166  28.381  1.00  0.00     0.031 A 
BRANCH  50  64
ATOM     64  C   UNL A   1      40.511  29.406  28.980  1.00  0.00    -0.014 A 
ATOM     65  C   UNL A   1      40.119  29.658  30.307  1.00  0.00     0.010 A 
ATOM     66  C   UNL A   1      39.565  29.541  27.948  1.00  0.00     0.010 A 
ATOM     67  C   UNL A   1      38.796  29.996  30.602  1.00  0.00     0.020 A 
ATOM     68  C   UNL A   1      38.246  29.906  28.235  1.00  0.00     0.020 A 
ATOM     69  C   UNL A   1      37.866  30.113  29.563  1.00  0.00     0.054 A 
BRANCH  69  70
ATOM     70  S   UNL A   1      36.158  30.565  29.972  1.00  0.00     0.124 S 
ATOM     71  O   UNL A   1      35.944  29.832  31.217  1.00  0.00    -0.237 OA
ATOM     72  O   UNL A   1      36.233  32.018  30.106  1.00  0.00    -0.237 OA
ATOM     73  O   UNL A   1      35.389  30.087  28.826  1.00  0.00    -0.744 OA
ENDBRANCH  69  70
ENDBRANCH  50  64
BRANCH  51  74
ATOM     74  C   UNL A   1      49.729  26.494  26.420  1.00  0.00    -0.014 A 
ATOM     75  C   UNL A   1      50.200  26.781  25.127  1.00  0.00     0.010 A 
ATOM     76  C   UNL A   1      50.571  25.816  27.319  1.00  0.00     0.010 A 
ATOM     77  C   UNL A   1      51.481  26.381  24.734  1.00  0.00     0.020 A 
ATOM     78  C   UNL A   1      51.861  25.438  26.939  1.00  0.00     0.020 A 
ATOM     79  C   UNL A   1      52.305  25.712  25.644  1.00  0.00     0.054 A 
BRANCH  79  80
ATOM     80  S   UNL A   1      53.982  25.248  25.129  1.00  0.00     0.124 S 
ATOM     81  O   UNL A   1      54.807  26.068  26.011  1.00  0.00    -0.237 OA
ATOM     82  O   UNL A   1      54.007  23.811  25.393  1.00  0.00    -0.237 OA
ATOM     83  O   UNL A   1      54.017  25.613  23.715  1.00  0.00    -0.744 OA
ENDBRANCH  79  80
ENDBRANCH  51  74
BRANCH  63  84
ATOM     84  C   UNL A   1      47.012  32.505  28.708  1.00  0.00    -0.014 A 
ATOM     85  C   UNL A   1      47.072  33.533  27.752  1.00  0.00     0.010 A 
ATOM     86  C   UNL A   1      47.444  32.760  30.022  1.00  0.00     0.010 A 
ATOM     87  C   UNL A   1      47.570  34.791  28.103  1.00  0.00     0.020 A 
ATOM     88  C   UNL A   1      47.919  34.022  30.382  1.00  0.00     0.020 A 
ATOM     89  C   UNL A   1      47.987  35.029  29.417  1.00  0.00     0.054 A 
BRANCH  89  90
ATOM     90  S   UNL A   1      48.561  36.690  29.866  1.00  0.00     0.124 S 
ATOM     91  O   UNL A   1      50.009  36.556  29.736  1.00  0.00    -0.237 OA
ATOM     92  O   UNL A   1      47.916  37.535  28.864  1.00  0.00    -0.237 OA
ATOM     93  O   UNL A   1      48.072  36.868  31.231  1.00  0.00    -0.744 OA
ENDBRANCH  89  90
ENDBRANCH  63  84
ENDBRANCH  37  38
ENDBRANCH  29  32
ENDBRANCH  27  28
ENDBRANCH   1  27
TORSDOF 17
ENDMDL
MODEL 2
REMARK VINA RESULT:     -10.4      6.940     13.924
REMARK SMILES CS(=O)(=O)c1ccc(/C=C(/C(=O)NCCCCNC(=O)c2ccc(-c3c4nc(c(-c5ccc(S(=O)(=O)[O-])cc5)c5ccc([nH]5)c(-c5ccc(S(=O)(=O)[O-])cc5)c5nc(c(-c6ccc(S(=O)(=O)[O-])cc6)c6ccc3[nH]6)C=C5)C=C4)cc2)c2cccc(Br)c2)cc1
REMARK SMILES IDX 16 1 15 2 14 3 13 4 11 5 12 6 10 8 9 9 8 10 5 11 6 12 89 13
REMARK SMILES IDX 7 14 88 15 2 16 1 17 3 18 4 19 81 20 82 21 87 22 83 23 85 24
REMARK SMILES IDX 84 25 86 26 17 27 18 28 19 29 20 31 21 32 22 33 80 34 23 35
REMARK SMILES IDX 79 36 24 37 25 38 26 39 73 40 27 41 78 42 72 43 74 44 28 45
REMARK SMILES IDX 77 46 71 47 70 48 29 50 59 51 40 52 58 53 41 54 44 55 57 56
REMARK SMILES IDX 75 57 42 58 43 59 56 61 76 62 45 63 30 64 31 65 39 66 32 67
REMARK SMILES IDX 38 68 33 69 34 70 35 71 36 72 37 73 60 74 61 75 69 76 62 77
REMARK SMILES IDX 68 78 63 79 64 80 65 81 66 82 67 83 46 84 47 85 55 86 48 87
REMARK SMILES IDX 54 88 49 89 50 90 51 91 52 92 53 93
REMARK H PARENT 13 7 18 30 74 49 44 60
REMARK Flexibility Score: inf
ROOT
ATOM      1  C   UNL A   1      49.439  23.327  35.110  1.00  0.00     0.023 C 
ENDROOT
BRANCH   1   2
ATOM      2  C   UNL A   1      50.591  22.355  34.828  1.00  0.00     0.023 C 
BRANCH   2   3
ATOM      3  C   UNL A   1      50.301  20.902  35.220  1.00  0.00     0.116 C 
BRANCH   3   4
ATOM      4  N   UNL A   1      49.664  20.202  34.122  1.00  0.00    -0.352 N 
ATOM      5  C   UNL A   1      48.370  20.010  33.752  1.00  0.00     0.251 C 
ATOM      6  O   UNL A   1      48.189  19.303  32.757  1.00  0.00    -0.269 OA
ATOM      7  H   UNL A   1      50.307  19.771  33.514  1.00  0.00     0.163 HD
BRANCH   5   8
ATOM      8  C   UNL A   1      47.194  20.673  34.437  1.00  0.00     0.047 C 
ATOM      9  C   UNL A   1      46.748  21.898  34.076  1.00  0.00     0.022 C 
BRANCH   9  10
ATOM     10  C   UNL A   1      45.559  22.650  34.534  1.00  0.00    -0.025 A 
ATOM     11  C   UNL A   1      43.452  24.241  35.479  1.00  0.00     0.067 A 
ATOM     12  C   UNL A   1      43.329  23.579  34.257  1.00  0.00     0.021 A 
ATOM     13  C   UNL A   1      44.602  24.096  36.252  1.00  0.00     0.021 A 
ATOM     14  C   UNL A   1      44.367  22.758  33.809  1.00  0.00     0.009 A 
ATOM     15  C   UNL A   1      45.649  23.305  35.776  1.00  0.00     0.009 A 
BRANCH  11  16
ATOM     16  S   UNL A   1      42.125  25.283  36.035  1.00  0.00     0.175 S 
ATOM     17  C   UNL A   1      42.775  26.055  37.493  1.00  0.00     0.163 C 
ATOM     18  O   UNL A   1      41.035  24.416  36.424  1.00  0.00    -0.224 OA
ATOM     19  O   UNL A   1      41.936  26.329  35.043  1.00  0.00    -0.224 OA
ENDBRANCH  11  16
ENDBRANCH   9  10
BRANCH   8  20
ATOM     20  C   UNL A   1      46.659  19.999  35.648  1.00  0.00    -0.012 A 
ATOM     21  C   UNL A   1      45.574  19.115  35.500  1.00  0.00     0.009 A 
ATOM     22  C   UNL A   1      47.255  20.134  36.909  1.00  0.00     0.024 A 
ATOM     23  C   UNL A   1      45.110  18.359  36.574  1.00  0.00     0.002 A 
ATOM     24  C   UNL A   1      46.800  19.355  37.976  1.00  0.00     0.018 A 
ATOM     25  C   UNL A   1      45.735  18.467  37.814  1.00  0.00     0.016 A 
ATOM     26  Br  UNL A   1      47.673  19.457  39.650  1.00  0.00    -0.051 Br
ENDBRANCH   8  20
ENDBRANCH   5   8
ENDBRANCH   3   4
ENDBRANCH   2   3
ENDBRANCH   1   2
BRANCH   1  27
ATOM     27  C   UNL A   1      49.496  24.015  36.469  1.00  0.00     0.116 C 
BRANCH  27  28
ATOM     28  N   UNL A   1      50.287  25.235  36.455  1.00  0.00    -0.352 N 
ATOM     29  C   UNL A   1      49.996  26.432  35.844  1.00  0.00     0.251 C 
ATOM     30  H   UNL A   1      51.140  25.200  36.945  1.00  0.00     0.163 HD
ATOM     31  O   UNL A   1      50.827  27.335  35.827  1.00  0.00    -0.269 OA
BRANCH  29  32
ATOM     32  C   UNL A   1      48.688  26.601  35.180  1.00  0.00     0.039 A 
ATOM     33  C   UNL A   1      47.528  26.594  35.956  1.00  0.00     0.014 A 
ATOM     34  C   UNL A   1      48.617  26.800  33.799  1.00  0.00     0.014 A 
ATOM     35  C   UNL A   1      46.293  26.848  35.354  1.00  0.00     0.010 A 
ATOM     36  C   UNL A   1      47.395  27.116  33.212  1.00  0.00     0.010 A 
ATOM     37  C   UNL A   1      46.223  27.142  33.983  1.00  0.00    -0.014 A 
BRANCH  37  38
ATOM     38  C   UNL A   1      44.935  27.462  33.320  1.00  0.00     0.031 A 
ATOM     39  C   UNL A   1      44.538  26.726  32.071  1.00  0.00     0.074 A 
ATOM     40  C   UNL A   1      44.169  28.467  33.788  1.00  0.00     0.049 A 
ATOM     41  N   UNL A   1      43.525  26.942  31.273  1.00  0.00    -0.248 NA
ATOM     42  C   UNL A   1      45.415  25.621  31.647  1.00  0.00     0.031 C 
ATOM     43  C   UNL A   1      44.460  29.277  34.975  1.00  0.00     0.029 A 
ATOM     44  N   UNL A   1      42.993  28.992  33.311  1.00  0.00    -0.354 N 
ATOM     45  C   UNL A   1      43.657  26.021  30.239  1.00  0.00     0.074 A 
ATOM     46  C   UNL A   1      44.870  25.274  30.490  1.00  0.00     0.031 C 
ATOM     47  C   UNL A   1      43.483  30.183  35.139  1.00  0.00     0.029 A 
ATOM     48  C   UNL A   1      42.519  30.050  34.051  1.00  0.00     0.049 A 
ATOM     49  H   UNL A   1      42.533  28.644  32.514  1.00  0.00     0.167 HD
ATOM     50  C   UNL A   1      42.836  25.808  29.184  1.00  0.00     0.031 A 
ATOM     51  C   UNL A   1      41.438  30.833  33.866  1.00  0.00     0.031 A 
ATOM     52  C   UNL A   1      41.619  26.539  28.951  1.00  0.00     0.049 A 
ATOM     53  C   UNL A   1      40.536  30.573  32.690  1.00  0.00     0.074 A 
ATOM     54  C   UNL A   1      40.693  26.365  27.938  1.00  0.00     0.029 A 
ATOM     55  N   UNL A   1      41.158  27.577  29.745  1.00  0.00    -0.354 N 
ATOM     56  N   UNL A   1      40.654  29.668  31.748  1.00  0.00    -0.248 NA
ATOM     57  C   UNL A   1      39.349  31.429  32.559  1.00  0.00     0.031 C 
ATOM     58  C   UNL A   1      39.688  27.325  28.099  1.00  0.00     0.029 A 
ATOM     59  C   UNL A   1      39.964  28.060  29.242  1.00  0.00     0.049 A 
ATOM     60  H   UNL A   1      41.612  27.919  30.549  1.00  0.00     0.167 HD
ATOM     61  C   UNL A   1      39.537  29.822  30.934  1.00  0.00     0.074 A 
ATOM     62  C   UNL A   1      38.756  30.905  31.495  1.00  0.00     0.031 C 
ATOM     63  C   UNL A   1      39.189  29.125  29.825  1.00  0.00     0.031 A 
BRANCH  50  64
ATOM     64  C   UNL A   1      43.232  24.740  28.199  1.00  0.00    -0.014 A 
ATOM     65  C   UNL A   1      44.033  25.045  27.084  1.00  0.00     0.010 A 
ATOM     66  C   UNL A   1      42.822  23.411  28.406  1.00  0.00     0.010 A 
ATOM     67  C   UNL A   1      44.379  24.048  26.168  1.00  0.00     0.020 A 
ATOM     68  C   UNL A   1      43.189  22.405  27.507  1.00  0.00     0.020 A 
ATOM     69  C   UNL A   1      43.950  22.735  26.383  1.00  0.00     0.054 A 
BRANCH  69  70
ATOM     70  S   UNL A   1      44.425  21.458  25.186  1.00  0.00     0.124 S 
ATOM     71  O   UNL A   1      44.319  22.179  23.920  1.00  0.00    -0.237 OA
ATOM     72  O   UNL A   1      45.783  21.116  25.601  1.00  0.00    -0.237 OA
ATOM     73  O   UNL A   1      43.431  20.406  25.388  1.00  0.00    -0.744 OA
ENDBRANCH  69  70
ENDBRANCH  50  64
BRANCH  51  74
ATOM     74  C   UNL A   1      41.140  31.927  34.831  1.00  0.00    -0.014 A 
ATOM     75  C   UNL A   1      40.397  31.664  35.995  1.00  0.00     0.010 A 
ATOM     76  C   UNL A   1      41.605  33.233  34.597  1.00  0.00     0.010 A 
ATOM     77  C   UNL A   1      40.108  32.691  36.899  1.00  0.00     0.020 A 
ATOM     78  C   UNL A   1      41.340  34.257  35.511  1.00  0.00     0.020 A 
ATOM     79  C   UNL A   1      40.584  33.982  36.652  1.00  0.00     0.054 A 
BRANCH  79  80
ATOM     80  S   UNL A   1      40.241  35.288  37.864  1.00  0.00     0.124 S 
ATOM     81  O   UNL A   1      39.077  34.754  38.563  1.00  0.00    -0.237 OA
ATOM     82  O   UNL A   1      41.479  35.334  38.637  1.00  0.00    -0.237 OA
ATOM     83  O   UNL A   1      39.990  36.464  37.034  1.00  0.00    -0.744 OA
ENDBRANCH  79  80
ENDBRANCH  51  74
BRANCH  63  84
ATOM     84  C   UNL A   1      37.877  29.464  29.170  1.00  0.00    -0.014 A 
ATOM     85  C   UNL A   1      37.816  29.889  27.832  1.00  0.00     0.010 A 
ATOM     86  C   UNL A   1      36.682  29.267  29.885  1.00  0.00     0.010 A 
ATOM     87  C   UNL A   1      36.579  30.125  27.225  1.00  0.00     0.020 A 
ATOM     88  C   UNL A   1      35.444  29.479  29.275  1.00  0.00     0.020 A 
ATOM     89  C   UNL A   1      35.401  29.915  27.949  1.00  0.00     0.054 A 
BRANCH  89  90
ATOM     90  S   UNL A   1      33.807  30.158  27.118  1.00  0.00     0.124 S 
ATOM     91  O   UNL A   1      33.555  31.577  27.355  1.00  0.00    -0.237 OA
ATOM     92  O   UNL A   1      34.107  29.796  25.735  1.00  0.00    -0.237 OA
ATOM     93  O   UNL A   1      32.909  29.240  27.816  1.00  0.00    -0.744 OA
ENDBRANCH  89  90
ENDBRANCH  63  84
ENDBRANCH  37  38
ENDBRANCH  29  32
ENDBRANCH  27  28
ENDBRANCH   1  27
TORSDOF 17
ENDMDL
MODEL 3
REMARK VINA RESULT:     -10.4      1.898      8.280
REMARK SMILES CS(=O)(=O)c1ccc(/C=C(/C(=O)NCCCCNC(=O)c2ccc(-c3c4nc(c(-c5ccc(S(=O)(=O)[O-])cc5)c5ccc([nH]5)c(-c5ccc(S(=O)(=O)[O-])cc5)c5nc(c(-c6ccc(S(=O)(=O)[O-])cc6)c6ccc3[nH]6)C=C5)C=C4)cc2)c2cccc(Br)c2)cc1
REMARK SMILES IDX 16 1 15 2 14 3 13 4 11 5 12 6 10 8 9 9 8 10 5 11 6 12 89 13
REMARK SMILES IDX 7 14 88 15 2 16 1 17 3 18 4 19 81 20 82 21 87 22 83 23 85 24
REMARK SMILES IDX 84 25 86 26 17 27 18 28 19 29 20 31 21 32 22 33 80 34 23 35
REMARK SMILES IDX 79 36 24 37 25 38 26 39 73 40 27 41 78 42 72 43 74 44 28 45
REMARK SMILES IDX 77 46 71 47 70 48 29 50 59 51 40 52 58 53 41 54 44 55 57 56
REMARK SMILES IDX 75 57 42 58 43 59 56 61 76 62 45 63 30 64 31 65 39 66 32 67
REMARK SMILES IDX 38 68 33 69 34 70 35 71 36 72 37 73 60 74 61 75 69 76 62 77
REMARK SMILES IDX 68 78 63 79 64 80 65 81 66 82 67 83 46 84 47 85 55 86 48 87
REMARK SMILES IDX 54 88 49 89 50 90 51 91 52 92 53 93
REMARK H PARENT 13 7 18 30 74 49 44 60
REMARK Flexibility Score: inf
ROOT
ATOM      1  C   UNL A   1      40.499  20.277  26.834  1.00  0.00     0.023 C 
ENDROOT
BRANCH   1   2
ATOM      2  C   UNL A   1      40.213  21.762  26.578  1.00  0.00     0.023 C 
BRANCH   2   3
ATOM      3  C   UNL A   1      38.805  22.051  26.048  1.00  0.00     0.116 C 
BRANCH   3   4
ATOM      4  N   UNL A   1      38.277  20.888  25.362  1.00  0.00    -0.352 N 
ATOM      5  C   UNL A   1      37.026  20.493  25.006  1.00  0.00     0.251 C 
ATOM      6  O   UNL A   1      36.940  19.392  24.457  1.00  0.00    -0.269 OA
ATOM      7  H   UNL A   1      38.974  20.246  25.099  1.00  0.00     0.163 HD
BRANCH   5   8
ATOM      8  C   UNL A   1      35.793  21.356  25.175  1.00  0.00     0.047 C 
ATOM      9  C   UNL A   1      35.826  22.539  25.831  1.00  0.00     0.022 C 
BRANCH   9  10
ATOM     10  C   UNL A   1      34.774  23.567  25.993  1.00  0.00    -0.025 A 
ATOM     11  C   UNL A   1      32.801  25.558  26.069  1.00  0.00     0.067 A 
ATOM     12  C   UNL A   1      32.633  24.384  26.804  1.00  0.00     0.021 A 
ATOM     13  C   UNL A   1      33.957  25.766  25.319  1.00  0.00     0.021 A 
ATOM     14  C   UNL A   1      33.637  23.412  26.791  1.00  0.00     0.009 A 
ATOM     15  C   UNL A   1      34.935  24.770  25.282  1.00  0.00     0.009 A 
BRANCH  11  16
ATOM     16  S   UNL A   1      31.517  26.784  26.093  1.00  0.00     0.175 S 
ATOM     17  C   UNL A   1      30.036  25.853  25.802  1.00  0.00     0.163 C 
ATOM     18  O   UNL A   1      31.738  27.657  24.961  1.00  0.00    -0.224 OA
ATOM     19  O   UNL A   1      31.433  27.313  27.445  1.00  0.00    -0.224 OA
ENDBRANCH  11  16
ENDBRANCH   9  10
BRANCH   8  20
ATOM     20  C   UNL A   1      34.499  20.765  24.745  1.00  0.00    -0.012 A 
ATOM     21  C   UNL A   1      33.704  21.482  23.832  1.00  0.00     0.009 A 
ATOM     22  C   UNL A   1      34.092  19.483  25.138  1.00  0.00     0.024 A 
ATOM     23  C   UNL A   1      32.545  20.925  23.296  1.00  0.00     0.002 A 
ATOM     24  C   UNL A   1      32.941  18.922  24.578  1.00  0.00     0.018 A 
ATOM     25  C   UNL A   1      32.169  19.635  23.659  1.00  0.00     0.016 A 
ATOM     26  Br  UNL A   1      32.449  17.152  25.025  1.00  0.00    -0.051 Br
ENDBRANCH   8  20
ENDBRANCH   5   8
ENDBRANCH   3   4
ENDBRANCH   2   3
ENDBRANCH   1   2
BRANCH   1  27
ATOM     27  C   UNL A   1      41.959  19.943  27.122  1.00  0.00     0.116 C 
BRANCH  27  28
ATOM     28  N   UNL A   1      42.652  19.389  25.970  1.00  0.00    -0.352 N 
ATOM     29  C   UNL A   1      43.550  20.012  25.136  1.00  0.00     0.251 C 
ATOM     30  H   UNL A   1      42.455  18.447  25.761  1.00  0.00     0.163 HD
ATOM     31  O   UNL A   1      43.960  19.440  24.132  1.00  0.00    -0.269 OA
BRANCH  29  32
ATOM     32  C   UNL A   1      43.980  21.391  25.444  1.00  0.00     0.039 A 
ATOM     33  C   UNL A   1      43.399  22.453  24.750  1.00  0.00     0.014 A 
ATOM     34  C   UNL A   1      44.930  21.629  26.440  1.00  0.00     0.014 A 
ATOM     35  C   UNL A   1      43.726  23.766  25.098  1.00  0.00     0.010 A 
ATOM     36  C   UNL A   1      45.207  22.937  26.828  1.00  0.00     0.010 A 
ATOM     37  C   UNL A   1      44.609  24.017  26.160  1.00  0.00    -0.014 A 
BRANCH  37  38
ATOM     38  C   UNL A   1      44.942  25.398  26.586  1.00  0.00     0.031 A 
ATOM     39  C   UNL A   1      46.295  25.970  26.263  1.00  0.00     0.074 A 
ATOM     40  C   UNL A   1      44.069  26.101  27.334  1.00  0.00     0.049 A 
ATOM     41  N   UNL A   1      46.828  27.098  26.653  1.00  0.00    -0.248 NA
ATOM     42  C   UNL A   1      47.175  25.148  25.415  1.00  0.00     0.031 C 
ATOM     43  C   UNL A   1      42.737  25.645  27.739  1.00  0.00     0.029 A 
ATOM     44  N   UNL A   1      44.178  27.347  27.902  1.00  0.00    -0.354 N 
ATOM     45  C   UNL A   1      48.113  27.111  26.122  1.00  0.00     0.074 A 
ATOM     46  C   UNL A   1      48.293  25.859  25.419  1.00  0.00     0.031 C 
ATOM     47  C   UNL A   1      42.149  26.602  28.476  1.00  0.00     0.029 A 
ATOM     48  C   UNL A   1      43.075  27.720  28.632  1.00  0.00     0.049 A 
ATOM     49  H   UNL A   1      44.972  27.918  27.796  1.00  0.00     0.167 HD
ATOM     50  C   UNL A   1      49.053  28.081  26.201  1.00  0.00     0.031 A 
ATOM     51  C   UNL A   1      42.840  28.832  29.357  1.00  0.00     0.031 A 
ATOM     52  C   UNL A   1      48.861  29.333  26.883  1.00  0.00     0.049 A 
ATOM     53  C   UNL A   1      43.897  29.900  29.425  1.00  0.00     0.074 A 
ATOM     54  C   UNL A   1      49.734  30.402  26.980  1.00  0.00     0.029 A 
ATOM     55  N   UNL A   1      47.715  29.686  27.579  1.00  0.00    -0.354 N 
ATOM     56  N   UNL A   1      45.089  29.913  28.879  1.00  0.00    -0.248 NA
ATOM     57  C   UNL A   1      43.572  31.109  30.194  1.00  0.00     0.031 C 
ATOM     58  C   UNL A   1      49.129  31.388  27.766  1.00  0.00     0.029 A 
ATOM     59  C   UNL A   1      47.860  30.953  28.114  1.00  0.00     0.049 A 
ATOM     60  H   UNL A   1      46.917  29.119  27.676  1.00  0.00     0.167 HD
ATOM     61  C   UNL A   1      45.643  31.146  29.209  1.00  0.00     0.074 A 
ATOM     62  C   UNL A   1      44.655  31.851  29.999  1.00  0.00     0.031 C 
ATOM     63  C   UNL A   1      46.858  31.648  28.881  1.00  0.00     0.031 A 
BRANCH  50  64
ATOM     64  C   UNL A   1      50.378  27.822  25.535  1.00  0.00    -0.014 A 
ATOM     65  C   UNL A   1      50.580  28.131  24.178  1.00  0.00     0.010 A 
ATOM     66  C   UNL A   1      51.444  27.288  26.282  1.00  0.00     0.010 A 
ATOM     67  C   UNL A   1      51.809  27.869  23.568  1.00  0.00     0.020 A 
ATOM     68  C   UNL A   1      52.684  27.051  25.683  1.00  0.00     0.020 A 
ATOM     69  C   UNL A   1      52.853  27.326  24.324  1.00  0.00     0.054 A 
BRANCH  69  70
ATOM     70  S   UNL A   1      54.442  27.008  23.510  1.00  0.00     0.124 S 
ATOM     71  O   UNL A   1      55.028  28.346  23.464  1.00  0.00    -0.237 OA
ATOM     72  O   UNL A   1      55.090  26.071  24.424  1.00  0.00    -0.237 OA
ATOM     73  O   UNL A   1      54.063  26.449  22.215  1.00  0.00    -0.744 OA
ENDBRANCH  69  70
ENDBRANCH  50  64
BRANCH  51  74
ATOM     74  C   UNL A   1      41.539  28.998  30.061  1.00  0.00    -0.014 A 
ATOM     75  C   UNL A   1      40.470  29.658  29.431  1.00  0.00     0.010 A 
ATOM     76  C   UNL A   1      41.359  28.489  31.359  1.00  0.00     0.010 A 
ATOM     77  C   UNL A   1      39.248  29.822  30.093  1.00  0.00     0.020 A 
ATOM     78  C   UNL A   1      40.132  28.628  32.014  1.00  0.00     0.020 A 
ATOM     79  C   UNL A   1      39.087  29.304  31.381  1.00  0.00     0.054 A 
BRANCH  79  80
ATOM     80  S   UNL A   1      37.479  29.484  32.202  1.00  0.00     0.124 S 
ATOM     81  O   UNL A   1      36.550  29.319  31.088  1.00  0.00    -0.237 OA
ATOM     82  O   UNL A   1      37.498  28.397  33.177  1.00  0.00    -0.237 OA
ATOM     83  O   UNL A   1      37.538  30.826  32.777  1.00  0.00    -0.744 OA
ENDBRANCH  79  80
ENDBRANCH  51  74
BRANCH  63  84
ATOM     84  C   UNL A   1      47.175  33.052  29.321  1.00  0.00    -0.014 A 
ATOM     85  C   UNL A   1      46.840  34.160  28.526  1.00  0.00     0.010 A 
ATOM     86  C   UNL A   1      47.739  33.261  30.593  1.00  0.00     0.010 A 
ATOM     87  C   UNL A   1      47.077  35.457  28.991  1.00  0.00     0.020 A 
ATOM     88  C   UNL A   1      47.955  34.555  31.070  1.00  0.00     0.020 A 
ATOM     89  C   UNL A   1      47.630  35.646  30.262  1.00  0.00     0.054 A 
BRANCH  89  90
ATOM     90  S   UNL A   1      47.861  37.339  30.874  1.00  0.00     0.124 S 
ATOM     91  O   UNL A   1      46.843  38.072  30.127  1.00  0.00    -0.237 OA
ATOM     92  O   UNL A   1      47.612  37.200  32.306  1.00  0.00    -0.237 OA
ATOM     93  O   UNL A   1      49.243  37.651  30.515  1.00  0.00    -0.744 OA
ENDBRANCH  89  90
ENDBRANCH  63  84
ENDBRANCH  37  38
ENDBRANCH  29  32
ENDBRANCH  27  28
ENDBRANCH   1  27
TORSDOF 17
ENDMDL
