MODEL 1
REMARK VINA RESULT:      -7.6      0.000      0.000
REMARK SMILES CC(C)C[C@H](NC(=O)[C@H](Cc1ccccc1)NC(=O)CNC(=O)C[NH3+])C(=O)NCCCCNC(=O)c1ccc(-c2c3nc(c(-c4ccc(S(=O)(=O)[O-])cc4)c4ccc([nH]4)c(-c4ccc(S(=O)(=O)[O-])cc4)c4nc(c(-c5ccc(S(=O)(=O)[O-])cc5)c5ccc2[nH]5)C=C4)C=C3)cc1
REMARK SMILES IDX 26 1 27 2 28 3 5 5 4 6 2 7 1 8 3 9 6 10 7 11 8 13 9 14 17 15
REMARK SMILES IDX 18 16 19 18 20 19 21 20 22 21 23 23 24 24 25 25 10 29 11 30
REMARK SMILES IDX 12 31 16 32 13 33 15 34 14 35 29 36 30 37 31 38 32 39 33 40
REMARK SMILES IDX 34 41 35 43 36 44 37 45 95 46 38 47 94 48 39 49 40 50 41 51
REMARK SMILES IDX 88 52 42 53 93 54 87 55 89 56 43 57 92 58 86 59 85 60 44 62
REMARK SMILES IDX 74 63 55 64 73 65 56 66 59 67 72 68 90 69 57 70 58 71 71 73
REMARK SMILES IDX 91 74 60 75 45 76 46 77 54 78 47 79 53 80 48 81 49 82 50 83
REMARK SMILES IDX 51 84 52 85 75 86 76 87 84 88 77 89 83 90 78 91 79 92 80 93
REMARK SMILES IDX 81 94 82 95 61 96 62 97 70 98 63 99 69 100 64 101 65 102
REMARK SMILES IDX 66 103 67 104 68 105
REMARK H PARENT 28 4 6 12 17 17 21 22 25 26 25 27 25 28 33 42 89 61 59 72
REMARK Flexibility Score: inf
ROOT
ATOM      1  C   UNL A   1      46.460  27.556  25.197  1.00  0.00     0.242 C 
ATOM      2  O   UNL A   1      46.476  28.345  24.238  1.00  0.00    -0.273 OA
ATOM      3  N   UNL A   1      46.899  26.307  24.895  1.00  0.00    -0.354 N 
ATOM      4  H   UNL A   1      46.977  26.174  23.922  1.00  0.00     0.163 HD
ENDROOT
BRANCH   1   5
ATOM      5  C   UNL A   1      45.811  28.029  26.536  1.00  0.00     0.171 C 
BRANCH   5   6
ATOM      6  C   UNL A   1      46.499  27.678  27.879  1.00  0.00     0.038 C 
BRANCH   6   7
ATOM      7  C   UNL A   1      47.876  28.216  28.362  1.00  0.00    -0.015 C 
ATOM      8  C   UNL A   1      47.929  29.045  29.632  1.00  0.00     0.007 C 
ATOM      9  C   UNL A   1      48.880  27.055  28.443  1.00  0.00     0.007 C 
ENDBRANCH   6   7
ENDBRANCH   5   6
BRANCH   5  10
ATOM     10  N   UNL A   1      44.363  28.268  26.495  1.00  0.00    -0.343 N 
ATOM     11  C   UNL A   1      43.569  29.369  26.600  1.00  0.00     0.243 C 
ATOM     12  H   UNL A   1      43.847  27.440  26.361  1.00  0.00     0.164 HD
ATOM     13  O   UNL A   1      42.378  29.241  26.304  1.00  0.00    -0.273 OA
BRANCH  11  14
ATOM     14  C   UNL A   1      44.121  30.718  27.082  1.00  0.00     0.175 C 
BRANCH  14  15
ATOM     15  N   UNL A   1      43.845  31.762  25.966  1.00  0.00    -0.342 N 
ATOM     16  C   UNL A   1      43.985  33.110  25.655  1.00  0.00     0.240 C 
ATOM     17  H   UNL A   1      43.416  31.306  25.207  1.00  0.00     0.164 HD
ATOM     18  O   UNL A   1      44.453  33.245  24.508  1.00  0.00    -0.273 OA
BRANCH  16  19
ATOM     19  C   UNL A   1      43.707  34.535  26.457  1.00  0.00     0.216 C 
BRANCH  19  20
ATOM     20  N   UNL A   1      44.454  35.816  26.307  1.00  0.00    -0.342 N 
ATOM     21  C   UNL A   1      45.754  36.250  26.335  1.00  0.00     0.275 C 
ATOM     22  H   UNL A   1      43.836  36.564  26.138  1.00  0.00     0.164 HD
ATOM     23  O   UNL A   1      45.934  37.466  26.504  1.00  0.00    -0.268 OA
BRANCH  21  24
ATOM     24  C   UNL A   1      46.973  35.317  26.307  1.00  0.00     0.360 C 
BRANCH  24  25
ATOM     25  N   UNL A   1      47.191  34.651  25.004  1.00  0.00    -0.350 N 
ATOM     26  H   UNL A   1      47.569  35.322  24.338  1.00  0.00     0.344 HD
ATOM     27  H   UNL A   1      46.302  34.289  24.655  1.00  0.00     0.344 HD
ATOM     28  H   UNL A   1      47.849  33.880  25.123  1.00  0.00     0.344 HD
ENDBRANCH  24  25
ENDBRANCH  21  24
ENDBRANCH  19  20
ENDBRANCH  16  19
ENDBRANCH  14  15
BRANCH  14  29
ATOM     29  C   UNL A   1      43.363  30.955  28.482  1.00  0.00     0.070 C 
BRANCH  29  30
ATOM     30  C   UNL A   1      44.025  31.831  29.549  1.00  0.00    -0.045 A 
ATOM     31  C   UNL A   1      43.583  33.139  29.786  1.00  0.00     0.004 A 
ATOM     32  C   UNL A   1      45.159  31.394  30.258  1.00  0.00     0.004 A 
ATOM     33  C   UNL A   1      44.350  34.029  30.553  1.00  0.00     0.000 A 
ATOM     34  C   UNL A   1      45.962  32.298  30.971  1.00  0.00     0.000 A 
ATOM     35  C   UNL A   1      45.569  33.626  31.093  1.00  0.00     0.000 A 
ENDBRANCH  29  30
ENDBRANCH  14  29
ENDBRANCH  11  14
ENDBRANCH   5  10
ENDBRANCH   1   5
BRANCH   3  36
ATOM     36  C   UNL A   1      47.280  25.122  25.628  1.00  0.00     0.116 C 
BRANCH  36  37
ATOM     37  C   UNL A   1      46.234  24.297  26.391  1.00  0.00     0.023 C 
BRANCH  37  38
ATOM     38  C   UNL A   1      45.953  22.806  26.092  1.00  0.00     0.023 C 
BRANCH  38  39
ATOM     39  C   UNL A   1      45.168  22.129  24.896  1.00  0.00     0.116 C 
BRANCH  39  40
ATOM     40  N   UNL A   1      44.033  21.219  25.114  1.00  0.00    -0.352 N 
ATOM     41  C   UNL A   1      42.725  21.376  25.603  1.00  0.00     0.251 C 
ATOM     42  H   UNL A   1      44.235  20.291  24.860  1.00  0.00     0.163 HD
ATOM     43  O   UNL A   1      41.965  20.447  25.574  1.00  0.00    -0.269 OA
BRANCH  41  44
ATOM     44  C   UNL A   1      42.295  22.645  26.243  1.00  0.00     0.039 A 
ATOM     45  C   UNL A   1      41.695  22.547  27.509  1.00  0.00     0.014 A 
ATOM     46  C   UNL A   1      42.582  23.888  25.708  1.00  0.00     0.014 A 
ATOM     47  C   UNL A   1      41.606  23.679  28.318  1.00  0.00     0.010 A 
ATOM     48  C   UNL A   1      42.603  24.991  26.545  1.00  0.00     0.010 A 
ATOM     49  C   UNL A   1      42.173  24.879  27.874  1.00  0.00    -0.014 A 
BRANCH  49  50
ATOM     50  C   UNL A   1      42.420  26.008  28.797  1.00  0.00     0.031 A 
ATOM     51  C   UNL A   1      43.625  25.991  29.685  1.00  0.00     0.074 A 
ATOM     52  C   UNL A   1      41.472  26.961  28.919  1.00  0.00     0.049 A 
ATOM     53  N   UNL A   1      43.938  26.800  30.662  1.00  0.00    -0.248 NA
ATOM     54  C   UNL A   1      44.585  24.894  29.476  1.00  0.00     0.031 C 
ATOM     55  C   UNL A   1      40.227  27.030  28.144  1.00  0.00     0.029 A 
ATOM     56  N   UNL A   1      41.396  28.049  29.750  1.00  0.00    -0.354 N 
ATOM     57  C   UNL A   1      45.112  26.292  31.204  1.00  0.00     0.074 A 
ATOM     58  C   UNL A   1      45.429  25.082  30.478  1.00  0.00     0.031 C 
ATOM     59  C   UNL A   1      39.533  28.118  28.511  1.00  0.00     0.029 A 
ATOM     60  C   UNL A   1      40.255  28.799  29.578  1.00  0.00     0.049 A 
ATOM     61  H   UNL A   1      42.093  28.274  30.408  1.00  0.00     0.167 HD
ATOM     62  C   UNL A   1      45.863  26.801  32.209  1.00  0.00     0.031 A 
ATOM     63  C   UNL A   1      39.838  29.910  30.213  1.00  0.00     0.031 A 
ATOM     64  C   UNL A   1      45.536  28.016  32.903  1.00  0.00     0.049 A 
ATOM     65  C   UNL A   1      40.711  30.479  31.297  1.00  0.00     0.074 A 
ATOM     66  C   UNL A   1      46.247  28.660  33.898  1.00  0.00     0.029 A 
ATOM     67  N   UNL A   1      44.399  28.777  32.663  1.00  0.00    -0.354 N 
ATOM     68  N   UNL A   1      41.850  30.017  31.760  1.00  0.00    -0.248 NA
ATOM     69  C   UNL A   1      40.254  31.719  31.936  1.00  0.00     0.031 C 
ATOM     70  C   UNL A   1      45.523  29.794  34.283  1.00  0.00     0.029 A 
ATOM     71  C   UNL A   1      44.384  29.881  33.497  1.00  0.00     0.049 A 
ATOM     72  H   UNL A   1      43.705  28.562  31.999  1.00  0.00     0.167 HD
ATOM     73  C   UNL A   1      42.260  30.925  32.727  1.00  0.00     0.074 A 
ATOM     74  C   UNL A   1      41.253  31.968  32.772  1.00  0.00     0.031 C 
ATOM     75  C   UNL A   1      43.366  30.900  33.511  1.00  0.00     0.031 A 
BRANCH  62  76
ATOM     76  C   UNL A   1      47.096  26.035  32.603  1.00  0.00    -0.014 A 
ATOM     77  C   UNL A   1      48.338  26.295  31.993  1.00  0.00     0.010 A 
ATOM     78  C   UNL A   1      47.017  25.039  33.592  1.00  0.00     0.010 A 
ATOM     79  C   UNL A   1      49.463  25.536  32.324  1.00  0.00     0.020 A 
ATOM     80  C   UNL A   1      48.148  24.296  33.947  1.00  0.00     0.020 A 
ATOM     81  C   UNL A   1      49.359  24.536  33.294  1.00  0.00     0.054 A 
BRANCH  81  82
ATOM     82  S   UNL A   1      50.836  23.567  33.706  1.00  0.00     0.124 S 
ATOM     83  O   UNL A   1      51.861  24.223  32.900  1.00  0.00    -0.237 OA
ATOM     84  O   UNL A   1      50.955  23.760  35.149  1.00  0.00    -0.237 OA
ATOM     85  O   UNL A   1      50.488  22.211  33.289  1.00  0.00    -0.744 OA
ENDBRANCH  81  82
ENDBRANCH  62  76
BRANCH  63  86
ATOM     86  C   UNL A   1      38.563  30.570  29.817  1.00  0.00    -0.014 A 
ATOM     87  C   UNL A   1      37.329  29.981  30.147  1.00  0.00     0.010 A 
ATOM     88  C   UNL A   1      38.569  31.800  29.134  1.00  0.00     0.010 A 
ATOM     89  C   UNL A   1      36.127  30.598  29.786  1.00  0.00     0.020 A 
ATOM     90  C   UNL A   1      37.368  32.433  28.794  1.00  0.00     0.020 A 
ATOM     91  C   UNL A   1      36.154  31.821  29.113  1.00  0.00     0.054 A 
BRANCH  91  92
ATOM     92  S   UNL A   1      34.581  32.630  28.702  1.00  0.00     0.124 S 
ATOM     93  O   UNL A   1      34.157  33.144  30.000  1.00  0.00    -0.237 OA
ATOM     94  O   UNL A   1      34.988  33.637  27.725  1.00  0.00    -0.237 OA
ATOM     95  O   UNL A   1      33.769  31.542  28.162  1.00  0.00    -0.744 OA
ENDBRANCH  91  92
ENDBRANCH  63  86
BRANCH  75  96
ATOM     96  C   UNL A   1      43.557  32.052  34.457  1.00  0.00    -0.014 A 
ATOM     97  C   UNL A   1      43.101  31.982  35.784  1.00  0.00     0.010 A 
ATOM     98  C   UNL A   1      44.259  33.191  34.024  1.00  0.00     0.010 A 
ATOM     99  C   UNL A   1      43.324  33.047  36.659  1.00  0.00     0.020 A 
ATOM    100  C   UNL A   1      44.504  34.247  34.904  1.00  0.00     0.020 A 
ATOM    101  C   UNL A   1      44.024  34.173  36.213  1.00  0.00     0.054 A 
BRANCH 101 102
ATOM    102  S   UNL A   1      44.350  35.518  37.384  1.00  0.00     0.124 S 
ATOM    103  O   UNL A   1      43.429  35.201  38.471  1.00  0.00    -0.237 OA
ATOM    104  O   UNL A   1      45.767  35.343  37.690  1.00  0.00    -0.237 OA
ATOM    105  O   UNL A   1      44.027  36.723  36.623  1.00  0.00    -0.744 OA
ENDBRANCH 101 102
ENDBRANCH  75  96
ENDBRANCH  49  50
ENDBRANCH  41  44
ENDBRANCH  39  40
ENDBRANCH  38  39
ENDBRANCH  37  38
ENDBRANCH  36  37
ENDBRANCH   3  36
TORSDOF 25
ENDMDL
MODEL 2
REMARK VINA RESULT:      -6.5      5.414     11.922
REMARK SMILES CC(C)C[C@H](NC(=O)[C@H](Cc1ccccc1)NC(=O)CNC(=O)C[NH3+])C(=O)NCCCCNC(=O)c1ccc(-c2c3nc(c(-c4ccc(S(=O)(=O)[O-])cc4)c4ccc([nH]4)c(-c4ccc(S(=O)(=O)[O-])cc4)c4nc(c(-c5ccc(S(=O)(=O)[O-])cc5)c5ccc2[nH]5)C=C4)C=C3)cc1
REMARK SMILES IDX 26 1 27 2 28 3 5 5 4 6 2 7 1 8 3 9 6 10 7 11 8 13 9 14 17 15
REMARK SMILES IDX 18 16 19 18 20 19 21 20 22 21 23 23 24 24 25 25 10 29 11 30
REMARK SMILES IDX 12 31 16 32 13 33 15 34 14 35 29 36 30 37 31 38 32 39 33 40
REMARK SMILES IDX 34 41 35 43 36 44 37 45 95 46 38 47 94 48 39 49 40 50 41 51
REMARK SMILES IDX 88 52 42 53 93 54 87 55 89 56 43 57 92 58 86 59 85 60 44 62
REMARK SMILES IDX 74 63 55 64 73 65 56 66 59 67 72 68 90 69 57 70 58 71 71 73
REMARK SMILES IDX 91 74 60 75 45 76 46 77 54 78 47 79 53 80 48 81 49 82 50 83
REMARK SMILES IDX 51 84 52 85 75 86 76 87 84 88 77 89 83 90 78 91 79 92 80 93
REMARK SMILES IDX 81 94 82 95 61 96 62 97 70 98 63 99 69 100 64 101 65 102
REMARK SMILES IDX 66 103 67 104 68 105
REMARK H PARENT 28 4 6 12 17 17 21 22 25 26 25 27 25 28 33 42 89 61 59 72
REMARK Flexibility Score: inf
ROOT
ATOM      1  C   UNL A   1      34.670  21.882  24.605  1.00  0.00     0.242 C 
ATOM      2  O   UNL A   1      34.428  20.666  24.544  1.00  0.00    -0.273 OA
ATOM      3  N   UNL A   1      35.900  22.180  25.094  1.00  0.00    -0.354 N 
ATOM      4  H   UNL A   1      36.330  21.393  25.501  1.00  0.00     0.163 HD
ENDROOT
BRANCH   1   5
ATOM      5  C   UNL A   1      33.517  22.885  24.280  1.00  0.00     0.171 C 
BRANCH   5   6
ATOM      6  C   UNL A   1      32.067  22.537  24.699  1.00  0.00     0.038 C 
BRANCH   6   7
ATOM      7  C   UNL A   1      31.550  22.406  26.161  1.00  0.00    -0.015 C 
ATOM      8  C   UNL A   1      32.453  22.855  27.294  1.00  0.00     0.007 C 
ATOM      9  C   UNL A   1      30.173  23.077  26.280  1.00  0.00     0.007 C 
ENDBRANCH   6   7
ENDBRANCH   5   6
BRANCH   5  10
ATOM     10  N   UNL A   1      33.755  23.787  23.147  1.00  0.00    -0.343 N 
ATOM     11  C   UNL A   1      33.261  24.997  22.764  1.00  0.00     0.243 C 
ATOM     12  H   UNL A   1      34.428  23.437  22.519  1.00  0.00     0.164 HD
ATOM     13  O   UNL A   1      33.845  25.585  21.849  1.00  0.00    -0.273 OA
BRANCH  11  14
ATOM     14  C   UNL A   1      32.017  25.607  23.425  1.00  0.00     0.175 C 
BRANCH  14  15
ATOM     15  N   UNL A   1      32.392  25.960  24.890  1.00  0.00    -0.342 N 
ATOM     16  C   UNL A   1      32.768  27.019  25.710  1.00  0.00     0.240 C 
ATOM     17  H   UNL A   1      32.350  25.141  25.433  1.00  0.00     0.164 HD
ATOM     18  O   UNL A   1      32.103  27.009  26.764  1.00  0.00    -0.273 OA
BRANCH  16  19
ATOM     19  C   UNL A   1      33.847  28.273  25.588  1.00  0.00     0.216 C 
BRANCH  19  20
ATOM     20  N   UNL A   1      33.692  29.652  26.130  1.00  0.00    -0.342 N 
ATOM     21  C   UNL A   1      34.201  30.412  27.152  1.00  0.00     0.275 C 
ATOM     22  H   UNL A   1      33.038  30.165  25.603  1.00  0.00     0.164 HD
ATOM     23  O   UNL A   1      33.554  31.419  27.475  1.00  0.00    -0.268 OA
BRANCH  21  24
ATOM     24  C   UNL A   1      35.425  30.017  27.989  1.00  0.00     0.360 C 
BRANCH  24  25
ATOM     25  N   UNL A   1      36.717  30.197  27.291  1.00  0.00    -0.350 N 
ATOM     26  H   UNL A   1      37.251  29.330  27.334  1.00  0.00     0.344 HD
ATOM     27  H   UNL A   1      37.245  30.945  27.742  1.00  0.00     0.344 HD
ATOM     28  H   UNL A   1      36.544  30.443  26.316  1.00  0.00     0.344 HD
ENDBRANCH  24  25
ENDBRANCH  21  24
ENDBRANCH  19  20
ENDBRANCH  16  19
ENDBRANCH  14  15
BRANCH  14  29
ATOM     29  C   UNL A   1      31.651  26.846  22.466  1.00  0.00     0.070 C 
BRANCH  29  30
ATOM     30  C   UNL A   1      30.415  27.692  22.782  1.00  0.00    -0.045 A 
ATOM     31  C   UNL A   1      29.320  27.146  23.465  1.00  0.00     0.004 A 
ATOM     32  C   UNL A   1      30.291  29.014  22.316  1.00  0.00     0.004 A 
ATOM     33  C   UNL A   1      28.092  27.822  23.513  1.00  0.00     0.000 A 
ATOM     34  C   UNL A   1      29.048  29.665  22.304  1.00  0.00     0.000 A 
ATOM     35  C   UNL A   1      27.940  29.053  22.879  1.00  0.00     0.000 A 
ENDBRANCH  29  30
ENDBRANCH  14  29
ENDBRANCH  11  14
ENDBRANCH   5  10
ENDBRANCH   1   5
BRANCH   3  36
ATOM     36  C   UNL A   1      36.744  23.349  25.174  1.00  0.00     0.116 C 
BRANCH  36  37
ATOM     37  C   UNL A   1      37.694  23.556  26.362  1.00  0.00     0.023 C 
BRANCH  37  38
ATOM     38  C   UNL A   1      39.163  24.014  26.199  1.00  0.00     0.023 C 
BRANCH  38  39
ATOM     39  C   UNL A   1      39.855  25.388  26.569  1.00  0.00     0.116 C 
BRANCH  39  40
ATOM     40  N   UNL A   1      40.842  26.034  25.690  1.00  0.00    -0.352 N 
ATOM     41  C   UNL A   1      42.001  26.798  25.905  1.00  0.00     0.251 C 
ATOM     42  H   UNL A   1      40.646  25.901  24.735  1.00  0.00     0.163 HD
ATOM     43  O   UNL A   1      42.682  27.120  24.970  1.00  0.00    -0.269 OA
BRANCH  41  44
ATOM     44  C   UNL A   1      42.348  27.297  27.259  1.00  0.00     0.039 A 
ATOM     45  C   UNL A   1      42.761  28.636  27.358  1.00  0.00     0.014 A 
ATOM     46  C   UNL A   1      42.152  26.548  28.406  1.00  0.00     0.014 A 
ATOM     47  C   UNL A   1      42.745  29.271  28.599  1.00  0.00     0.010 A 
ATOM     48  C   UNL A   1      42.022  27.200  29.621  1.00  0.00     0.010 A 
ATOM     49  C   UNL A   1      42.258  28.578  29.713  1.00  0.00    -0.014 A 
BRANCH  49  50
ATOM     50  C   UNL A   1      41.893  29.279  30.964  1.00  0.00     0.031 A 
ATOM     51  C   UNL A   1      40.712  30.198  30.982  1.00  0.00     0.074 A 
ATOM     52  C   UNL A   1      42.723  29.181  32.023  1.00  0.00     0.049 A 
ATOM     53  N   UNL A   1      40.319  31.014  31.923  1.00  0.00    -0.248 NA
ATOM     54  C   UNL A   1      39.885  30.237  29.763  1.00  0.00     0.031 C 
ATOM     55  C   UNL A   1      43.939  28.361  32.081  1.00  0.00     0.029 A 
ATOM     56  N   UNL A   1      42.682  29.787  33.253  1.00  0.00    -0.354 N 
ATOM     57  C   UNL A   1      39.223  31.687  31.400  1.00  0.00     0.074 A 
ATOM     58  C   UNL A   1      39.040  31.216  30.044  1.00  0.00     0.031 C 
ATOM     59  C   UNL A   1      44.505  28.489  33.291  1.00  0.00     0.029 A 
ATOM     60  C   UNL A   1      43.723  29.433  34.079  1.00  0.00     0.049 A 
ATOM     61  H   UNL A   1      41.973  30.416  33.520  1.00  0.00     0.167 HD
ATOM     62  C   UNL A   1      38.432  32.604  32.004  1.00  0.00     0.031 A 
ATOM     63  C   UNL A   1      44.015  29.830  35.332  1.00  0.00     0.031 A 
ATOM     64  C   UNL A   1      38.623  33.042  33.360  1.00  0.00     0.049 A 
ATOM     65  C   UNL A   1      43.098  30.817  35.997  1.00  0.00     0.074 A 
ATOM     66  C   UNL A   1      37.855  33.922  34.099  1.00  0.00     0.029 A 
ATOM     67  N   UNL A   1      39.658  32.619  34.184  1.00  0.00    -0.354 N 
ATOM     68  N   UNL A   1      42.028  31.402  35.508  1.00  0.00    -0.248 NA
ATOM     69  C   UNL A   1      43.414  31.191  37.381  1.00  0.00     0.031 C 
ATOM     70  C   UNL A   1      38.446  34.058  35.361  1.00  0.00     0.029 A 
ATOM     71  C   UNL A   1      39.555  33.227  35.423  1.00  0.00     0.049 A 
ATOM     72  H   UNL A   1      40.362  31.983  33.925  1.00  0.00     0.167 HD
ATOM     73  C   UNL A   1      41.529  32.194  36.532  1.00  0.00     0.074 A 
ATOM     74  C   UNL A   1      42.405  32.002  37.672  1.00  0.00     0.031 C 
ATOM     75  C   UNL A   1      40.445  33.009  36.534  1.00  0.00     0.031 A 
BRANCH  62  76
ATOM     76  C   UNL A   1      37.304  33.182  31.194  1.00  0.00    -0.014 A 
ATOM     77  C   UNL A   1      35.968  33.068  31.624  1.00  0.00     0.010 A 
ATOM     78  C   UNL A   1      37.578  33.847  29.986  1.00  0.00     0.010 A 
ATOM     79  C   UNL A   1      34.925  33.555  30.833  1.00  0.00     0.020 A 
ATOM     80  C   UNL A   1      36.537  34.362  29.206  1.00  0.00     0.020 A 
ATOM     81  C   UNL A   1      35.216  34.194  29.625  1.00  0.00     0.054 A 
BRANCH  81  82
ATOM     82  S   UNL A   1      33.843  34.819  28.618  1.00  0.00     0.124 S 
ATOM     83  O   UNL A   1      32.746  33.946  29.030  1.00  0.00    -0.237 OA
ATOM     84  O   UNL A   1      33.733  36.210  29.052  1.00  0.00    -0.237 OA
ATOM     85  O   UNL A   1      34.305  34.633  27.246  1.00  0.00    -0.744 OA
ENDBRANCH  81  82
ENDBRANCH  62  76
BRANCH  63  86
ATOM     86  C   UNL A   1      45.198  29.268  36.043  1.00  0.00    -0.014 A 
ATOM     87  C   UNL A   1      46.442  29.917  35.970  1.00  0.00     0.010 A 
ATOM     88  C   UNL A   1      45.084  28.099  36.819  1.00  0.00     0.010 A 
ATOM     89  C   UNL A   1      47.555  29.402  36.641  1.00  0.00     0.020 A 
ATOM     90  C   UNL A   1      46.189  27.594  37.513  1.00  0.00     0.020 A 
ATOM     91  C   UNL A   1      47.421  28.243  37.410  1.00  0.00     0.054 A 
BRANCH  91  92
ATOM     92  S   UNL A   1      48.867  27.621  38.316  1.00  0.00     0.124 S 
ATOM     93  O   UNL A   1      49.135  28.714  39.245  1.00  0.00    -0.237 OA
ATOM     94  O   UNL A   1      48.359  26.390  38.917  1.00  0.00    -0.237 OA
ATOM     95  O   UNL A   1      49.868  27.428  37.269  1.00  0.00    -0.744 OA
ENDBRANCH  91  92
ENDBRANCH  63  86
BRANCH  75  96
ATOM     96  C   UNL A   1      40.133  33.725  37.818  1.00  0.00    -0.014 A 
ATOM     97  C   UNL A   1      40.528  35.058  38.017  1.00  0.00     0.010 A 
ATOM     98  C   UNL A   1      39.379  33.070  38.808  1.00  0.00     0.010 A 
ATOM     99  C   UNL A   1      40.194  35.720  39.200  1.00  0.00     0.020 A 
ATOM    100  C   UNL A   1      39.023  33.737  39.982  1.00  0.00     0.020 A 
ATOM    101  C   UNL A   1      39.443  35.054  40.175  1.00  0.00     0.054 A 
BRANCH 101 102
ATOM    102  S   UNL A   1      38.973  35.952  41.679  1.00  0.00     0.124 S 
ATOM    103  O   UNL A   1      37.594  35.512  41.874  1.00  0.00    -0.237 OA
ATOM    104  O   UNL A   1      39.935  35.460  42.662  1.00  0.00    -0.237 OA
ATOM    105  O   UNL A   1      39.134  37.355  41.307  1.00  0.00    -0.744 OA
ENDBRANCH 101 102
ENDBRANCH  75  96
ENDBRANCH  49  50
ENDBRANCH  41  44
ENDBRANCH  39  40
ENDBRANCH  38  39
ENDBRANCH  37  38
ENDBRANCH  36  37
ENDBRANCH   3  36
TORSDOF 25
ENDMDL
MODEL 3
REMARK VINA RESULT:      -6.4      1.454      2.114
REMARK SMILES CC(C)C[C@H](NC(=O)[C@H](Cc1ccccc1)NC(=O)CNC(=O)C[NH3+])C(=O)NCCCCNC(=O)c1ccc(-c2c3nc(c(-c4ccc(S(=O)(=O)[O-])cc4)c4ccc([nH]4)c(-c4ccc(S(=O)(=O)[O-])cc4)c4nc(c(-c5ccc(S(=O)(=O)[O-])cc5)c5ccc2[nH]5)C=C4)C=C3)cc1
REMARK SMILES IDX 26 1 27 2 28 3 5 5 4 6 2 7 1 8 3 9 6 10 7 11 8 13 9 14 17 15
REMARK SMILES IDX 18 16 19 18 20 19 21 20 22 21 23 23 24 24 25 25 10 29 11 30
REMARK SMILES IDX 12 31 16 32 13 33 15 34 14 35 29 36 30 37 31 38 32 39 33 40
REMARK SMILES IDX 34 41 35 43 36 44 37 45 95 46 38 47 94 48 39 49 40 50 41 51
REMARK SMILES IDX 88 52 42 53 93 54 87 55 89 56 43 57 92 58 86 59 85 60 44 62
REMARK SMILES IDX 74 63 55 64 73 65 56 66 59 67 72 68 90 69 57 70 58 71 71 73
REMARK SMILES IDX 91 74 60 75 45 76 46 77 54 78 47 79 53 80 48 81 49 82 50 83
REMARK SMILES IDX 51 84 52 85 75 86 76 87 84 88 77 89 83 90 78 91 79 92 80 93
REMARK SMILES IDX 81 94 82 95 61 96 62 97 70 98 63 99 69 100 64 101 65 102
REMARK SMILES IDX 66 103 67 104 68 105
REMARK H PARENT 28 4 6 12 17 17 21 22 25 26 25 27 25 28 33 42 89 61 59 72
REMARK Flexibility Score: inf
ROOT
ATOM      1  C   UNL A   1      46.315  28.299  26.959  1.00  0.00     0.242 C 
ATOM      2  O   UNL A   1      45.878  29.299  26.367  1.00  0.00    -0.273 OA
ATOM      3  N   UNL A   1      46.388  27.185  26.188  1.00  0.00    -0.354 N 
ATOM      4  H   UNL A   1      45.902  27.298  25.339  1.00  0.00     0.163 HD
ENDROOT
BRANCH   1   5
ATOM      5  C   UNL A   1      46.564  28.398  28.498  1.00  0.00     0.171 C 
BRANCH   5   6
ATOM      6  C   UNL A   1      47.745  27.618  29.129  1.00  0.00     0.038 C 
BRANCH   6   7
ATOM      7  C   UNL A   1      49.178  28.174  29.367  1.00  0.00    -0.015 C 
ATOM      8  C   UNL A   1      49.734  29.192  28.390  1.00  0.00     0.007 C 
ATOM      9  C   UNL A   1      49.291  28.702  30.806  1.00  0.00     0.007 C 
ENDBRANCH   6   7
ENDBRANCH   5   6
BRANCH   5  10
ATOM     10  N   UNL A   1      45.394  28.740  29.315  1.00  0.00    -0.343 N 
ATOM     11  C   UNL A   1      45.060  29.783  30.124  1.00  0.00     0.243 C 
ATOM     12  H   UNL A   1      44.685  28.058  29.265  1.00  0.00     0.164 HD
ATOM     13  O   UNL A   1      43.887  29.858  30.499  1.00  0.00    -0.273 OA
BRANCH  11  14
ATOM     14  C   UNL A   1      46.098  30.822  30.572  1.00  0.00     0.175 C 
BRANCH  14  15
ATOM     15  N   UNL A   1      46.248  31.858  29.425  1.00  0.00    -0.342 N 
ATOM     16  C   UNL A   1      45.514  32.644  28.543  1.00  0.00     0.240 C 
ATOM     17  H   UNL A   1      47.206  32.014  29.263  1.00  0.00     0.164 HD
ATOM     18  O   UNL A   1      45.958  33.809  28.527  1.00  0.00    -0.273 OA
BRANCH  16  19
ATOM     19  C   UNL A   1      44.200  32.393  27.562  1.00  0.00     0.216 C 
BRANCH  19  20
ATOM     20  N   UNL A   1      43.489  33.406  26.731  1.00  0.00    -0.342 N 
ATOM     21  C   UNL A   1      43.740  34.183  25.630  1.00  0.00     0.275 C 
ATOM     22  H   UNL A   1      42.577  33.560  27.070  1.00  0.00     0.164 HD
ATOM     23  O   UNL A   1      42.994  35.158  25.452  1.00  0.00    -0.268 OA
BRANCH  21  24
ATOM     24  C   UNL A   1      44.950  33.997  24.704  1.00  0.00     0.360 C 
BRANCH  24  25
ATOM     25  N   UNL A   1      44.803  34.644  23.382  1.00  0.00    -0.350 N 
ATOM     26  H   UNL A   1      44.534  33.946  22.690  1.00  0.00     0.344 HD
ATOM     27  H   UNL A   1      45.691  35.068  23.111  1.00  0.00     0.344 HD
ATOM     28  H   UNL A   1      44.084  35.366  23.436  1.00  0.00     0.344 HD
ENDBRANCH  24  25
ENDBRANCH  21  24
ENDBRANCH  19  20
ENDBRANCH  16  19
ENDBRANCH  14  15
BRANCH  14  29
ATOM     29  C   UNL A   1      45.500  31.376  31.958  1.00  0.00     0.070 C 
BRANCH  29  30
ATOM     30  C   UNL A   1      44.948  32.804  32.013  1.00  0.00    -0.045 A 
ATOM     31  C   UNL A   1      45.727  33.862  32.500  1.00  0.00     0.004 A 
ATOM     32  C   UNL A   1      43.613  33.088  31.670  1.00  0.00     0.004 A 
ATOM     33  C   UNL A   1      45.144  35.100  32.809  1.00  0.00     0.000 A 
ATOM     34  C   UNL A   1      43.013  34.302  32.038  1.00  0.00     0.000 A 
ATOM     35  C   UNL A   1      43.776  35.299  32.636  1.00  0.00     0.000 A 
ENDBRANCH  29  30
ENDBRANCH  14  29
ENDBRANCH  11  14
ENDBRANCH   5  10
ENDBRANCH   1   5
BRANCH   3  36
ATOM     36  C   UNL A   1      46.990  25.875  26.288  1.00  0.00     0.116 C 
BRANCH  36  37
ATOM     37  C   UNL A   1      46.415  24.814  27.237  1.00  0.00     0.023 C 
BRANCH  37  38
ATOM     38  C   UNL A   1      46.119  23.361  26.797  1.00  0.00     0.023 C 
BRANCH  38  39
ATOM     39  C   UNL A   1      45.652  22.787  25.399  1.00  0.00     0.116 C 
BRANCH  39  40
ATOM     40  N   UNL A   1      44.493  21.890  25.262  1.00  0.00    -0.352 N 
ATOM     41  C   UNL A   1      43.118  22.012  25.524  1.00  0.00     0.251 C 
ATOM     42  H   UNL A   1      44.736  21.005  24.909  1.00  0.00     0.163 HD
ATOM     43  O   UNL A   1      42.374  21.122  25.214  1.00  0.00    -0.269 OA
BRANCH  41  44
ATOM     44  C   UNL A   1      42.581  23.182  26.263  1.00  0.00     0.039 A 
ATOM     45  C   UNL A   1      41.888  22.917  27.456  1.00  0.00     0.014 A 
ATOM     46  C   UNL A   1      42.851  24.488  25.896  1.00  0.00     0.014 A 
ATOM     47  C   UNL A   1      41.684  23.944  28.376  1.00  0.00     0.010 A 
ATOM     48  C   UNL A   1      42.755  25.488  26.850  1.00  0.00     0.010 A 
ATOM     49  C   UNL A   1      42.227  25.208  28.118  1.00  0.00    -0.014 A 
BRANCH  49  50
ATOM     50  C   UNL A   1      42.349  26.232  29.178  1.00  0.00     0.031 A 
ATOM     51  C   UNL A   1      43.437  26.117  30.200  1.00  0.00     0.074 A 
ATOM     52  C   UNL A   1      41.384  27.169  29.283  1.00  0.00     0.049 A 
ATOM     53  N   UNL A   1      43.621  26.817  31.287  1.00  0.00    -0.248 NA
ATOM     54  C   UNL A   1      44.427  25.046  29.994  1.00  0.00     0.031 C 
ATOM     55  C   UNL A   1      40.242  27.323  28.374  1.00  0.00     0.029 A 
ATOM     56  N   UNL A   1      41.196  28.163  30.209  1.00  0.00    -0.354 N 
ATOM     57  C   UNL A   1      44.725  26.251  31.912  1.00  0.00     0.074 A 
ATOM     58  C   UNL A   1      45.141  25.124  31.106  1.00  0.00     0.031 C 
ATOM     59  C   UNL A   1      39.496  28.367  28.767  1.00  0.00     0.029 A 
ATOM     60  C   UNL A   1      40.077  28.929  29.979  1.00  0.00     0.049 A 
ATOM     61  H   UNL A   1      41.806  28.314  30.967  1.00  0.00     0.167 HD
ATOM     62  C   UNL A   1      45.343  26.648  33.049  1.00  0.00     0.031 A 
ATOM     63  C   UNL A   1      39.574  29.968  30.673  1.00  0.00     0.031 A 
ATOM     64  C   UNL A   1      44.922  27.784  33.823  1.00  0.00     0.049 A 
ATOM     65  C   UNL A   1      40.302  30.416  31.909  1.00  0.00     0.074 A 
ATOM     66  C   UNL A   1      45.500  28.316  34.960  1.00  0.00     0.029 A 
ATOM     67  N   UNL A   1      43.815  28.568  33.528  1.00  0.00    -0.354 N 
ATOM     68  N   UNL A   1      41.382  29.905  32.456  1.00  0.00    -0.248 NA
ATOM     69  C   UNL A   1      39.759  31.582  32.615  1.00  0.00     0.031 C 
ATOM     70  C   UNL A   1      44.723  29.405  35.372  1.00  0.00     0.029 A 
ATOM     71  C   UNL A   1      43.687  29.577  34.466  1.00  0.00     0.049 A 
ATOM     72  H   UNL A   1      43.209  28.427  32.765  1.00  0.00     0.167 HD
ATOM     73  C   UNL A   1      41.661  30.703  33.557  1.00  0.00     0.074 A 
ATOM     74  C   UNL A   1      40.646  31.739  33.589  1.00  0.00     0.031 C 
ATOM     75  C   UNL A   1      42.664  30.593  34.463  1.00  0.00     0.031 A 
BRANCH  62  76
ATOM     76  C   UNL A   1      46.528  25.841  33.507  1.00  0.00    -0.014 A 
ATOM     77  C   UNL A   1      46.371  24.764  34.400  1.00  0.00     0.010 A 
ATOM     78  C   UNL A   1      47.816  26.162  33.044  1.00  0.00     0.010 A 
ATOM     79  C   UNL A   1      47.485  24.062  34.866  1.00  0.00     0.020 A 
ATOM     80  C   UNL A   1      48.930  25.441  33.485  1.00  0.00     0.020 A 
ATOM     81  C   UNL A   1      48.759  24.409  34.410  1.00  0.00     0.054 A 
BRANCH  81  82
ATOM     82  S   UNL A   1      50.188  23.479  35.029  1.00  0.00     0.124 S 
ATOM     83  O   UNL A   1      51.090  24.552  35.441  1.00  0.00    -0.237 OA
ATOM     84  O   UNL A   1      49.613  22.692  36.118  1.00  0.00    -0.237 OA
ATOM     85  O   UNL A   1      50.627  22.707  33.871  1.00  0.00    -0.744 OA
ENDBRANCH  81  82
ENDBRANCH  62  76
BRANCH  63  86
ATOM     86  C   UNL A   1      38.349  30.669  30.197  1.00  0.00    -0.014 A 
ATOM     87  C   UNL A   1      38.455  31.906  29.536  1.00  0.00     0.010 A 
ATOM     88  C   UNL A   1      37.076  30.098  30.373  1.00  0.00     0.010 A 
ATOM     89  C   UNL A   1      37.312  32.568  29.078  1.00  0.00     0.020 A 
ATOM     90  C   UNL A   1      35.932  30.745  29.893  1.00  0.00     0.020 A 
ATOM     91  C   UNL A   1      36.056  31.982  29.258  1.00  0.00     0.054 A 
BRANCH  91  92
ATOM     92  S   UNL A   1      34.590  32.834  28.607  1.00  0.00     0.124 S 
ATOM     93  O   UNL A   1      34.039  33.449  29.810  1.00  0.00    -0.237 OA
ATOM     94  O   UNL A   1      35.166  33.755  27.631  1.00  0.00    -0.237 OA
ATOM     95  O   UNL A   1      33.793  31.750  28.036  1.00  0.00    -0.744 OA
ENDBRANCH  91  92
ENDBRANCH  63  86
BRANCH  75  96
ATOM     96  C   UNL A   1      42.727  31.636  35.542  1.00  0.00    -0.014 A 
ATOM     97  C   UNL A   1      42.033  31.470  36.752  1.00  0.00     0.010 A 
ATOM     98  C   UNL A   1      43.543  32.767  35.361  1.00  0.00     0.010 A 
ATOM     99  C   UNL A   1      42.137  32.432  37.758  1.00  0.00     0.020 A 
ATOM    100  C   UNL A   1      43.668  33.719  36.375  1.00  0.00     0.020 A 
ATOM    101  C   UNL A   1      42.954  33.551  37.563  1.00  0.00     0.054 A 
BRANCH 101 102
ATOM    102  S   UNL A   1      43.116  34.758  38.905  1.00  0.00     0.124 S 
ATOM    103  O   UNL A   1      44.369  35.424  38.563  1.00  0.00    -0.237 OA
ATOM    104  O   UNL A   1      41.912  35.572  38.755  1.00  0.00    -0.237 OA
ATOM    105  O   UNL A   1      43.156  33.932  40.109  1.00  0.00    -0.744 OA
ENDBRANCH 101 102
ENDBRANCH  75  96
ENDBRANCH  49  50
ENDBRANCH  41  44
ENDBRANCH  39  40
ENDBRANCH  38  39
ENDBRANCH  37  38
ENDBRANCH  36  37
ENDBRANCH   3  36
TORSDOF 25
ENDMDL
