MODEL 1
REMARK VINA RESULT:     -11.2      0.000      0.000
REMARK SMILES CCOc1ccc(-c2cc(Cl)cc3c2O[C@H](C(F)(F)F)C(C(=O)NCCCCNC(=O)c2ccc(-c4c5nc(c(-c6ccc(S(=O)(=O)[O-])cc6)c6ccc([nH]6)c(-c6ccc(S(=O)(=O)[O-])cc6)c6nc(c(-c7ccc(S(=O)(=O)[O-])cc7)c7ccc4[nH]7)C=C6)C=C5)cc2)=C3)cc1
REMARK SMILES IDX 26 1 25 2 24 3 22 4 23 5 21 7 8 8 9 9 14 10 10 11 13 12
REMARK SMILES IDX 15 13 11 14 12 15 92 16 16 17 7 18 4 19 5 20 94 21 6 22
REMARK SMILES IDX 93 23 3 24 2 25 1 26 17 27 18 28 19 29 20 30 27 31 28 32
REMARK SMILES IDX 29 33 30 34 31 36 32 37 33 38 91 39 34 40 90 41 35 42 36 43
REMARK SMILES IDX 37 44 84 45 38 46 89 47 83 48 85 49 39 50 88 51 82 52 81 53
REMARK SMILES IDX 40 55 70 56 51 57 69 58 52 59 55 60 68 61 86 62 53 63 54 64
REMARK SMILES IDX 67 66 87 67 56 68 41 69 42 70 50 71 43 72 49 73 44 74 45 75
REMARK SMILES IDX 46 76 47 77 48 78 71 79 72 80 80 81 73 82 79 83 74 84 75 85
REMARK SMILES IDX 76 86 77 87 78 88 57 89 58 90 66 91 59 92 65 93 60 94 61 95
REMARK SMILES IDX 62 96 63 97 64 98
REMARK H PARENT 24 6 29 35 85 54 55 65
REMARK Flexibility Score: inf
ROOT
ATOM      1  C   UNL A   1      32.016  28.129  25.565  1.00  0.00     0.023 C 
ENDROOT
BRANCH   1   2
ATOM      2  C   UNL A   1      33.275  28.032  24.691  1.00  0.00     0.116 C 
BRANCH   2   3
ATOM      3  N   UNL A   1      34.097  26.931  25.144  1.00  0.00    -0.352 N 
ATOM      4  C   UNL A   1      33.869  25.601  25.069  1.00  0.00     0.251 C 
ATOM      5  O   UNL A   1      34.319  24.882  25.955  1.00  0.00    -0.270 OA
ATOM      6  H   UNL A   1      34.948  27.188  25.568  1.00  0.00     0.163 HD
BRANCH   4   7
ATOM      7  C   UNL A   1      33.177  25.056  23.861  1.00  0.00     0.067 C 
ATOM      8  C   UNL A   1      33.924  21.091  24.459  1.00  0.00     0.026 A 
ATOM      9  C   UNL A   1      35.288  20.990  24.836  1.00  0.00     0.033 A 
ATOM     10  C   UNL A   1      33.516  22.329  23.926  1.00  0.00     0.135 A 
ATOM     11  C   UNL A   1      36.225  21.971  24.521  1.00  0.00     0.042 A 
ATOM     12  C   UNL A   1      34.499  23.258  23.505  1.00  0.00     0.019 A 
ATOM     13  O   UNL A   1      32.187  22.723  23.842  1.00  0.00    -0.475 OA
ATOM     14  Cl  UNL A   1      37.856  21.781  25.024  1.00  0.00    -0.084 Cl
ATOM     15  C   UNL A   1      35.852  23.074  23.777  1.00  0.00     0.032 A 
ATOM     16  C   UNL A   1      34.038  24.551  22.953  1.00  0.00     0.025 C 
ATOM     17  C   UNL A   1      31.971  24.171  24.161  1.00  0.00     0.314 C 
BRANCH   8  18
ATOM     18  C   UNL A   1      33.187  19.798  24.439  1.00  0.00    -0.014 A 
ATOM     19  C   UNL A   1      32.793  16.983  24.397  1.00  0.00     0.119 A 
ATOM     20  C   UNL A   1      32.779  17.674  25.605  1.00  0.00     0.047 A 
ATOM     21  C   UNL A   1      32.883  17.699  23.207  1.00  0.00     0.047 A 
ATOM     22  C   UNL A   1      32.962  19.067  25.626  1.00  0.00     0.013 A 
ATOM     23  C   UNL A   1      33.074  19.091  23.228  1.00  0.00     0.013 A 
BRANCH  19  24
ATOM     24  O   UNL A   1      32.610  15.628  24.435  1.00  0.00    -0.494 OA
BRANCH  24  25
ATOM     25  C   UNL A   1      33.104  14.975  25.614  1.00  0.00     0.226 C 
ATOM     26  C   UNL A   1      31.974  14.594  26.558  1.00  0.00     0.049 C 
ENDBRANCH  24  25
ENDBRANCH  19  24
ENDBRANCH   8  18
BRANCH  17  27
ATOM     27  C   UNL A   1      30.749  24.745  23.407  1.00  0.00     0.429 C 
ATOM     28  F   UNL A   1      29.922  23.781  22.942  1.00  0.00    -0.167 F 
ATOM     29  F   UNL A   1      30.019  25.561  24.204  1.00  0.00    -0.167 F 
ATOM     30  F   UNL A   1      31.107  25.494  22.329  1.00  0.00    -0.167 F 
ENDBRANCH  17  27
ENDBRANCH   4   7
ENDBRANCH   2   3
ENDBRANCH   1   2
BRANCH   1  31
ATOM     31  C   UNL A   1      32.272  28.396  27.056  1.00  0.00     0.023 C 
BRANCH  31  32
ATOM     32  C   UNL A   1      33.653  28.953  27.381  1.00  0.00     0.116 C 
BRANCH  32  33
ATOM     33  N   UNL A   1      33.588  30.335  27.827  1.00  0.00    -0.352 N 
ATOM     34  C   UNL A   1      34.523  31.065  28.519  1.00  0.00     0.251 C 
ATOM     35  H   UNL A   1      32.758  30.814  27.603  1.00  0.00     0.163 HD
ATOM     36  O   UNL A   1      34.218  32.158  28.994  1.00  0.00    -0.269 OA
BRANCH  34  37
ATOM     37  C   UNL A   1      35.886  30.524  28.712  1.00  0.00     0.039 A 
ATOM     38  C   UNL A   1      36.777  30.530  27.636  1.00  0.00     0.014 A 
ATOM     39  C   UNL A   1      36.287  30.020  29.952  1.00  0.00     0.014 A 
ATOM     40  C   UNL A   1      38.092  30.096  27.823  1.00  0.00     0.010 A 
ATOM     41  C   UNL A   1      37.617  29.659  30.156  1.00  0.00     0.010 A 
ATOM     42  C   UNL A   1      38.534  29.694  29.095  1.00  0.00    -0.014 A 
BRANCH  42  43
ATOM     43  C   UNL A   1      39.953  29.322  29.339  1.00  0.00     0.031 A 
ATOM     44  C   UNL A   1      40.921  30.335  29.888  1.00  0.00     0.074 A 
ATOM     45  C   UNL A   1      40.386  28.090  29.001  1.00  0.00     0.049 A 
ATOM     46  N   UNL A   1      42.205  30.214  30.105  1.00  0.00    -0.248 NA
ATOM     47  C   UNL A   1      40.380  31.665  30.213  1.00  0.00     0.031 C 
ATOM     48  C   UNL A   1      39.559  27.028  28.425  1.00  0.00     0.029 A 
ATOM     49  N   UNL A   1      41.635  27.524  29.087  1.00  0.00    -0.354 N 
ATOM     50  C   UNL A   1      42.628  31.452  30.575  1.00  0.00     0.074 A 
ATOM     51  C   UNL A   1      41.474  32.325  30.564  1.00  0.00     0.031 C 
ATOM     52  C   UNL A   1      40.313  25.934  28.234  1.00  0.00     0.029 A 
ATOM     53  C   UNL A   1      41.688  26.228  28.629  1.00  0.00     0.049 A 
ATOM     54  H   UNL A   1      42.419  28.001  29.443  1.00  0.00     0.167 HD
ATOM     55  C   UNL A   1      43.861  31.826  30.996  1.00  0.00     0.031 A 
ATOM     56  C   UNL A   1      42.724  25.373  28.528  1.00  0.00     0.031 A 
ATOM     57  C   UNL A   1      45.006  30.954  31.012  1.00  0.00     0.049 A 
ATOM     58  C   UNL A   1      44.089  25.818  28.981  1.00  0.00     0.074 A 
ATOM     59  C   UNL A   1      46.284  31.222  31.471  1.00  0.00     0.029 A 
ATOM     60  N   UNL A   1      45.015  29.648  30.544  1.00  0.00    -0.354 N 
ATOM     61  N   UNL A   1      44.453  26.971  29.488  1.00  0.00    -0.248 NA
ATOM     62  C   UNL A   1      45.180  24.841  28.859  1.00  0.00     0.031 C 
ATOM     63  C   UNL A   1      47.081  30.099  31.226  1.00  0.00     0.029 A 
ATOM     64  C   UNL A   1      46.284  29.108  30.676  1.00  0.00     0.049 A 
ATOM     65  H   UNL A   1      44.236  29.176  30.172  1.00  0.00     0.167 HD
ATOM     66  C   UNL A   1      45.809  26.850  29.770  1.00  0.00     0.074 A 
ATOM     67  C   UNL A   1      46.196  25.506  29.393  1.00  0.00     0.031 C 
ATOM     68  C   UNL A   1      46.656  27.768  30.297  1.00  0.00     0.031 A 
BRANCH  55  69
ATOM     69  C   UNL A   1      44.037  33.247  31.468  1.00  0.00    -0.014 A 
ATOM     70  C   UNL A   1      44.077  34.317  30.554  1.00  0.00     0.010 A 
ATOM     71  C   UNL A   1      44.119  33.523  32.845  1.00  0.00     0.010 A 
ATOM     72  C   UNL A   1      44.240  35.628  31.007  1.00  0.00     0.020 A 
ATOM     73  C   UNL A   1      44.251  34.837  33.304  1.00  0.00     0.020 A 
ATOM     74  C   UNL A   1      44.329  35.880  32.380  1.00  0.00     0.054 A 
BRANCH  74  75
ATOM     75  S   UNL A   1      44.520  37.595  32.937  1.00  0.00     0.124 S 
ATOM     76  O   UNL A   1      43.260  37.823  33.641  1.00  0.00    -0.237 OA
ATOM     77  O   UNL A   1      45.708  37.526  33.784  1.00  0.00    -0.237 OA
ATOM     78  O   UNL A   1      44.684  38.348  31.697  1.00  0.00    -0.744 OA
ENDBRANCH  74  75
ENDBRANCH  55  69
BRANCH  56  79
ATOM     79  C   UNL A   1      42.510  24.004  27.982  1.00  0.00    -0.014 A 
ATOM     80  C   UNL A   1      42.474  23.784  26.594  1.00  0.00     0.010 A 
ATOM     81  C   UNL A   1      42.350  22.907  28.850  1.00  0.00     0.010 A 
ATOM     82  C   UNL A   1      42.266  22.499  26.084  1.00  0.00     0.020 A 
ATOM     83  C   UNL A   1      42.171  21.617  28.344  1.00  0.00     0.020 A 
ATOM     84  C   UNL A   1      42.118  21.423  26.962  1.00  0.00     0.054 A 
BRANCH  84  85
ATOM     85  S   UNL A   1      41.898  19.757  26.277  1.00  0.00     0.124 S 
ATOM     86  O   UNL A   1      42.810  19.774  25.137  1.00  0.00    -0.237 OA
ATOM     87  O   UNL A   1      42.295  18.903  27.393  1.00  0.00    -0.237 OA
ATOM     88  O   UNL A   1      40.477  19.711  25.943  1.00  0.00    -0.744 OA
ENDBRANCH  84  85
ENDBRANCH  56  79
BRANCH  68  89
ATOM     89  C   UNL A   1      48.083  27.344  30.534  1.00  0.00    -0.014 A 
ATOM     90  C   UNL A   1      49.069  27.511  29.546  1.00  0.00     0.010 A 
ATOM     91  C   UNL A   1      48.452  26.829  31.790  1.00  0.00     0.010 A 
ATOM     92  C   UNL A   1      50.393  27.144  29.802  1.00  0.00     0.020 A 
ATOM     93  C   UNL A   1      49.780  26.490  32.060  1.00  0.00     0.020 A 
ATOM     94  C   UNL A   1      50.741  26.637  31.059  1.00  0.00     0.054 A 
BRANCH  94  95
ATOM     95  S   UNL A   1      52.476  26.218  31.381  1.00  0.00     0.124 S 
ATOM     96  O   UNL A   1      52.888  27.294  32.277  1.00  0.00    -0.237 OA
ATOM     97  O   UNL A   1      52.376  24.895  31.993  1.00  0.00    -0.237 OA
ATOM     98  O   UNL A   1      53.090  26.240  30.056  1.00  0.00    -0.744 OA
ENDBRANCH  94  95
ENDBRANCH  68  89
ENDBRANCH  42  43
ENDBRANCH  34  37
ENDBRANCH  32  33
ENDBRANCH  31  32
ENDBRANCH   1  31
TORSDOF 18
ENDMDL
MODEL 2
REMARK VINA RESULT:     -11.2      2.908      3.511
REMARK SMILES CCOc1ccc(-c2cc(Cl)cc3c2O[C@H](C(F)(F)F)C(C(=O)NCCCCNC(=O)c2ccc(-c4c5nc(c(-c6ccc(S(=O)(=O)[O-])cc6)c6ccc([nH]6)c(-c6ccc(S(=O)(=O)[O-])cc6)c6nc(c(-c7ccc(S(=O)(=O)[O-])cc7)c7ccc4[nH]7)C=C6)C=C5)cc2)=C3)cc1
REMARK SMILES IDX 26 1 25 2 24 3 22 4 23 5 21 7 8 8 9 9 14 10 10 11 13 12
REMARK SMILES IDX 15 13 11 14 12 15 92 16 16 17 7 18 4 19 5 20 94 21 6 22
REMARK SMILES IDX 93 23 3 24 2 25 1 26 17 27 18 28 19 29 20 30 27 31 28 32
REMARK SMILES IDX 29 33 30 34 31 36 32 37 33 38 91 39 34 40 90 41 35 42 36 43
REMARK SMILES IDX 37 44 84 45 38 46 89 47 83 48 85 49 39 50 88 51 82 52 81 53
REMARK SMILES IDX 40 55 70 56 51 57 69 58 52 59 55 60 68 61 86 62 53 63 54 64
REMARK SMILES IDX 67 66 87 67 56 68 41 69 42 70 50 71 43 72 49 73 44 74 45 75
REMARK SMILES IDX 46 76 47 77 48 78 71 79 72 80 80 81 73 82 79 83 74 84 75 85
REMARK SMILES IDX 76 86 77 87 78 88 57 89 58 90 66 91 59 92 65 93 60 94 61 95
REMARK SMILES IDX 62 96 63 97 64 98
REMARK H PARENT 24 6 29 35 85 54 55 65
REMARK Flexibility Score: inf
ROOT
ATOM      1  C   UNL A   1      32.134  29.160  26.045  1.00  0.00     0.023 C 
ENDROOT
BRANCH   1   2
ATOM      2  C   UNL A   1      31.508  28.462  24.829  1.00  0.00     0.116 C 
BRANCH   2   3
ATOM      3  N   UNL A   1      31.068  27.136  25.203  1.00  0.00    -0.352 N 
ATOM      4  C   UNL A   1      31.152  25.976  24.513  1.00  0.00     0.251 C 
ATOM      5  O   UNL A   1      30.274  25.136  24.678  1.00  0.00    -0.270 OA
ATOM      6  H   UNL A   1      30.645  27.067  26.090  1.00  0.00     0.163 HD
BRANCH   4   7
ATOM      7  C   UNL A   1      32.361  25.727  23.670  1.00  0.00     0.067 C 
ATOM      8  C   UNL A   1      33.058  21.849  24.725  1.00  0.00     0.026 A 
ATOM      9  C   UNL A   1      32.915  21.783  26.135  1.00  0.00     0.033 A 
ATOM     10  C   UNL A   1      33.144  23.140  24.168  1.00  0.00     0.135 A 
ATOM     11  C   UNL A   1      33.053  22.901  26.954  1.00  0.00     0.042 A 
ATOM     12  C   UNL A   1      33.404  24.243  25.018  1.00  0.00     0.019 A 
ATOM     13  O   UNL A   1      32.928  23.407  22.823  1.00  0.00    -0.475 OA
ATOM     14  Cl  UNL A   1      32.853  22.742  28.652  1.00  0.00    -0.084 Cl
ATOM     15  C   UNL A   1      33.383  24.125  26.405  1.00  0.00     0.032 A 
ATOM     16  C   UNL A   1      33.485  25.586  24.403  1.00  0.00     0.025 C 
ATOM     17  C   UNL A   1      32.173  24.678  22.579  1.00  0.00     0.314 C 
BRANCH   8  18
ATOM     18  C   UNL A   1      33.355  20.547  24.068  1.00  0.00    -0.014 A 
ATOM     19  C   UNL A   1      33.404  17.730  23.691  1.00  0.00     0.119 A 
ATOM     20  C   UNL A   1      32.408  18.499  23.096  1.00  0.00     0.047 A 
ATOM     21  C   UNL A   1      34.437  18.367  24.370  1.00  0.00     0.047 A 
ATOM     22  C   UNL A   1      32.390  19.893  23.272  1.00  0.00     0.013 A 
ATOM     23  C   UNL A   1      34.415  19.760  24.553  1.00  0.00     0.013 A 
BRANCH  19  24
ATOM     24  O   UNL A   1      33.374  16.377  23.486  1.00  0.00    -0.494 OA
BRANCH  24  25
ATOM     25  C   UNL A   1      33.609  15.576  24.653  1.00  0.00     0.226 C 
ATOM     26  C   UNL A   1      32.371  15.490  25.533  1.00  0.00     0.049 C 
ENDBRANCH  24  25
ENDBRANCH  19  24
ENDBRANCH   8  18
BRANCH  17  27
ATOM     27  C   UNL A   1      32.553  25.316  21.223  1.00  0.00     0.429 C 
ATOM     28  F   UNL A   1      31.498  25.890  20.601  1.00  0.00    -0.167 F 
ATOM     29  F   UNL A   1      33.505  26.267  21.377  1.00  0.00    -0.167 F 
ATOM     30  F   UNL A   1      33.066  24.410  20.347  1.00  0.00    -0.167 F 
ENDBRANCH  17  27
ENDBRANCH   4   7
ENDBRANCH   2   3
ENDBRANCH   1   2
BRANCH   1  31
ATOM     31  C   UNL A   1      33.220  28.355  26.776  1.00  0.00     0.023 C 
BRANCH  31  32
ATOM     32  C   UNL A   1      34.549  29.079  26.947  1.00  0.00     0.116 C 
BRANCH  32  33
ATOM     33  N   UNL A   1      34.377  30.522  27.007  1.00  0.00    -0.352 N 
ATOM     34  C   UNL A   1      35.020  31.437  27.804  1.00  0.00     0.251 C 
ATOM     35  H   UNL A   1      33.705  30.894  26.391  1.00  0.00     0.163 HD
ATOM     36  O   UNL A   1      34.603  32.592  27.868  1.00  0.00    -0.269 OA
BRANCH  34  37
ATOM     37  C   UNL A   1      36.196  31.025  28.599  1.00  0.00     0.039 A 
ATOM     38  C   UNL A   1      36.098  29.901  29.423  1.00  0.00     0.014 A 
ATOM     39  C   UNL A   1      37.396  31.738  28.525  1.00  0.00     0.014 A 
ATOM     40  C   UNL A   1      37.224  29.452  30.119  1.00  0.00     0.010 A 
ATOM     41  C   UNL A   1      38.534  31.247  29.159  1.00  0.00     0.010 A 
ATOM     42  C   UNL A   1      38.462  30.098  29.962  1.00  0.00    -0.014 A 
BRANCH  42  43
ATOM     43  C   UNL A   1      39.693  29.580  30.615  1.00  0.00     0.031 A 
ATOM     44  C   UNL A   1      40.224  30.234  31.862  1.00  0.00     0.074 A 
ATOM     45  C   UNL A   1      40.371  28.562  30.047  1.00  0.00     0.049 A 
ATOM     46  N   UNL A   1      41.314  29.965  32.534  1.00  0.00    -0.248 NA
ATOM     47  C   UNL A   1      39.441  31.353  32.412  1.00  0.00     0.031 C 
ATOM     48  C   UNL A   1      39.984  27.866  28.818  1.00  0.00     0.029 A 
ATOM     49  N   UNL A   1      41.536  27.939  30.425  1.00  0.00    -0.354 N 
ATOM     50  C   UNL A   1      41.356  30.887  33.574  1.00  0.00     0.074 A 
ATOM     51  C   UNL A   1      40.210  31.755  33.414  1.00  0.00     0.031 C 
ATOM     52  C   UNL A   1      40.877  26.898  28.559  1.00  0.00     0.029 A 
ATOM     53  C   UNL A   1      41.926  26.932  29.574  1.00  0.00     0.049 A 
ATOM     54  H   UNL A   1      42.044  28.190  31.231  1.00  0.00     0.167 HD
ATOM     55  C   UNL A   1      42.256  30.991  34.581  1.00  0.00     0.031 A 
ATOM     56  C   UNL A   1      43.009  26.131  29.598  1.00  0.00     0.031 A 
ATOM     57  C   UNL A   1      43.392  30.122  34.740  1.00  0.00     0.049 A 
ATOM     58  C   UNL A   1      44.007  26.280  30.715  1.00  0.00     0.074 A 
ATOM     59  C   UNL A   1      44.331  30.113  35.758  1.00  0.00     0.029 A 
ATOM     60  N   UNL A   1      43.749  29.113  33.859  1.00  0.00    -0.354 N 
ATOM     61  N   UNL A   1      43.992  27.114  31.727  1.00  0.00    -0.248 NA
ATOM     62  C   UNL A   1      45.163  25.373  30.697  1.00  0.00     0.031 C 
ATOM     63  C   UNL A   1      45.287  29.137  35.460  1.00  0.00     0.029 A 
ATOM     64  C   UNL A   1      44.909  28.494  34.293  1.00  0.00     0.049 A 
ATOM     65  H   UNL A   1      43.251  28.872  33.044  1.00  0.00     0.167 HD
ATOM     66  C   UNL A   1      45.120  26.814  32.482  1.00  0.00     0.074 A 
ATOM     67  C   UNL A   1      45.786  25.711  31.819  1.00  0.00     0.031 C 
ATOM     68  C   UNL A   1      45.562  27.396  33.624  1.00  0.00     0.031 A 
BRANCH  55  69
ATOM     69  C   UNL A   1      42.053  32.095  35.588  1.00  0.00    -0.014 A 
ATOM     70  C   UNL A   1      41.299  31.883  36.757  1.00  0.00     0.010 A 
ATOM     71  C   UNL A   1      42.660  33.348  35.386  1.00  0.00     0.010 A 
ATOM     72  C   UNL A   1      41.120  32.916  37.681  1.00  0.00     0.020 A 
ATOM     73  C   UNL A   1      42.510  34.374  36.323  1.00  0.00     0.020 A 
ATOM     74  C   UNL A   1      41.725  34.157  37.456  1.00  0.00     0.054 A 
BRANCH  74  75
ATOM     75  S   UNL A   1      41.491  35.471  38.684  1.00  0.00     0.124 S 
ATOM     76  O   UNL A   1      40.382  34.947  39.478  1.00  0.00    -0.237 OA
ATOM     77  O   UNL A   1      42.784  35.508  39.362  1.00  0.00    -0.237 OA
ATOM     78  O   UNL A   1      41.179  36.648  37.878  1.00  0.00    -0.744 OA
ENDBRANCH  74  75
ENDBRANCH  55  69
BRANCH  56  79
ATOM     79  C   UNL A   1      43.203  25.107  28.533  1.00  0.00    -0.014 A 
ATOM     80  C   UNL A   1      43.970  25.397  27.392  1.00  0.00     0.010 A 
ATOM     81  C   UNL A   1      42.626  23.829  28.661  1.00  0.00     0.010 A 
ATOM     82  C   UNL A   1      44.144  24.436  26.391  1.00  0.00     0.020 A 
ATOM     83  C   UNL A   1      42.823  22.857  27.676  1.00  0.00     0.020 A 
ATOM     84  C   UNL A   1      43.571  23.171  26.541  1.00  0.00     0.054 A 
BRANCH  84  85
ATOM     85  S   UNL A   1      43.851  21.925  25.252  1.00  0.00     0.124 S 
ATOM     86  O   UNL A   1      45.204  21.469  25.559  1.00  0.00    -0.237 OA
ATOM     87  O   UNL A   1      42.784  20.962  25.509  1.00  0.00    -0.237 OA
ATOM     88  O   UNL A   1      43.711  22.681  24.010  1.00  0.00    -0.744 OA
ENDBRANCH  84  85
ENDBRANCH  56  79
BRANCH  68  89
ATOM     89  C   UNL A   1      46.809  26.833  34.256  1.00  0.00    -0.014 A 
ATOM     90  C   UNL A   1      46.749  25.767  35.170  1.00  0.00     0.010 A 
ATOM     91  C   UNL A   1      48.065  27.341  33.877  1.00  0.00     0.010 A 
ATOM     92  C   UNL A   1      47.922  25.238  35.715  1.00  0.00     0.020 A 
ATOM     93  C   UNL A   1      49.242  26.794  34.397  1.00  0.00     0.020 A 
ATOM     94  C   UNL A   1      49.161  25.754  35.323  1.00  0.00     0.054 A 
BRANCH  94  95
ATOM     95  S   UNL A   1      50.670  25.014  36.006  1.00  0.00     0.124 S 
ATOM     96  O   UNL A   1      51.094  24.131  34.922  1.00  0.00    -0.237 OA
ATOM     97  O   UNL A   1      51.521  26.178  36.237  1.00  0.00    -0.237 OA
ATOM     98  O   UNL A   1      50.208  24.337  37.215  1.00  0.00    -0.744 OA
ENDBRANCH  94  95
ENDBRANCH  68  89
ENDBRANCH  42  43
ENDBRANCH  34  37
ENDBRANCH  32  33
ENDBRANCH  31  32
ENDBRANCH   1  31
TORSDOF 18
ENDMDL
MODEL 3
REMARK VINA RESULT:     -11.2      4.404      5.633
REMARK SMILES CCOc1ccc(-c2cc(Cl)cc3c2O[C@H](C(F)(F)F)C(C(=O)NCCCCNC(=O)c2ccc(-c4c5nc(c(-c6ccc(S(=O)(=O)[O-])cc6)c6ccc([nH]6)c(-c6ccc(S(=O)(=O)[O-])cc6)c6nc(c(-c7ccc(S(=O)(=O)[O-])cc7)c7ccc4[nH]7)C=C6)C=C5)cc2)=C3)cc1
REMARK SMILES IDX 26 1 25 2 24 3 22 4 23 5 21 7 8 8 9 9 14 10 10 11 13 12
REMARK SMILES IDX 15 13 11 14 12 15 92 16 16 17 7 18 4 19 5 20 94 21 6 22
REMARK SMILES IDX 93 23 3 24 2 25 1 26 17 27 18 28 19 29 20 30 27 31 28 32
REMARK SMILES IDX 29 33 30 34 31 36 32 37 33 38 91 39 34 40 90 41 35 42 36 43
REMARK SMILES IDX 37 44 84 45 38 46 89 47 83 48 85 49 39 50 88 51 82 52 81 53
REMARK SMILES IDX 40 55 70 56 51 57 69 58 52 59 55 60 68 61 86 62 53 63 54 64
REMARK SMILES IDX 67 66 87 67 56 68 41 69 42 70 50 71 43 72 49 73 44 74 45 75
REMARK SMILES IDX 46 76 47 77 48 78 71 79 72 80 80 81 73 82 79 83 74 84 75 85
REMARK SMILES IDX 76 86 77 87 78 88 57 89 58 90 66 91 59 92 65 93 60 94 61 95
REMARK SMILES IDX 62 96 63 97 64 98
REMARK H PARENT 24 6 29 35 85 54 55 65
REMARK Flexibility Score: inf
ROOT
ATOM      1  C   UNL A   1      32.042  30.600  26.086  1.00  0.00     0.023 C 
ENDROOT
BRANCH   1   2
ATOM      2  C   UNL A   1      31.160  30.188  24.898  1.00  0.00     0.116 C 
BRANCH   2   3
ATOM      3  N   UNL A   1      31.950  29.438  23.944  1.00  0.00    -0.352 N 
ATOM      4  C   UNL A   1      32.327  28.141  23.973  1.00  0.00     0.251 C 
ATOM      5  O   UNL A   1      33.399  27.835  23.462  1.00  0.00    -0.270 OA
ATOM      6  H   UNL A   1      32.256  29.948  23.159  1.00  0.00     0.163 HD
BRANCH   4   7
ATOM      7  C   UNL A   1      31.376  27.127  24.526  1.00  0.00     0.067 C 
ATOM      8  C   UNL A   1      32.838  23.820  22.638  1.00  0.00     0.026 A 
ATOM      9  C   UNL A   1      33.070  24.195  21.289  1.00  0.00     0.033 A 
ATOM     10  C   UNL A   1      32.068  24.713  23.409  1.00  0.00     0.135 A 
ATOM     11  C   UNL A   1      32.418  25.270  20.690  1.00  0.00     0.042 A 
ATOM     12  C   UNL A   1      31.322  25.724  22.754  1.00  0.00     0.019 A 
ATOM     13  O   UNL A   1      32.044  24.698  24.797  1.00  0.00    -0.475 OA
ATOM     14  Cl  UNL A   1      32.761  25.669  19.055  1.00  0.00    -0.084 Cl
ATOM     15  C   UNL A   1      31.475  25.991  21.397  1.00  0.00     0.032 A 
ATOM     16  C   UNL A   1      30.528  26.649  23.593  1.00  0.00     0.025 C 
ATOM     17  C   UNL A   1      32.020  26.064  25.411  1.00  0.00     0.314 C 
BRANCH   8  18
ATOM     18  C   UNL A   1      33.220  22.420  22.969  1.00  0.00    -0.014 A 
ATOM     19  C   UNL A   1      33.404  20.021  24.481  1.00  0.00     0.119 A 
ATOM     20  C   UNL A   1      32.406  20.169  23.524  1.00  0.00     0.047 A 
ATOM     21  C   UNL A   1      34.378  21.007  24.605  1.00  0.00     0.047 A 
ATOM     22  C   UNL A   1      32.321  21.350  22.767  1.00  0.00     0.013 A 
ATOM     23  C   UNL A   1      34.289  22.191  23.854  1.00  0.00     0.013 A 
BRANCH  19  24
ATOM     24  O   UNL A   1      33.440  18.850  25.189  1.00  0.00    -0.494 OA
BRANCH  24  25
ATOM     25  C   UNL A   1      33.026  17.683  24.464  1.00  0.00     0.226 C 
ATOM     26  C   UNL A   1      34.206  16.778  24.140  1.00  0.00     0.049 C 
ENDBRANCH  24  25
ENDBRANCH  19  24
ENDBRANCH   8  18
BRANCH  17  27
ATOM     27  C   UNL A   1      31.294  26.064  26.775  1.00  0.00     0.429 C 
ATOM     28  F   UNL A   1      31.777  27.001  27.624  1.00  0.00    -0.167 F 
ATOM     29  F   UNL A   1      29.967  26.294  26.625  1.00  0.00    -0.167 F 
ATOM     30  F   UNL A   1      31.399  24.873  27.421  1.00  0.00    -0.167 F 
ENDBRANCH  17  27
ENDBRANCH   4   7
ENDBRANCH   2   3
ENDBRANCH   1   2
BRANCH   1  31
ATOM     31  C   UNL A   1      31.739  31.984  26.679  1.00  0.00     0.023 C 
BRANCH  31  32
ATOM     32  C   UNL A   1      32.873  32.597  27.490  1.00  0.00     0.116 C 
BRANCH  32  33
ATOM     33  N   UNL A   1      32.635  34.002  27.778  1.00  0.00    -0.352 N 
ATOM     34  C   UNL A   1      33.185  34.789  28.760  1.00  0.00     0.251 C 
ATOM     35  H   UNL A   1      31.991  34.453  27.186  1.00  0.00     0.163 HD
ATOM     36  O   UNL A   1      32.716  35.903  28.986  1.00  0.00    -0.269 OA
BRANCH  34  37
ATOM     37  C   UNL A   1      34.323  34.284  29.558  1.00  0.00     0.039 A 
ATOM     38  C   UNL A   1      34.070  33.668  30.786  1.00  0.00     0.014 A 
ATOM     39  C   UNL A   1      35.635  34.408  29.093  1.00  0.00     0.014 A 
ATOM     40  C   UNL A   1      35.127  33.115  31.514  1.00  0.00     0.010 A 
ATOM     41  C   UNL A   1      36.676  33.792  29.782  1.00  0.00     0.010 A 
ATOM     42  C   UNL A   1      36.435  33.137  30.999  1.00  0.00    -0.014 A 
BRANCH  42  43
ATOM     43  C   UNL A   1      37.558  32.470  31.709  1.00  0.00     0.031 A 
ATOM     44  C   UNL A   1      38.046  33.003  33.029  1.00  0.00     0.074 A 
ATOM     45  C   UNL A   1      38.183  31.423  31.133  1.00  0.00     0.049 A 
ATOM     46  N   UNL A   1      39.049  32.595  33.762  1.00  0.00    -0.248 NA
ATOM     47  C   UNL A   1      37.327  34.161  33.586  1.00  0.00     0.031 C 
ATOM     48  C   UNL A   1      37.833  30.833  29.838  1.00  0.00     0.029 A 
ATOM     49  N   UNL A   1      39.252  30.673  31.558  1.00  0.00    -0.354 N 
ATOM     50  C   UNL A   1      39.093  33.453  34.856  1.00  0.00     0.074 A 
ATOM     51  C   UNL A   1      38.047  34.434  34.665  1.00  0.00     0.031 C 
ATOM     52  C   UNL A   1      38.652  29.799  29.588  1.00  0.00     0.029 A 
ATOM     53  C   UNL A   1      39.615  29.679  30.678  1.00  0.00     0.049 A 
ATOM     54  H   UNL A   1      39.715  30.830  32.412  1.00  0.00     0.167 HD
ATOM     55  C   UNL A   1      39.916  33.417  35.932  1.00  0.00     0.031 A 
ATOM     56  C   UNL A   1      40.615  28.778  30.734  1.00  0.00     0.031 A 
ATOM     57  C   UNL A   1      40.952  32.436  36.122  1.00  0.00     0.049 A 
ATOM     58  C   UNL A   1      41.531  28.772  31.929  1.00  0.00     0.074 A 
ATOM     59  C   UNL A   1      41.802  32.282  37.204  1.00  0.00     0.029 A 
ATOM     60  N   UNL A   1      41.283  31.445  35.210  1.00  0.00    -0.354 N 
ATOM     61  N   UNL A   1      41.511  29.548  32.986  1.00  0.00    -0.248 NA
ATOM     62  C   UNL A   1      42.597  27.760  31.943  1.00  0.00     0.031 C 
ATOM     63  C   UNL A   1      42.686  31.237  36.920  1.00  0.00     0.029 A 
ATOM     64  C   UNL A   1      42.344  30.696  35.692  1.00  0.00     0.049 A 
ATOM     65  H   UNL A   1      40.832  31.297  34.348  1.00  0.00     0.167 HD
ATOM     66  C   UNL A   1      42.544  29.101  33.803  1.00  0.00     0.074 A 
ATOM     67  C   UNL A   1      43.157  27.977  33.126  1.00  0.00     0.031 C 
ATOM     68  C   UNL A   1      42.945  29.578  35.008  1.00  0.00     0.031 A 
BRANCH  55  69
ATOM     69  C   UNL A   1      39.735  34.480  36.986  1.00  0.00    -0.014 A 
ATOM     70  C   UNL A   1      38.990  34.228  38.153  1.00  0.00     0.010 A 
ATOM     71  C   UNL A   1      40.354  35.733  36.829  1.00  0.00     0.010 A 
ATOM     72  C   UNL A   1      38.832  35.224  39.120  1.00  0.00     0.020 A 
ATOM     73  C   UNL A   1      40.225  36.722  37.809  1.00  0.00     0.020 A 
ATOM     74  C   UNL A   1      39.448  36.466  38.941  1.00  0.00     0.054 A 
BRANCH  74  75
ATOM     75  S   UNL A   1      39.242  37.731  40.224  1.00  0.00     0.124 S 
ATOM     76  O   UNL A   1      40.569  38.341  40.260  1.00  0.00    -0.237 OA
ATOM     77  O   UNL A   1      38.180  38.571  39.677  1.00  0.00    -0.237 OA
ATOM     78  O   UNL A   1      38.877  36.963  41.413  1.00  0.00    -0.744 OA
ENDBRANCH  74  75
ENDBRANCH  55  69
BRANCH  56  79
ATOM     79  C   UNL A   1      40.798  27.798  29.627  1.00  0.00    -0.014 A 
ATOM     80  C   UNL A   1      41.875  27.923  28.732  1.00  0.00     0.010 A 
ATOM     81  C   UNL A   1      39.900  26.725  29.469  1.00  0.00     0.010 A 
ATOM     82  C   UNL A   1      42.039  27.006  27.689  1.00  0.00     0.020 A 
ATOM     83  C   UNL A   1      40.079  25.790  28.446  1.00  0.00     0.020 A 
ATOM     84  C   UNL A   1      41.142  25.943  27.555  1.00  0.00     0.054 A 
BRANCH  84  85
ATOM     85  S   UNL A   1      41.405  24.738  26.224  1.00  0.00     0.124 S 
ATOM     86  O   UNL A   1      41.374  25.586  25.036  1.00  0.00    -0.237 OA
ATOM     87  O   UNL A   1      42.708  24.173  26.565  1.00  0.00    -0.237 OA
ATOM     88  O   UNL A   1      40.279  23.819  26.368  1.00  0.00    -0.744 OA
ENDBRANCH  84  85
ENDBRANCH  56  79
BRANCH  68  89
ATOM     89  C   UNL A   1      44.082  28.866  35.695  1.00  0.00    -0.014 A 
ATOM     90  C   UNL A   1      43.851  27.769  36.544  1.00  0.00     0.010 A 
ATOM     91  C   UNL A   1      45.405  29.264  35.434  1.00  0.00     0.010 A 
ATOM     92  C   UNL A   1      44.924  27.102  37.142  1.00  0.00     0.020 A 
ATOM     93  C   UNL A   1      46.482  28.579  36.005  1.00  0.00     0.020 A 
ATOM     94  C   UNL A   1      46.233  27.510  36.866  1.00  0.00     0.054 A 
BRANCH  94  95
ATOM     95  S   UNL A   1      47.608  26.593  37.614  1.00  0.00     0.124 S 
ATOM     96  O   UNL A   1      47.963  27.445  38.745  1.00  0.00    -0.237 OA
ATOM     97  O   UNL A   1      46.990  25.316  37.959  1.00  0.00    -0.237 OA
ATOM     98  O   UNL A   1      48.603  26.529  36.546  1.00  0.00    -0.744 OA
ENDBRANCH  94  95
ENDBRANCH  68  89
ENDBRANCH  42  43
ENDBRANCH  34  37
ENDBRANCH  32  33
ENDBRANCH  31  32
ENDBRANCH   1  31
TORSDOF 18
ENDMDL
