MODEL 1
REMARK VINA RESULT:      -9.5      0.000      0.000
REMARK SMILES Cc1cc(Nc2ccc(C(=O)NCCCCNC(=O)c3ccc(-c4c5nc(c(-c6ccc(S(=O)(=O)[O-])cc6)c6ccc([nH]6)c(-c6ccc(S(=O)(=O)[O-])cc6)c6nc(c(-c7ccc(S(=O)(=O)[O-])cc7)c7ccc4[nH]7)C=C6)C=C5)cc3)cc2)nc(-n2nc(C)cc2C)n1
REMARK SMILES IDX 14 1 13 2 12 3 10 4 11 5 9 7 6 8 7 9 81 10 8 11 80 12 5 13
REMARK SMILES IDX 4 15 1 16 2 17 3 18 91 19 83 20 82 21 84 22 85 23 89 24
REMARK SMILES IDX 86 25 88 26 90 27 87 28 15 29 16 30 17 31 18 32 19 34 20 35
REMARK SMILES IDX 21 36 79 37 22 38 78 39 23 40 24 41 25 42 72 43 26 44 77 45
REMARK SMILES IDX 71 46 73 47 27 48 76 49 70 50 69 51 28 53 58 54 39 55 57 56
REMARK SMILES IDX 40 57 43 58 56 59 74 60 41 61 42 62 55 64 75 65 44 66 29 67
REMARK SMILES IDX 30 68 38 69 31 70 37 71 32 72 33 73 34 74 35 75 36 76 59 77
REMARK SMILES IDX 60 78 68 79 61 80 67 81 62 82 63 83 64 84 65 85 66 86 45 87
REMARK SMILES IDX 46 88 54 89 47 90 53 91 48 92 49 93 50 94 51 95 52 96
REMARK H PARENT 12 6 5 14 17 33 73 52 43 63
REMARK Flexibility Score: inf
ROOT
ATOM      1  C   UNL A   1      42.275  19.878  26.177  1.00  0.00     0.023 C 
ENDROOT
BRANCH   1   2
ATOM      2  C   UNL A   1      43.066  21.076  25.647  1.00  0.00     0.116 C 
BRANCH   2   3
ATOM      3  N   UNL A   1      44.445  20.702  25.388  1.00  0.00    -0.352 N 
ATOM      4  C   UNL A   1      45.618  21.410  25.459  1.00  0.00     0.251 C 
ATOM      5  O   UNL A   1      46.666  20.816  25.202  1.00  0.00    -0.269 OA
ATOM      6  H   UNL A   1      44.560  19.765  25.110  1.00  0.00     0.163 HD
BRANCH   4   7
ATOM      7  C   UNL A   1      45.689  22.837  25.883  1.00  0.00     0.039 A 
ATOM      8  C   UNL A   1      45.968  25.572  26.536  1.00  0.00     0.040 A 
ATOM      9  C   UNL A   1      46.115  25.145  25.215  1.00  0.00     0.027 A 
ATOM     10  C   UNL A   1      45.644  24.627  27.513  1.00  0.00     0.027 A 
ATOM     11  C   UNL A   1      45.986  23.787  24.893  1.00  0.00     0.016 A 
ATOM     12  C   UNL A   1      45.459  23.283  27.183  1.00  0.00     0.016 A 
BRANCH   8  13
ATOM     13  N   UNL A   1      46.195  26.908  26.895  1.00  0.00    -0.340 N 
ATOM     14  H   UNL A   1      47.065  27.121  27.304  1.00  0.00     0.168 HD
BRANCH  13  15
ATOM     15  C   UNL A   1      45.289  27.970  26.722  1.00  0.00     0.136 A 
ATOM     16  C   UNL A   1      41.849  28.590  25.369  1.00  0.00     0.067 C 
ATOM     17  C   UNL A   1      43.149  28.739  26.099  1.00  0.00     0.045 A 
ATOM     18  C   UNL A   1      44.083  27.721  26.099  1.00  0.00     0.070 A 
ATOM     19  N   UNL A   1      43.378  29.926  26.693  1.00  0.00    -0.216 NA
ATOM     20  C   UNL A   1      44.612  30.121  27.210  1.00  0.00     0.252 A 
ATOM     21  N   UNL A   1      45.575  29.178  27.233  1.00  0.00    -0.194 NA
BRANCH  20  22
ATOM     22  N   UNL A   1      44.923  31.425  27.735  1.00  0.00    -0.203 N 
ATOM     23  N   UNL A   1      44.034  32.459  27.644  1.00  0.00    -0.170 NA
ATOM     24  C   UNL A   1      46.065  31.808  28.431  1.00  0.00     0.045 A 
ATOM     25  C   UNL A   1      44.540  33.416  28.428  1.00  0.00     0.060 A 
ATOM     26  C   UNL A   1      45.817  33.075  28.912  1.00  0.00     0.049 A 
ATOM     27  C   UNL A   1      47.292  30.979  28.510  1.00  0.00     0.067 C 
ATOM     28  C   UNL A   1      43.769  34.657  28.688  1.00  0.00     0.069 C 
ENDBRANCH  20  22
ENDBRANCH  13  15
ENDBRANCH   8  13
ENDBRANCH   4   7
ENDBRANCH   2   3
ENDBRANCH   1   2
BRANCH   1  29
ATOM     29  C   UNL A   1      41.503  20.160  27.470  1.00  0.00     0.023 C 
BRANCH  29  30
ATOM     30  C   UNL A   1      40.817  21.521  27.526  1.00  0.00     0.116 C 
BRANCH  30  31
ATOM     31  N   UNL A   1      39.692  21.631  26.610  1.00  0.00    -0.352 N 
ATOM     32  C   UNL A   1      38.935  22.739  26.308  1.00  0.00     0.251 C 
ATOM     33  H   UNL A   1      39.440  20.801  26.143  1.00  0.00     0.163 HD
ATOM     34  O   UNL A   1      37.947  22.634  25.596  1.00  0.00    -0.269 OA
BRANCH  32  35
ATOM     35  C   UNL A   1      39.305  24.047  26.889  1.00  0.00     0.039 A 
ATOM     36  C   UNL A   1      38.807  24.386  28.149  1.00  0.00     0.014 A 
ATOM     37  C   UNL A   1      40.156  24.921  26.207  1.00  0.00     0.014 A 
ATOM     38  C   UNL A   1      39.217  25.574  28.757  1.00  0.00     0.010 A 
ATOM     39  C   UNL A   1      40.611  26.075  26.839  1.00  0.00     0.010 A 
ATOM     40  C   UNL A   1      40.149  26.410  28.121  1.00  0.00    -0.014 A 
BRANCH  40  41
ATOM     41  C   UNL A   1      40.662  27.634  28.787  1.00  0.00     0.031 A 
ATOM     42  C   UNL A   1      42.049  27.655  29.367  1.00  0.00     0.074 A 
ATOM     43  C   UNL A   1      39.852  28.702  28.929  1.00  0.00     0.049 A 
ATOM     44  N   UNL A   1      42.645  28.604  30.040  1.00  0.00    -0.248 NA
ATOM     45  C   UNL A   1      42.863  26.442  29.186  1.00  0.00     0.031 C 
ATOM     46  C   UNL A   1      38.470  28.789  28.451  1.00  0.00     0.029 A 
ATOM     47  N   UNL A   1      40.073  29.918  29.526  1.00  0.00    -0.354 N 
ATOM     48  C   UNL A   1      43.898  28.101  30.375  1.00  0.00     0.074 A 
ATOM     49  C   UNL A   1      43.955  26.745  29.872  1.00  0.00     0.031 C 
ATOM     50  C   UNL A   1      37.973  29.998  28.759  1.00  0.00     0.029 A 
ATOM     51  C   UNL A   1      38.985  30.758  29.485  1.00  0.00     0.049 A 
ATOM     52  H   UNL A   1      40.929  30.166  29.945  1.00  0.00     0.167 HD
ATOM     53  C   UNL A   1      44.915  28.717  31.023  1.00  0.00     0.031 A 
ATOM     54  C   UNL A   1      38.816  32.000  29.981  1.00  0.00     0.031 A 
ATOM     55  C   UNL A   1      44.857  30.067  31.517  1.00  0.00     0.049 A 
ATOM     56  C   UNL A   1      39.961  32.664  30.695  1.00  0.00     0.074 A 
ATOM     57  C   UNL A   1      45.849  30.795  32.150  1.00  0.00     0.029 A 
ATOM     58  N   UNL A   1      43.746  30.894  31.431  1.00  0.00    -0.354 N 
ATOM     59  N   UNL A   1      41.157  32.192  30.951  1.00  0.00    -0.248 NA
ATOM     60  C   UNL A   1      39.737  34.035  31.176  1.00  0.00     0.031 C 
ATOM     61  C   UNL A   1      45.326  32.050  32.482  1.00  0.00     0.029 A 
ATOM     62  C   UNL A   1      44.024  32.120  32.010  1.00  0.00     0.049 A 
ATOM     63  H   UNL A   1      42.888  30.646  31.018  1.00  0.00     0.167 HD
ATOM     64  C   UNL A   1      41.837  33.216  31.602  1.00  0.00     0.074 A 
ATOM     65  C   UNL A   1      40.923  34.337  31.686  1.00  0.00     0.031 C 
ATOM     66  C   UNL A   1      43.103  33.226  32.085  1.00  0.00     0.031 A 
BRANCH  53  67
ATOM     67  C   UNL A   1      46.179  27.928  31.233  1.00  0.00    -0.014 A 
ATOM     68  C   UNL A   1      47.243  28.014  30.315  1.00  0.00     0.010 A 
ATOM     69  C   UNL A   1      46.322  27.114  32.370  1.00  0.00     0.010 A 
ATOM     70  C   UNL A   1      48.406  27.265  30.507  1.00  0.00     0.020 A 
ATOM     71  C   UNL A   1      47.496  26.384  32.581  1.00  0.00     0.020 A 
ATOM     72  C   UNL A   1      48.524  26.450  31.637  1.00  0.00     0.054 A 
BRANCH  72  73
ATOM     73  S   UNL A   1      50.051  25.500  31.869  1.00  0.00     0.124 S 
ATOM     74  O   UNL A   1      51.060  26.556  31.903  1.00  0.00    -0.237 OA
ATOM     75  O   UNL A   1      49.815  24.816  33.138  1.00  0.00    -0.237 OA
ATOM     76  O   UNL A   1      50.099  24.631  30.696  1.00  0.00    -0.744 OA
ENDBRANCH  72  73
ENDBRANCH  53  67
BRANCH  54  77
ATOM     77  C   UNL A   1      37.515  32.697  29.807  1.00  0.00    -0.014 A 
ATOM     78  C   UNL A   1      37.259  33.454  28.650  1.00  0.00     0.010 A 
ATOM     79  C   UNL A   1      36.515  32.595  30.793  1.00  0.00     0.010 A 
ATOM     80  C   UNL A   1      36.035  34.110  28.489  1.00  0.00     0.020 A 
ATOM     81  C   UNL A   1      35.282  33.230  30.623  1.00  0.00     0.020 A 
ATOM     82  C   UNL A   1      35.054  33.994  29.478  1.00  0.00     0.054 A 
BRANCH  82  83
ATOM     83  S   UNL A   1      33.453  34.811  29.225  1.00  0.00     0.124 S 
ATOM     84  O   UNL A   1      32.796  33.905  28.289  1.00  0.00    -0.237 OA
ATOM     85  O   UNL A   1      32.896  34.842  30.575  1.00  0.00    -0.237 OA
ATOM     86  O   UNL A   1      33.821  36.117  28.682  1.00  0.00    -0.744 OA
ENDBRANCH  82  83
ENDBRANCH  54  77
BRANCH  66  87
ATOM     87  C   UNL A   1      43.589  34.500  32.723  1.00  0.00    -0.014 A 
ATOM     88  C   UNL A   1      43.347  34.773  34.079  1.00  0.00     0.010 A 
ATOM     89  C   UNL A   1      44.347  35.409  31.963  1.00  0.00     0.010 A 
ATOM     90  C   UNL A   1      43.830  35.949  34.659  1.00  0.00     0.020 A 
ATOM     91  C   UNL A   1      44.853  36.574  32.546  1.00  0.00     0.020 A 
ATOM     92  C   UNL A   1      44.580  36.843  33.888  1.00  0.00     0.054 A 
BRANCH  92  93
ATOM     93  S   UNL A   1      45.236  38.339  34.674  1.00  0.00     0.124 S 
ATOM     94  O   UNL A   1      44.056  39.199  34.723  1.00  0.00    -0.237 OA
ATOM     95  O   UNL A   1      45.707  37.846  35.965  1.00  0.00    -0.237 OA
ATOM     96  O   UNL A   1      46.289  38.777  33.760  1.00  0.00    -0.744 OA
ENDBRANCH  92  93
ENDBRANCH  66  87
ENDBRANCH  40  41
ENDBRANCH  32  35
ENDBRANCH  30  31
ENDBRANCH  29  30
ENDBRANCH   1  29
TORSDOF 17
ENDMDL
MODEL 2
REMARK VINA RESULT:      -9.5      3.150     10.212
REMARK SMILES Cc1cc(Nc2ccc(C(=O)NCCCCNC(=O)c3ccc(-c4c5nc(c(-c6ccc(S(=O)(=O)[O-])cc6)c6ccc([nH]6)c(-c6ccc(S(=O)(=O)[O-])cc6)c6nc(c(-c7ccc(S(=O)(=O)[O-])cc7)c7ccc4[nH]7)C=C6)C=C5)cc3)cc2)nc(-n2nc(C)cc2C)n1
REMARK SMILES IDX 14 1 13 2 12 3 10 4 11 5 9 7 6 8 7 9 81 10 8 11 80 12 5 13
REMARK SMILES IDX 4 15 1 16 2 17 3 18 91 19 83 20 82 21 84 22 85 23 89 24
REMARK SMILES IDX 86 25 88 26 90 27 87 28 15 29 16 30 17 31 18 32 19 34 20 35
REMARK SMILES IDX 21 36 79 37 22 38 78 39 23 40 24 41 25 42 72 43 26 44 77 45
REMARK SMILES IDX 71 46 73 47 27 48 76 49 70 50 69 51 28 53 58 54 39 55 57 56
REMARK SMILES IDX 40 57 43 58 56 59 74 60 41 61 42 62 55 64 75 65 44 66 29 67
REMARK SMILES IDX 30 68 38 69 31 70 37 71 32 72 33 73 34 74 35 75 36 76 59 77
REMARK SMILES IDX 60 78 68 79 61 80 67 81 62 82 63 83 64 84 65 85 66 86 45 87
REMARK SMILES IDX 46 88 54 89 47 90 53 91 48 92 49 93 50 94 51 95 52 96
REMARK H PARENT 12 6 5 14 17 33 73 52 43 63
REMARK Flexibility Score: inf
ROOT
ATOM      1  C   UNL A   1      34.414  35.136  28.876  1.00  0.00     0.023 C 
ENDROOT
BRANCH   1   2
ATOM      2  C   UNL A   1      33.436  34.875  30.024  1.00  0.00     0.116 C 
BRANCH   2   3
ATOM      3  N   UNL A   1      33.779  35.685  31.179  1.00  0.00    -0.352 N 
ATOM      4  C   UNL A   1      34.669  35.491  32.206  1.00  0.00     0.251 C 
ATOM      5  O   UNL A   1      34.771  36.377  33.054  1.00  0.00    -0.269 OA
ATOM      6  H   UNL A   1      33.282  36.532  31.236  1.00  0.00     0.163 HD
BRANCH   4   7
ATOM      7  C   UNL A   1      35.548  34.292  32.311  1.00  0.00     0.039 A 
ATOM      8  C   UNL A   1      37.140  31.991  32.706  1.00  0.00     0.040 A 
ATOM      9  C   UNL A   1      35.873  32.079  33.284  1.00  0.00     0.027 A 
ATOM     10  C   UNL A   1      37.583  33.044  31.901  1.00  0.00     0.027 A 
ATOM     11  C   UNL A   1      35.088  33.224  33.097  1.00  0.00     0.016 A 
ATOM     12  C   UNL A   1      36.777  34.161  31.667  1.00  0.00     0.016 A 
BRANCH   8  13
ATOM     13  N   UNL A   1      37.981  30.900  32.965  1.00  0.00    -0.340 N 
ATOM     14  H   UNL A   1      37.790  30.062  32.486  1.00  0.00     0.168 HD
BRANCH  13  15
ATOM     15  C   UNL A   1      39.074  30.899  33.851  1.00  0.00     0.136 A 
ATOM     16  C   UNL A   1      40.894  33.248  36.135  1.00  0.00     0.067 C 
ATOM     17  C   UNL A   1      40.387  32.007  35.466  1.00  0.00     0.045 A 
ATOM     18  C   UNL A   1      39.425  32.078  34.478  1.00  0.00     0.070 A 
ATOM     19  N   UNL A   1      40.958  30.844  35.832  1.00  0.00    -0.216 NA
ATOM     20  C   UNL A   1      40.621  29.747  35.117  1.00  0.00     0.252 A 
ATOM     21  N   UNL A   1      39.701  29.745  34.132  1.00  0.00    -0.194 NA
BRANCH  20  22
ATOM     22  N   UNL A   1      41.313  28.518  35.405  1.00  0.00    -0.203 N 
ATOM     23  N   UNL A   1      41.152  27.872  36.599  1.00  0.00    -0.170 NA
ATOM     24  C   UNL A   1      42.148  27.798  34.557  1.00  0.00     0.045 A 
ATOM     25  C   UNL A   1      41.734  26.681  36.426  1.00  0.00     0.060 A 
ATOM     26  C   UNL A   1      42.397  26.598  35.187  1.00  0.00     0.049 A 
ATOM     27  C   UNL A   1      42.682  28.335  33.281  1.00  0.00     0.067 C 
ATOM     28  C   UNL A   1      41.638  25.641  37.480  1.00  0.00     0.069 C 
ENDBRANCH  20  22
ENDBRANCH  13  15
ENDBRANCH   8  13
ENDBRANCH   4   7
ENDBRANCH   2   3
ENDBRANCH   1   2
BRANCH   1  29
ATOM     29  C   UNL A   1      34.977  33.865  28.232  1.00  0.00     0.023 C 
BRANCH  29  30
ATOM     30  C   UNL A   1      34.879  32.610  29.093  1.00  0.00     0.116 C 
BRANCH  30  31
ATOM     31  N   UNL A   1      34.089  31.555  28.477  1.00  0.00    -0.352 N 
ATOM     32  C   UNL A   1      34.498  30.312  28.052  1.00  0.00     0.251 C 
ATOM     33  H   UNL A   1      33.134  31.758  28.348  1.00  0.00     0.163 HD
ATOM     34  O   UNL A   1      33.725  29.583  27.449  1.00  0.00    -0.269 OA
BRANCH  32  35
ATOM     35  C   UNL A   1      35.894  29.888  28.296  1.00  0.00     0.039 A 
ATOM     36  C   UNL A   1      36.826  30.027  27.265  1.00  0.00     0.014 A 
ATOM     37  C   UNL A   1      36.284  29.380  29.538  1.00  0.00     0.014 A 
ATOM     38  C   UNL A   1      38.168  29.721  27.502  1.00  0.00     0.010 A 
ATOM     39  C   UNL A   1      37.631  29.133  29.790  1.00  0.00     0.010 A 
ATOM     40  C   UNL A   1      38.585  29.305  28.776  1.00  0.00    -0.014 A 
BRANCH  40  41
ATOM     41  C   UNL A   1      40.018  29.055  29.072  1.00  0.00     0.031 A 
ATOM     42  C   UNL A   1      40.636  27.722  28.753  1.00  0.00     0.074 A 
ATOM     43  C   UNL A   1      40.745  30.007  29.691  1.00  0.00     0.049 A 
ATOM     44  N   UNL A   1      41.848  27.296  28.997  1.00  0.00    -0.248 NA
ATOM     45  C   UNL A   1      39.770  26.730  28.094  1.00  0.00     0.031 C 
ATOM     46  C   UNL A   1      40.248  31.324  30.095  1.00  0.00     0.029 A 
ATOM     47  N   UNL A   1      42.056  30.008  30.098  1.00  0.00    -0.354 N 
ATOM     48  C   UNL A   1      41.889  25.985  28.534  1.00  0.00     0.074 A 
ATOM     49  C   UNL A   1      40.565  25.671  28.040  1.00  0.00     0.031 C 
ATOM     50  C   UNL A   1      41.246  32.011  30.676  1.00  0.00     0.029 A 
ATOM     51  C   UNL A   1      42.440  31.173  30.718  1.00  0.00     0.049 A 
ATOM     52  H   UNL A   1      42.664  29.246  29.959  1.00  0.00     0.167 HD
ATOM     53  C   UNL A   1      42.937  25.128  28.504  1.00  0.00     0.031 A 
ATOM     54  C   UNL A   1      43.619  31.528  31.266  1.00  0.00     0.031 A 
ATOM     55  C   UNL A   1      44.253  25.445  28.991  1.00  0.00     0.049 A 
ATOM     56  C   UNL A   1      44.769  30.560  31.219  1.00  0.00     0.074 A 
ATOM     57  C   UNL A   1      45.392  24.659  28.967  1.00  0.00     0.029 A 
ATOM     58  N   UNL A   1      44.608  26.646  29.587  1.00  0.00    -0.354 N 
ATOM     59  N   UNL A   1      44.803  29.345  30.725  1.00  0.00    -0.248 NA
ATOM     60  C   UNL A   1      46.043  31.016  31.790  1.00  0.00     0.031 C 
ATOM     61  C   UNL A   1      46.427  25.371  29.583  1.00  0.00     0.029 A 
ATOM     62  C   UNL A   1      45.944  26.619  29.946  1.00  0.00     0.049 A 
ATOM     63  H   UNL A   1      44.000  27.407  29.732  1.00  0.00     0.167 HD
ATOM     64  C   UNL A   1      46.107  28.900  30.906  1.00  0.00     0.074 A 
ATOM     65  C   UNL A   1      46.835  29.981  31.539  1.00  0.00     0.031 C 
ATOM     66  C   UNL A   1      46.653  27.704  30.576  1.00  0.00     0.031 A 
BRANCH  53  67
ATOM     67  C   UNL A   1      42.695  23.761  27.922  1.00  0.00    -0.014 A 
ATOM     68  C   UNL A   1      42.281  22.692  28.740  1.00  0.00     0.010 A 
ATOM     69  C   UNL A   1      42.852  23.544  26.542  1.00  0.00     0.010 A 
ATOM     70  C   UNL A   1      42.076  21.423  28.196  1.00  0.00     0.020 A 
ATOM     71  C   UNL A   1      42.621  22.282  25.988  1.00  0.00     0.020 A 
ATOM     72  C   UNL A   1      42.252  21.224  26.823  1.00  0.00     0.054 A 
BRANCH  72  73
ATOM     73  S   UNL A   1      41.965  19.568  26.141  1.00  0.00     0.124 S 
ATOM     74  O   UNL A   1      40.541  19.619  25.817  1.00  0.00    -0.237 OA
ATOM     75  O   UNL A   1      42.867  19.532  24.992  1.00  0.00    -0.237 OA
ATOM     76  O   UNL A   1      42.323  18.674  27.238  1.00  0.00    -0.744 OA
ENDBRANCH  72  73
ENDBRANCH  53  67
BRANCH  54  77
ATOM     77  C   UNL A   1      43.771  32.867  31.895  1.00  0.00    -0.014 A 
ATOM     78  C   UNL A   1      44.174  33.974  31.128  1.00  0.00     0.010 A 
ATOM     79  C   UNL A   1      43.499  33.045  33.264  1.00  0.00     0.010 A 
ATOM     80  C   UNL A   1      44.318  35.232  31.722  1.00  0.00     0.020 A 
ATOM     81  C   UNL A   1      43.618  34.306  33.855  1.00  0.00     0.020 A 
ATOM     82  C   UNL A   1      44.039  35.389  33.082  1.00  0.00     0.054 A 
BRANCH  82  83
ATOM     83  S   UNL A   1      44.183  37.041  33.821  1.00  0.00     0.124 S 
ATOM     84  O   UNL A   1      44.859  37.787  32.765  1.00  0.00    -0.237 OA
ATOM     85  O   UNL A   1      42.789  37.404  34.060  1.00  0.00    -0.237 OA
ATOM     86  O   UNL A   1      44.973  36.805  35.028  1.00  0.00    -0.744 OA
ENDBRANCH  82  83
ENDBRANCH  54  77
BRANCH  66  87
ATOM     87  C   UNL A   1      48.117  27.509  30.866  1.00  0.00    -0.014 A 
ATOM     88  C   UNL A   1      48.547  26.827  32.016  1.00  0.00     0.010 A 
ATOM     89  C   UNL A   1      49.074  27.970  29.941  1.00  0.00     0.010 A 
ATOM     90  C   UNL A   1      49.910  26.634  32.253  1.00  0.00     0.020 A 
ATOM     91  C   UNL A   1      50.436  27.756  30.163  1.00  0.00     0.020 A 
ATOM     92  C   UNL A   1      50.847  27.100  31.325  1.00  0.00     0.054 A 
BRANCH  92  93
ATOM     93  S   UNL A   1      52.608  26.796  31.630  1.00  0.00     0.124 S 
ATOM     94  O   UNL A   1      53.238  27.537  30.541  1.00  0.00    -0.237 OA
ATOM     95  O   UNL A   1      52.805  27.354  32.965  1.00  0.00    -0.237 OA
ATOM     96  O   UNL A   1      52.728  25.342  31.546  1.00  0.00    -0.744 OA
ENDBRANCH  92  93
ENDBRANCH  66  87
ENDBRANCH  40  41
ENDBRANCH  32  35
ENDBRANCH  30  31
ENDBRANCH  29  30
ENDBRANCH   1  29
TORSDOF 17
ENDMDL
MODEL 3
REMARK VINA RESULT:      -9.3      4.350      7.723
REMARK SMILES Cc1cc(Nc2ccc(C(=O)NCCCCNC(=O)c3ccc(-c4c5nc(c(-c6ccc(S(=O)(=O)[O-])cc6)c6ccc([nH]6)c(-c6ccc(S(=O)(=O)[O-])cc6)c6nc(c(-c7ccc(S(=O)(=O)[O-])cc7)c7ccc4[nH]7)C=C6)C=C5)cc3)cc2)nc(-n2nc(C)cc2C)n1
REMARK SMILES IDX 14 1 13 2 12 3 10 4 11 5 9 7 6 8 7 9 81 10 8 11 80 12 5 13
REMARK SMILES IDX 4 15 1 16 2 17 3 18 91 19 83 20 82 21 84 22 85 23 89 24
REMARK SMILES IDX 86 25 88 26 90 27 87 28 15 29 16 30 17 31 18 32 19 34 20 35
REMARK SMILES IDX 21 36 79 37 22 38 78 39 23 40 24 41 25 42 72 43 26 44 77 45
REMARK SMILES IDX 71 46 73 47 27 48 76 49 70 50 69 51 28 53 58 54 39 55 57 56
REMARK SMILES IDX 40 57 43 58 56 59 74 60 41 61 42 62 55 64 75 65 44 66 29 67
REMARK SMILES IDX 30 68 38 69 31 70 37 71 32 72 33 73 34 74 35 75 36 76 59 77
REMARK SMILES IDX 60 78 68 79 61 80 67 81 62 82 63 83 64 84 65 85 66 86 45 87
REMARK SMILES IDX 46 88 54 89 47 90 53 91 48 92 49 93 50 94 51 95 52 96
REMARK H PARENT 12 6 5 14 17 33 73 52 43 63
REMARK Flexibility Score: inf
ROOT
ATOM      1  C   UNL A   1      44.458  22.463  25.891  1.00  0.00     0.023 C 
ENDROOT
BRANCH   1   2
ATOM      2  C   UNL A   1      43.092  21.872  25.538  1.00  0.00     0.116 C 
BRANCH   2   3
ATOM      3  N   UNL A   1      42.597  21.049  26.627  1.00  0.00    -0.352 N 
ATOM      4  C   UNL A   1      41.361  20.948  27.214  1.00  0.00     0.251 C 
ATOM      5  O   UNL A   1      41.220  20.129  28.123  1.00  0.00    -0.269 OA
ATOM      6  H   UNL A   1      43.274  20.451  27.017  1.00  0.00     0.163 HD
BRANCH   4   7
ATOM      7  C   UNL A   1      40.177  21.738  26.771  1.00  0.00     0.039 A 
ATOM      8  C   UNL A   1      37.938  23.127  25.751  1.00  0.00     0.040 A 
ATOM      9  C   UNL A   1      38.149  21.788  25.416  1.00  0.00     0.027 A 
ATOM     10  C   UNL A   1      38.833  23.747  26.627  1.00  0.00     0.027 A 
ATOM     11  C   UNL A   1      39.265  21.103  25.914  1.00  0.00     0.016 A 
ATOM     12  C   UNL A   1      39.913  23.047  27.169  1.00  0.00     0.016 A 
BRANCH   8  13
ATOM     13  N   UNL A   1      36.887  23.859  25.182  1.00  0.00    -0.340 N 
ATOM     14  H   UNL A   1      37.128  24.656  24.656  1.00  0.00     0.168 HD
BRANCH  13  15
ATOM     15  C   UNL A   1      35.518  23.556  25.295  1.00  0.00     0.136 A 
ATOM     16  C   UNL A   1      32.273  25.270  26.056  1.00  0.00     0.067 C 
ATOM     17  C   UNL A   1      33.292  24.274  25.594  1.00  0.00     0.045 A 
ATOM     18  C   UNL A   1      34.642  24.559  25.659  1.00  0.00     0.070 A 
ATOM     19  N   UNL A   1      32.828  23.080  25.178  1.00  0.00    -0.216 NA
ATOM     20  C   UNL A   1      33.749  22.125  24.916  1.00  0.00     0.252 A 
ATOM     21  N   UNL A   1      35.080  22.328  24.972  1.00  0.00    -0.194 NA
BRANCH  20  22
ATOM     22  N   UNL A   1      33.274  20.804  24.594  1.00  0.00    -0.203 N 
ATOM     23  N   UNL A   1      33.542  19.734  25.401  1.00  0.00    -0.170 NA
ATOM     24  C   UNL A   1      32.468  20.433  23.524  1.00  0.00     0.045 A 
ATOM     25  C   UNL A   1      32.764  18.751  24.937  1.00  0.00     0.060 A 
ATOM     26  C   UNL A   1      32.103  19.123  23.751  1.00  0.00     0.049 A 
ATOM     27  C   UNL A   1      32.183  21.316  22.367  1.00  0.00     0.067 C 
ATOM     28  C   UNL A   1      32.683  17.457  25.658  1.00  0.00     0.069 C 
ENDBRANCH  20  22
ENDBRANCH  13  15
ENDBRANCH   8  13
ENDBRANCH   4   7
ENDBRANCH   2   3
ENDBRANCH   1   2
BRANCH   1  29
ATOM     29  C   UNL A   1      44.416  23.521  26.999  1.00  0.00     0.023 C 
BRANCH  29  30
ATOM     30  C   UNL A   1      44.362  24.965  26.509  1.00  0.00     0.116 C 
BRANCH  30  31
ATOM     31  N   UNL A   1      43.254  25.219  25.602  1.00  0.00    -0.352 N 
ATOM     32  C   UNL A   1      42.131  25.986  25.810  1.00  0.00     0.251 C 
ATOM     33  H   UNL A   1      43.316  24.783  24.720  1.00  0.00     0.163 HD
ATOM     34  O   UNL A   1      41.235  26.004  24.979  1.00  0.00    -0.269 OA
BRANCH  32  35
ATOM     35  C   UNL A   1      42.004  26.754  27.067  1.00  0.00     0.039 A 
ATOM     36  C   UNL A   1      42.640  27.994  27.163  1.00  0.00     0.014 A 
ATOM     37  C   UNL A   1      41.243  26.266  28.133  1.00  0.00     0.014 A 
ATOM     38  C   UNL A   1      42.458  28.777  28.305  1.00  0.00     0.010 A 
ATOM     39  C   UNL A   1      41.012  27.074  29.243  1.00  0.00     0.010 A 
ATOM     40  C   UNL A   1      41.614  28.338  29.338  1.00  0.00    -0.014 A 
BRANCH  40  41
ATOM     41  C   UNL A   1      41.340  29.192  30.520  1.00  0.00     0.031 A 
ATOM     42  C   UNL A   1      42.166  29.045  31.768  1.00  0.00     0.074 A 
ATOM     43  C   UNL A   1      40.301  30.051  30.494  1.00  0.00     0.049 A 
ATOM     44  N   UNL A   1      42.035  29.652  32.919  1.00  0.00    -0.248 NA
ATOM     45  C   UNL A   1      43.270  28.071  31.722  1.00  0.00     0.031 C 
ATOM     46  C   UNL A   1      39.395  30.251  29.360  1.00  0.00     0.029 A 
ATOM     47  N   UNL A   1      39.826  30.909  31.453  1.00  0.00    -0.354 N 
ATOM     48  C   UNL A   1      43.029  29.127  33.738  1.00  0.00     0.074 A 
ATOM     49  C   UNL A   1      43.722  28.118  32.967  1.00  0.00     0.031 C 
ATOM     50  C   UNL A   1      38.486  31.185  29.683  1.00  0.00     0.029 A 
ATOM     51  C   UNL A   1      38.721  31.623  31.055  1.00  0.00     0.049 A 
ATOM     52  H   UNL A   1      40.238  31.005  32.342  1.00  0.00     0.167 HD
ATOM     53  C   UNL A   1      43.348  29.468  35.009  1.00  0.00     0.031 A 
ATOM     54  C   UNL A   1      37.973  32.526  31.722  1.00  0.00     0.031 A 
ATOM     55  C   UNL A   1      42.661  30.476  35.772  1.00  0.00     0.049 A 
ATOM     56  C   UNL A   1      38.349  32.890  33.131  1.00  0.00     0.074 A 
ATOM     57  C   UNL A   1      42.936  30.923  37.052  1.00  0.00     0.029 A 
ATOM     58  N   UNL A   1      41.563  31.196  35.323  1.00  0.00    -0.354 N 
ATOM     59  N   UNL A   1      39.328  32.424  33.869  1.00  0.00    -0.248 NA
ATOM     60  C   UNL A   1      37.527  33.913  33.793  1.00  0.00     0.031 C 
ATOM     61  C   UNL A   1      41.980  31.887  37.393  1.00  0.00     0.029 A 
ATOM     62  C   UNL A   1      41.141  32.075  36.305  1.00  0.00     0.049 A 
ATOM     63  H   UNL A   1      41.147  31.097  34.437  1.00  0.00     0.167 HD
ATOM     64  C   UNL A   1      39.254  33.113  35.074  1.00  0.00     0.074 A 
ATOM     65  C   UNL A   1      38.146  34.038  34.960  1.00  0.00     0.031 C 
ATOM     66  C   UNL A   1      40.035  32.990  36.175  1.00  0.00     0.031 A 
BRANCH  53  67
ATOM     67  C   UNL A   1      44.498  28.739  35.652  1.00  0.00    -0.014 A 
ATOM     68  C   UNL A   1      45.814  29.227  35.541  1.00  0.00     0.010 A 
ATOM     69  C   UNL A   1      44.262  27.572  36.399  1.00  0.00     0.010 A 
ATOM     70  C   UNL A   1      46.877  28.534  36.125  1.00  0.00     0.020 A 
ATOM     71  C   UNL A   1      45.320  26.891  37.010  1.00  0.00     0.020 A 
ATOM     72  C   UNL A   1      46.624  27.367  36.852  1.00  0.00     0.054 A 
BRANCH  72  73
ATOM     73  S   UNL A   1      48.022  26.497  37.612  1.00  0.00     0.124 S 
ATOM     74  O   UNL A   1      47.480  26.143  38.922  1.00  0.00    -0.237 OA
ATOM     75  O   UNL A   1      48.238  25.377  36.699  1.00  0.00    -0.237 OA
ATOM     76  O   UNL A   1      49.085  27.497  37.628  1.00  0.00    -0.744 OA
ENDBRANCH  72  73
ENDBRANCH  53  67
BRANCH  54  77
ATOM     77  C   UNL A   1      36.802  33.155  31.055  1.00  0.00    -0.014 A 
ATOM     78  C   UNL A   1      35.559  33.221  31.709  1.00  0.00     0.010 A 
ATOM     79  C   UNL A   1      36.928  33.706  29.767  1.00  0.00     0.010 A 
ATOM     80  C   UNL A   1      34.459  33.811  31.079  1.00  0.00     0.020 A 
ATOM     81  C   UNL A   1      35.837  34.319  29.145  1.00  0.00     0.020 A 
ATOM     82  C   UNL A   1      34.605  34.356  29.800  1.00  0.00     0.054 A 
BRANCH  82  83
ATOM     83  S   UNL A   1      33.177  35.164  29.023  1.00  0.00     0.124 S 
ATOM     84  O   UNL A   1      33.770  36.392  28.503  1.00  0.00    -0.237 OA
ATOM     85  O   UNL A   1      32.767  34.185  28.020  1.00  0.00    -0.237 OA
ATOM     86  O   UNL A   1      32.241  35.338  30.131  1.00  0.00    -0.744 OA
ENDBRANCH  82  83
ENDBRANCH  54  77
BRANCH  66  87
ATOM     87  C   UNL A   1      39.739  33.899  37.338  1.00  0.00    -0.014 A 
ATOM     88  C   UNL A   1      38.949  33.468  38.416  1.00  0.00     0.010 A 
ATOM     89  C   UNL A   1      40.307  35.186  37.373  1.00  0.00     0.010 A 
ATOM     90  C   UNL A   1      38.708  34.318  39.498  1.00  0.00     0.020 A 
ATOM     91  C   UNL A   1      40.088  36.030  38.465  1.00  0.00     0.020 A 
ATOM     92  C   UNL A   1      39.278  35.595  39.515  1.00  0.00     0.054 A 
BRANCH  92  93
ATOM     93  S   UNL A   1      38.990  36.664  40.952  1.00  0.00     0.124 S 
ATOM     94  O   UNL A   1      38.409  37.852  40.334  1.00  0.00    -0.237 OA
ATOM     95  O   UNL A   1      38.075  35.869  41.766  1.00  0.00    -0.237 OA
ATOM     96  O   UNL A   1      40.323  36.845  41.521  1.00  0.00    -0.744 OA
ENDBRANCH  92  93
ENDBRANCH  66  87
ENDBRANCH  40  41
ENDBRANCH  32  35
ENDBRANCH  30  31
ENDBRANCH  29  30
ENDBRANCH   1  29
TORSDOF 17
ENDMDL
