MODEL 1
REMARK VINA RESULT:     -12.8      0.000      0.000
REMARK SMILES Cc1ccc2[nH]cc([C@@H](C(=O)NCCCCNC(=O)c3ccc(-c4c5nc(c(-c6ccc(S(=O)(=O)[O-])cc6)c6ccc([nH]6)c(-c6ccc(S(=O)(=O)[O-])cc6)c6nc(c(-c7ccc(S(=O)(=O)[O-])cc7)c7ccc4[nH]7)C=C6)C=C5)cc3)[NH+]3CCN(c4ccc(F)cc4)CC3)c2c1
REMARK SMILES IDX 15 1 14 2 13 3 12 4 10 5 11 6 9 8 8 9 1 10 2 11 3 12 94 13
REMARK SMILES IDX 4 14 93 15 5 16 6 17 7 18 80 20 81 21 92 22 82 24 91 25
REMARK SMILES IDX 83 26 84 27 85 28 90 29 86 30 89 31 87 32 88 33 16 34 17 35
REMARK SMILES IDX 18 36 19 38 20 39 21 40 79 41 22 42 78 43 23 44 24 45 25 46
REMARK SMILES IDX 72 47 26 48 77 49 71 50 73 51 27 52 76 53 70 54 69 55 28 57
REMARK SMILES IDX 58 58 39 59 57 60 40 61 43 62 56 63 74 64 41 65 42 66 55 68
REMARK SMILES IDX 75 69 44 70 29 71 30 72 38 73 31 74 37 75 32 76 33 77 34 78
REMARK SMILES IDX 35 79 36 80 59 81 60 82 68 83 61 84 67 85 62 86 63 87 64 88
REMARK SMILES IDX 65 89 66 90 45 91 46 92 54 93 47 94 53 95 48 96 49 97 50 98
REMARK SMILES IDX 51 99 52 100
REMARK H PARENT 12 7 6 19 80 23 17 37 73 56 43 67
REMARK Flexibility Score: inf
ROOT
ATOM      1  C   UNL A   1      37.717  23.144  25.916  1.00  0.00     0.023 C 
ENDROOT
BRANCH   1   2
ATOM      2  C   UNL A   1      36.219  23.295  26.160  1.00  0.00     0.023 C 
BRANCH   2   3
ATOM      3  C   UNL A   1      35.553  24.439  25.396  1.00  0.00     0.116 C 
BRANCH   3   4
ATOM      4  N   UNL A   1      35.247  24.073  24.029  1.00  0.00    -0.351 N 
ATOM      5  C   UNL A   1      34.260  23.247  23.550  1.00  0.00     0.283 C 
ATOM      6  O   UNL A   1      34.248  23.083  22.326  1.00  0.00    -0.268 OA
ATOM      7  H   UNL A   1      35.831  24.474  23.344  1.00  0.00     0.163 HD
BRANCH   5   8
ATOM      8  C   UNL A   1      33.200  22.642  24.534  1.00  0.00     0.307 C 
BRANCH   8   9
ATOM      9  C   UNL A   1      33.135  21.135  24.482  1.00  0.00     0.044 A 
ATOM     10  C   UNL A   1      37.984  19.517  24.947  1.00  0.00     0.044 C 
ATOM     11  C   UNL A   1      36.500  19.303  24.864  1.00  0.00    -0.050 A 
ATOM     12  C   UNL A   1      35.969  18.016  24.751  1.00  0.00     0.005 A 
ATOM     13  C   UNL A   1      35.641  20.414  24.843  1.00  0.00     0.014 A 
ATOM     14  C   UNL A   1      34.597  17.807  24.580  1.00  0.00     0.027 A 
ATOM     15  C   UNL A   1      34.252  20.235  24.639  1.00  0.00     0.009 A 
ATOM     16  C   UNL A   1      33.773  18.934  24.499  1.00  0.00     0.046 A 
ATOM     17  N   UNL A   1      32.424  19.025  24.251  1.00  0.00    -0.361 N 
ATOM     18  C   UNL A   1      32.047  20.337  24.170  1.00  0.00     0.094 A 
ATOM     19  H   UNL A   1      31.818  18.256  24.147  1.00  0.00     0.166 HD
ENDBRANCH   8   9
BRANCH   8  20
ATOM     20  N   UNL A   1      31.872  23.298  24.428  1.00  0.00    -0.318 N 
ATOM     21  C   UNL A   1      31.169  23.665  25.667  1.00  0.00     0.284 C 
ATOM     22  C   UNL A   1      31.794  24.396  23.451  1.00  0.00     0.284 C 
ATOM     23  H   UNL A   1      31.349  22.499  24.069  1.00  0.00     0.349 HD
ATOM     24  C   UNL A   1      31.415  25.075  26.246  1.00  0.00     0.178 C 
ATOM     25  C   UNL A   1      32.146  25.810  23.971  1.00  0.00     0.178 C 
ATOM     26  N   UNL A   1      31.429  26.121  25.216  1.00  0.00    -0.360 N 
BRANCH  26  27
ATOM     27  C   UNL A   1      31.579  27.434  25.665  1.00  0.00     0.037 A 
ATOM     28  C   UNL A   1      31.958  27.747  26.980  1.00  0.00     0.029 A 
ATOM     29  C   UNL A   1      31.343  28.487  24.772  1.00  0.00     0.029 A 
ATOM     30  C   UNL A   1      32.058  29.074  27.403  1.00  0.00     0.041 A 
ATOM     31  C   UNL A   1      31.437  29.815  25.190  1.00  0.00     0.041 A 
ATOM     32  C   UNL A   1      31.787  30.096  26.504  1.00  0.00     0.123 A 
ATOM     33  F   UNL A   1      31.866  31.370  26.909  1.00  0.00    -0.207 F 
ENDBRANCH  26  27
ENDBRANCH   8  20
ENDBRANCH   5   8
ENDBRANCH   3   4
ENDBRANCH   2   3
ENDBRANCH   1   2
BRANCH   1  34
ATOM     34  C   UNL A   1      38.555  24.306  26.419  1.00  0.00     0.116 C 
BRANCH  34  35
ATOM     35  N   UNL A   1      39.957  24.195  26.050  1.00  0.00    -0.352 N 
ATOM     36  C   UNL A   1      41.012  24.970  26.467  1.00  0.00     0.251 C 
ATOM     37  H   UNL A   1      40.179  23.472  25.421  1.00  0.00     0.163 HD
ATOM     38  O   UNL A   1      42.120  24.832  25.969  1.00  0.00    -0.269 OA
BRANCH  36  39
ATOM     39  C   UNL A   1      40.771  26.001  27.499  1.00  0.00     0.039 A 
ATOM     40  C   UNL A   1      39.832  25.745  28.499  1.00  0.00     0.014 A 
ATOM     41  C   UNL A   1      41.508  27.188  27.501  1.00  0.00     0.014 A 
ATOM     42  C   UNL A   1      39.671  26.663  29.536  1.00  0.00     0.010 A 
ATOM     43  C   UNL A   1      41.407  28.057  28.579  1.00  0.00     0.010 A 
ATOM     44  C   UNL A   1      40.478  27.811  29.600  1.00  0.00    -0.014 A 
BRANCH  44  45
ATOM     45  C   UNL A   1      40.348  28.778  30.716  1.00  0.00     0.031 A 
ATOM     46  C   UNL A   1      41.222  28.639  31.933  1.00  0.00     0.074 A 
ATOM     47  C   UNL A   1      39.411  29.745  30.657  1.00  0.00     0.049 A 
ATOM     48  N   UNL A   1      41.237  29.361  33.023  1.00  0.00    -0.248 NA
ATOM     49  C   UNL A   1      42.183  27.523  31.940  1.00  0.00     0.031 C 
ATOM     50  C   UNL A   1      38.469  29.949  29.553  1.00  0.00     0.029 A 
ATOM     51  N   UNL A   1      39.096  30.738  31.548  1.00  0.00    -0.354 N 
ATOM     52  C   UNL A   1      42.191  28.779  33.848  1.00  0.00     0.074 A 
ATOM     53  C   UNL A   1      42.692  27.611  33.160  1.00  0.00     0.031 C 
ATOM     54  C   UNL A   1      37.705  31.020  29.819  1.00  0.00     0.029 A 
ATOM     55  C   UNL A   1      38.079  31.559  31.123  1.00  0.00     0.049 A 
ATOM     56  H   UNL A   1      39.556  30.854  32.411  1.00  0.00     0.167 HD
ATOM     57  C   UNL A   1      42.631  29.191  35.060  1.00  0.00     0.031 A 
ATOM     58  C   UNL A   1      37.512  32.628  31.716  1.00  0.00     0.031 A 
ATOM     59  C   UNL A   1      42.143  30.366  35.733  1.00  0.00     0.049 A 
ATOM     60  C   UNL A   1      38.030  33.080  33.054  1.00  0.00     0.074 A 
ATOM     61  C   UNL A   1      42.563  30.904  36.936  1.00  0.00     0.029 A 
ATOM     62  N   UNL A   1      41.130  31.184  35.258  1.00  0.00    -0.354 N 
ATOM     63  N   UNL A   1      38.982  32.556  33.788  1.00  0.00    -0.248 NA
ATOM     64  C   UNL A   1      37.411  34.279  33.632  1.00  0.00     0.031 C 
ATOM     65  C   UNL A   1      41.772  32.026  37.210  1.00  0.00     0.029 A 
ATOM     66  C   UNL A   1      40.899  32.217  36.151  1.00  0.00     0.049 A 
ATOM     67  H   UNL A   1      40.646  31.051  34.410  1.00  0.00     0.167 HD
ATOM     68  C   UNL A   1      39.096  33.379  34.903  1.00  0.00     0.074 A 
ATOM     69  C   UNL A   1      38.126  34.442  34.737  1.00  0.00     0.031 C 
ATOM     70  C   UNL A   1      39.929  33.266  35.967  1.00  0.00     0.031 A 
BRANCH  57  71
ATOM     71  C   UNL A   1      43.693  28.362  35.732  1.00  0.00    -0.014 A 
ATOM     72  C   UNL A   1      43.352  27.330  36.625  1.00  0.00     0.010 A 
ATOM     73  C   UNL A   1      45.050  28.600  35.449  1.00  0.00     0.010 A 
ATOM     74  C   UNL A   1      44.347  26.581  37.257  1.00  0.00     0.020 A 
ATOM     75  C   UNL A   1      46.049  27.834  36.058  1.00  0.00     0.020 A 
ATOM     76  C   UNL A   1      45.691  26.842  36.972  1.00  0.00     0.054 A 
BRANCH  76  77
ATOM     77  S   UNL A   1      46.962  25.842  37.793  1.00  0.00     0.124 S 
ATOM     78  O   UNL A   1      47.435  26.752  38.833  1.00  0.00    -0.237 OA
ATOM     79  O   UNL A   1      46.206  24.686  38.266  1.00  0.00    -0.237 OA
ATOM     80  O   UNL A   1      47.922  25.560  36.728  1.00  0.00    -0.744 OA
ENDBRANCH  76  77
ENDBRANCH  57  71
BRANCH  58  81
ATOM     81  C   UNL A   1      36.413  33.362  31.031  1.00  0.00    -0.014 A 
ATOM     82  C   UNL A   1      35.126  33.410  31.596  1.00  0.00     0.010 A 
ATOM     83  C   UNL A   1      36.652  34.031  29.817  1.00  0.00     0.010 A 
ATOM     84  C   UNL A   1      34.093  34.096  30.950  1.00  0.00     0.020 A 
ATOM     85  C   UNL A   1      35.628  34.741  29.181  1.00  0.00     0.020 A 
ATOM     86  C   UNL A   1      34.352  34.758  29.747  1.00  0.00     0.054 A 
BRANCH  86  87
ATOM     87  S   UNL A   1      33.010  35.687  28.953  1.00  0.00     0.124 S 
ATOM     88  O   UNL A   1      32.358  34.655  28.154  1.00  0.00    -0.237 OA
ATOM     89  O   UNL A   1      32.247  36.181  30.096  1.00  0.00    -0.237 OA
ATOM     90  O   UNL A   1      33.713  36.718  28.192  1.00  0.00    -0.744 OA
ENDBRANCH  86  87
ENDBRANCH  58  81
BRANCH  70  91
ATOM     91  C   UNL A   1      39.854  34.341  37.017  1.00  0.00    -0.014 A 
ATOM     92  C   UNL A   1      40.473  35.590  36.831  1.00  0.00     0.010 A 
ATOM     93  C   UNL A   1      39.116  34.109  38.192  1.00  0.00     0.010 A 
ATOM     94  C   UNL A   1      40.387  36.574  37.820  1.00  0.00     0.020 A 
ATOM     95  C   UNL A   1      39.003  35.099  39.170  1.00  0.00     0.020 A 
ATOM     96  C   UNL A   1      39.656  36.321  38.985  1.00  0.00     0.054 A 
BRANCH  96  97
ATOM     97  S   UNL A   1      39.534  37.622  40.241  1.00  0.00     0.124 S 
ATOM     98  O   UNL A   1      40.917  38.081  40.338  1.00  0.00    -0.237 OA
ATOM     99  O   UNL A   1      38.599  38.568  39.636  1.00  0.00    -0.237 OA
ATOM    100  O   UNL A   1      39.026  36.921  41.418  1.00  0.00    -0.744 OA
ENDBRANCH  96  97
ENDBRANCH  70  91
ENDBRANCH  44  45
ENDBRANCH  36  39
ENDBRANCH  34  35
ENDBRANCH   1  34
TORSDOF 17
ENDMDL
MODEL 2
REMARK VINA RESULT:     -12.7      6.267     10.869
REMARK SMILES Cc1ccc2[nH]cc([C@@H](C(=O)NCCCCNC(=O)c3ccc(-c4c5nc(c(-c6ccc(S(=O)(=O)[O-])cc6)c6ccc([nH]6)c(-c6ccc(S(=O)(=O)[O-])cc6)c6nc(c(-c7ccc(S(=O)(=O)[O-])cc7)c7ccc4[nH]7)C=C6)C=C5)cc3)[NH+]3CCN(c4ccc(F)cc4)CC3)c2c1
REMARK SMILES IDX 15 1 14 2 13 3 12 4 10 5 11 6 9 8 8 9 1 10 2 11 3 12 94 13
REMARK SMILES IDX 4 14 93 15 5 16 6 17 7 18 80 20 81 21 92 22 82 24 91 25
REMARK SMILES IDX 83 26 84 27 85 28 90 29 86 30 89 31 87 32 88 33 16 34 17 35
REMARK SMILES IDX 18 36 19 38 20 39 21 40 79 41 22 42 78 43 23 44 24 45 25 46
REMARK SMILES IDX 72 47 26 48 77 49 71 50 73 51 27 52 76 53 70 54 69 55 28 57
REMARK SMILES IDX 58 58 39 59 57 60 40 61 43 62 56 63 74 64 41 65 42 66 55 68
REMARK SMILES IDX 75 69 44 70 29 71 30 72 38 73 31 74 37 75 32 76 33 77 34 78
REMARK SMILES IDX 35 79 36 80 59 81 60 82 68 83 61 84 67 85 62 86 63 87 64 88
REMARK SMILES IDX 65 89 66 90 45 91 46 92 54 93 47 94 53 95 48 96 49 97 50 98
REMARK SMILES IDX 51 99 52 100
REMARK H PARENT 12 7 6 19 80 23 17 37 73 56 43 67
REMARK Flexibility Score: inf
ROOT
ATOM      1  C   UNL A   1      34.296  29.046  27.184  1.00  0.00     0.023 C 
ENDROOT
BRANCH   1   2
ATOM      2  C   UNL A   1      34.428  28.434  25.792  1.00  0.00     0.023 C 
BRANCH   2   3
ATOM      3  C   UNL A   1      33.617  27.158  25.570  1.00  0.00     0.116 C 
BRANCH   3   4
ATOM      4  N   UNL A   1      33.844  26.593  24.256  1.00  0.00    -0.351 N 
ATOM      5  C   UNL A   1      33.737  25.288  23.841  1.00  0.00     0.283 C 
ATOM      6  O   UNL A   1      34.025  25.078  22.660  1.00  0.00    -0.268 OA
ATOM      7  H   UNL A   1      34.113  27.235  23.561  1.00  0.00     0.163 HD
BRANCH   5   8
ATOM      8  C   UNL A   1      33.207  24.193  24.831  1.00  0.00     0.307 C 
BRANCH   8   9
ATOM      9  C   UNL A   1      34.026  22.925  24.806  1.00  0.00     0.044 A 
ATOM     10  C   UNL A   1      38.743  24.287  26.305  1.00  0.00     0.044 C 
ATOM     11  C   UNL A   1      37.694  23.283  25.922  1.00  0.00    -0.050 A 
ATOM     12  C   UNL A   1      38.025  21.939  25.736  1.00  0.00     0.005 A 
ATOM     13  C   UNL A   1      36.376  23.712  25.695  1.00  0.00     0.014 A 
ATOM     14  C   UNL A   1      37.080  21.011  25.292  1.00  0.00     0.027 A 
ATOM     15  C   UNL A   1      35.405  22.801  25.214  1.00  0.00     0.009 A 
ATOM     16  C   UNL A   1      35.791  21.478  25.012  1.00  0.00     0.046 A 
ATOM     17  N   UNL A   1      34.706  20.816  24.489  1.00  0.00    -0.361 N 
ATOM     18  C   UNL A   1      33.670  21.687  24.298  1.00  0.00     0.094 A 
ATOM     19  H   UNL A   1      34.680  19.854  24.282  1.00  0.00     0.166 HD
ENDBRANCH   8   9
BRANCH   8  20
ATOM     20  N   UNL A   1      31.747  23.959  24.705  1.00  0.00    -0.318 N 
ATOM     21  C   UNL A   1      30.850  24.567  25.700  1.00  0.00     0.284 C 
ATOM     22  C   UNL A   1      31.201  24.133  23.350  1.00  0.00     0.284 C 
ATOM     23  H   UNL A   1      31.743  22.966  24.937  1.00  0.00     0.349 HD
ATOM     24  C   UNL A   1      30.284  25.971  25.398  1.00  0.00     0.178 C 
ATOM     25  C   UNL A   1      30.728  25.556  22.972  1.00  0.00     0.178 C 
ATOM     26  N   UNL A   1      29.847  26.123  24.004  1.00  0.00    -0.360 N 
BRANCH  26  27
ATOM     27  C   UNL A   1      29.260  27.344  23.667  1.00  0.00     0.037 A 
ATOM     28  C   UNL A   1      27.874  27.498  23.500  1.00  0.00     0.029 A 
ATOM     29  C   UNL A   1      30.080  28.464  23.486  1.00  0.00     0.029 A 
ATOM     30  C   UNL A   1      27.328  28.727  23.124  1.00  0.00     0.041 A 
ATOM     31  C   UNL A   1      29.542  29.694  23.105  1.00  0.00     0.041 A 
ATOM     32  C   UNL A   1      28.169  29.811  22.921  1.00  0.00     0.123 A 
ATOM     33  F   UNL A   1      27.652  30.988  22.543  1.00  0.00    -0.207 F 
ENDBRANCH  26  27
ENDBRANCH   8  20
ENDBRANCH   5   8
ENDBRANCH   3   4
ENDBRANCH   2   3
ENDBRANCH   1   2
BRANCH   1  34
ATOM     34  C   UNL A   1      35.619  29.391  27.844  1.00  0.00     0.116 C 
BRANCH  34  35
ATOM     35  N   UNL A   1      35.478  29.726  29.252  1.00  0.00    -0.352 N 
ATOM     36  C   UNL A   1      36.461  29.821  30.208  1.00  0.00     0.251 C 
ATOM     37  H   UNL A   1      34.562  29.908  29.561  1.00  0.00     0.163 HD
ATOM     38  O   UNL A   1      36.171  29.991  31.383  1.00  0.00    -0.269 OA
BRANCH  36  39
ATOM     39  C   UNL A   1      37.872  29.672  29.792  1.00  0.00     0.039 A 
ATOM     40  C   UNL A   1      38.814  29.271  30.739  1.00  0.00     0.014 A 
ATOM     41  C   UNL A   1      38.243  29.880  28.461  1.00  0.00     0.014 A 
ATOM     42  C   UNL A   1      40.127  29.025  30.335  1.00  0.00     0.010 A 
ATOM     43  C   UNL A   1      39.527  29.552  28.046  1.00  0.00     0.010 A 
ATOM     44  C   UNL A   1      40.485  29.135  28.981  1.00  0.00    -0.014 A 
BRANCH  44  45
ATOM     45  C   UNL A   1      41.866  28.842  28.528  1.00  0.00     0.031 A 
ATOM     46  C   UNL A   1      42.228  27.448  28.089  1.00  0.00     0.074 A 
ATOM     47  C   UNL A   1      42.802  29.810  28.562  1.00  0.00     0.049 A 
ATOM     48  N   UNL A   1      43.385  26.985  27.691  1.00  0.00    -0.248 NA
ATOM     49  C   UNL A   1      41.160  26.436  28.133  1.00  0.00     0.031 C 
ATOM     50  C   UNL A   1      42.584  31.186  29.018  1.00  0.00     0.029 A 
ATOM     51  N   UNL A   1      44.126  29.785  28.206  1.00  0.00    -0.354 N 
ATOM     52  C   UNL A   1      43.187  25.630  27.455  1.00  0.00     0.074 A 
ATOM     53  C   UNL A   1      41.818  25.333  27.809  1.00  0.00     0.031 C 
ATOM     54  C   UNL A   1      43.726  31.879  28.884  1.00  0.00     0.029 A 
ATOM     55  C   UNL A   1      44.763  30.993  28.365  1.00  0.00     0.049 A 
ATOM     56  H   UNL A   1      44.578  28.979  27.869  1.00  0.00     0.167 HD
ATOM     57  C   UNL A   1      44.059  24.718  26.964  1.00  0.00     0.031 A 
ATOM     58  C   UNL A   1      46.039  31.347  28.117  1.00  0.00     0.031 A 
ATOM     59  C   UNL A   1      45.415  25.023  26.594  1.00  0.00     0.049 A 
ATOM     60  C   UNL A   1      46.985  30.323  27.553  1.00  0.00     0.074 A 
ATOM     61  C   UNL A   1      46.363  24.186  26.032  1.00  0.00     0.029 A 
ATOM     62  N   UNL A   1      46.015  26.264  26.746  1.00  0.00    -0.354 N 
ATOM     63  N   UNL A   1      46.759  29.062  27.272  1.00  0.00    -0.248 NA
ATOM     64  C   UNL A   1      48.349  30.775  27.255  1.00  0.00     0.031 C 
ATOM     65  C   UNL A   1      47.551  24.911  25.885  1.00  0.00     0.029 A 
ATOM     66  C   UNL A   1      47.326  26.213  26.303  1.00  0.00     0.049 A 
ATOM     67  H   UNL A   1      45.574  27.063  27.115  1.00  0.00     0.167 HD
ATOM     68  C   UNL A   1      47.947  28.576  26.736  1.00  0.00     0.074 A 
ATOM     69  C   UNL A   1      48.881  29.684  26.719  1.00  0.00     0.031 C 
ATOM     70  C   UNL A   1      48.239  27.327  26.295  1.00  0.00     0.031 A 
BRANCH  57  71
ATOM     71  C   UNL A   1      43.566  23.304  26.800  1.00  0.00    -0.014 A 
ATOM     72  C   UNL A   1      43.208  22.527  27.917  1.00  0.00     0.010 A 
ATOM     73  C   UNL A   1      43.434  22.754  25.513  1.00  0.00     0.010 A 
ATOM     74  C   UNL A   1      42.771  21.211  27.753  1.00  0.00     0.020 A 
ATOM     75  C   UNL A   1      42.970  21.446  25.343  1.00  0.00     0.020 A 
ATOM     76  C   UNL A   1      42.659  20.677  26.466  1.00  0.00     0.054 A 
BRANCH  76  77
ATOM     77  S   UNL A   1      42.070  18.971  26.281  1.00  0.00     0.124 S 
ATOM     78  O   UNL A   1      40.709  19.174  25.794  1.00  0.00    -0.237 OA
ATOM     79  O   UNL A   1      43.008  18.411  25.312  1.00  0.00    -0.237 OA
ATOM     80  O   UNL A   1      42.173  18.422  27.631  1.00  0.00    -0.744 OA
ENDBRANCH  76  77
ENDBRANCH  57  71
BRANCH  58  81
ATOM     81  C   UNL A   1      46.485  32.745  28.370  1.00  0.00    -0.014 A 
ATOM     82  C   UNL A   1      46.996  33.114  29.626  1.00  0.00     0.010 A 
ATOM     83  C   UNL A   1      46.414  33.710  27.348  1.00  0.00     0.010 A 
ATOM     84  C   UNL A   1      47.410  34.429  29.864  1.00  0.00     0.020 A 
ATOM     85  C   UNL A   1      46.853  35.019  27.575  1.00  0.00     0.020 A 
ATOM     86  C   UNL A   1      47.337  35.372  28.836  1.00  0.00     0.054 A 
BRANCH  86  87
ATOM     87  S   UNL A   1      47.930  37.058  29.150  1.00  0.00     0.124 S 
ATOM     88  O   UNL A   1      47.250  37.818  28.106  1.00  0.00    -0.237 OA
ATOM     89  O   UNL A   1      47.471  37.306  30.515  1.00  0.00    -0.237 OA
ATOM     90  O   UNL A   1      49.378  36.943  29.001  1.00  0.00    -0.744 OA
ENDBRANCH  86  87
ENDBRANCH  58  81
BRANCH  70  91
ATOM     91  C   UNL A   1      49.612  27.102  25.722  1.00  0.00    -0.014 A 
ATOM     92  C   UNL A   1      50.649  26.556  26.499  1.00  0.00     0.010 A 
ATOM     93  C   UNL A   1      49.853  27.404  24.369  1.00  0.00     0.010 A 
ATOM     94  C   UNL A   1      51.915  26.353  25.944  1.00  0.00     0.020 A 
ATOM     95  C   UNL A   1      51.109  27.176  23.802  1.00  0.00     0.020 A 
ATOM     96  C   UNL A   1      52.138  26.668  24.599  1.00  0.00     0.054 A 
BRANCH  96  97
ATOM     97  S   UNL A   1      53.781  26.370  23.893  1.00  0.00     0.124 S 
ATOM     98  O   UNL A   1      53.471  26.156  22.482  1.00  0.00    -0.237 OA
ATOM     99  O   UNL A   1      54.493  27.608  24.200  1.00  0.00    -0.237 OA
ATOM    100  O   UNL A   1      54.258  25.190  24.612  1.00  0.00    -0.744 OA
ENDBRANCH  96  97
ENDBRANCH  70  91
ENDBRANCH  44  45
ENDBRANCH  36  39
ENDBRANCH  34  35
ENDBRANCH   1  34
TORSDOF 17
ENDMDL
MODEL 3
REMARK VINA RESULT:     -12.7      5.876      7.749
REMARK SMILES Cc1ccc2[nH]cc([C@@H](C(=O)NCCCCNC(=O)c3ccc(-c4c5nc(c(-c6ccc(S(=O)(=O)[O-])cc6)c6ccc([nH]6)c(-c6ccc(S(=O)(=O)[O-])cc6)c6nc(c(-c7ccc(S(=O)(=O)[O-])cc7)c7ccc4[nH]7)C=C6)C=C5)cc3)[NH+]3CCN(c4ccc(F)cc4)CC3)c2c1
REMARK SMILES IDX 15 1 14 2 13 3 12 4 10 5 11 6 9 8 8 9 1 10 2 11 3 12 94 13
REMARK SMILES IDX 4 14 93 15 5 16 6 17 7 18 80 20 81 21 92 22 82 24 91 25
REMARK SMILES IDX 83 26 84 27 85 28 90 29 86 30 89 31 87 32 88 33 16 34 17 35
REMARK SMILES IDX 18 36 19 38 20 39 21 40 79 41 22 42 78 43 23 44 24 45 25 46
REMARK SMILES IDX 72 47 26 48 77 49 71 50 73 51 27 52 76 53 70 54 69 55 28 57
REMARK SMILES IDX 58 58 39 59 57 60 40 61 43 62 56 63 74 64 41 65 42 66 55 68
REMARK SMILES IDX 75 69 44 70 29 71 30 72 38 73 31 74 37 75 32 76 33 77 34 78
REMARK SMILES IDX 35 79 36 80 59 81 60 82 68 83 61 84 67 85 62 86 63 87 64 88
REMARK SMILES IDX 65 89 66 90 45 91 46 92 54 93 47 94 53 95 48 96 49 97 50 98
REMARK SMILES IDX 51 99 52 100
REMARK H PARENT 12 7 6 19 80 23 17 37 73 56 43 67
REMARK Flexibility Score: inf
ROOT
ATOM      1  C   UNL A   1      38.072  21.157  24.998  1.00  0.00     0.023 C 
ENDROOT
BRANCH   1   2
ATOM      2  C   UNL A   1      36.625  21.356  25.439  1.00  0.00     0.023 C 
BRANCH   2   3
ATOM      3  C   UNL A   1      36.274  22.774  25.884  1.00  0.00     0.116 C 
BRANCH   3   4
ATOM      4  N   UNL A   1      35.624  23.528  24.833  1.00  0.00    -0.351 N 
ATOM      5  C   UNL A   1      34.369  23.370  24.298  1.00  0.00     0.283 C 
ATOM      6  O   UNL A   1      34.079  24.139  23.377  1.00  0.00    -0.268 OA
ATOM      7  H   UNL A   1      36.158  24.259  24.445  1.00  0.00     0.163 HD
BRANCH   5   8
ATOM      8  C   UNL A   1      33.385  22.314  24.910  1.00  0.00     0.307 C 
BRANCH   8   9
ATOM      9  C   UNL A   1      32.826  21.359  23.884  1.00  0.00     0.044 A 
ATOM     10  C   UNL A   1      34.848  16.775  25.001  1.00  0.00     0.044 C 
ATOM     11  C   UNL A   1      33.926  17.687  24.243  1.00  0.00    -0.050 A 
ATOM     12  C   UNL A   1      33.208  17.220  23.140  1.00  0.00     0.005 A 
ATOM     13  C   UNL A   1      33.829  19.038  24.615  1.00  0.00     0.014 A 
ATOM     14  C   UNL A   1      32.418  18.078  22.370  1.00  0.00     0.027 A 
ATOM     15  C   UNL A   1      33.062  19.936  23.836  1.00  0.00     0.009 A 
ATOM     16  C   UNL A   1      32.390  19.431  22.725  1.00  0.00     0.046 A 
ATOM     17  N   UNL A   1      31.778  20.494  22.105  1.00  0.00    -0.361 N 
ATOM     18  C   UNL A   1      32.090  21.659  22.750  1.00  0.00     0.094 A 
ATOM     19  H   UNL A   1      31.200  20.425  21.311  1.00  0.00     0.166 HD
ENDBRANCH   8   9
BRANCH   8  20
ATOM     20  N   UNL A   1      32.349  22.925  25.780  1.00  0.00    -0.318 N 
ATOM     21  C   UNL A   1      32.704  24.117  26.565  1.00  0.00     0.284 C 
ATOM     22  C   UNL A   1      31.030  23.101  25.150  1.00  0.00     0.284 C 
ATOM     23  H   UNL A   1      32.287  22.178  26.471  1.00  0.00     0.349 HD
ATOM     24  C   UNL A   1      32.464  25.501  25.924  1.00  0.00     0.178 C 
ATOM     25  C   UNL A   1      30.795  24.433  24.399  1.00  0.00     0.178 C 
ATOM     26  N   UNL A   1      31.178  25.590  25.221  1.00  0.00    -0.360 N 
BRANCH  26  27
ATOM     27  C   UNL A   1      30.855  26.831  24.670  1.00  0.00     0.037 A 
ATOM     28  C   UNL A   1      31.475  28.025  25.074  1.00  0.00     0.029 A 
ATOM     29  C   UNL A   1      29.874  26.896  23.673  1.00  0.00     0.029 A 
ATOM     30  C   UNL A   1      31.096  29.252  24.527  1.00  0.00     0.041 A 
ATOM     31  C   UNL A   1      29.487  28.120  23.126  1.00  0.00     0.041 A 
ATOM     32  C   UNL A   1      30.098  29.289  23.564  1.00  0.00     0.123 A 
ATOM     33  F   UNL A   1      29.720  30.465  23.049  1.00  0.00    -0.207 F 
ENDBRANCH  26  27
ENDBRANCH   8  20
ENDBRANCH   5   8
ENDBRANCH   3   4
ENDBRANCH   2   3
ENDBRANCH   1   2
BRANCH   1  34
ATOM     34  C   UNL A   1      39.086  21.226  26.126  1.00  0.00     0.116 C 
BRANCH  34  35
ATOM     35  N   UNL A   1      40.024  20.115  26.113  1.00  0.00    -0.352 N 
ATOM     36  C   UNL A   1      41.394  20.154  26.223  1.00  0.00     0.251 C 
ATOM     37  H   UNL A   1      39.628  19.220  26.011  1.00  0.00     0.163 HD
ATOM     38  O   UNL A   1      42.059  19.140  26.069  1.00  0.00    -0.269 OA
BRANCH  36  39
ATOM     39  C   UNL A   1      42.046  21.453  26.492  1.00  0.00     0.039 A 
ATOM     40  C   UNL A   1      42.291  22.317  25.424  1.00  0.00     0.014 A 
ATOM     41  C   UNL A   1      42.364  21.829  27.800  1.00  0.00     0.014 A 
ATOM     42  C   UNL A   1      42.809  23.587  25.677  1.00  0.00     0.010 A 
ATOM     43  C   UNL A   1      42.797  23.123  28.057  1.00  0.00     0.010 A 
ATOM     44  C   UNL A   1      43.037  24.010  26.998  1.00  0.00    -0.014 A 
BRANCH  44  45
ATOM     45  C   UNL A   1      43.552  25.370  27.289  1.00  0.00     0.031 A 
ATOM     46  C   UNL A   1      45.003  25.688  27.046  1.00  0.00     0.074 A 
ATOM     47  C   UNL A   1      42.730  26.297  27.818  1.00  0.00     0.049 A 
ATOM     48  N   UNL A   1      45.649  26.803  27.268  1.00  0.00    -0.248 NA
ATOM     49  C   UNL A   1      45.844  24.602  26.516  1.00  0.00     0.031 C 
ATOM     50  C   UNL A   1      41.317  26.091  28.148  1.00  0.00     0.029 A 
ATOM     51  N   UNL A   1      42.966  27.600  28.174  1.00  0.00    -0.354 N 
ATOM     52  C   UNL A   1      46.971  26.547  26.922  1.00  0.00     0.074 A 
ATOM     53  C   UNL A   1      47.046  25.158  26.532  1.00  0.00     0.031 C 
ATOM     54  C   UNL A   1      40.806  27.237  28.626  1.00  0.00     0.029 A 
ATOM     55  C   UNL A   1      41.859  28.247  28.669  1.00  0.00     0.049 A 
ATOM     56  H   UNL A   1      43.846  28.033  28.083  1.00  0.00     0.167 HD
ATOM     57  C   UNL A   1      48.023  27.399  26.905  1.00  0.00     0.031 A 
ATOM     58  C   UNL A   1      41.707  29.512  29.106  1.00  0.00     0.031 A 
ATOM     59  C   UNL A   1      47.938  28.786  27.275  1.00  0.00     0.049 A 
ATOM     60  C   UNL A   1      42.886  30.446  29.060  1.00  0.00     0.074 A 
ATOM     61  C   UNL A   1      48.931  29.749  27.238  1.00  0.00     0.029 A 
ATOM     62  N   UNL A   1      46.793  29.409  27.747  1.00  0.00    -0.354 N 
ATOM     63  N   UNL A   1      44.112  30.203  28.663  1.00  0.00    -0.248 NA
ATOM     64  C   UNL A   1      42.653  31.827  29.501  1.00  0.00     0.031 C 
ATOM     65  C   UNL A   1      48.396  30.945  27.729  1.00  0.00     0.029 A 
ATOM     66  C   UNL A   1      47.057  30.741  28.019  1.00  0.00     0.049 A 
ATOM     67  H   UNL A   1      45.921  28.969  27.870  1.00  0.00     0.167 HD
ATOM     68  C   UNL A   1      44.792  31.411  28.780  1.00  0.00     0.074 A 
ATOM     69  C   UNL A   1      43.836  32.383  29.269  1.00  0.00     0.031 C 
ATOM     70  C   UNL A   1      46.090  31.692  28.506  1.00  0.00     0.031 A 
BRANCH  57  71
ATOM     71  C   UNL A   1      49.356  26.847  26.471  1.00  0.00    -0.014 A 
ATOM     72  C   UNL A   1      49.791  26.965  25.138  1.00  0.00     0.010 A 
ATOM     73  C   UNL A   1      50.195  26.224  27.412  1.00  0.00     0.010 A 
ATOM     74  C   UNL A   1      51.019  26.431  24.745  1.00  0.00     0.020 A 
ATOM     75  C   UNL A   1      51.439  25.714  27.028  1.00  0.00     0.020 A 
ATOM     76  C   UNL A   1      51.835  25.805  25.692  1.00  0.00     0.054 A 
BRANCH  76  77
ATOM     77  S   UNL A   1      53.434  25.137  25.156  1.00  0.00     0.124 S 
ATOM     78  O   UNL A   1      54.359  25.812  26.063  1.00  0.00    -0.237 OA
ATOM     79  O   UNL A   1      53.273  23.703  25.376  1.00  0.00    -0.237 OA
ATOM     80  O   UNL A   1      53.527  25.543  23.756  1.00  0.00    -0.744 OA
ENDBRANCH  76  77
ENDBRANCH  57  71
BRANCH  58  81
ATOM     81  C   UNL A   1      40.380  29.977  29.593  1.00  0.00    -0.014 A 
ATOM     82  C   UNL A   1      40.136  30.125  30.969  1.00  0.00     0.010 A 
ATOM     83  C   UNL A   1      39.356  30.289  28.679  1.00  0.00     0.010 A 
ATOM     84  C   UNL A   1      38.887  30.557  31.426  1.00  0.00     0.020 A 
ATOM     85  C   UNL A   1      38.115  30.747  29.131  1.00  0.00     0.020 A 
ATOM     86  C   UNL A   1      37.885  30.867  30.503  1.00  0.00     0.054 A 
BRANCH  86  87
ATOM     87  S   UNL A   1      36.289  31.477  31.115  1.00  0.00     0.124 S 
ATOM     88  O   UNL A   1      35.903  30.428  32.053  1.00  0.00    -0.237 OA
ATOM     89  O   UNL A   1      36.648  32.760  31.712  1.00  0.00    -0.237 OA
ATOM     90  O   UNL A   1      35.473  31.568  29.907  1.00  0.00    -0.744 OA
ENDBRANCH  86  87
ENDBRANCH  58  81
BRANCH  70  91
ATOM     91  C   UNL A   1      46.542  33.115  28.692  1.00  0.00    -0.014 A 
ATOM     92  C   UNL A   1      46.433  34.059  27.656  1.00  0.00     0.010 A 
ATOM     93  C   UNL A   1      47.046  33.521  29.941  1.00  0.00     0.010 A 
ATOM     94  C   UNL A   1      46.857  35.376  27.854  1.00  0.00     0.020 A 
ATOM     95  C   UNL A   1      47.443  34.843  30.152  1.00  0.00     0.020 A 
ATOM     96  C   UNL A   1      47.363  35.759  29.100  1.00  0.00     0.054 A 
BRANCH  96  97
ATOM     97  S   UNL A   1      47.880  37.480  29.342  1.00  0.00     0.124 S 
ATOM     98  O   UNL A   1      46.599  38.162  29.498  1.00  0.00    -0.237 OA
ATOM     99  O   UNL A   1      48.703  37.402  30.547  1.00  0.00    -0.237 OA
ATOM    100  O   UNL A   1      48.611  37.796  28.117  1.00  0.00    -0.744 OA
ENDBRANCH  96  97
ENDBRANCH  70  91
ENDBRANCH  44  45
ENDBRANCH  36  39
ENDBRANCH  34  35
ENDBRANCH   1  34
TORSDOF 17
ENDMDL
