MODEL 1
REMARK VINA RESULT:     -11.9      0.000      0.000
REMARK SMILES O=C(NCCCCNC(=O)[C@@H]1CC(=O)N(c2ccc(Cl)cc2C(=O)c2ccccc2)C1)c1ccc(-c2c3nc(c(-c4ccc(S(=O)(=O)[O-])cc4)c4ccc([nH]4)c(-c4ccc(S(=O)(=O)[O-])cc4)c4nc(c(-c5ccc(S(=O)(=O)[O-])cc5)c5ccc2[nH]5)C=C4)C=C3)cc1
REMARK SMILES IDX 5 1 4 2 3 3 1 4 2 5 32 7 33 8 91 9 34 10 90 11 35 12 36 13
REMARK SMILES IDX 37 14 84 15 38 16 89 17 83 18 85 19 39 20 88 21 82 22 81 23
REMARK SMILES IDX 40 25 70 26 51 27 69 28 52 29 55 30 68 31 86 32 53 33 54 34
REMARK SMILES IDX 67 36 87 37 56 38 41 39 42 40 50 41 43 42 49 43 44 44 45 45
REMARK SMILES IDX 46 46 47 47 48 48 71 49 72 50 80 51 73 52 79 53 74 54 75 55
REMARK SMILES IDX 76 56 77 57 78 58 57 59 58 60 66 61 59 62 65 63 60 64 61 65
REMARK SMILES IDX 62 66 63 67 64 68 6 69 7 70 8 71 9 72 10 74 11 75 12 76
REMARK SMILES IDX 31 77 13 78 15 79 14 80 16 81 17 82 22 83 18 84 21 85 19 86
REMARK SMILES IDX 20 87 23 88 24 89 25 90 26 91 30 92 27 93 29 94 28 95
REMARK H PARENT 3 6 85 24 55 35 8 73
REMARK Flexibility Score: inf
ROOT
ATOM      1  C   UNL A   1      32.098  27.957  26.712  1.00  0.00     0.023 C 
ENDROOT
BRANCH   1   2
ATOM      2  C   UNL A   1      33.429  28.461  27.253  1.00  0.00     0.116 C 
BRANCH   2   3
ATOM      3  N   UNL A   1      33.407  29.857  27.667  1.00  0.00    -0.352 N 
ATOM      4  O   UNL A   1      34.159  31.792  28.537  1.00  0.00    -0.269 OA
ATOM      5  C   UNL A   1      34.411  30.643  28.186  1.00  0.00     0.251 C 
ATOM      6  H   UNL A   1      32.540  30.309  27.561  1.00  0.00     0.163 HD
BRANCH   5   7
ATOM      7  C   UNL A   1      35.772  30.091  28.359  1.00  0.00     0.039 A 
ATOM      8  C   UNL A   1      36.182  29.564  29.584  1.00  0.00     0.014 A 
ATOM      9  C   UNL A   1      36.664  30.134  27.283  1.00  0.00     0.014 A 
ATOM     10  C   UNL A   1      37.523  29.266  29.790  1.00  0.00     0.010 A 
ATOM     11  C   UNL A   1      37.992  29.735  27.464  1.00  0.00     0.010 A 
ATOM     12  C   UNL A   1      38.447  29.350  28.735  1.00  0.00    -0.014 A 
BRANCH  12  13
ATOM     13  C   UNL A   1      39.872  29.015  28.993  1.00  0.00     0.031 A 
ATOM     14  C   UNL A   1      40.782  29.980  29.709  1.00  0.00     0.074 A 
ATOM     15  C   UNL A   1      40.332  27.803  28.623  1.00  0.00     0.049 A 
ATOM     16  N   UNL A   1      42.029  29.816  30.072  1.00  0.00    -0.248 NA
ATOM     17  C   UNL A   1      40.228  31.298  30.057  1.00  0.00     0.031 C 
ATOM     18  C   UNL A   1      39.549  26.783  27.920  1.00  0.00     0.029 A 
ATOM     19  N   UNL A   1      41.552  27.209  28.815  1.00  0.00    -0.354 N 
ATOM     20  C   UNL A   1      42.419  31.015  30.661  1.00  0.00     0.074 A 
ATOM     21  C   UNL A   1      41.280  31.906  30.589  1.00  0.00     0.031 C 
ATOM     22  C   UNL A   1      40.284  25.668  27.800  1.00  0.00     0.029 A 
ATOM     23  C   UNL A   1      41.609  25.913  28.357  1.00  0.00     0.049 A 
ATOM     24  H   UNL A   1      42.314  27.664  29.240  1.00  0.00     0.167 HD
ATOM     25  C   UNL A   1      43.613  31.343  31.214  1.00  0.00     0.031 A 
ATOM     26  C   UNL A   1      42.615  25.018  28.376  1.00  0.00     0.031 A 
ATOM     27  C   UNL A   1      44.739  30.448  31.295  1.00  0.00     0.049 A 
ATOM     28  C   UNL A   1      43.927  25.409  28.990  1.00  0.00     0.074 A 
ATOM     29  C   UNL A   1      45.978  30.677  31.869  1.00  0.00     0.029 A 
ATOM     30  N   UNL A   1      44.766  29.159  30.788  1.00  0.00    -0.354 N 
ATOM     31  N   UNL A   1      44.262  26.538  29.567  1.00  0.00    -0.248 NA
ATOM     32  C   UNL A   1      44.995  24.402  28.959  1.00  0.00     0.031 C 
ATOM     33  C   UNL A   1      46.771  29.541  31.665  1.00  0.00     0.029 A 
ATOM     34  C   UNL A   1      46.006  28.585  31.016  1.00  0.00     0.049 A 
ATOM     35  H   UNL A   1      44.014  28.715  30.332  1.00  0.00     0.167 HD
ATOM     36  C   UNL A   1      45.574  26.368  29.992  1.00  0.00     0.074 A 
ATOM     37  C   UNL A   1      45.964  25.023  29.620  1.00  0.00     0.031 C 
ATOM     38  C   UNL A   1      46.381  27.246  30.637  1.00  0.00     0.031 A 
BRANCH  25  39
ATOM     39  C   UNL A   1      43.776  32.743  31.748  1.00  0.00    -0.014 A 
ATOM     40  C   UNL A   1      43.492  33.059  33.089  1.00  0.00     0.010 A 
ATOM     41  C   UNL A   1      44.264  33.755  30.899  1.00  0.00     0.010 A 
ATOM     42  C   UNL A   1      43.651  34.366  33.559  1.00  0.00     0.020 A 
ATOM     43  C   UNL A   1      44.451  35.058  31.372  1.00  0.00     0.020 A 
ATOM     44  C   UNL A   1      44.124  35.359  32.696  1.00  0.00     0.054 A 
BRANCH  44  45
ATOM     45  S   UNL A   1      44.332  37.044  33.333  1.00  0.00     0.124 S 
ATOM     46  O   UNL A   1      43.983  37.851  32.166  1.00  0.00    -0.237 OA
ATOM     47  O   UNL A   1      43.375  37.091  34.436  1.00  0.00    -0.237 OA
ATOM     48  O   UNL A   1      45.737  37.095  33.729  1.00  0.00    -0.744 OA
ENDBRANCH  44  45
ENDBRANCH  25  39
BRANCH  26  49
ATOM     49  C   UNL A   1      42.407  23.665  27.797  1.00  0.00    -0.014 A 
ATOM     50  C   UNL A   1      42.752  23.397  26.461  1.00  0.00     0.010 A 
ATOM     51  C   UNL A   1      41.889  22.625  28.592  1.00  0.00     0.010 A 
ATOM     52  C   UNL A   1      42.569  22.118  25.927  1.00  0.00     0.020 A 
ATOM     53  C   UNL A   1      41.732  21.340  28.070  1.00  0.00     0.020 A 
ATOM     54  C   UNL A   1      42.063  21.097  26.736  1.00  0.00     0.054 A 
BRANCH  54  55
ATOM     55  S   UNL A   1      41.887  19.432  26.039  1.00  0.00     0.124 S 
ATOM     56  O   UNL A   1      42.726  19.514  24.847  1.00  0.00    -0.237 OA
ATOM     57  O   UNL A   1      42.394  18.583  27.114  1.00  0.00    -0.237 OA
ATOM     58  O   UNL A   1      40.452  19.317  25.789  1.00  0.00    -0.744 OA
ENDBRANCH  54  55
ENDBRANCH  26  49
BRANCH  38  59
ATOM     59  C   UNL A   1      47.754  26.761  31.019  1.00  0.00    -0.014 A 
ATOM     60  C   UNL A   1      48.864  26.969  30.183  1.00  0.00     0.010 A 
ATOM     61  C   UNL A   1      47.935  26.106  32.251  1.00  0.00     0.010 A 
ATOM     62  C   UNL A   1      50.124  26.490  30.551  1.00  0.00     0.020 A 
ATOM     63  C   UNL A   1      49.197  25.651  32.635  1.00  0.00     0.020 A 
ATOM     64  C   UNL A   1      50.281  25.828  31.773  1.00  0.00     0.054 A 
BRANCH  64  65
ATOM     65  S   UNL A   1      51.929  25.232  32.242  1.00  0.00     0.124 S 
ATOM     66  O   UNL A   1      51.719  23.789  32.310  1.00  0.00    -0.237 OA
ATOM     67  O   UNL A   1      52.765  25.694  31.135  1.00  0.00    -0.237 OA
ATOM     68  O   UNL A   1      52.183  25.887  33.522  1.00  0.00    -0.744 OA
ENDBRANCH  64  65
ENDBRANCH  38  59
ENDBRANCH  12  13
ENDBRANCH   5   7
ENDBRANCH   2   3
ENDBRANCH   1   2
BRANCH   1  69
ATOM     69  C   UNL A   1      31.499  28.750  25.553  1.00  0.00     0.023 C 
BRANCH  69  70
ATOM     70  C   UNL A   1      32.004  28.384  24.156  1.00  0.00     0.116 C 
BRANCH  70  71
ATOM     71  N   UNL A   1      31.326  27.243  23.576  1.00  0.00    -0.356 N 
ATOM     72  C   UNL A   1      31.384  25.923  23.887  1.00  0.00     0.225 C 
ATOM     73  H   UNL A   1      30.720  27.461  22.832  1.00  0.00     0.163 HD
ATOM     74  O   UNL A   1      30.375  25.259  23.633  1.00  0.00    -0.275 OA
BRANCH  72  75
ATOM     75  C   UNL A   1      32.538  25.266  24.632  1.00  0.00     0.107 C 
ATOM     76  C   UNL A   1      33.891  25.138  23.959  1.00  0.00     0.116 C 
ATOM     77  C   UNL A   1      32.192  23.801  24.960  1.00  0.00     0.139 C 
ATOM     78  C   UNL A   1      33.862  23.787  23.316  1.00  0.00     0.227 C 
ATOM     79  N   UNL A   1      32.872  23.028  23.940  1.00  0.00    -0.311 N 
ATOM     80  O   UNL A   1      34.658  23.421  22.462  1.00  0.00    -0.274 OA
BRANCH  79  81
ATOM     81  C   UNL A   1      32.941  21.612  23.966  1.00  0.00     0.055 A 
ATOM     82  C   UNL A   1      32.256  20.938  22.927  1.00  0.00     0.028 A 
ATOM     83  C   UNL A   1      33.645  20.842  24.910  1.00  0.00     0.048 A 
ATOM     84  C   UNL A   1      32.261  19.550  22.814  1.00  0.00     0.023 A 
ATOM     85  C   UNL A   1      33.617  19.431  24.794  1.00  0.00     0.035 A 
ATOM     86  C   UNL A   1      32.936  18.798  23.758  1.00  0.00     0.041 A 
ATOM     87  Cl  UNL A   1      32.942  17.083  23.637  1.00  0.00    -0.084 Cl
BRANCH  83  88
ATOM     88  C   UNL A   1      34.474  21.334  26.041  1.00  0.00     0.195 C 
ATOM     89  O   UNL A   1      33.977  21.275  27.170  1.00  0.00    -0.289 OA
BRANCH  88  90
ATOM     90  C   UNL A   1      35.840  21.891  25.940  1.00  0.00     0.023 A 
ATOM     91  C   UNL A   1      35.987  23.254  26.239  1.00  0.00     0.012 A 
ATOM     92  C   UNL A   1      36.945  21.154  25.508  1.00  0.00     0.012 A 
ATOM     93  C   UNL A   1      37.232  23.872  26.141  1.00  0.00     0.001 A 
ATOM     94  C   UNL A   1      38.194  21.778  25.410  1.00  0.00     0.001 A 
ATOM     95  C   UNL A   1      38.337  23.132  25.730  1.00  0.00     0.000 A 
ENDBRANCH  88  90
ENDBRANCH  83  88
ENDBRANCH  79  81
ENDBRANCH  72  75
ENDBRANCH  70  71
ENDBRANCH  69  70
ENDBRANCH   1  69
TORSDOF 17
ENDMDL
MODEL 2
REMARK VINA RESULT:     -11.7      4.531     10.354
REMARK SMILES O=C(NCCCCNC(=O)[C@@H]1CC(=O)N(c2ccc(Cl)cc2C(=O)c2ccccc2)C1)c1ccc(-c2c3nc(c(-c4ccc(S(=O)(=O)[O-])cc4)c4ccc([nH]4)c(-c4ccc(S(=O)(=O)[O-])cc4)c4nc(c(-c5ccc(S(=O)(=O)[O-])cc5)c5ccc2[nH]5)C=C4)C=C3)cc1
REMARK SMILES IDX 5 1 4 2 3 3 1 4 2 5 32 7 33 8 91 9 34 10 90 11 35 12 36 13
REMARK SMILES IDX 37 14 84 15 38 16 89 17 83 18 85 19 39 20 88 21 82 22 81 23
REMARK SMILES IDX 40 25 70 26 51 27 69 28 52 29 55 30 68 31 86 32 53 33 54 34
REMARK SMILES IDX 67 36 87 37 56 38 41 39 42 40 50 41 43 42 49 43 44 44 45 45
REMARK SMILES IDX 46 46 47 47 48 48 71 49 72 50 80 51 73 52 79 53 74 54 75 55
REMARK SMILES IDX 76 56 77 57 78 58 57 59 58 60 66 61 59 62 65 63 60 64 61 65
REMARK SMILES IDX 62 66 63 67 64 68 6 69 7 70 8 71 9 72 10 74 11 75 12 76
REMARK SMILES IDX 31 77 13 78 15 79 14 80 16 81 17 82 22 83 18 84 21 85 19 86
REMARK SMILES IDX 20 87 23 88 24 89 25 90 26 91 30 92 27 93 29 94 28 95
REMARK H PARENT 3 6 85 24 55 35 8 73
REMARK Flexibility Score: inf
ROOT
ATOM      1  C   UNL A   1      38.707  22.527  26.474  1.00  0.00     0.023 C 
ENDROOT
BRANCH   1   2
ATOM      2  C   UNL A   1      39.206  23.962  26.378  1.00  0.00     0.116 C 
BRANCH   2   3
ATOM      3  N   UNL A   1      40.622  24.075  26.056  1.00  0.00    -0.352 N 
ATOM      4  O   UNL A   1      42.706  24.923  26.062  1.00  0.00    -0.269 OA
ATOM      5  C   UNL A   1      41.568  24.958  26.522  1.00  0.00     0.251 C 
ATOM      6  H   UNL A   1      40.953  23.418  25.402  1.00  0.00     0.163 HD
BRANCH   5   7
ATOM      7  C   UNL A   1      41.205  25.970  27.537  1.00  0.00     0.039 A 
ATOM      8  C   UNL A   1      41.885  27.186  27.612  1.00  0.00     0.014 A 
ATOM      9  C   UNL A   1      40.187  25.681  28.450  1.00  0.00     0.014 A 
ATOM     10  C   UNL A   1      41.685  28.018  28.707  1.00  0.00     0.010 A 
ATOM     11  C   UNL A   1      39.915  26.570  29.494  1.00  0.00     0.010 A 
ATOM     12  C   UNL A   1      40.701  27.721  29.664  1.00  0.00    -0.014 A 
BRANCH  12  13
ATOM     13  C   UNL A   1      40.512  28.640  30.817  1.00  0.00     0.031 A 
ATOM     14  C   UNL A   1      41.418  28.578  32.019  1.00  0.00     0.074 A 
ATOM     15  C   UNL A   1      39.544  29.576  30.750  1.00  0.00     0.049 A 
ATOM     16  N   UNL A   1      41.433  29.349  33.077  1.00  0.00    -0.248 NA
ATOM     17  C   UNL A   1      42.434  27.513  32.045  1.00  0.00     0.031 C 
ATOM     18  C   UNL A   1      38.600  29.735  29.640  1.00  0.00     0.029 A 
ATOM     19  N   UNL A   1      39.214  30.590  31.612  1.00  0.00    -0.354 N 
ATOM     20  C   UNL A   1      42.431  28.847  33.906  1.00  0.00     0.074 A 
ATOM     21  C   UNL A   1      42.989  27.691  33.237  1.00  0.00     0.031 C 
ATOM     22  C   UNL A   1      37.845  30.821  29.856  1.00  0.00     0.029 A 
ATOM     23  C   UNL A   1      38.203  31.398  31.146  1.00  0.00     0.049 A 
ATOM     24  H   UNL A   1      39.658  30.727  32.480  1.00  0.00     0.167 HD
ATOM     25  C   UNL A   1      42.848  29.309  35.111  1.00  0.00     0.031 A 
ATOM     26  C   UNL A   1      37.622  32.481  31.694  1.00  0.00     0.031 A 
ATOM     27  C   UNL A   1      42.299  30.467  35.767  1.00  0.00     0.049 A 
ATOM     28  C   UNL A   1      38.100  32.966  33.031  1.00  0.00     0.074 A 
ATOM     29  C   UNL A   1      42.680  31.034  36.972  1.00  0.00     0.029 A 
ATOM     30  N   UNL A   1      41.254  31.235  35.279  1.00  0.00    -0.354 N 
ATOM     31  N   UNL A   1      39.066  32.494  33.782  1.00  0.00    -0.248 NA
ATOM     32  C   UNL A   1      37.412  34.136  33.592  1.00  0.00     0.031 C 
ATOM     33  C   UNL A   1      41.832  32.115  37.235  1.00  0.00     0.029 A 
ATOM     34  C   UNL A   1      40.962  32.258  36.165  1.00  0.00     0.049 A 
ATOM     35  H   UNL A   1      40.787  31.077  34.426  1.00  0.00     0.167 HD
ATOM     36  C   UNL A   1      39.119  33.325  34.894  1.00  0.00     0.074 A 
ATOM     37  C   UNL A   1      38.099  34.338  34.709  1.00  0.00     0.031 C 
ATOM     38  C   UNL A   1      39.942  33.257  35.970  1.00  0.00     0.031 A 
BRANCH  25  39
ATOM     39  C   UNL A   1      43.934  28.538  35.818  1.00  0.00    -0.014 A 
ATOM     40  C   UNL A   1      43.634  27.472  36.686  1.00  0.00     0.010 A 
ATOM     41  C   UNL A   1      45.282  28.861  35.577  1.00  0.00     0.010 A 
ATOM     42  C   UNL A   1      44.659  26.772  37.330  1.00  0.00     0.020 A 
ATOM     43  C   UNL A   1      46.312  28.147  36.198  1.00  0.00     0.020 A 
ATOM     44  C   UNL A   1      45.993  27.118  37.087  1.00  0.00     0.054 A 
BRANCH  44  45
ATOM     45  S   UNL A   1      47.304  26.190  37.928  1.00  0.00     0.124 S 
ATOM     46  O   UNL A   1      47.936  25.487  36.813  1.00  0.00    -0.237 OA
ATOM     47  O   UNL A   1      48.106  27.247  38.537  1.00  0.00    -0.237 OA
ATOM     48  O   UNL A   1      46.578  25.340  38.869  1.00  0.00    -0.744 OA
ENDBRANCH  44  45
ENDBRANCH  25  39
BRANCH  26  49
ATOM     49  C   UNL A   1      36.527  33.177  30.968  1.00  0.00    -0.014 A 
ATOM     50  C   UNL A   1      35.207  33.128  31.448  1.00  0.00     0.010 A 
ATOM     51  C   UNL A   1      36.807  33.918  29.805  1.00  0.00     0.010 A 
ATOM     52  C   UNL A   1      34.184  33.797  30.769  1.00  0.00     0.020 A 
ATOM     53  C   UNL A   1      35.793  34.611  29.141  1.00  0.00     0.020 A 
ATOM     54  C   UNL A   1      34.484  34.536  29.621  1.00  0.00     0.054 A 
BRANCH  54  55
ATOM     55  S   UNL A   1      33.152  35.442  28.788  1.00  0.00     0.124 S 
ATOM     56  O   UNL A   1      33.899  36.395  27.972  1.00  0.00    -0.237 OA
ATOM     57  O   UNL A   1      32.459  34.385  28.055  1.00  0.00    -0.237 OA
ATOM     58  O   UNL A   1      32.393  36.024  29.893  1.00  0.00    -0.744 OA
ENDBRANCH  54  55
ENDBRANCH  26  49
BRANCH  38  59
ATOM     59  C   UNL A   1      39.800  34.337  37.009  1.00  0.00    -0.014 A 
ATOM     60  C   UNL A   1      40.487  35.558  36.896  1.00  0.00     0.010 A 
ATOM     61  C   UNL A   1      38.941  34.130  38.104  1.00  0.00     0.010 A 
ATOM     62  C   UNL A   1      40.354  36.536  37.886  1.00  0.00     0.020 A 
ATOM     63  C   UNL A   1      38.784  35.116  39.080  1.00  0.00     0.020 A 
ATOM     64  C   UNL A   1      39.507  36.306  38.974  1.00  0.00     0.054 A 
BRANCH  64  65
ATOM     65  S   UNL A   1      39.333  37.596  40.237  1.00  0.00     0.124 S 
ATOM     66  O   UNL A   1      38.931  36.821  41.407  1.00  0.00    -0.237 OA
ATOM     67  O   UNL A   1      40.675  38.172  40.296  1.00  0.00    -0.237 OA
ATOM     68  O   UNL A   1      38.306  38.479  39.691  1.00  0.00    -0.744 OA
ENDBRANCH  64  65
ENDBRANCH  38  59
ENDBRANCH  12  13
ENDBRANCH   5   7
ENDBRANCH   2   3
ENDBRANCH   1   2
BRANCH   1  69
ATOM     69  C   UNL A   1      37.869  22.026  25.302  1.00  0.00     0.023 C 
BRANCH  69  70
ATOM     70  C   UNL A   1      36.357  21.970  25.530  1.00  0.00     0.116 C 
BRANCH  70  71
ATOM     71  N   UNL A   1      35.583  22.428  24.395  1.00  0.00    -0.356 N 
ATOM     72  C   UNL A   1      34.946  23.605  24.170  1.00  0.00     0.225 C 
ATOM     73  H   UNL A   1      35.506  21.775  23.661  1.00  0.00     0.163 HD
ATOM     74  O   UNL A   1      34.826  23.942  22.988  1.00  0.00    -0.275 OA
BRANCH  72  75
ATOM     75  C   UNL A   1      34.507  24.567  25.266  1.00  0.00     0.107 C 
ATOM     76  C   UNL A   1      33.315  24.221  26.136  1.00  0.00     0.116 C 
ATOM     77  C   UNL A   1      34.086  25.916  24.650  1.00  0.00     0.139 C 
ATOM     78  C   UNL A   1      32.151  24.862  25.449  1.00  0.00     0.227 C 
ATOM     79  N   UNL A   1      32.639  25.861  24.605  1.00  0.00    -0.311 N 
ATOM     80  O   UNL A   1      30.983  24.595  25.694  1.00  0.00    -0.274 OA
BRANCH  79  81
ATOM     81  C   UNL A   1      31.837  26.973  24.246  1.00  0.00     0.055 A 
ATOM     82  C   UNL A   1      31.280  26.943  22.946  1.00  0.00     0.028 A 
ATOM     83  C   UNL A   1      31.539  28.071  25.075  1.00  0.00     0.048 A 
ATOM     84  C   UNL A   1      30.451  27.957  22.470  1.00  0.00     0.023 A 
ATOM     85  C   UNL A   1      30.716  29.105  24.565  1.00  0.00     0.035 A 
ATOM     86  C   UNL A   1      30.179  29.043  23.281  1.00  0.00     0.041 A 
ATOM     87  Cl  UNL A   1      29.167  30.307  22.704  1.00  0.00    -0.084 Cl
BRANCH  83  88
ATOM     88  C   UNL A   1      31.964  28.283  26.483  1.00  0.00     0.195 C 
ATOM     89  O   UNL A   1      31.319  27.701  27.359  1.00  0.00    -0.289 OA
BRANCH  88  90
ATOM     90  C   UNL A   1      33.088  29.132  26.933  1.00  0.00     0.023 A 
ATOM     91  C   UNL A   1      32.780  30.462  27.261  1.00  0.00     0.012 A 
ATOM     92  C   UNL A   1      34.415  28.697  26.979  1.00  0.00     0.012 A 
ATOM     93  C   UNL A   1      33.781  31.342  27.665  1.00  0.00     0.001 A 
ATOM     94  C   UNL A   1      35.418  29.586  27.386  1.00  0.00     0.001 A 
ATOM     95  C   UNL A   1      35.100  30.902  27.731  1.00  0.00     0.000 A 
ENDBRANCH  88  90
ENDBRANCH  83  88
ENDBRANCH  79  81
ENDBRANCH  72  75
ENDBRANCH  70  71
ENDBRANCH  69  70
ENDBRANCH   1  69
TORSDOF 17
ENDMDL
MODEL 3
REMARK VINA RESULT:     -11.7      0.805      8.051
REMARK SMILES O=C(NCCCCNC(=O)[C@@H]1CC(=O)N(c2ccc(Cl)cc2C(=O)c2ccccc2)C1)c1ccc(-c2c3nc(c(-c4ccc(S(=O)(=O)[O-])cc4)c4ccc([nH]4)c(-c4ccc(S(=O)(=O)[O-])cc4)c4nc(c(-c5ccc(S(=O)(=O)[O-])cc5)c5ccc2[nH]5)C=C4)C=C3)cc1
REMARK SMILES IDX 5 1 4 2 3 3 1 4 2 5 32 7 33 8 91 9 34 10 90 11 35 12 36 13
REMARK SMILES IDX 37 14 84 15 38 16 89 17 83 18 85 19 39 20 88 21 82 22 81 23
REMARK SMILES IDX 40 25 70 26 51 27 69 28 52 29 55 30 68 31 86 32 53 33 54 34
REMARK SMILES IDX 67 36 87 37 56 38 41 39 42 40 50 41 43 42 49 43 44 44 45 45
REMARK SMILES IDX 46 46 47 47 48 48 71 49 72 50 80 51 73 52 79 53 74 54 75 55
REMARK SMILES IDX 76 56 77 57 78 58 57 59 58 60 66 61 59 62 65 63 60 64 61 65
REMARK SMILES IDX 62 66 63 67 64 68 6 69 7 70 8 71 9 72 10 74 11 75 12 76
REMARK SMILES IDX 31 77 13 78 15 79 14 80 16 81 17 82 22 83 18 84 21 85 19 86
REMARK SMILES IDX 20 87 23 88 24 89 25 90 26 91 30 92 27 93 29 94 28 95
REMARK H PARENT 3 6 85 24 55 35 8 73
REMARK Flexibility Score: inf
ROOT
ATOM      1  C   UNL A   1      34.028  28.636  25.453  1.00  0.00     0.023 C 
ENDROOT
BRANCH   1   2
ATOM      2  C   UNL A   1      33.872  28.546  26.964  1.00  0.00     0.116 C 
BRANCH   2   3
ATOM      3  N   UNL A   1      33.775  29.840  27.626  1.00  0.00    -0.352 N 
ATOM      4  O   UNL A   1      34.403  31.596  28.885  1.00  0.00    -0.269 OA
ATOM      5  C   UNL A   1      34.717  30.539  28.345  1.00  0.00     0.251 C 
ATOM      6  H   UNL A   1      32.899  30.281  27.548  1.00  0.00     0.163 HD
BRANCH   5   7
ATOM      7  C   UNL A   1      36.084  29.999  28.503  1.00  0.00     0.039 A 
ATOM      8  C   UNL A   1      36.496  29.429  29.708  1.00  0.00     0.014 A 
ATOM      9  C   UNL A   1      36.980  30.096  27.434  1.00  0.00     0.014 A 
ATOM     10  C   UNL A   1      37.840  29.141  29.908  1.00  0.00     0.010 A 
ATOM     11  C   UNL A   1      38.312  29.707  27.605  1.00  0.00     0.010 A 
ATOM     12  C   UNL A   1      38.767  29.278  28.861  1.00  0.00    -0.014 A 
BRANCH  12  13
ATOM     13  C   UNL A   1      40.196  28.952  29.112  1.00  0.00     0.031 A 
ATOM     14  C   UNL A   1      40.777  27.627  28.690  1.00  0.00     0.074 A 
ATOM     15  C   UNL A   1      40.986  29.886  29.677  1.00  0.00     0.049 A 
ATOM     16  N   UNL A   1      42.016  27.211  28.771  1.00  0.00    -0.248 NA
ATOM     17  C   UNL A   1      39.854  26.639  28.109  1.00  0.00     0.031 C 
ATOM     18  C   UNL A   1      40.539  31.206  30.131  1.00  0.00     0.029 A 
ATOM     19  N   UNL A   1      42.333  29.887  29.933  1.00  0.00    -0.354 N 
ATOM     20  C   UNL A   1      42.017  25.908  28.285  1.00  0.00     0.074 A 
ATOM     21  C   UNL A   1      40.650  25.594  27.926  1.00  0.00     0.031 C 
ATOM     22  C   UNL A   1      41.601  31.911  30.546  1.00  0.00     0.029 A 
ATOM     23  C   UNL A   1      42.792  31.076  30.451  1.00  0.00     0.049 A 
ATOM     24  H   UNL A   1      42.916  29.112  29.763  1.00  0.00     0.167 HD
ATOM     25  C   UNL A   1      43.060  25.053  28.144  1.00  0.00     0.031 A 
ATOM     26  C   UNL A   1      44.031  31.454  30.815  1.00  0.00     0.031 A 
ATOM     27  C   UNL A   1      44.421  25.375  28.490  1.00  0.00     0.049 A 
ATOM     28  C   UNL A   1      45.166  30.486  30.654  1.00  0.00     0.074 A 
ATOM     29  C   UNL A   1      45.553  24.588  28.350  1.00  0.00     0.029 A 
ATOM     30  N   UNL A   1      44.837  26.576  29.044  1.00  0.00    -0.354 N 
ATOM     31  N   UNL A   1      45.148  29.270  30.163  1.00  0.00    -0.248 NA
ATOM     32  C   UNL A   1      46.491  30.945  31.091  1.00  0.00     0.031 C 
ATOM     33  C   UNL A   1      46.644  25.296  28.866  1.00  0.00     0.029 A 
ATOM     34  C   UNL A   1      46.202  26.545  29.272  1.00  0.00     0.049 A 
ATOM     35  H   UNL A   1      44.247  27.338  29.246  1.00  0.00     0.167 HD
ATOM     36  C   UNL A   1      46.464  28.827  30.208  1.00  0.00     0.074 A 
ATOM     37  C   UNL A   1      47.252  29.911  30.759  1.00  0.00     0.031 C 
ATOM     38  C   UNL A   1      46.973  27.630  29.824  1.00  0.00     0.031 A 
BRANCH  25  39
ATOM     39  C   UNL A   1      42.767  23.670  27.623  1.00  0.00    -0.014 A 
ATOM     40  C   UNL A   1      42.942  23.341  26.267  1.00  0.00     0.010 A 
ATOM     41  C   UNL A   1      42.346  22.667  28.518  1.00  0.00     0.010 A 
ATOM     42  C   UNL A   1      42.662  22.050  25.808  1.00  0.00     0.020 A 
ATOM     43  C   UNL A   1      42.090  21.368  28.068  1.00  0.00     0.020 A 
ATOM     44  C   UNL A   1      42.232  21.072  26.711  1.00  0.00     0.054 A 
BRANCH  44  45
ATOM     45  S   UNL A   1      41.884  19.403  26.093  1.00  0.00     0.124 S 
ATOM     46  O   UNL A   1      42.288  18.573  27.225  1.00  0.00    -0.237 OA
ATOM     47  O   UNL A   1      40.448  19.450  25.830  1.00  0.00    -0.237 OA
ATOM     48  O   UNL A   1      42.729  19.290  24.905  1.00  0.00    -0.744 OA
ENDBRANCH  44  45
ENDBRANCH  25  39
BRANCH  26  49
ATOM     49  C   UNL A   1      44.253  32.819  31.361  1.00  0.00    -0.014 A 
ATOM     50  C   UNL A   1      44.674  33.866  30.522  1.00  0.00     0.010 A 
ATOM     51  C   UNL A   1      44.017  33.085  32.723  1.00  0.00     0.010 A 
ATOM     52  C   UNL A   1      44.867  35.150  31.039  1.00  0.00     0.020 A 
ATOM     53  C   UNL A   1      44.180  34.374  33.235  1.00  0.00     0.020 A 
ATOM     54  C   UNL A   1      44.616  35.397  32.392  1.00  0.00     0.054 A 
BRANCH  54  55
ATOM     55  S   UNL A   1      44.818  37.083  33.028  1.00  0.00     0.124 S 
ATOM     56  O   UNL A   1      44.916  36.853  34.466  1.00  0.00    -0.237 OA
ATOM     57  O   UNL A   1      46.047  37.524  32.371  1.00  0.00    -0.237 OA
ATOM     58  O   UNL A   1      43.605  37.763  32.583  1.00  0.00    -0.744 OA
ENDBRANCH  54  55
ENDBRANCH  26  49
BRANCH  38  59
ATOM     59  C   UNL A   1      48.463  27.450  29.947  1.00  0.00    -0.014 A 
ATOM     60  C   UNL A   1      49.041  26.893  31.101  1.00  0.00     0.010 A 
ATOM     61  C   UNL A   1      49.293  27.823  28.875  1.00  0.00     0.010 A 
ATOM     62  C   UNL A   1      50.429  26.755  31.198  1.00  0.00     0.020 A 
ATOM     63  C   UNL A   1      50.677  27.661  28.957  1.00  0.00     0.020 A 
ATOM     64  C   UNL A   1      51.238  27.145  30.128  1.00  0.00     0.054 A 
BRANCH  64  65
ATOM     65  S   UNL A   1      53.035  26.940  30.266  1.00  0.00     0.124 S 
ATOM     66  O   UNL A   1      53.477  28.309  30.516  1.00  0.00    -0.237 OA
ATOM     67  O   UNL A   1      53.167  26.021  31.395  1.00  0.00    -0.237 OA
ATOM     68  O   UNL A   1      53.421  26.386  28.971  1.00  0.00    -0.744 OA
ENDBRANCH  64  65
ENDBRANCH  38  59
ENDBRANCH  12  13
ENDBRANCH   5   7
ENDBRANCH   2   3
ENDBRANCH   1   2
BRANCH   1  69
ATOM     69  C   UNL A   1      32.773  29.006  24.668  1.00  0.00     0.023 C 
BRANCH  69  70
ATOM     70  C   UNL A   1      31.471  28.349  25.130  1.00  0.00     0.116 C 
BRANCH  70  71
ATOM     71  N   UNL A   1      30.990  27.322  24.229  1.00  0.00    -0.356 N 
ATOM     72  C   UNL A   1      31.232  25.987  24.194  1.00  0.00     0.225 C 
ATOM     73  H   UNL A   1      30.386  27.647  23.523  1.00  0.00     0.163 HD
ATOM     74  O   UNL A   1      30.341  25.286  23.705  1.00  0.00    -0.275 OA
BRANCH  72  75
ATOM     75  C   UNL A   1      32.443  25.316  24.828  1.00  0.00     0.107 C 
ATOM     76  C   UNL A   1      33.750  25.248  24.063  1.00  0.00     0.116 C 
ATOM     77  C   UNL A   1      32.142  23.829  25.101  1.00  0.00     0.139 C 
ATOM     78  C   UNL A   1      33.701  23.931  23.354  1.00  0.00     0.227 C 
ATOM     79  N   UNL A   1      32.767  23.122  24.001  1.00  0.00    -0.311 N 
ATOM     80  O   UNL A   1      34.445  23.625  22.433  1.00  0.00    -0.274 OA
BRANCH  79  81
ATOM     81  C   UNL A   1      32.861  21.709  23.949  1.00  0.00     0.055 A 
ATOM     82  C   UNL A   1      32.173  21.080  22.885  1.00  0.00     0.028 A 
ATOM     83  C   UNL A   1      33.590  20.902  24.841  1.00  0.00     0.048 A 
ATOM     84  C   UNL A   1      32.199  19.700  22.696  1.00  0.00     0.023 A 
ATOM     85  C   UNL A   1      33.585  19.498  24.649  1.00  0.00     0.035 A 
ATOM     86  C   UNL A   1      32.901  18.910  23.589  1.00  0.00     0.041 A 
ATOM     87  Cl  UNL A   1      32.935  17.204  23.375  1.00  0.00    -0.084 Cl
BRANCH  83  88
ATOM     88  C   UNL A   1      34.426  21.346  25.987  1.00  0.00     0.195 C 
ATOM     89  O   UNL A   1      33.984  21.140  27.120  1.00  0.00    -0.289 OA
BRANCH  88  90
ATOM     90  C   UNL A   1      35.741  22.017  25.894  1.00  0.00     0.023 A 
ATOM     91  C   UNL A   1      36.828  21.220  25.501  1.00  0.00     0.012 A 
ATOM     92  C   UNL A   1      35.952  23.355  26.236  1.00  0.00     0.012 A 
ATOM     93  C   UNL A   1      38.110  21.760  25.417  1.00  0.00     0.001 A 
ATOM     94  C   UNL A   1      37.241  23.894  26.150  1.00  0.00     0.001 A 
ATOM     95  C   UNL A   1      38.315  23.099  25.738  1.00  0.00     0.000 A 
ENDBRANCH  88  90
ENDBRANCH  83  88
ENDBRANCH  79  81
ENDBRANCH  72  75
ENDBRANCH  70  71
ENDBRANCH  69  70
ENDBRANCH   1  69
TORSDOF 17
ENDMDL
