MODEL 1
REMARK VINA RESULT:     -10.8      0.000      0.000
REMARK SMILES O=C(/C=C/C(=O)Nc1ccc2[nH]ncc2c1)NCCCCNC(=O)c1ccc(-c2c3nc(c(-c4ccc(S(=O)(=O)[O-])cc4)c4ccc([nH]4)c(-c4ccc(S(=O)(=O)[O-])cc4)c4nc(c(-c5ccc(S(=O)(=O)[O-])cc5)c5ccc2[nH]5)C=C4)C=C3)cc1
REMARK SMILES IDX 20 1 19 2 18 3 17 4 1 5 2 6 3 8 4 9 5 10 6 11 7 12 8 14 9 15
REMARK SMILES IDX 16 16 10 17 15 18 11 19 14 20 12 21 13 22 21 24 22 25 23 26
REMARK SMILES IDX 24 28 25 29 26 30 84 31 27 32 83 33 28 34 29 35 30 36 77 37
REMARK SMILES IDX 31 38 82 39 76 40 78 41 32 42 81 43 75 44 74 45 33 47 63 48
REMARK SMILES IDX 44 49 62 50 45 51 48 52 61 53 79 54 46 55 47 56 60 58 80 59
REMARK SMILES IDX 49 60 34 61 35 62 43 63 36 64 42 65 37 66 38 67 39 68 40 69
REMARK SMILES IDX 41 70 64 71 65 72 73 73 66 74 72 75 67 76 68 77 69 78 70 79
REMARK SMILES IDX 71 80 50 81 51 82 59 83 52 84 58 85 53 86 54 87 55 88 56 89
REMARK SMILES IDX 57 90
REMARK H PARENT 17 7 7 13 12 23 22 27 78 46 48 57
REMARK Flexibility Score: inf
ROOT
ATOM      1  C   UNL A   1      33.728  28.507  25.493  1.00  0.00     0.023 C 
ENDROOT
BRANCH   1   2
ATOM      2  C   UNL A   1      32.722  29.424  24.794  1.00  0.00     0.023 C 
BRANCH   2   3
ATOM      3  C   UNL A   1      31.350  28.791  24.565  1.00  0.00     0.116 C 
BRANCH   3   4
ATOM      4  N   UNL A   1      31.338  27.407  24.993  1.00  0.00    -0.353 N 
ATOM      5  O   UNL A   1      29.360  26.887  23.953  1.00  0.00    -0.270 OA
ATOM      6  C   UNL A   1      30.296  26.582  24.684  1.00  0.00     0.244 C 
ATOM      7  H   UNL A   1      32.095  27.056  25.516  1.00  0.00     0.163 HD
BRANCH   6   8
ATOM      8  C   UNL A   1      30.302  25.260  25.340  1.00  0.00     0.077 C 
ATOM      9  C   UNL A   1      31.153  24.876  26.304  1.00  0.00     0.077 C 
BRANCH   9  10
ATOM     10  C   UNL A   1      31.190  23.463  26.762  1.00  0.00     0.248 C 
ATOM     11  O   UNL A   1      30.296  23.053  27.499  1.00  0.00    -0.270 OA
ATOM     12  N   UNL A   1      32.179  22.619  26.320  1.00  0.00    -0.322 N 
ATOM     13  H   UNL A   1      32.040  21.664  26.516  1.00  0.00     0.170 HD
BRANCH  12  14
ATOM     14  C   UNL A   1      33.361  22.930  25.625  1.00  0.00     0.042 A 
ATOM     15  C   UNL A   1      33.530  22.619  24.271  1.00  0.00     0.028 A 
ATOM     16  C   UNL A   1      34.420  23.473  26.365  1.00  0.00     0.038 A 
ATOM     17  C   UNL A   1      34.785  22.675  23.659  1.00  0.00     0.030 A 
ATOM     18  C   UNL A   1      35.696  23.502  25.776  1.00  0.00     0.022 A 
ATOM     19  C   UNL A   1      35.852  23.081  24.461  1.00  0.00     0.065 A 
ATOM     20  C   UNL A   1      37.005  23.827  26.196  1.00  0.00     0.143 A 
ATOM     21  N   UNL A   1      37.198  23.139  24.217  1.00  0.00    -0.278 N 
ATOM     22  N   UNL A   1      37.921  23.620  25.245  1.00  0.00    -0.183 NA
ATOM     23  H   UNL A   1      37.602  22.856  23.366  1.00  0.00     0.190 HD
ENDBRANCH  12  14
ENDBRANCH   9  10
ENDBRANCH   6   8
ENDBRANCH   3   4
ENDBRANCH   2   3
ENDBRANCH   1   2
BRANCH   1  24
ATOM     24  C   UNL A   1      33.731  28.596  27.015  1.00  0.00     0.116 C 
BRANCH  24  25
ATOM     25  N   UNL A   1      33.626  29.963  27.495  1.00  0.00    -0.352 N 
ATOM     26  C   UNL A   1      34.535  30.696  28.218  1.00  0.00     0.251 C 
ATOM     27  H   UNL A   1      32.788  30.428  27.271  1.00  0.00     0.163 HD
ATOM     28  O   UNL A   1      34.211  31.786  28.684  1.00  0.00    -0.269 OA
BRANCH  26  29
ATOM     29  C   UNL A   1      35.892  30.158  28.457  1.00  0.00     0.039 A 
ATOM     30  C   UNL A   1      36.828  30.204  27.420  1.00  0.00     0.014 A 
ATOM     31  C   UNL A   1      36.246  29.624  29.699  1.00  0.00     0.014 A 
ATOM     32  C   UNL A   1      38.136  29.773  27.651  1.00  0.00     0.010 A 
ATOM     33  C   UNL A   1      37.569  29.269  29.950  1.00  0.00     0.010 A 
ATOM     34  C   UNL A   1      38.529  29.336  28.928  1.00  0.00    -0.014 A 
BRANCH  34  35
ATOM     35  C   UNL A   1      39.939  28.960  29.214  1.00  0.00     0.031 A 
ATOM     36  C   UNL A   1      40.885  29.960  29.822  1.00  0.00     0.074 A 
ATOM     37  C   UNL A   1      40.384  27.733  28.874  1.00  0.00     0.049 A 
ATOM     38  N   UNL A   1      42.158  29.831  30.093  1.00  0.00    -0.248 NA
ATOM     39  C   UNL A   1      40.335  31.287  30.145  1.00  0.00     0.031 C 
ATOM     40  C   UNL A   1      39.579  26.684  28.242  1.00  0.00     0.029 A 
ATOM     41  N   UNL A   1      41.626  27.162  29.005  1.00  0.00    -0.354 N 
ATOM     42  C   UNL A   1      42.563  31.057  30.608  1.00  0.00     0.074 A 
ATOM     43  C   UNL A   1      41.414  31.935  30.557  1.00  0.00     0.031 C 
ATOM     44  C   UNL A   1      40.339  25.592  28.065  1.00  0.00     0.029 A 
ATOM     45  C   UNL A   1      41.696  25.874  28.525  1.00  0.00     0.049 A 
ATOM     46  H   UNL A   1      42.395  27.631  29.403  1.00  0.00     0.167 HD
ATOM     47  C   UNL A   1      43.774  31.415  31.098  1.00  0.00     0.031 A 
ATOM     48  C   UNL A   1      42.734  25.018  28.452  1.00  0.00     0.031 A 
ATOM     49  C   UNL A   1      44.917  30.540  31.147  1.00  0.00     0.049 A 
ATOM     50  C   UNL A   1      44.076  25.447  28.979  1.00  0.00     0.074 A 
ATOM     51  C   UNL A   1      46.174  30.796  31.666  1.00  0.00     0.029 A 
ATOM     52  N   UNL A   1      44.944  29.244  30.655  1.00  0.00    -0.354 N 
ATOM     53  N   UNL A   1      44.422  26.590  29.521  1.00  0.00    -0.248 NA
ATOM     54  C   UNL A   1      45.166  24.465  28.897  1.00  0.00     0.031 C 
ATOM     55  C   UNL A   1      46.978  29.676  31.433  1.00  0.00     0.029 A 
ATOM     56  C   UNL A   1      46.204  28.696  30.834  1.00  0.00     0.049 A 
ATOM     57  H   UNL A   1      44.180  28.780  30.240  1.00  0.00     0.167 HD
ATOM     58  C   UNL A   1      45.762  26.455  29.870  1.00  0.00     0.074 A 
ATOM     59  C   UNL A   1      46.158  25.113  29.493  1.00  0.00     0.031 C 
ATOM     60  C   UNL A   1      46.588  27.360  30.452  1.00  0.00     0.031 A 
BRANCH  47  61
ATOM     61  C   UNL A   1      43.927  32.824  31.617  1.00  0.00    -0.014 A 
ATOM     62  C   UNL A   1      44.353  33.867  30.773  1.00  0.00     0.010 A 
ATOM     63  C   UNL A   1      43.603  33.118  32.953  1.00  0.00     0.010 A 
ATOM     64  C   UNL A   1      44.497  35.165  31.268  1.00  0.00     0.020 A 
ATOM     65  C   UNL A   1      43.714  34.422  33.444  1.00  0.00     0.020 A 
ATOM     66  C   UNL A   1      44.179  35.434  32.603  1.00  0.00     0.054 A 
BRANCH  66  67
ATOM     67  S   UNL A   1      44.360  37.133  33.212  1.00  0.00     0.124 S 
ATOM     68  O   UNL A   1      45.799  37.216  33.448  1.00  0.00    -0.237 OA
ATOM     69  O   UNL A   1      43.861  37.928  32.094  1.00  0.00    -0.237 OA
ATOM     70  O   UNL A   1      43.530  37.161  34.414  1.00  0.00    -0.744 OA
ENDBRANCH  66  67
ENDBRANCH  47  61
BRANCH  48  71
ATOM     71  C   UNL A   1      42.540  23.665  27.859  1.00  0.00    -0.014 A 
ATOM     72  C   UNL A   1      42.728  23.450  26.483  1.00  0.00     0.010 A 
ATOM     73  C   UNL A   1      42.177  22.578  28.677  1.00  0.00     0.010 A 
ATOM     74  C   UNL A   1      42.542  22.178  25.933  1.00  0.00     0.020 A 
ATOM     75  C   UNL A   1      42.020  21.300  28.136  1.00  0.00     0.020 A 
ATOM     76  C   UNL A   1      42.193  21.109  26.764  1.00  0.00     0.054 A 
BRANCH  76  77
ATOM     77  S   UNL A   1      42.009  19.458  26.035  1.00  0.00     0.124 S 
ATOM     78  O   UNL A   1      42.867  19.548  24.857  1.00  0.00    -0.237 OA
ATOM     79  O   UNL A   1      42.490  18.587  27.105  1.00  0.00    -0.237 OA
ATOM     80  O   UNL A   1      40.577  19.362  25.761  1.00  0.00    -0.744 OA
ENDBRANCH  76  77
ENDBRANCH  48  71
BRANCH  60  81
ATOM     81  C   UNL A   1      47.997  26.921  30.754  1.00  0.00    -0.014 A 
ATOM     82  C   UNL A   1      49.025  27.047  29.802  1.00  0.00     0.010 A 
ATOM     83  C   UNL A   1      48.308  26.428  32.035  1.00  0.00     0.010 A 
ATOM     84  C   UNL A   1      50.330  26.656  30.115  1.00  0.00     0.020 A 
ATOM     85  C   UNL A   1      49.618  26.066  32.362  1.00  0.00     0.020 A 
ATOM     86  C   UNL A   1      50.618  26.170  31.394  1.00  0.00     0.054 A 
BRANCH  86  87
ATOM     87  S   UNL A   1      52.328  25.712  31.789  1.00  0.00     0.124 S 
ATOM     88  O   UNL A   1      52.200  24.291  32.099  1.00  0.00    -0.237 OA
ATOM     89  O   UNL A   1      53.036  26.023  30.549  1.00  0.00    -0.237 OA
ATOM     90  O   UNL A   1      52.665  26.569  32.923  1.00  0.00    -0.744 OA
ENDBRANCH  86  87
ENDBRANCH  60  81
ENDBRANCH  34  35
ENDBRANCH  26  29
ENDBRANCH  24  25
ENDBRANCH   1  24
TORSDOF 16
ENDMDL
MODEL 2
REMARK VINA RESULT:     -10.7      2.572      9.374
REMARK SMILES O=C(/C=C/C(=O)Nc1ccc2[nH]ncc2c1)NCCCCNC(=O)c1ccc(-c2c3nc(c(-c4ccc(S(=O)(=O)[O-])cc4)c4ccc([nH]4)c(-c4ccc(S(=O)(=O)[O-])cc4)c4nc(c(-c5ccc(S(=O)(=O)[O-])cc5)c5ccc2[nH]5)C=C4)C=C3)cc1
REMARK SMILES IDX 20 1 19 2 18 3 17 4 1 5 2 6 3 8 4 9 5 10 6 11 7 12 8 14 9 15
REMARK SMILES IDX 16 16 10 17 15 18 11 19 14 20 12 21 13 22 21 24 22 25 23 26
REMARK SMILES IDX 24 28 25 29 26 30 84 31 27 32 83 33 28 34 29 35 30 36 77 37
REMARK SMILES IDX 31 38 82 39 76 40 78 41 32 42 81 43 75 44 74 45 33 47 63 48
REMARK SMILES IDX 44 49 62 50 45 51 48 52 61 53 79 54 46 55 47 56 60 58 80 59
REMARK SMILES IDX 49 60 34 61 35 62 43 63 36 64 42 65 37 66 38 67 39 68 40 69
REMARK SMILES IDX 41 70 64 71 65 72 73 73 66 74 72 75 67 76 68 77 69 78 70 79
REMARK SMILES IDX 71 80 50 81 51 82 59 83 52 84 58 85 53 86 54 87 55 88 56 89
REMARK SMILES IDX 57 90
REMARK H PARENT 17 7 7 13 12 23 22 27 78 46 48 57
REMARK Flexibility Score: inf
ROOT
ATOM      1  C   UNL A   1      35.538  23.166  24.827  1.00  0.00     0.023 C 
ENDROOT
BRANCH   1   2
ATOM      2  C   UNL A   1      35.738  21.733  24.325  1.00  0.00     0.023 C 
BRANCH   2   3
ATOM      3  C   UNL A   1      34.931  20.683  25.088  1.00  0.00     0.116 C 
BRANCH   3   4
ATOM      4  N   UNL A   1      33.716  21.254  25.630  1.00  0.00    -0.353 N 
ATOM      5  O   UNL A   1      32.387  20.620  23.871  1.00  0.00    -0.270 OA
ATOM      6  C   UNL A   1      32.544  21.214  24.932  1.00  0.00     0.244 C 
ATOM      7  H   UNL A   1      33.735  21.678  26.519  1.00  0.00     0.163 HD
BRANCH   6   8
ATOM      8  C   UNL A   1      31.428  21.998  25.496  1.00  0.00     0.077 C 
ATOM      9  C   UNL A   1      31.533  23.226  26.027  1.00  0.00     0.077 C 
BRANCH   9  10
ATOM     10  C   UNL A   1      30.382  23.846  26.734  1.00  0.00     0.248 C 
ATOM     11  O   UNL A   1      29.683  23.142  27.460  1.00  0.00    -0.270 OA
ATOM     12  N   UNL A   1      30.143  25.192  26.618  1.00  0.00    -0.322 N 
ATOM     13  H   UNL A   1      29.483  25.562  27.249  1.00  0.00     0.170 HD
BRANCH  12  14
ATOM     14  C   UNL A   1      30.711  26.117  25.724  1.00  0.00     0.042 A 
ATOM     15  C   UNL A   1      31.874  26.833  26.035  1.00  0.00     0.028 A 
ATOM     16  C   UNL A   1      30.011  26.381  24.539  1.00  0.00     0.038 A 
ATOM     17  C   UNL A   1      32.277  27.936  25.277  1.00  0.00     0.030 A 
ATOM     18  C   UNL A   1      30.383  27.509  23.786  1.00  0.00     0.022 A 
ATOM     19  C   UNL A   1      31.478  28.268  24.184  1.00  0.00     0.065 A 
ATOM     20  C   UNL A   1      29.883  28.186  22.651  1.00  0.00     0.143 A 
ATOM     21  N   UNL A   1      31.521  29.326  23.317  1.00  0.00    -0.278 N 
ATOM     22  N   UNL A   1      30.582  29.286  22.354  1.00  0.00    -0.183 NA
ATOM     23  H   UNL A   1      32.181  30.053  23.391  1.00  0.00     0.190 HD
ENDBRANCH  12  14
ENDBRANCH   9  10
ENDBRANCH   6   8
ENDBRANCH   3   4
ENDBRANCH   2   3
ENDBRANCH   1   2
BRANCH   1  24
ATOM     24  C   UNL A   1      36.610  23.667  25.788  1.00  0.00     0.116 C 
BRANCH  24  25
ATOM     25  N   UNL A   1      37.740  22.759  25.886  1.00  0.00    -0.352 N 
ATOM     26  C   UNL A   1      39.014  23.012  26.335  1.00  0.00     0.251 C 
ATOM     27  H   UNL A   1      37.570  21.836  25.590  1.00  0.00     0.163 HD
ATOM     28  O   UNL A   1      39.893  22.165  26.192  1.00  0.00    -0.269 OA
BRANCH  26  29
ATOM     29  C   UNL A   1      39.328  24.313  26.964  1.00  0.00     0.039 A 
ATOM     30  C   UNL A   1      38.916  24.544  28.279  1.00  0.00     0.014 A 
ATOM     31  C   UNL A   1      40.038  25.296  26.268  1.00  0.00     0.014 A 
ATOM     32  C   UNL A   1      39.272  25.735  28.916  1.00  0.00     0.010 A 
ATOM     33  C   UNL A   1      40.458  26.447  26.930  1.00  0.00     0.010 A 
ATOM     34  C   UNL A   1      40.078  26.682  28.260  1.00  0.00    -0.014 A 
BRANCH  34  35
ATOM     35  C   UNL A   1      40.541  27.913  28.954  1.00  0.00     0.031 A 
ATOM     36  C   UNL A   1      41.911  27.967  29.573  1.00  0.00     0.074 A 
ATOM     37  C   UNL A   1      39.706  28.964  29.076  1.00  0.00     0.049 A 
ATOM     38  N   UNL A   1      42.468  28.931  30.261  1.00  0.00    -0.248 NA
ATOM     39  C   UNL A   1      42.760  26.773  29.420  1.00  0.00     0.031 C 
ATOM     40  C   UNL A   1      38.338  29.025  28.556  1.00  0.00     0.029 A 
ATOM     41  N   UNL A   1      39.881  30.183  29.684  1.00  0.00    -0.354 N 
ATOM     42  C   UNL A   1      43.722  28.459  30.631  1.00  0.00     0.074 A 
ATOM     43  C   UNL A   1      43.822  27.102  30.140  1.00  0.00     0.031 C 
ATOM     44  C   UNL A   1      37.809  30.225  28.843  1.00  0.00     0.029 A 
ATOM     45  C   UNL A   1      38.779  31.003  29.608  1.00  0.00     0.049 A 
ATOM     46  H   UNL A   1      40.717  30.445  30.133  1.00  0.00     0.167 HD
ATOM     47  C   UNL A   1      44.710  29.103  31.299  1.00  0.00     0.031 A 
ATOM     48  C   UNL A   1      38.565  32.237  30.105  1.00  0.00     0.031 A 
ATOM     49  C   UNL A   1      44.607  30.453  31.788  1.00  0.00     0.049 A 
ATOM     50  C   UNL A   1      39.667  32.922  30.866  1.00  0.00     0.074 A 
ATOM     51  C   UNL A   1      45.568  31.208  32.437  1.00  0.00     0.029 A 
ATOM     52  N   UNL A   1      43.476  31.249  31.686  1.00  0.00    -0.354 N 
ATOM     53  N   UNL A   1      40.870  32.482  31.150  1.00  0.00    -0.248 NA
ATOM     54  C   UNL A   1      39.388  34.276  31.365  1.00  0.00     0.031 C 
ATOM     55  C   UNL A   1      44.999  32.437  32.781  1.00  0.00     0.029 A 
ATOM     56  C   UNL A   1      43.706  32.477  32.284  1.00  0.00     0.049 A 
ATOM     57  H   UNL A   1      42.633  30.981  31.252  1.00  0.00     0.167 HD
ATOM     58  C   UNL A   1      41.500  33.516  31.834  1.00  0.00     0.074 A 
ATOM     59  C   UNL A   1      40.551  34.608  31.907  1.00  0.00     0.031 C 
ATOM     60  C   UNL A   1      42.753  33.557  32.353  1.00  0.00     0.031 A 
BRANCH  47  61
ATOM     61  C   UNL A   1      45.990  28.345  31.548  1.00  0.00    -0.014 A 
ATOM     62  C   UNL A   1      46.161  27.567  32.709  1.00  0.00     0.010 A 
ATOM     63  C   UNL A   1      47.021  28.378  30.592  1.00  0.00     0.010 A 
ATOM     64  C   UNL A   1      47.355  26.877  32.930  1.00  0.00     0.020 A 
ATOM     65  C   UNL A   1      48.205  27.662  30.794  1.00  0.00     0.020 A 
ATOM     66  C   UNL A   1      48.371  26.931  31.972  1.00  0.00     0.054 A 
BRANCH  66  67
ATOM     67  S   UNL A   1      49.904  26.010  32.279  1.00  0.00     0.124 S 
ATOM     68  O   UNL A   1      50.654  26.945  33.114  1.00  0.00    -0.237 OA
ATOM     69  O   UNL A   1      49.423  24.809  32.958  1.00  0.00    -0.237 OA
ATOM     70  O   UNL A   1      50.452  25.791  30.944  1.00  0.00    -0.744 OA
ENDBRANCH  66  67
ENDBRANCH  47  61
BRANCH  48  71
ATOM     71  C   UNL A   1      37.250  32.905  29.891  1.00  0.00    -0.014 A 
ATOM     72  C   UNL A   1      36.248  32.850  30.876  1.00  0.00     0.010 A 
ATOM     73  C   UNL A   1      37.001  33.616  28.702  1.00  0.00     0.010 A 
ATOM     74  C   UNL A   1      35.015  33.478  30.667  1.00  0.00     0.020 A 
ATOM     75  C   UNL A   1      35.783  34.270  28.504  1.00  0.00     0.020 A 
ATOM     76  C   UNL A   1      34.792  34.187  29.484  1.00  0.00     0.054 A 
BRANCH  76  77
ATOM     77  S   UNL A   1      33.205  35.038  29.261  1.00  0.00     0.124 S 
ATOM     78  O   UNL A   1      32.652  35.009  30.611  1.00  0.00    -0.237 OA
ATOM     79  O   UNL A   1      33.619  36.351  28.772  1.00  0.00    -0.237 OA
ATOM     80  O   UNL A   1      32.508  34.209  28.280  1.00  0.00    -0.744 OA
ENDBRANCH  76  77
ENDBRANCH  48  71
BRANCH  60  81
ATOM     81  C   UNL A   1      43.189  34.837  33.016  1.00  0.00    -0.014 A 
ATOM     82  C   UNL A   1      43.000  35.052  34.393  1.00  0.00     0.010 A 
ATOM     83  C   UNL A   1      43.853  35.818  32.256  1.00  0.00     0.010 A 
ATOM     84  C   UNL A   1      43.437  36.239  34.990  1.00  0.00     0.020 A 
ATOM     85  C   UNL A   1      44.319  36.991  32.855  1.00  0.00     0.020 A 
ATOM     86  C   UNL A   1      44.095  37.200  34.217  1.00  0.00     0.054 A 
BRANCH  86  87
ATOM     87  S   UNL A   1      44.691  38.711  35.024  1.00  0.00     0.124 S 
ATOM     88  O   UNL A   1      44.322  38.478  36.418  1.00  0.00    -0.237 OA
ATOM     89  O   UNL A   1      46.124  38.680  34.740  1.00  0.00    -0.237 OA
ATOM     90  O   UNL A   1      43.952  39.778  34.354  1.00  0.00    -0.744 OA
ENDBRANCH  86  87
ENDBRANCH  60  81
ENDBRANCH  34  35
ENDBRANCH  26  29
ENDBRANCH  24  25
ENDBRANCH   1  24
TORSDOF 16
ENDMDL
MODEL 3
REMARK VINA RESULT:     -10.5      4.579      5.979
REMARK SMILES O=C(/C=C/C(=O)Nc1ccc2[nH]ncc2c1)NCCCCNC(=O)c1ccc(-c2c3nc(c(-c4ccc(S(=O)(=O)[O-])cc4)c4ccc([nH]4)c(-c4ccc(S(=O)(=O)[O-])cc4)c4nc(c(-c5ccc(S(=O)(=O)[O-])cc5)c5ccc2[nH]5)C=C4)C=C3)cc1
REMARK SMILES IDX 20 1 19 2 18 3 17 4 1 5 2 6 3 8 4 9 5 10 6 11 7 12 8 14 9 15
REMARK SMILES IDX 16 16 10 17 15 18 11 19 14 20 12 21 13 22 21 24 22 25 23 26
REMARK SMILES IDX 24 28 25 29 26 30 84 31 27 32 83 33 28 34 29 35 30 36 77 37
REMARK SMILES IDX 31 38 82 39 76 40 78 41 32 42 81 43 75 44 74 45 33 47 63 48
REMARK SMILES IDX 44 49 62 50 45 51 48 52 61 53 79 54 46 55 47 56 60 58 80 59
REMARK SMILES IDX 49 60 34 61 35 62 43 63 36 64 42 65 37 66 38 67 39 68 40 69
REMARK SMILES IDX 41 70 64 71 65 72 73 73 66 74 72 75 67 76 68 77 69 78 70 79
REMARK SMILES IDX 71 80 50 81 51 82 59 83 52 84 58 85 53 86 54 87 55 88 56 89
REMARK SMILES IDX 57 90
REMARK H PARENT 17 7 7 13 12 23 22 27 78 46 48 57
REMARK Flexibility Score: inf
ROOT
ATOM      1  C   UNL A   1      31.768  32.391  26.802  1.00  0.00     0.023 C 
ENDROOT
BRANCH   1   2
ATOM      2  C   UNL A   1      31.837  30.865  26.699  1.00  0.00     0.023 C 
BRANCH   2   3
ATOM      3  C   UNL A   1      33.257  30.301  26.674  1.00  0.00     0.116 C 
BRANCH   3   4
ATOM      4  N   UNL A   1      33.462  29.458  25.515  1.00  0.00    -0.353 N 
ATOM      5  O   UNL A   1      32.871  27.509  26.571  1.00  0.00    -0.270 OA
ATOM      6  C   UNL A   1      33.297  28.105  25.588  1.00  0.00     0.244 C 
ATOM      7  H   UNL A   1      33.725  29.868  24.658  1.00  0.00     0.163 HD
BRANCH   6   8
ATOM      8  C   UNL A   1      33.725  27.337  24.402  1.00  0.00     0.077 C 
ATOM      9  C   UNL A   1      32.907  26.849  23.457  1.00  0.00     0.077 C 
BRANCH   9  10
ATOM     10  C   UNL A   1      33.425  25.932  22.408  1.00  0.00     0.248 C 
ATOM     11  O   UNL A   1      33.803  26.406  21.340  1.00  0.00    -0.270 OA
ATOM     12  N   UNL A   1      33.528  24.586  22.657  1.00  0.00    -0.322 N 
ATOM     13  H   UNL A   1      34.041  24.071  21.993  1.00  0.00     0.170 HD
BRANCH  12  14
ATOM     14  C   UNL A   1      33.003  23.842  23.728  1.00  0.00     0.042 A 
ATOM     15  C   UNL A   1      31.650  23.489  23.795  1.00  0.00     0.028 A 
ATOM     16  C   UNL A   1      33.865  23.549  24.793  1.00  0.00     0.038 A 
ATOM     17  C   UNL A   1      31.080  22.997  24.972  1.00  0.00     0.030 A 
ATOM     18  C   UNL A   1      33.302  23.088  25.996  1.00  0.00     0.022 A 
ATOM     19  C   UNL A   1      31.934  22.852  26.065  1.00  0.00     0.065 A 
ATOM     20  C   UNL A   1      33.771  22.810  27.299  1.00  0.00     0.143 A 
ATOM     21  N   UNL A   1      31.690  22.510  27.368  1.00  0.00    -0.278 N 
ATOM     22  N   UNL A   1      32.794  22.445  28.135  1.00  0.00    -0.183 NA
ATOM     23  H   UNL A   1      30.787  22.326  27.714  1.00  0.00     0.190 HD
ENDBRANCH  12  14
ENDBRANCH   9  10
ENDBRANCH   6   8
ENDBRANCH   3   4
ENDBRANCH   2   3
ENDBRANCH   1   2
BRANCH   1  24
ATOM     24  C   UNL A   1      32.931  33.039  27.544  1.00  0.00     0.116 C 
BRANCH  24  25
ATOM     25  N   UNL A   1      32.640  34.401  27.959  1.00  0.00    -0.352 N 
ATOM     26  C   UNL A   1      33.166  35.115  29.008  1.00  0.00     0.251 C 
ATOM     27  H   UNL A   1      31.974  34.878  27.413  1.00  0.00     0.163 HD
ATOM     28  O   UNL A   1      32.680  36.201  29.314  1.00  0.00    -0.269 OA
BRANCH  26  29
ATOM     29  C   UNL A   1      34.296  34.560  29.784  1.00  0.00     0.039 A 
ATOM     30  C   UNL A   1      34.032  33.919  30.997  1.00  0.00     0.014 A 
ATOM     31  C   UNL A   1      35.609  34.657  29.313  1.00  0.00     0.014 A 
ATOM     32  C   UNL A   1      35.077  33.320  31.704  1.00  0.00     0.010 A 
ATOM     33  C   UNL A   1      36.635  33.993  29.979  1.00  0.00     0.010 A 
ATOM     34  C   UNL A   1      36.383  33.319  31.184  1.00  0.00    -0.014 A 
BRANCH  34  35
ATOM     35  C   UNL A   1      37.489  32.609  31.879  1.00  0.00     0.031 A 
ATOM     36  C   UNL A   1      38.021  33.127  33.187  1.00  0.00     0.074 A 
ATOM     37  C   UNL A   1      38.054  31.529  31.303  1.00  0.00     0.049 A 
ATOM     38  N   UNL A   1      39.012  32.675  33.912  1.00  0.00    -0.248 NA
ATOM     39  C   UNL A   1      37.370  34.325  33.744  1.00  0.00     0.031 C 
ATOM     40  C   UNL A   1      37.658  30.948  30.018  1.00  0.00     0.029 A 
ATOM     41  N   UNL A   1      39.089  30.729  31.722  1.00  0.00    -0.354 N 
ATOM     42  C   UNL A   1      39.110  33.534  35.001  1.00  0.00     0.074 A 
ATOM     43  C   UNL A   1      38.116  34.568  34.812  1.00  0.00     0.031 C 
ATOM     44  C   UNL A   1      38.421  29.873  29.766  1.00  0.00     0.029 A 
ATOM     45  C   UNL A   1      39.392  29.712  30.845  1.00  0.00     0.049 A 
ATOM     46  H   UNL A   1      39.570  30.870  32.569  1.00  0.00     0.167 HD
ATOM     47  C   UNL A   1      39.938  33.459  36.071  1.00  0.00     0.031 A 
ATOM     48  C   UNL A   1      40.347  28.764  30.894  1.00  0.00     0.031 A 
ATOM     49  C   UNL A   1      40.927  32.429  36.255  1.00  0.00     0.049 A 
ATOM     50  C   UNL A   1      41.272  28.715  32.081  1.00  0.00     0.074 A 
ATOM     51  C   UNL A   1      41.782  32.241  37.327  1.00  0.00     0.029 A 
ATOM     52  N   UNL A   1      41.198  31.417  35.347  1.00  0.00    -0.354 N 
ATOM     53  N   UNL A   1      41.306  29.500  33.131  1.00  0.00    -0.248 NA
ATOM     54  C   UNL A   1      42.279  27.645  32.094  1.00  0.00     0.031 C 
ATOM     55  C   UNL A   1      42.611  31.153  37.039  1.00  0.00     0.029 A 
ATOM     56  C   UNL A   1      42.225  30.618  35.821  1.00  0.00     0.049 A 
ATOM     57  H   UNL A   1      40.729  31.286  34.491  1.00  0.00     0.167 HD
ATOM     58  C   UNL A   1      42.318  29.001  33.944  1.00  0.00     0.074 A 
ATOM     59  C   UNL A   1      42.859  27.838  33.271  1.00  0.00     0.031 C 
ATOM     60  C   UNL A   1      42.758  29.464  35.141  1.00  0.00     0.031 A 
BRANCH  47  61
ATOM     61  C   UNL A   1      39.811  34.530  37.125  1.00  0.00    -0.014 A 
ATOM     62  C   UNL A   1      40.543  35.729  37.035  1.00  0.00     0.010 A 
ATOM     63  C   UNL A   1      38.920  34.354  38.199  1.00  0.00     0.010 A 
ATOM     64  C   UNL A   1      40.421  36.709  38.023  1.00  0.00     0.020 A 
ATOM     65  C   UNL A   1      38.771  35.347  39.172  1.00  0.00     0.020 A 
ATOM     66  C   UNL A   1      39.537  36.511  39.088  1.00  0.00     0.054 A 
BRANCH  66  67
ATOM     67  S   UNL A   1      39.388  37.809  40.346  1.00  0.00     0.124 S 
ATOM     68  O   UNL A   1      38.163  38.489  39.932  1.00  0.00    -0.237 OA
ATOM     69  O   UNL A   1      39.293  37.042  41.585  1.00  0.00    -0.237 OA
ATOM     70  O   UNL A   1      40.614  38.587  40.189  1.00  0.00    -0.744 OA
ENDBRANCH  66  67
ENDBRANCH  47  61
BRANCH  48  71
ATOM     71  C   UNL A   1      40.472  27.778  29.784  1.00  0.00    -0.014 A 
ATOM     72  C   UNL A   1      39.556  26.719  29.657  1.00  0.00     0.010 A 
ATOM     73  C   UNL A   1      41.506  27.903  28.837  1.00  0.00     0.010 A 
ATOM     74  C   UNL A   1      39.681  25.795  28.614  1.00  0.00     0.020 A 
ATOM     75  C   UNL A   1      41.615  27.001  27.776  1.00  0.00     0.020 A 
ATOM     76  C   UNL A   1      40.707  25.945  27.678  1.00  0.00     0.054 A 
BRANCH  76  77
ATOM     77  S   UNL A   1      40.816  24.765  26.303  1.00  0.00     0.124 S 
ATOM     78  O   UNL A   1      41.219  25.625  25.195  1.00  0.00    -0.237 OA
ATOM     79  O   UNL A   1      41.828  23.824  26.776  1.00  0.00    -0.237 OA
ATOM     80  O   UNL A   1      39.463  24.220  26.213  1.00  0.00    -0.744 OA
ENDBRANCH  76  77
ENDBRANCH  48  71
BRANCH  60  81
ATOM     81  C   UNL A   1      43.857  28.692  35.824  1.00  0.00    -0.014 A 
ATOM     82  C   UNL A   1      45.210  29.035  35.652  1.00  0.00     0.010 A 
ATOM     83  C   UNL A   1      43.524  27.641  36.698  1.00  0.00     0.010 A 
ATOM     84  C   UNL A   1      46.211  28.319  36.317  1.00  0.00     0.020 A 
ATOM     85  C   UNL A   1      44.518  26.943  37.388  1.00  0.00     0.020 A 
ATOM     86  C   UNL A   1      45.858  27.278  37.182  1.00  0.00     0.054 A 
BRANCH  86  87
ATOM     87  S   UNL A   1      47.172  26.395  38.066  1.00  0.00     0.124 S 
ATOM     88  O   UNL A   1      46.425  25.709  39.116  1.00  0.00    -0.237 OA
ATOM     89  O   UNL A   1      47.731  25.533  37.027  1.00  0.00    -0.237 OA
ATOM     90  O   UNL A   1      48.059  27.461  38.526  1.00  0.00    -0.744 OA
ENDBRANCH  86  87
ENDBRANCH  60  81
ENDBRANCH  34  35
ENDBRANCH  26  29
ENDBRANCH  24  25
ENDBRANCH   1  24
TORSDOF 16
ENDMDL
