MODEL 1
REMARK VINA RESULT:     -10.0      0.000      0.000
REMARK SMILES COc1ccc(Cl)cc1C[NH2+]CCC(=O)NCCCCNC(=O)c1ccc(-c2c3nc(c(-c4ccc(S(=O)(=O)[O-])cc4)c4ccc([nH]4)c(-c4ccc(S(=O)(=O)[O-])cc4)c4nc(c(-c5ccc(S(=O)(=O)[O-])cc5)c5ccc2[nH]5)C=C4)C=C3)cc1
REMARK SMILES IDX 17 1 16 2 14 3 15 4 13 6 12 7 11 8 10 11 9 12 3 13 4 14 5 15
REMARK SMILES IDX 8 16 6 17 7 18 2 19 1 20 18 21 19 22 20 23 21 24 22 25 23 27
REMARK SMILES IDX 24 28 25 29 83 30 26 31 82 32 27 33 28 34 29 35 76 36 30 37
REMARK SMILES IDX 81 38 75 39 77 40 31 41 80 42 74 43 73 44 32 46 62 47 43 48
REMARK SMILES IDX 61 49 44 50 47 51 60 52 78 53 45 54 46 55 59 57 79 58 48 59
REMARK SMILES IDX 33 60 34 61 42 62 35 63 41 64 36 65 37 66 38 67 39 68 40 69
REMARK SMILES IDX 63 70 64 71 72 72 65 73 71 74 66 75 67 76 68 77 69 78 70 79
REMARK SMILES IDX 49 80 50 81 58 82 51 83 57 84 52 85 53 86 54 87 55 88 56 89
REMARK H PARENT 16 5 11 9 11 10 21 26 77 45 47 56
REMARK Flexibility Score: inf
ROOT
ATOM      1  C   UNL A   1      31.663  27.662  24.430  1.00  0.00     0.116 C 
ENDROOT
BRANCH   1   2
ATOM      2  N   UNL A   1      32.645  27.958  23.404  1.00  0.00    -0.356 N 
ATOM      3  C   UNL A   1      33.062  27.192  22.358  1.00  0.00     0.225 C 
ATOM      4  O   UNL A   1      33.975  27.612  21.645  1.00  0.00    -0.275 OA
ATOM      5  H   UNL A   1      33.073  28.842  23.476  1.00  0.00     0.163 HD
BRANCH   3   6
ATOM      6  C   UNL A   1      32.400  25.862  22.064  1.00  0.00     0.161 C 
BRANCH   6   7
ATOM      7  C   UNL A   1      33.301  24.653  22.337  1.00  0.00     0.270 C 
BRANCH   7   8
ATOM      8  N   UNL A   1      32.678  23.508  23.005  1.00  0.00    -0.342 N 
ATOM      9  H   UNL A   1      31.672  23.551  22.844  1.00  0.00     0.346 HD
ATOM     10  H   UNL A   1      33.105  22.670  22.611  1.00  0.00     0.346 HD
BRANCH   8  11
ATOM     11  C   UNL A   1      32.910  23.459  24.454  1.00  0.00     0.301 C 
BRANCH  11  12
ATOM     12  C   UNL A   1      34.178  22.695  24.785  1.00  0.00     0.050 A 
ATOM     13  C   UNL A   1      34.252  21.289  24.696  1.00  0.00     0.127 A 
ATOM     14  C   UNL A   1      35.453  20.636  24.998  1.00  0.00     0.048 A 
ATOM     15  C   UNL A   1      36.569  21.362  25.421  1.00  0.00     0.024 A 
ATOM     16  C   UNL A   1      35.312  23.410  25.217  1.00  0.00     0.034 A 
ATOM     17  C   UNL A   1      36.492  22.744  25.540  1.00  0.00     0.041 A 
ATOM     18  Cl  UNL A   1      37.856  23.633  26.094  1.00  0.00    -0.084 Cl
BRANCH  13  19
ATOM     19  O   UNL A   1      33.118  20.633  24.292  1.00  0.00    -0.496 OA
ATOM     20  C   UNL A   1      32.980  19.281  24.723  1.00  0.00     0.278 C 
ENDBRANCH  13  19
ENDBRANCH  11  12
ENDBRANCH   8  11
ENDBRANCH   7   8
ENDBRANCH   6   7
ENDBRANCH   3   6
ENDBRANCH   1   2
BRANCH   1  21
ATOM     21  C   UNL A   1      31.607  28.783  25.473  1.00  0.00     0.023 C 
BRANCH  21  22
ATOM     22  C   UNL A   1      32.023  28.362  26.880  1.00  0.00     0.023 C 
BRANCH  22  23
ATOM     23  C   UNL A   1      33.412  28.834  27.295  1.00  0.00     0.116 C 
BRANCH  23  24
ATOM     24  N   UNL A   1      33.458  30.209  27.778  1.00  0.00    -0.352 N 
ATOM     25  C   UNL A   1      34.534  30.869  28.331  1.00  0.00     0.251 C 
ATOM     26  H   UNL A   1      32.623  30.726  27.701  1.00  0.00     0.163 HD
ATOM     27  O   UNL A   1      34.440  32.018  28.740  1.00  0.00    -0.269 OA
BRANCH  25  28
ATOM     28  C   UNL A   1      35.805  30.134  28.473  1.00  0.00     0.039 A 
ATOM     29  C   UNL A   1      36.704  30.143  27.405  1.00  0.00     0.014 A 
ATOM     30  C   UNL A   1      36.145  29.551  29.696  1.00  0.00     0.014 A 
ATOM     31  C   UNL A   1      37.997  29.658  27.598  1.00  0.00     0.010 A 
ATOM     32  C   UNL A   1      37.452  29.130  29.905  1.00  0.00     0.010 A 
ATOM     33  C   UNL A   1      38.393  29.204  28.866  1.00  0.00    -0.014 A 
BRANCH  33  34
ATOM     34  C   UNL A   1      39.805  28.862  29.155  1.00  0.00     0.031 A 
ATOM     35  C   UNL A   1      40.732  29.905  29.707  1.00  0.00     0.074 A 
ATOM     36  C   UNL A   1      40.270  27.645  28.810  1.00  0.00     0.049 A 
ATOM     37  N   UNL A   1      42.021  29.832  29.912  1.00  0.00    -0.248 NA
ATOM     38  C   UNL A   1      40.137  31.208  30.041  1.00  0.00     0.031 C 
ATOM     39  C   UNL A   1      39.473  26.570  28.209  1.00  0.00     0.029 A 
ATOM     40  N   UNL A   1      41.531  27.112  28.893  1.00  0.00    -0.354 N 
ATOM     41  C   UNL A   1      42.397  31.087  30.370  1.00  0.00     0.074 A 
ATOM     42  C   UNL A   1      41.208  31.911  30.382  1.00  0.00     0.031 C 
ATOM     43  C   UNL A   1      40.261  25.505  27.993  1.00  0.00     0.029 A 
ATOM     44  C   UNL A   1      41.622  25.830  28.404  1.00  0.00     0.049 A 
ATOM     45  H   UNL A   1      42.298  27.601  29.270  1.00  0.00     0.167 HD
ATOM     46  C   UNL A   1      43.625  31.513  30.754  1.00  0.00     0.031 A 
ATOM     47  C   UNL A   1      42.686  25.011  28.289  1.00  0.00     0.031 A 
ATOM     48  C   UNL A   1      44.797  30.682  30.758  1.00  0.00     0.049 A 
ATOM     49  C   UNL A   1      44.029  25.492  28.759  1.00  0.00     0.074 A 
ATOM     50  C   UNL A   1      46.072  30.996  31.193  1.00  0.00     0.029 A 
ATOM     51  N   UNL A   1      44.836  29.371  30.308  1.00  0.00    -0.354 N 
ATOM     52  N   UNL A   1      44.354  26.661  29.255  1.00  0.00    -0.248 NA
ATOM     53  C   UNL A   1      45.146  24.542  28.662  1.00  0.00     0.031 C 
ATOM     54  C   UNL A   1      46.892  29.882  30.975  1.00  0.00     0.029 A 
ATOM     55  C   UNL A   1      46.117  28.864  30.440  1.00  0.00     0.049 A 
ATOM     56  H   UNL A   1      44.067  28.874  29.947  1.00  0.00     0.167 HD
ATOM     57  C   UNL A   1      45.710  26.583  29.550  1.00  0.00     0.074 A 
ATOM     58  C   UNL A   1      46.141  25.249  29.185  1.00  0.00     0.031 C 
ATOM     59  C   UNL A   1      46.523  27.531  30.076  1.00  0.00     0.031 A 
BRANCH  46  60
ATOM     60  C   UNL A   1      43.749  32.945  31.191  1.00  0.00    -0.014 A 
ATOM     61  C   UNL A   1      44.138  33.949  30.284  1.00  0.00     0.010 A 
ATOM     62  C   UNL A   1      43.471  33.294  32.525  1.00  0.00     0.010 A 
ATOM     63  C   UNL A   1      44.297  35.267  30.717  1.00  0.00     0.020 A 
ATOM     64  C   UNL A   1      43.606  34.617  32.956  1.00  0.00     0.020 A 
ATOM     65  C   UNL A   1      44.040  35.591  32.053  1.00  0.00     0.054 A 
BRANCH  65  66
ATOM     66  S   UNL A   1      44.261  37.308  32.594  1.00  0.00     0.124 S 
ATOM     67  O   UNL A   1      43.321  37.392  33.709  1.00  0.00    -0.237 OA
ATOM     68  O   UNL A   1      45.675  37.353  32.961  1.00  0.00    -0.237 OA
ATOM     69  O   UNL A   1      43.903  38.090  31.415  1.00  0.00    -0.744 OA
ENDBRANCH  65  66
ENDBRANCH  46  60
BRANCH  47  70
ATOM     70  C   UNL A   1      42.510  23.650  27.721  1.00  0.00    -0.014 A 
ATOM     71  C   UNL A   1      42.994  23.348  26.438  1.00  0.00     0.010 A 
ATOM     72  C   UNL A   1      41.893  22.635  28.478  1.00  0.00     0.010 A 
ATOM     73  C   UNL A   1      42.860  22.059  25.915  1.00  0.00     0.020 A 
ATOM     74  C   UNL A   1      41.775  21.340  27.966  1.00  0.00     0.020 A 
ATOM     75  C   UNL A   1      42.252  21.062  26.682  1.00  0.00     0.054 A 
BRANCH  75  76
ATOM     76  S   UNL A   1      42.150  19.378  26.016  1.00  0.00     0.124 S 
ATOM     77  O   UNL A   1      42.748  18.590  27.089  1.00  0.00    -0.237 OA
ATOM     78  O   UNL A   1      40.713  19.198  25.823  1.00  0.00    -0.237 OA
ATOM     79  O   UNL A   1      42.930  19.454  24.782  1.00  0.00    -0.744 OA
ENDBRANCH  75  76
ENDBRANCH  47  70
BRANCH  59  80
ATOM     80  C   UNL A   1      47.957  27.155  30.315  1.00  0.00    -0.014 A 
ATOM     81  C   UNL A   1      48.971  27.590  29.445  1.00  0.00     0.010 A 
ATOM     82  C   UNL A   1      48.300  26.431  31.470  1.00  0.00     0.010 A 
ATOM     83  C   UNL A   1      50.308  27.297  29.722  1.00  0.00     0.020 A 
ATOM     84  C   UNL A   1      49.638  26.151  31.760  1.00  0.00     0.020 A 
ATOM     85  C   UNL A   1      50.633  26.581  30.879  1.00  0.00     0.054 A 
BRANCH  85  86
ATOM     86  S   UNL A   1      52.380  26.276  31.259  1.00  0.00     0.124 S 
ATOM     87  O   UNL A   1      52.303  25.095  32.114  1.00  0.00    -0.237 OA
ATOM     88  O   UNL A   1      52.965  26.059  29.938  1.00  0.00    -0.237 OA
ATOM     89  O   UNL A   1      52.807  27.504  31.927  1.00  0.00    -0.744 OA
ENDBRANCH  85  86
ENDBRANCH  59  80
ENDBRANCH  33  34
ENDBRANCH  25  28
ENDBRANCH  23  24
ENDBRANCH  22  23
ENDBRANCH  21  22
ENDBRANCH   1  21
TORSDOF 19
ENDMDL
MODEL 2
REMARK VINA RESULT:      -9.6      3.659      6.265
REMARK SMILES COc1ccc(Cl)cc1C[NH2+]CCC(=O)NCCCCNC(=O)c1ccc(-c2c3nc(c(-c4ccc(S(=O)(=O)[O-])cc4)c4ccc([nH]4)c(-c4ccc(S(=O)(=O)[O-])cc4)c4nc(c(-c5ccc(S(=O)(=O)[O-])cc5)c5ccc2[nH]5)C=C4)C=C3)cc1
REMARK SMILES IDX 17 1 16 2 14 3 15 4 13 6 12 7 11 8 10 11 9 12 3 13 4 14 5 15
REMARK SMILES IDX 8 16 6 17 7 18 2 19 1 20 18 21 19 22 20 23 21 24 22 25 23 27
REMARK SMILES IDX 24 28 25 29 83 30 26 31 82 32 27 33 28 34 29 35 76 36 30 37
REMARK SMILES IDX 81 38 75 39 77 40 31 41 80 42 74 43 73 44 32 46 62 47 43 48
REMARK SMILES IDX 61 49 44 50 47 51 60 52 78 53 45 54 46 55 59 57 79 58 48 59
REMARK SMILES IDX 33 60 34 61 42 62 35 63 41 64 36 65 37 66 38 67 39 68 40 69
REMARK SMILES IDX 63 70 64 71 72 72 65 73 71 74 66 75 67 76 68 77 69 78 70 79
REMARK SMILES IDX 49 80 50 81 58 82 51 83 57 84 52 85 53 86 54 87 55 88 56 89
REMARK H PARENT 16 5 11 9 11 10 21 26 77 45 47 56
REMARK Flexibility Score: inf
ROOT
ATOM      1  C   UNL A   1      37.378  32.286  32.236  1.00  0.00     0.116 C 
ENDROOT
BRANCH   1   2
ATOM      2  N   UNL A   1      37.482  31.569  33.492  1.00  0.00    -0.356 N 
ATOM      3  C   UNL A   1      38.412  30.659  33.897  1.00  0.00     0.225 C 
ATOM      4  O   UNL A   1      38.264  30.107  34.988  1.00  0.00    -0.275 OA
ATOM      5  H   UNL A   1      36.776  31.769  34.149  1.00  0.00     0.163 HD
BRANCH   3   6
ATOM      6  C   UNL A   1      39.617  30.352  33.031  1.00  0.00     0.161 C 
BRANCH   6   7
ATOM      7  C   UNL A   1      40.093  28.899  33.135  1.00  0.00     0.270 C 
BRANCH   7   8
ATOM      8  N   UNL A   1      40.548  28.451  34.453  1.00  0.00    -0.342 N 
ATOM      9  H   UNL A   1      40.158  29.077  35.157  1.00  0.00     0.346 HD
ATOM     10  H   UNL A   1      40.230  27.488  34.562  1.00  0.00     0.346 HD
BRANCH   8  11
ATOM     11  C   UNL A   1      42.007  28.434  34.611  1.00  0.00     0.301 C 
BRANCH  11  12
ATOM     12  C   UNL A   1      42.554  27.019  34.547  1.00  0.00     0.050 A 
ATOM     13  C   UNL A   1      42.110  26.004  35.419  1.00  0.00     0.127 A 
ATOM     14  C   UNL A   1      42.636  24.711  35.305  1.00  0.00     0.048 A 
ATOM     15  C   UNL A   1      43.623  24.428  34.357  1.00  0.00     0.024 A 
ATOM     16  C   UNL A   1      43.552  26.716  33.600  1.00  0.00     0.034 A 
ATOM     17  C   UNL A   1      44.085  25.433  33.516  1.00  0.00     0.041 A 
ATOM     18  Cl  UNL A   1      45.325  25.091  32.374  1.00  0.00    -0.084 Cl
BRANCH  13  19
ATOM     19  O   UNL A   1      41.153  26.350  36.338  1.00  0.00    -0.496 OA
ATOM     20  C   UNL A   1      40.790  25.346  37.283  1.00  0.00     0.278 C 
ENDBRANCH  13  19
ENDBRANCH  11  12
ENDBRANCH   8  11
ENDBRANCH   7   8
ENDBRANCH   6   7
ENDBRANCH   3   6
ENDBRANCH   1   2
BRANCH   1  21
ATOM     21  C   UNL A   1      36.294  33.365  32.310  1.00  0.00     0.023 C 
BRANCH  21  22
ATOM     22  C   UNL A   1      35.155  33.190  31.308  1.00  0.00     0.023 C 
BRANCH  22  23
ATOM     23  C   UNL A   1      35.603  32.772  29.912  1.00  0.00     0.116 C 
BRANCH  23  24
ATOM     24  N   UNL A   1      34.584  32.068  29.142  1.00  0.00    -0.352 N 
ATOM     25  C   UNL A   1      34.701  30.846  28.515  1.00  0.00     0.251 C 
ATOM     26  H   UNL A   1      33.711  32.517  29.062  1.00  0.00     0.163 HD
ATOM     27  O   UNL A   1      33.783  30.372  27.860  1.00  0.00    -0.269 OA
BRANCH  25  28
ATOM     28  C   UNL A   1      35.991  30.138  28.603  1.00  0.00     0.039 A 
ATOM     29  C   UNL A   1      36.848  30.174  27.501  1.00  0.00     0.014 A 
ATOM     30  C   UNL A   1      36.391  29.556  29.807  1.00  0.00     0.014 A 
ATOM     31  C   UNL A   1      38.157  29.715  27.641  1.00  0.00     0.010 A 
ATOM     32  C   UNL A   1      37.713  29.161  29.963  1.00  0.00     0.010 A 
ATOM     33  C   UNL A   1      38.612  29.263  28.889  1.00  0.00    -0.014 A 
BRANCH  33  34
ATOM     34  C   UNL A   1      40.041  28.949  29.121  1.00  0.00     0.031 A 
ATOM     35  C   UNL A   1      40.975  30.019  29.604  1.00  0.00     0.074 A 
ATOM     36  C   UNL A   1      40.509  27.731  28.785  1.00  0.00     0.049 A 
ATOM     37  N   UNL A   1      42.273  29.972  29.751  1.00  0.00    -0.248 NA
ATOM     38  C   UNL A   1      40.374  31.322  29.933  1.00  0.00     0.031 C 
ATOM     39  C   UNL A   1      39.704  26.629  28.248  1.00  0.00     0.029 A 
ATOM     40  N   UNL A   1      41.782  27.219  28.824  1.00  0.00    -0.354 N 
ATOM     41  C   UNL A   1      42.650  31.244  30.160  1.00  0.00     0.074 A 
ATOM     42  C   UNL A   1      41.448  32.049  30.207  1.00  0.00     0.031 C 
ATOM     43  C   UNL A   1      40.499  25.571  28.022  1.00  0.00     0.029 A 
ATOM     44  C   UNL A   1      41.871  25.927  28.362  1.00  0.00     0.049 A 
ATOM     45  H   UNL A   1      42.557  27.730  29.152  1.00  0.00     0.167 HD
ATOM     46  C   UNL A   1      43.886  31.697  30.477  1.00  0.00     0.031 A 
ATOM     47  C   UNL A   1      42.942  25.122  28.218  1.00  0.00     0.031 A 
ATOM     48  C   UNL A   1      45.071  30.885  30.448  1.00  0.00     0.049 A 
ATOM     49  C   UNL A   1      44.298  25.635  28.614  1.00  0.00     0.074 A 
ATOM     50  C   UNL A   1      46.359  31.229  30.816  1.00  0.00     0.029 A 
ATOM     51  N   UNL A   1      45.111  29.564  30.028  1.00  0.00    -0.354 N 
ATOM     52  N   UNL A   1      44.625  26.821  29.066  1.00  0.00    -0.248 NA
ATOM     53  C   UNL A   1      45.424  24.700  28.489  1.00  0.00     0.031 C 
ATOM     54  C   UNL A   1      47.186  30.123  30.588  1.00  0.00     0.029 A 
ATOM     55  C   UNL A   1      46.404  29.080  30.114  1.00  0.00     0.049 A 
ATOM     56  H   UNL A   1      44.334  29.046  29.715  1.00  0.00     0.167 HD
ATOM     57  C   UNL A   1      45.994  26.771  29.300  1.00  0.00     0.074 A 
ATOM     58  C   UNL A   1      46.430  25.435  28.948  1.00  0.00     0.031 C 
ATOM     59  C   UNL A   1      46.815  27.744  29.764  1.00  0.00     0.031 A 
BRANCH  46  60
ATOM     60  C   UNL A   1      44.007  33.142  30.873  1.00  0.00    -0.014 A 
ATOM     61  C   UNL A   1      43.995  33.526  32.226  1.00  0.00     0.010 A 
ATOM     62  C   UNL A   1      44.139  34.129  29.879  1.00  0.00     0.010 A 
ATOM     63  C   UNL A   1      44.058  34.877  32.577  1.00  0.00     0.020 A 
ATOM     64  C   UNL A   1      44.227  35.480  30.228  1.00  0.00     0.020 A 
ATOM     65  C   UNL A   1      44.163  35.846  31.575  1.00  0.00     0.054 A 
BRANCH  65  66
ATOM     66  S   UNL A   1      44.237  37.594  32.053  1.00  0.00     0.124 S 
ATOM     67  O   UNL A   1      43.247  37.652  33.126  1.00  0.00    -0.237 OA
ATOM     68  O   UNL A   1      45.627  37.757  32.473  1.00  0.00    -0.237 OA
ATOM     69  O   UNL A   1      43.873  38.302  30.829  1.00  0.00    -0.744 OA
ENDBRANCH  65  66
ENDBRANCH  46  60
BRANCH  47  70
ATOM     70  C   UNL A   1      42.763  23.744  27.693  1.00  0.00    -0.014 A 
ATOM     71  C   UNL A   1      42.660  22.656  28.575  1.00  0.00     0.010 A 
ATOM     72  C   UNL A   1      42.653  23.517  26.308  1.00  0.00     0.010 A 
ATOM     73  C   UNL A   1      42.458  21.362  28.084  1.00  0.00     0.020 A 
ATOM     74  C   UNL A   1      42.432  22.228  25.815  1.00  0.00     0.020 A 
ATOM     75  C   UNL A   1      42.344  21.156  26.707  1.00  0.00     0.054 A 
BRANCH  75  76
ATOM     76  S   UNL A   1      42.012  19.482  26.093  1.00  0.00     0.124 S 
ATOM     77  O   UNL A   1      42.491  18.655  27.195  1.00  0.00    -0.237 OA
ATOM     78  O   UNL A   1      40.565  19.497  25.894  1.00  0.00    -0.237 OA
ATOM     79  O   UNL A   1      42.800  19.409  24.864  1.00  0.00    -0.744 OA
ENDBRANCH  75  76
ENDBRANCH  47  70
BRANCH  59  80
ATOM     80  C   UNL A   1      48.264  27.397  29.946  1.00  0.00    -0.014 A 
ATOM     81  C   UNL A   1      49.235  27.855  29.040  1.00  0.00     0.010 A 
ATOM     82  C   UNL A   1      48.667  26.675  31.084  1.00  0.00     0.010 A 
ATOM     83  C   UNL A   1      50.587  27.588  29.264  1.00  0.00     0.020 A 
ATOM     84  C   UNL A   1      50.019  26.421  31.321  1.00  0.00     0.020 A 
ATOM     85  C   UNL A   1      50.971  26.874  30.405  1.00  0.00     0.054 A 
BRANCH  85  86
ATOM     86  S   UNL A   1      52.737  26.603  30.715  1.00  0.00     0.124 S 
ATOM     87  O   UNL A   1      53.182  27.935  31.118  1.00  0.00    -0.237 OA
ATOM     88  O   UNL A   1      52.729  25.596  31.774  1.00  0.00    -0.237 OA
ATOM     89  O   UNL A   1      53.246  26.138  29.427  1.00  0.00    -0.744 OA
ENDBRANCH  85  86
ENDBRANCH  59  80
ENDBRANCH  33  34
ENDBRANCH  25  28
ENDBRANCH  23  24
ENDBRANCH  22  23
ENDBRANCH  21  22
ENDBRANCH   1  21
TORSDOF 19
ENDMDL
MODEL 3
REMARK VINA RESULT:      -9.6      1.402      8.474
REMARK SMILES COc1ccc(Cl)cc1C[NH2+]CCC(=O)NCCCCNC(=O)c1ccc(-c2c3nc(c(-c4ccc(S(=O)(=O)[O-])cc4)c4ccc([nH]4)c(-c4ccc(S(=O)(=O)[O-])cc4)c4nc(c(-c5ccc(S(=O)(=O)[O-])cc5)c5ccc2[nH]5)C=C4)C=C3)cc1
REMARK SMILES IDX 17 1 16 2 14 3 15 4 13 6 12 7 11 8 10 11 9 12 3 13 4 14 5 15
REMARK SMILES IDX 8 16 6 17 7 18 2 19 1 20 18 21 19 22 20 23 21 24 22 25 23 27
REMARK SMILES IDX 24 28 25 29 83 30 26 31 82 32 27 33 28 34 29 35 76 36 30 37
REMARK SMILES IDX 81 38 75 39 77 40 31 41 80 42 74 43 73 44 32 46 62 47 43 48
REMARK SMILES IDX 61 49 44 50 47 51 60 52 78 53 45 54 46 55 59 57 79 58 48 59
REMARK SMILES IDX 33 60 34 61 42 62 35 63 41 64 36 65 37 66 38 67 39 68 40 69
REMARK SMILES IDX 63 70 64 71 72 72 65 73 71 74 66 75 67 76 68 77 69 78 70 79
REMARK SMILES IDX 49 80 50 81 58 82 51 83 57 84 52 85 53 86 54 87 55 88 56 89
REMARK H PARENT 16 5 11 9 11 10 21 26 77 45 47 56
REMARK Flexibility Score: inf
ROOT
ATOM      1  C   UNL A   1      32.353  26.544  24.870  1.00  0.00     0.116 C 
ENDROOT
BRANCH   1   2
ATOM      2  N   UNL A   1      33.113  27.187  23.815  1.00  0.00    -0.356 N 
ATOM      3  C   UNL A   1      33.236  26.844  22.502  1.00  0.00     0.225 C 
ATOM      4  O   UNL A   1      34.006  27.491  21.791  1.00  0.00    -0.275 OA
ATOM      5  H   UNL A   1      33.614  27.989  24.089  1.00  0.00     0.163 HD
BRANCH   3   6
ATOM      6  C   UNL A   1      32.424  25.702  21.926  1.00  0.00     0.161 C 
BRANCH   6   7
ATOM      7  C   UNL A   1      33.023  24.320  22.204  1.00  0.00     0.270 C 
BRANCH   7   8
ATOM      8  N   UNL A   1      32.075  23.239  22.486  1.00  0.00    -0.342 N 
ATOM      9  H   UNL A   1      31.166  23.502  22.106  1.00  0.00     0.346 HD
ATOM     10  H   UNL A   1      32.454  22.396  22.056  1.00  0.00     0.346 HD
BRANCH   8  11
ATOM     11  C   UNL A   1      31.907  22.944  23.914  1.00  0.00     0.301 C 
BRANCH  11  12
ATOM     12  C   UNL A   1      32.309  21.516  24.235  1.00  0.00     0.050 A 
ATOM     13  C   UNL A   1      32.838  21.150  25.490  1.00  0.00     0.127 A 
ATOM     14  C   UNL A   1      33.176  19.814  25.739  1.00  0.00     0.048 A 
ATOM     15  C   UNL A   1      33.028  18.848  24.741  1.00  0.00     0.024 A 
ATOM     16  C   UNL A   1      32.170  20.529  23.240  1.00  0.00     0.034 A 
ATOM     17  C   UNL A   1      32.536  19.209  23.493  1.00  0.00     0.041 A 
ATOM     18  Cl  UNL A   1      32.387  18.025  22.255  1.00  0.00    -0.084 Cl
BRANCH  13  19
ATOM     19  O   UNL A   1      32.975  22.148  26.420  1.00  0.00    -0.496 OA
ATOM     20  C   UNL A   1      33.924  21.920  27.459  1.00  0.00     0.278 C 
ENDBRANCH  13  19
ENDBRANCH  11  12
ENDBRANCH   8  11
ENDBRANCH   7   8
ENDBRANCH   6   7
ENDBRANCH   3   6
ENDBRANCH   1   2
BRANCH   1  21
ATOM     21  C   UNL A   1      31.593  27.579  25.706  1.00  0.00     0.023 C 
BRANCH  21  22
ATOM     22  C   UNL A   1      32.117  27.754  27.129  1.00  0.00     0.023 C 
BRANCH  22  23
ATOM     23  C   UNL A   1      33.479  28.434  27.220  1.00  0.00     0.116 C 
BRANCH  23  24
ATOM     24  N   UNL A   1      33.426  29.821  27.668  1.00  0.00    -0.352 N 
ATOM     25  C   UNL A   1      34.460  30.578  28.175  1.00  0.00     0.251 C 
ATOM     26  H   UNL A   1      32.551  30.268  27.601  1.00  0.00     0.163 HD
ATOM     27  O   UNL A   1      34.285  31.727  28.557  1.00  0.00    -0.269 OA
BRANCH  25  28
ATOM     28  C   UNL A   1      35.789  29.950  28.300  1.00  0.00     0.039 A 
ATOM     29  C   UNL A   1      36.664  30.019  27.214  1.00  0.00     0.014 A 
ATOM     30  C   UNL A   1      36.198  29.414  29.522  1.00  0.00     0.014 A 
ATOM     31  C   UNL A   1      37.995  29.642  27.387  1.00  0.00     0.010 A 
ATOM     32  C   UNL A   1      37.538  29.102  29.709  1.00  0.00     0.010 A 
ATOM     33  C   UNL A   1      38.450  29.239  28.651  1.00  0.00    -0.014 A 
BRANCH  33  34
ATOM     34  C   UNL A   1      39.891  29.015  28.915  1.00  0.00     0.031 A 
ATOM     35  C   UNL A   1      40.520  27.697  28.573  1.00  0.00     0.074 A 
ATOM     36  C   UNL A   1      40.594  29.962  29.567  1.00  0.00     0.049 A 
ATOM     37  N   UNL A   1      41.728  27.271  28.834  1.00  0.00    -0.248 NA
ATOM     38  C   UNL A   1      39.671  26.720  27.874  1.00  0.00     0.031 C 
ATOM     39  C   UNL A   1      40.070  31.260  30.004  1.00  0.00     0.029 A 
ATOM     40  N   UNL A   1      41.897  29.973  29.997  1.00  0.00    -0.354 N 
ATOM     41  C   UNL A   1      41.775  25.967  28.361  1.00  0.00     0.074 A 
ATOM     42  C   UNL A   1      40.466  25.661  27.826  1.00  0.00     0.031 C 
ATOM     43  C   UNL A   1      41.045  31.943  30.625  1.00  0.00     0.029 A 
ATOM     44  C   UNL A   1      42.249  31.122  30.664  1.00  0.00     0.049 A 
ATOM     45  H   UNL A   1      42.521  29.227  29.841  1.00  0.00     0.167 HD
ATOM     46  C   UNL A   1      42.820  25.105  28.365  1.00  0.00     0.031 A 
ATOM     47  C   UNL A   1      43.410  31.472  31.251  1.00  0.00     0.031 A 
ATOM     48  C   UNL A   1      44.122  25.423  28.880  1.00  0.00     0.049 A 
ATOM     49  C   UNL A   1      44.567  30.514  31.207  1.00  0.00     0.074 A 
ATOM     50  C   UNL A   1      45.267  24.646  28.869  1.00  0.00     0.029 A 
ATOM     51  N   UNL A   1      44.455  26.620  29.497  1.00  0.00    -0.354 N 
ATOM     52  N   UNL A   1      44.613  29.309  30.692  1.00  0.00    -0.248 NA
ATOM     53  C   UNL A   1      45.826  30.964  31.814  1.00  0.00     0.031 C 
ATOM     54  C   UNL A   1      46.285  25.361  29.509  1.00  0.00     0.029 A 
ATOM     55  C   UNL A   1      45.783  26.599  29.884  1.00  0.00     0.049 A 
ATOM     56  H   UNL A   1      43.837  27.373  29.639  1.00  0.00     0.167 HD
ATOM     57  C   UNL A   1      45.914  28.863  30.894  1.00  0.00     0.074 A 
ATOM     58  C   UNL A   1      46.623  29.931  31.570  1.00  0.00     0.031 C 
ATOM     59  C   UNL A   1      46.470  27.676  30.551  1.00  0.00     0.031 A 
BRANCH  46  60
ATOM     60  C   UNL A   1      42.580  23.733  27.799  1.00  0.00    -0.014 A 
ATOM     61  C   UNL A   1      42.022  22.710  28.588  1.00  0.00     0.010 A 
ATOM     62  C   UNL A   1      42.913  23.463  26.459  1.00  0.00     0.010 A 
ATOM     63  C   UNL A   1      41.850  21.428  28.063  1.00  0.00     0.020 A 
ATOM     64  C   UNL A   1      42.720  22.186  25.923  1.00  0.00     0.020 A 
ATOM     65  C   UNL A   1      42.211  21.171  26.737  1.00  0.00     0.054 A 
BRANCH  65  66
ATOM     66  S   UNL A   1      41.987  19.496  26.078  1.00  0.00     0.124 S 
ATOM     67  O   UNL A   1      42.788  19.546  24.858  1.00  0.00    -0.237 OA
ATOM     68  O   UNL A   1      42.522  18.654  27.145  1.00  0.00    -0.237 OA
ATOM     69  O   UNL A   1      40.544  19.395  25.875  1.00  0.00    -0.744 OA
ENDBRANCH  65  66
ENDBRANCH  46  60
BRANCH  47  70
ATOM     70  C   UNL A   1      43.533  32.798  31.911  1.00  0.00    -0.014 A 
ATOM     71  C   UNL A   1      43.778  33.950  31.146  1.00  0.00     0.010 A 
ATOM     72  C   UNL A   1      43.364  32.920  33.302  1.00  0.00     0.010 A 
ATOM     73  C   UNL A   1      43.861  35.203  31.761  1.00  0.00     0.020 A 
ATOM     74  C   UNL A   1      43.426  34.174  33.918  1.00  0.00     0.020 A 
ATOM     75  C   UNL A   1      43.683  35.308  33.143  1.00  0.00     0.054 A 
BRANCH  75  76
ATOM     76  S   UNL A   1      43.724  36.950  33.914  1.00  0.00     0.124 S 
ATOM     77  O   UNL A   1      42.358  37.085  34.410  1.00  0.00    -0.237 OA
ATOM     78  O   UNL A   1      44.757  36.797  34.935  1.00  0.00    -0.237 OA
ATOM     79  O   UNL A   1      44.081  37.835  32.807  1.00  0.00    -0.744 OA
ENDBRANCH  75  76
ENDBRANCH  47  70
BRANCH  59  80
ATOM     80  C   UNL A   1      47.922  27.475  30.873  1.00  0.00    -0.014 A 
ATOM     81  C   UNL A   1      48.923  27.885  29.976  1.00  0.00     0.010 A 
ATOM     82  C   UNL A   1      48.289  26.948  32.125  1.00  0.00     0.010 A 
ATOM     83  C   UNL A   1      50.271  27.761  30.323  1.00  0.00     0.020 A 
ATOM     84  C   UNL A   1      49.634  26.840  32.482  1.00  0.00     0.020 A 
ATOM     85  C   UNL A   1      50.617  27.241  31.574  1.00  0.00     0.054 A 
BRANCH  85  86
ATOM     86  S   UNL A   1      52.370  27.159  32.034  1.00  0.00     0.124 S 
ATOM     87  O   UNL A   1      52.307  27.262  33.489  1.00  0.00    -0.237 OA
ATOM     88  O   UNL A   1      52.782  25.858  31.511  1.00  0.00    -0.237 OA
ATOM     89  O   UNL A   1      52.959  28.310  31.352  1.00  0.00    -0.744 OA
ENDBRANCH  85  86
ENDBRANCH  59  80
ENDBRANCH  33  34
ENDBRANCH  25  28
ENDBRANCH  23  24
ENDBRANCH  22  23
ENDBRANCH  21  22
ENDBRANCH   1  21
TORSDOF 19
ENDMDL
