MODEL 1
REMARK VINA RESULT:     -10.9      0.000      0.000
REMARK SMILES COc1ccc(OCCNc2c(Cl)cccc2C(=O)NCCCCNC(=O)c2ccc(-c3c4nc(c(-c5ccc(S(=O)(=O)[O-])cc5)c5ccc([nH]5)c(-c5ccc(S(=O)(=O)[O-])cc5)c5nc(c(-c6ccc(S(=O)(=O)[O-])cc6)c6ccc3[nH]6)C=C5)C=C4)cc2)cc1
REMARK SMILES IDX 21 1 20 2 18 3 19 4 17 6 11 7 12 8 13 9 14 10 16 11 15 12
REMARK SMILES IDX 10 13 9 15 8 16 7 17 6 18 3 19 4 20 89 21 5 22 88 23 2 24
REMARK SMILES IDX 1 25 22 26 23 27 24 28 25 29 26 30 27 32 28 33 29 34 87 35
REMARK SMILES IDX 30 36 86 37 31 38 32 39 33 40 80 41 34 42 85 43 79 44 81 45
REMARK SMILES IDX 35 46 84 47 78 48 77 49 36 51 66 52 47 53 65 54 48 55 51 56
REMARK SMILES IDX 64 57 82 58 49 59 50 60 63 62 83 63 52 64 37 65 38 66 46 67
REMARK SMILES IDX 39 68 45 69 40 70 41 71 42 72 43 73 44 74 67 75 68 76 76 77
REMARK SMILES IDX 69 78 75 79 70 80 71 81 72 82 73 83 74 84 53 85 54 86 62 87
REMARK SMILES IDX 55 88 61 89 56 90 57 91 58 92 59 93 60 94
REMARK H PARENT 20 5 10 14 25 31 81 50 51 61
REMARK Flexibility Score: inf
ROOT
ATOM      1  C   UNL A   1      33.268  28.196  24.430  1.00  0.00     0.116 C 
ENDROOT
BRANCH   1   2
ATOM      2  N   UNL A   1      33.156  27.299  23.299  1.00  0.00    -0.352 N 
ATOM      3  C   UNL A   1      32.918  25.949  23.253  1.00  0.00     0.253 C 
ATOM      4  O   UNL A   1      32.799  25.419  22.146  1.00  0.00    -0.269 OA
ATOM      5  H   UNL A   1      33.269  27.729  22.420  1.00  0.00     0.163 HD
BRANCH   3   6
ATOM      6  C   UNL A   1      32.902  25.063  24.448  1.00  0.00     0.064 A 
ATOM      7  C   UNL A   1      31.776  24.446  25.021  1.00  0.00     0.066 A 
ATOM      8  C   UNL A   1      32.005  23.622  26.158  1.00  0.00     0.065 A 
ATOM      9  Cl  UNL A   1      30.687  22.846  26.986  1.00  0.00    -0.082 Cl
ATOM     10  C   UNL A   1      33.282  23.378  26.671  1.00  0.00     0.023 A 
ATOM     11  C   UNL A   1      34.193  24.791  24.962  1.00  0.00     0.016 A 
ATOM     12  C   UNL A   1      34.382  23.962  26.067  1.00  0.00     0.003 A 
BRANCH   7  13
ATOM     13  N   UNL A   1      30.462  24.745  24.705  1.00  0.00    -0.380 N 
ATOM     14  H   UNL A   1      29.979  24.077  24.167  1.00  0.00     0.160 HD
BRANCH  13  15
ATOM     15  C   UNL A   1      29.717  25.935  25.080  1.00  0.00     0.154 C 
BRANCH  15  16
ATOM     16  C   UNL A   1      28.821  26.413  23.905  1.00  0.00     0.250 C 
BRANCH  16  17
ATOM     17  O   UNL A   1      29.501  27.218  22.921  1.00  0.00    -0.492 OA
BRANCH  17  18
ATOM     18  C   UNL A   1      29.217  28.555  22.815  1.00  0.00     0.119 A 
ATOM     19  C   UNL A   1      28.252  31.121  22.233  1.00  0.00     0.119 A 
ATOM     20  C   UNL A   1      27.438  30.211  22.897  1.00  0.00     0.050 A 
ATOM     21  C   UNL A   1      29.581  30.801  21.976  1.00  0.00     0.050 A 
ATOM     22  C   UNL A   1      27.917  28.927  23.177  1.00  0.00     0.050 A 
ATOM     23  C   UNL A   1      30.067  29.530  22.295  1.00  0.00     0.050 A 
BRANCH  19  24
ATOM     24  O   UNL A   1      27.732  32.345  21.912  1.00  0.00    -0.497 OA
ATOM     25  C   UNL A   1      27.801  32.591  20.506  1.00  0.00     0.278 C 
ENDBRANCH  19  24
ENDBRANCH  17  18
ENDBRANCH  16  17
ENDBRANCH  15  16
ENDBRANCH  13  15
ENDBRANCH   7  13
ENDBRANCH   3   6
ENDBRANCH   1   2
BRANCH   1  26
ATOM     26  C   UNL A   1      31.967  28.424  25.198  1.00  0.00     0.023 C 
BRANCH  26  27
ATOM     27  C   UNL A   1      32.101  28.985  26.620  1.00  0.00     0.023 C 
BRANCH  27  28
ATOM     28  C   UNL A   1      33.506  29.333  27.117  1.00  0.00     0.116 C 
BRANCH  28  29
ATOM     29  N   UNL A   1      33.583  30.573  27.875  1.00  0.00    -0.352 N 
ATOM     30  C   UNL A   1      34.581  31.078  28.678  1.00  0.00     0.251 C 
ATOM     31  H   UNL A   1      32.787  31.147  27.799  1.00  0.00     0.163 HD
ATOM     32  O   UNL A   1      34.375  32.087  29.349  1.00  0.00    -0.269 OA
BRANCH  30  33
ATOM     33  C   UNL A   1      35.894  30.401  28.761  1.00  0.00     0.039 A 
ATOM     34  C   UNL A   1      36.695  30.322  27.618  1.00  0.00     0.014 A 
ATOM     35  C   UNL A   1      36.340  29.845  29.962  1.00  0.00     0.014 A 
ATOM     36  C   UNL A   1      37.993  29.808  27.715  1.00  0.00     0.010 A 
ATOM     37  C   UNL A   1      37.656  29.400  30.073  1.00  0.00     0.010 A 
ATOM     38  C   UNL A   1      38.508  29.410  28.958  1.00  0.00    -0.014 A 
BRANCH  38  39
ATOM     39  C   UNL A   1      39.948  29.079  29.140  1.00  0.00     0.031 A 
ATOM     40  C   UNL A   1      40.928  30.130  29.585  1.00  0.00     0.074 A 
ATOM     41  C   UNL A   1      40.389  27.848  28.805  1.00  0.00     0.049 A 
ATOM     42  N   UNL A   1      42.233  30.060  29.662  1.00  0.00    -0.248 NA
ATOM     43  C   UNL A   1      40.372  31.434  29.979  1.00  0.00     0.031 C 
ATOM     44  C   UNL A   1      39.549  26.744  28.334  1.00  0.00     0.029 A 
ATOM     45  N   UNL A   1      41.659  27.321  28.792  1.00  0.00    -0.354 N 
ATOM     46  C   UNL A   1      42.655  31.306  30.109  1.00  0.00     0.074 A 
ATOM     47  C   UNL A   1      41.471  32.129  30.240  1.00  0.00     0.031 C 
ATOM     48  C   UNL A   1      40.320  25.670  28.097  1.00  0.00     0.029 A 
ATOM     49  C   UNL A   1      41.713  26.022  28.343  1.00  0.00     0.049 A 
ATOM     50  H   UNL A   1      42.454  27.827  29.076  1.00  0.00     0.167 HD
ATOM     51  C   UNL A   1      43.911  31.722  30.404  1.00  0.00     0.031 A 
ATOM     52  C   UNL A   1      42.767  25.208  28.128  1.00  0.00     0.031 A 
ATOM     53  C   UNL A   1      45.089  30.906  30.269  1.00  0.00     0.049 A 
ATOM     54  C   UNL A   1      44.157  25.720  28.397  1.00  0.00     0.074 A 
ATOM     55  C   UNL A   1      46.401  31.235  30.563  1.00  0.00     0.029 A 
ATOM     56  N   UNL A   1      45.100  29.600  29.804  1.00  0.00    -0.354 N 
ATOM     57  N   UNL A   1      44.530  26.890  28.859  1.00  0.00    -0.248 NA
ATOM     58  C   UNL A   1      45.269  24.802  28.114  1.00  0.00     0.031 C 
ATOM     59  C   UNL A   1      47.212  30.145  30.231  1.00  0.00     0.029 A 
ATOM     60  C   UNL A   1      46.398  29.117  29.782  1.00  0.00     0.049 A 
ATOM     61  H   UNL A   1      44.304  29.091  29.528  1.00  0.00     0.167 HD
ATOM     62  C   UNL A   1      45.916  26.835  28.949  1.00  0.00     0.074 A 
ATOM     63  C   UNL A   1      46.315  25.514  28.511  1.00  0.00     0.031 C 
ATOM     64  C   UNL A   1      46.782  27.796  29.355  1.00  0.00     0.031 A 
BRANCH  51  65
ATOM     65  C   UNL A   1      44.078  33.128  30.917  1.00  0.00    -0.014 A 
ATOM     66  C   UNL A   1      44.290  34.195  30.025  1.00  0.00     0.010 A 
ATOM     67  C   UNL A   1      43.958  33.399  32.292  1.00  0.00     0.010 A 
ATOM     68  C   UNL A   1      44.409  35.503  30.501  1.00  0.00     0.020 A 
ATOM     69  C   UNL A   1      44.050  34.710  32.770  1.00  0.00     0.020 A 
ATOM     70  C   UNL A   1      44.288  35.752  31.871  1.00  0.00     0.054 A 
BRANCH  70  71
ATOM     71  S   UNL A   1      44.411  37.465  32.454  1.00  0.00     0.124 S 
ATOM     72  O   UNL A   1      44.029  38.217  31.260  1.00  0.00    -0.237 OA
ATOM     73  O   UNL A   1      43.449  37.500  33.552  1.00  0.00    -0.237 OA
ATOM     74  O   UNL A   1      45.811  37.598  32.851  1.00  0.00    -0.744 OA
ENDBRANCH  70  71
ENDBRANCH  51  65
BRANCH  52  75
ATOM     75  C   UNL A   1      42.561  23.826  27.612  1.00  0.00    -0.014 A 
ATOM     76  C   UNL A   1      42.338  22.760  28.502  1.00  0.00     0.010 A 
ATOM     77  C   UNL A   1      42.623  23.561  26.231  1.00  0.00     0.010 A 
ATOM     78  C   UNL A   1      42.222  21.451  28.025  1.00  0.00     0.020 A 
ATOM     79  C   UNL A   1      42.475  22.258  25.748  1.00  0.00     0.020 A 
ATOM     80  C   UNL A   1      42.295  21.208  26.650  1.00  0.00     0.054 A 
BRANCH  80  81
ATOM     81  S   UNL A   1      42.133  19.503  26.052  1.00  0.00     0.124 S 
ATOM     82  O   UNL A   1      40.693  19.392  25.840  1.00  0.00    -0.237 OA
ATOM     83  O   UNL A   1      42.952  19.513  24.843  1.00  0.00    -0.237 OA
ATOM     84  O   UNL A   1      42.669  18.704  27.151  1.00  0.00    -0.744 OA
ENDBRANCH  80  81
ENDBRANCH  52  75
BRANCH  64  85
ATOM     85  C   UNL A   1      48.246  27.446  29.382  1.00  0.00    -0.014 A 
ATOM     86  C   UNL A   1      49.089  27.766  28.303  1.00  0.00     0.010 A 
ATOM     87  C   UNL A   1      48.797  26.850  30.531  1.00  0.00     0.010 A 
ATOM     88  C   UNL A   1      50.455  27.477  28.366  1.00  0.00     0.020 A 
ATOM     89  C   UNL A   1      50.166  26.585  30.608  1.00  0.00     0.020 A 
ATOM     90  C   UNL A   1      50.986  26.892  29.520  1.00  0.00     0.054 A 
BRANCH  90  91
ATOM     91  S   UNL A   1      52.773  26.591  29.601  1.00  0.00     0.124 S 
ATOM     92  O   UNL A   1      53.307  27.948  29.681  1.00  0.00    -0.237 OA
ATOM     93  O   UNL A   1      52.908  25.791  30.816  1.00  0.00    -0.237 OA
ATOM     94  O   UNL A   1      53.062  25.880  28.358  1.00  0.00    -0.744 OA
ENDBRANCH  90  91
ENDBRANCH  64  85
ENDBRANCH  38  39
ENDBRANCH  30  33
ENDBRANCH  28  29
ENDBRANCH  27  28
ENDBRANCH  26  27
ENDBRANCH   1  26
TORSDOF 20
ENDMDL
MODEL 2
REMARK VINA RESULT:     -10.4      1.389      8.199
REMARK SMILES COc1ccc(OCCNc2c(Cl)cccc2C(=O)NCCCCNC(=O)c2ccc(-c3c4nc(c(-c5ccc(S(=O)(=O)[O-])cc5)c5ccc([nH]5)c(-c5ccc(S(=O)(=O)[O-])cc5)c5nc(c(-c6ccc(S(=O)(=O)[O-])cc6)c6ccc3[nH]6)C=C5)C=C4)cc2)cc1
REMARK SMILES IDX 21 1 20 2 18 3 19 4 17 6 11 7 12 8 13 9 14 10 16 11 15 12
REMARK SMILES IDX 10 13 9 15 8 16 7 17 6 18 3 19 4 20 89 21 5 22 88 23 2 24
REMARK SMILES IDX 1 25 22 26 23 27 24 28 25 29 26 30 27 32 28 33 29 34 87 35
REMARK SMILES IDX 30 36 86 37 31 38 32 39 33 40 80 41 34 42 85 43 79 44 81 45
REMARK SMILES IDX 35 46 84 47 78 48 77 49 36 51 66 52 47 53 65 54 48 55 51 56
REMARK SMILES IDX 64 57 82 58 49 59 50 60 63 62 83 63 52 64 37 65 38 66 46 67
REMARK SMILES IDX 39 68 45 69 40 70 41 71 42 72 43 73 44 74 67 75 68 76 76 77
REMARK SMILES IDX 69 78 75 79 70 80 71 81 72 82 73 83 74 84 53 85 54 86 62 87
REMARK SMILES IDX 55 88 61 89 56 90 57 91 58 92 59 93 60 94
REMARK H PARENT 20 5 10 14 25 31 81 50 51 61
REMARK Flexibility Score: inf
ROOT
ATOM      1  C   UNL A   1      33.382  26.172  25.787  1.00  0.00     0.116 C 
ENDROOT
BRANCH   1   2
ATOM      2  N   UNL A   1      33.678  26.207  24.371  1.00  0.00    -0.352 N 
ATOM      3  C   UNL A   1      33.979  25.192  23.498  1.00  0.00     0.253 C 
ATOM      4  O   UNL A   1      34.126  25.476  22.307  1.00  0.00    -0.269 OA
ATOM      5  H   UNL A   1      33.659  27.105  23.968  1.00  0.00     0.163 HD
BRANCH   3   6
ATOM      6  C   UNL A   1      34.247  23.788  23.911  1.00  0.00     0.064 A 
ATOM      7  C   UNL A   1      33.345  22.710  23.859  1.00  0.00     0.066 A 
ATOM      8  C   UNL A   1      33.830  21.445  24.294  1.00  0.00     0.065 A 
ATOM      9  Cl  UNL A   1      32.797  20.048  24.324  1.00  0.00    -0.082 Cl
ATOM     10  C   UNL A   1      35.150  21.243  24.708  1.00  0.00     0.023 A 
ATOM     11  C   UNL A   1      35.587  23.566  24.312  1.00  0.00     0.016 A 
ATOM     12  C   UNL A   1      36.034  22.309  24.714  1.00  0.00     0.003 A 
BRANCH   7  13
ATOM     13  N   UNL A   1      31.986  22.825  23.628  1.00  0.00    -0.380 N 
ATOM     14  H   UNL A   1      31.634  22.354  22.838  1.00  0.00     0.160 HD
BRANCH  13  15
ATOM     15  C   UNL A   1      31.019  23.564  24.423  1.00  0.00     0.154 C 
BRANCH  15  16
ATOM     16  C   UNL A   1      30.232  24.566  23.534  1.00  0.00     0.250 C 
BRANCH  16  17
ATOM     17  O   UNL A   1      30.990  25.717  23.110  1.00  0.00    -0.492 OA
BRANCH  17  18
ATOM     18  C   UNL A   1      30.374  26.937  22.991  1.00  0.00     0.119 A 
ATOM     19  C   UNL A   1      29.512  29.601  23.101  1.00  0.00     0.119 A 
ATOM     20  C   UNL A   1      30.733  29.294  22.513  1.00  0.00     0.050 A 
ATOM     21  C   UNL A   1      28.667  28.576  23.515  1.00  0.00     0.050 A 
ATOM     22  C   UNL A   1      31.167  27.965  22.469  1.00  0.00     0.050 A 
ATOM     23  C   UNL A   1      29.088  27.246  23.431  1.00  0.00     0.050 A 
BRANCH  19  24
ATOM     24  O   UNL A   1      29.146  30.916  23.191  1.00  0.00    -0.497 OA
ATOM     25  C   UNL A   1      27.725  31.067  23.165  1.00  0.00     0.278 C 
ENDBRANCH  19  24
ENDBRANCH  17  18
ENDBRANCH  16  17
ENDBRANCH  15  16
ENDBRANCH  13  15
ENDBRANCH   7  13
ENDBRANCH   3   6
ENDBRANCH   1   2
BRANCH   1  26
ATOM     26  C   UNL A   1      32.108  26.909  26.194  1.00  0.00     0.023 C 
BRANCH  26  27
ATOM     27  C   UNL A   1      32.256  28.399  26.531  1.00  0.00     0.023 C 
BRANCH  27  28
ATOM     28  C   UNL A   1      33.656  28.914  26.872  1.00  0.00     0.116 C 
BRANCH  28  29
ATOM     29  N   UNL A   1      33.670  30.171  27.603  1.00  0.00    -0.352 N 
ATOM     30  C   UNL A   1      34.637  30.739  28.404  1.00  0.00     0.251 C 
ATOM     31  H   UNL A   1      32.850  30.707  27.509  1.00  0.00     0.163 HD
ATOM     32  O   UNL A   1      34.379  31.751  29.051  1.00  0.00    -0.269 OA
BRANCH  30  33
ATOM     33  C   UNL A   1      35.979  30.124  28.512  1.00  0.00     0.039 A 
ATOM     34  C   UNL A   1      36.822  30.126  27.397  1.00  0.00     0.014 A 
ATOM     35  C   UNL A   1      36.410  29.547  29.708  1.00  0.00     0.014 A 
ATOM     36  C   UNL A   1      38.140  29.672  27.523  1.00  0.00     0.010 A 
ATOM     37  C   UNL A   1      37.742  29.164  29.852  1.00  0.00     0.010 A 
ATOM     38  C   UNL A   1      38.631  29.255  28.770  1.00  0.00    -0.014 A 
BRANCH  38  39
ATOM     39  C   UNL A   1      40.078  28.989  28.993  1.00  0.00     0.031 A 
ATOM     40  C   UNL A   1      40.669  27.639  28.688  1.00  0.00     0.074 A 
ATOM     41  C   UNL A   1      40.843  29.942  29.568  1.00  0.00     0.049 A 
ATOM     42  N   UNL A   1      41.869  27.187  28.948  1.00  0.00    -0.248 NA
ATOM     43  C   UNL A   1      39.791  26.665  28.020  1.00  0.00     0.031 C 
ATOM     44  C   UNL A   1      40.390  31.285  29.939  1.00  0.00     0.029 A 
ATOM     45  N   UNL A   1      42.161  29.922  29.958  1.00  0.00    -0.354 N 
ATOM     46  C   UNL A   1      41.892  25.879  28.479  1.00  0.00     0.074 A 
ATOM     47  C   UNL A   1      40.570  25.594  27.962  1.00  0.00     0.031 C 
ATOM     48  C   UNL A   1      41.413  31.964  30.483  1.00  0.00     0.029 A 
ATOM     49  C   UNL A   1      42.579  31.090  30.554  1.00  0.00     0.049 A 
ATOM     50  H   UNL A   1      42.750  29.145  29.825  1.00  0.00     0.167 HD
ATOM     51  C   UNL A   1      42.925  25.001  28.461  1.00  0.00     0.031 A 
ATOM     52  C   UNL A   1      43.759  31.417  31.118  1.00  0.00     0.031 A 
ATOM     53  C   UNL A   1      44.238  25.283  28.979  1.00  0.00     0.049 A 
ATOM     54  C   UNL A   1      44.867  30.398  31.147  1.00  0.00     0.074 A 
ATOM     55  C   UNL A   1      45.353  24.462  28.987  1.00  0.00     0.029 A 
ATOM     56  N   UNL A   1      44.615  26.473  29.580  1.00  0.00    -0.354 N 
ATOM     57  N   UNL A   1      44.879  29.180  30.661  1.00  0.00    -0.248 NA
ATOM     58  C   UNL A   1      46.120  30.798  31.803  1.00  0.00     0.031 C 
ATOM     59  C   UNL A   1      46.391  25.139  29.634  1.00  0.00     0.029 A 
ATOM     60  C   UNL A   1      45.939  26.402  29.981  1.00  0.00     0.049 A 
ATOM     61  H   UNL A   1      44.029  27.254  29.706  1.00  0.00     0.167 HD
ATOM     62  C   UNL A   1      46.149  28.682  30.926  1.00  0.00     0.074 A 
ATOM     63  C   UNL A   1      46.882  29.733  31.600  1.00  0.00     0.031 C 
ATOM     64  C   UNL A   1      46.662  27.460  30.641  1.00  0.00     0.031 A 
BRANCH  51  65
ATOM     65  C   UNL A   1      42.680  23.648  27.847  1.00  0.00    -0.014 A 
ATOM     66  C   UNL A   1      43.161  23.348  26.560  1.00  0.00     0.010 A 
ATOM     67  C   UNL A   1      42.025  22.645  28.584  1.00  0.00     0.010 A 
ATOM     68  C   UNL A   1      42.964  22.080  26.007  1.00  0.00     0.020 A 
ATOM     69  C   UNL A   1      41.848  21.367  28.045  1.00  0.00     0.020 A 
ATOM     70  C   UNL A   1      42.308  21.097  26.754  1.00  0.00     0.054 A 
BRANCH  70  71
ATOM     71  S   UNL A   1      42.100  19.450  26.023  1.00  0.00     0.124 S 
ATOM     72  O   UNL A   1      42.660  18.587  27.061  1.00  0.00    -0.237 OA
ATOM     73  O   UNL A   1      40.653  19.359  25.846  1.00  0.00    -0.237 OA
ATOM     74  O   UNL A   1      42.874  19.518  24.786  1.00  0.00    -0.744 OA
ENDBRANCH  70  71
ENDBRANCH  51  65
BRANCH  52  75
ATOM     75  C   UNL A   1      43.959  32.764  31.723  1.00  0.00    -0.014 A 
ATOM     76  C   UNL A   1      44.463  33.824  30.948  1.00  0.00     0.010 A 
ATOM     77  C   UNL A   1      43.683  32.985  33.084  1.00  0.00     0.010 A 
ATOM     78  C   UNL A   1      44.725  35.067  31.532  1.00  0.00     0.020 A 
ATOM     79  C   UNL A   1      43.912  34.235  33.664  1.00  0.00     0.020 A 
ATOM     80  C   UNL A   1      44.451  35.263  32.889  1.00  0.00     0.054 A 
BRANCH  80  81
ATOM     81  S   UNL A   1      44.790  36.887  33.625  1.00  0.00     0.124 S 
ATOM     82  O   UNL A   1      45.657  36.535  34.746  1.00  0.00    -0.237 OA
ATOM     83  O   UNL A   1      45.433  37.604  32.528  1.00  0.00    -0.237 OA
ATOM     84  O   UNL A   1      43.463  37.378  33.989  1.00  0.00    -0.744 OA
ENDBRANCH  80  81
ENDBRANCH  52  75
BRANCH  64  85
ATOM     85  C   UNL A   1      48.095  27.200  31.021  1.00  0.00    -0.014 A 
ATOM     86  C   UNL A   1      49.152  27.580  30.175  1.00  0.00     0.010 A 
ATOM     87  C   UNL A   1      48.389  26.628  32.273  1.00  0.00     0.010 A 
ATOM     88  C   UNL A   1      50.477  27.374  30.566  1.00  0.00     0.020 A 
ATOM     89  C   UNL A   1      49.714  26.447  32.678  1.00  0.00     0.020 A 
ATOM     90  C   UNL A   1      50.750  26.813  31.817  1.00  0.00     0.054 A 
BRANCH  90  91
ATOM     91  S   UNL A   1      52.480  26.620  32.328  1.00  0.00     0.124 S 
ATOM     92  O   UNL A   1      52.957  28.000  32.312  1.00  0.00    -0.237 OA
ATOM     93  O   UNL A   1      52.358  26.012  33.651  1.00  0.00    -0.237 OA
ATOM     94  O   UNL A   1      53.050  25.753  31.300  1.00  0.00    -0.744 OA
ENDBRANCH  90  91
ENDBRANCH  64  85
ENDBRANCH  38  39
ENDBRANCH  30  33
ENDBRANCH  28  29
ENDBRANCH  27  28
ENDBRANCH  26  27
ENDBRANCH   1  26
TORSDOF 20
ENDMDL
MODEL 3
REMARK VINA RESULT:     -10.4      5.061     10.417
REMARK SMILES COc1ccc(OCCNc2c(Cl)cccc2C(=O)NCCCCNC(=O)c2ccc(-c3c4nc(c(-c5ccc(S(=O)(=O)[O-])cc5)c5ccc([nH]5)c(-c5ccc(S(=O)(=O)[O-])cc5)c5nc(c(-c6ccc(S(=O)(=O)[O-])cc6)c6ccc3[nH]6)C=C5)C=C4)cc2)cc1
REMARK SMILES IDX 21 1 20 2 18 3 19 4 17 6 11 7 12 8 13 9 14 10 16 11 15 12
REMARK SMILES IDX 10 13 9 15 8 16 7 17 6 18 3 19 4 20 89 21 5 22 88 23 2 24
REMARK SMILES IDX 1 25 22 26 23 27 24 28 25 29 26 30 27 32 28 33 29 34 87 35
REMARK SMILES IDX 30 36 86 37 31 38 32 39 33 40 80 41 34 42 85 43 79 44 81 45
REMARK SMILES IDX 35 46 84 47 78 48 77 49 36 51 66 52 47 53 65 54 48 55 51 56
REMARK SMILES IDX 64 57 82 58 49 59 50 60 63 62 83 63 52 64 37 65 38 66 46 67
REMARK SMILES IDX 39 68 45 69 40 70 41 71 42 72 43 73 44 74 67 75 68 76 76 77
REMARK SMILES IDX 69 78 75 79 70 80 71 81 72 82 73 83 74 84 53 85 54 86 62 87
REMARK SMILES IDX 55 88 61 89 56 90 57 91 58 92 59 93 60 94
REMARK H PARENT 20 5 10 14 25 31 81 50 51 61
REMARK Flexibility Score: inf
ROOT
ATOM      1  C   UNL A   1      34.402  29.167  26.994  1.00  0.00     0.116 C 
ENDROOT
BRANCH   1   2
ATOM      2  N   UNL A   1      33.228  28.695  27.696  1.00  0.00    -0.352 N 
ATOM      3  C   UNL A   1      32.086  28.099  27.224  1.00  0.00     0.253 C 
ATOM      4  O   UNL A   1      31.247  27.721  28.045  1.00  0.00    -0.269 OA
ATOM      5  H   UNL A   1      33.253  28.822  28.672  1.00  0.00     0.163 HD
BRANCH   3   6
ATOM      6  C   UNL A   1      31.745  27.976  25.781  1.00  0.00     0.064 A 
ATOM      7  C   UNL A   1      31.808  26.809  24.999  1.00  0.00     0.066 A 
ATOM      8  C   UNL A   1      31.414  26.926  23.637  1.00  0.00     0.065 A 
ATOM      9  Cl  UNL A   1      31.496  25.567  22.557  1.00  0.00    -0.082 Cl
ATOM     10  C   UNL A   1      30.933  28.119  23.089  1.00  0.00     0.023 A 
ATOM     11  C   UNL A   1      31.235  29.172  25.221  1.00  0.00     0.016 A 
ATOM     12  C   UNL A   1      30.840  29.247  23.886  1.00  0.00     0.003 A 
BRANCH   7  13
ATOM     13  N   UNL A   1      32.418  25.629  25.386  1.00  0.00    -0.380 N 
ATOM     14  H   UNL A   1      31.829  24.848  25.501  1.00  0.00     0.160 HD
BRANCH  13  15
ATOM     15  C   UNL A   1      33.833  25.413  25.640  1.00  0.00     0.154 C 
BRANCH  15  16
ATOM     16  C   UNL A   1      34.285  24.035  25.085  1.00  0.00     0.250 C 
BRANCH  16  17
ATOM     17  O   UNL A   1      33.367  22.953  25.342  1.00  0.00    -0.492 OA
BRANCH  17  18
ATOM     18  C   UNL A   1      33.683  21.678  24.949  1.00  0.00     0.119 A 
ATOM     19  C   UNL A   1      34.008  18.920  24.572  1.00  0.00     0.119 A 
ATOM     20  C   UNL A   1      32.764  19.505  24.363  1.00  0.00     0.050 A 
ATOM     21  C   UNL A   1      35.112  19.722  24.841  1.00  0.00     0.050 A 
ATOM     22  C   UNL A   1      32.601  20.879  24.561  1.00  0.00     0.050 A 
ATOM     23  C   UNL A   1      34.952  21.102  24.999  1.00  0.00     0.050 A 
BRANCH  19  24
ATOM     24  O   UNL A   1      34.119  17.564  24.436  1.00  0.00    -0.497 OA
ATOM     25  C   UNL A   1      33.311  17.076  23.363  1.00  0.00     0.278 C 
ENDBRANCH  19  24
ENDBRANCH  17  18
ENDBRANCH  16  17
ENDBRANCH  15  16
ENDBRANCH  13  15
ENDBRANCH   7  13
ENDBRANCH   3   6
ENDBRANCH   1   2
BRANCH   1  26
ATOM     26  C   UNL A   1      35.198  30.245  27.728  1.00  0.00     0.023 C 
BRANCH  26  27
ATOM     27  C   UNL A   1      34.714  31.691  27.554  1.00  0.00     0.023 C 
BRANCH  27  28
ATOM     28  C   UNL A   1      33.225  31.973  27.769  1.00  0.00     0.116 C 
BRANCH  28  29
ATOM     29  N   UNL A   1      32.889  33.385  27.850  1.00  0.00    -0.352 N 
ATOM     30  C   UNL A   1      33.387  34.386  28.654  1.00  0.00     0.251 C 
ATOM     31  H   UNL A   1      32.188  33.675  27.222  1.00  0.00     0.163 HD
ATOM     32  O   UNL A   1      32.850  35.492  28.660  1.00  0.00    -0.269 OA
BRANCH  30  33
ATOM     33  C   UNL A   1      34.550  34.135  29.534  1.00  0.00     0.039 A 
ATOM     34  C   UNL A   1      34.344  33.551  30.787  1.00  0.00     0.014 A 
ATOM     35  C   UNL A   1      35.843  34.472  29.128  1.00  0.00     0.014 A 
ATOM     36  C   UNL A   1      35.444  33.183  31.570  1.00  0.00     0.010 A 
ATOM     37  C   UNL A   1      36.938  34.041  29.874  1.00  0.00     0.010 A 
ATOM     38  C   UNL A   1      36.751  33.359  31.087  1.00  0.00    -0.014 A 
BRANCH  38  39
ATOM     39  C   UNL A   1      37.929  32.774  31.783  1.00  0.00     0.031 A 
ATOM     40  C   UNL A   1      38.621  31.557  31.231  1.00  0.00     0.074 A 
ATOM     41  C   UNL A   1      38.314  33.285  32.971  1.00  0.00     0.049 A 
ATOM     42  N   UNL A   1      39.568  30.833  31.771  1.00  0.00    -0.248 NA
ATOM     43  C   UNL A   1      38.180  31.082  29.910  1.00  0.00     0.031 C 
ATOM     44  C   UNL A   1      37.712  34.447  33.631  1.00  0.00     0.029 A 
ATOM     45  N   UNL A   1      39.295  32.883  33.847  1.00  0.00    -0.354 N 
ATOM     46  C   UNL A   1      39.836  29.818  30.861  1.00  0.00     0.074 A 
ATOM     47  C   UNL A   1      38.918  29.991  29.755  1.00  0.00     0.031 C 
ATOM     48  C   UNL A   1      38.346  34.674  34.794  1.00  0.00     0.029 A 
ATOM     49  C   UNL A   1      39.360  33.644  34.991  1.00  0.00     0.049 A 
ATOM     50  H   UNL A   1      39.894  32.122  33.671  1.00  0.00     0.167 HD
ATOM     51  C   UNL A   1      40.775  28.842  30.928  1.00  0.00     0.031 A 
ATOM     52  C   UNL A   1      40.130  33.517  36.091  1.00  0.00     0.031 A 
ATOM     53  C   UNL A   1      41.685  28.666  32.030  1.00  0.00     0.049 A 
ATOM     54  C   UNL A   1      41.116  32.382  36.169  1.00  0.00     0.074 A 
ATOM     55  C   UNL A   1      42.683  27.719  32.177  1.00  0.00     0.029 A 
ATOM     56  N   UNL A   1      41.711  29.453  33.171  1.00  0.00    -0.354 N 
ATOM     57  N   UNL A   1      41.380  31.457  35.278  1.00  0.00    -0.248 NA
ATOM     58  C   UNL A   1      41.906  32.273  37.404  1.00  0.00     0.031 C 
ATOM     59  C   UNL A   1      43.282  27.902  33.428  1.00  0.00     0.029 A 
ATOM     60  C   UNL A   1      42.693  28.999  34.036  1.00  0.00     0.049 A 
ATOM     61  H   UNL A   1      41.118  30.220  33.342  1.00  0.00     0.167 HD
ATOM     62  C   UNL A   1      42.387  30.676  35.833  1.00  0.00     0.074 A 
ATOM     63  C   UNL A   1      42.696  31.245  37.128  1.00  0.00     0.031 C 
ATOM     64  C   UNL A   1      42.999  29.581  35.318  1.00  0.00     0.031 A 
BRANCH  51  65
ATOM     65  C   UNL A   1      40.875  27.888  29.767  1.00  0.00    -0.014 A 
ATOM     66  C   UNL A   1      39.921  26.871  29.591  1.00  0.00     0.010 A 
ATOM     67  C   UNL A   1      41.890  28.048  28.806  1.00  0.00     0.010 A 
ATOM     68  C   UNL A   1      39.996  26.010  28.494  1.00  0.00     0.020 A 
ATOM     69  C   UNL A   1      41.955  27.206  27.692  1.00  0.00     0.020 A 
ATOM     70  C   UNL A   1      41.013  26.183  27.550  1.00  0.00     0.054 A 
BRANCH  70  71
ATOM     71  S   UNL A   1      41.063  25.073  26.117  1.00  0.00     0.124 S 
ATOM     72  O   UNL A   1      41.358  26.001  25.028  1.00  0.00    -0.237 OA
ATOM     73  O   UNL A   1      42.141  24.150  26.464  1.00  0.00    -0.237 OA
ATOM     74  O   UNL A   1      39.727  24.483  26.088  1.00  0.00    -0.744 OA
ENDBRANCH  70  71
ENDBRANCH  51  65
BRANCH  52  75
ATOM     75  C   UNL A   1      39.995  34.476  37.223  1.00  0.00    -0.014 A 
ATOM     76  C   UNL A   1      39.096  34.216  38.273  1.00  0.00     0.010 A 
ATOM     77  C   UNL A   1      40.737  35.671  37.239  1.00  0.00     0.010 A 
ATOM     78  C   UNL A   1      38.911  35.152  39.295  1.00  0.00     0.020 A 
ATOM     79  C   UNL A   1      40.580  36.594  38.277  1.00  0.00     0.020 A 
ATOM     80  C   UNL A   1      39.652  36.337  39.289  1.00  0.00     0.054 A 
BRANCH  80  81
ATOM     81  S   UNL A   1      39.404  37.534  40.630  1.00  0.00     0.124 S 
ATOM     82  O   UNL A   1      40.723  38.149  40.734  1.00  0.00    -0.237 OA
ATOM     83  O   UNL A   1      38.346  38.389  40.099  1.00  0.00    -0.237 OA
ATOM     84  O   UNL A   1      39.010  36.698  41.762  1.00  0.00    -0.744 OA
ENDBRANCH  80  81
ENDBRANCH  52  75
BRANCH  64  85
ATOM     85  C   UNL A   1      44.091  28.945  36.135  1.00  0.00    -0.014 A 
ATOM     86  C   UNL A   1      43.816  27.883  37.014  1.00  0.00     0.010 A 
ATOM     87  C   UNL A   1      45.422  29.372  35.969  1.00  0.00     0.010 A 
ATOM     88  C   UNL A   1      44.850  27.273  37.729  1.00  0.00     0.020 A 
ATOM     89  C   UNL A   1      46.461  28.746  36.662  1.00  0.00     0.020 A 
ATOM     90  C   UNL A   1      46.167  27.706  37.545  1.00  0.00     0.054 A 
BRANCH  90  91
ATOM     91  S   UNL A   1      47.498  26.851  38.433  1.00  0.00     0.124 S 
ATOM     92  O   UNL A   1      48.575  26.857  37.448  1.00  0.00    -0.237 OA
ATOM     93  O   UNL A   1      47.707  27.707  39.598  1.00  0.00    -0.237 OA
ATOM     94  O   UNL A   1      46.931  25.537  38.727  1.00  0.00    -0.744 OA
ENDBRANCH  90  91
ENDBRANCH  64  85
ENDBRANCH  38  39
ENDBRANCH  30  33
ENDBRANCH  28  29
ENDBRANCH  27  28
ENDBRANCH  26  27
ENDBRANCH   1  26
TORSDOF 20
ENDMDL
