MODEL 1
REMARK VINA RESULT:     -12.0      0.000      0.000
REMARK SMILES O=C(NCCCCNC(=O)[C@H]1C[N@H+](Cc2ccc(Cl)c(Cl)c2)CC12CCCCC2)c1ccc(-c2c3nc(c(-c4ccc(S(=O)(=O)[O-])cc4)c4ccc([nH]4)c(-c4ccc(S(=O)(=O)[O-])cc4)c4nc(c(-c5ccc(S(=O)(=O)[O-])cc5)c5ccc2[nH]5)C=C4)C=C3)cc1
REMARK SMILES IDX 5 1 4 2 3 3 1 4 2 5 30 7 31 8 89 9 32 10 88 11 33 12 34 13
REMARK SMILES IDX 35 14 82 15 36 16 87 17 81 18 83 19 37 20 86 21 80 22 79 23
REMARK SMILES IDX 38 25 68 26 49 27 67 28 50 29 53 30 66 31 84 32 51 33 52 34
REMARK SMILES IDX 65 36 85 37 54 38 39 39 40 40 48 41 41 42 47 43 42 44 43 45
REMARK SMILES IDX 44 46 45 47 46 48 69 49 70 50 78 51 71 52 77 53 72 54 73 55
REMARK SMILES IDX 74 56 75 57 76 58 55 59 56 60 64 61 57 62 63 63 58 64 59 65
REMARK SMILES IDX 60 66 61 67 62 68 6 69 7 70 8 71 9 72 10 74 11 75 12 76
REMARK SMILES IDX 24 77 13 78 23 79 25 80 29 81 26 83 28 84 27 85 14 86 15 87
REMARK SMILES IDX 16 88 22 89 17 90 20 91 18 92 21 93 19 94
REMARK H PARENT 3 6 83 24 53 35 8 73 13 82
REMARK Flexibility Score: inf
ROOT
ATOM      1  C   UNL A   1      34.034  29.556  26.830  1.00  0.00     0.023 C 
ENDROOT
BRANCH   1   2
ATOM      2  C   UNL A   1      35.306  29.480  27.667  1.00  0.00     0.116 C 
BRANCH   2   3
ATOM      3  N   UNL A   1      35.190  30.196  28.928  1.00  0.00    -0.352 N 
ATOM      4  O   UNL A   1      35.870  30.885  30.969  1.00  0.00    -0.269 OA
ATOM      5  C   UNL A   1      36.151  30.373  29.890  1.00  0.00     0.251 C 
ATOM      6  H   UNL A   1      34.314  30.603  29.115  1.00  0.00     0.163 HD
BRANCH   5   7
ATOM      7  C   UNL A   1      37.520  29.907  29.610  1.00  0.00     0.039 A 
ATOM      8  C   UNL A   1      38.290  29.343  30.633  1.00  0.00     0.014 A 
ATOM      9  C   UNL A   1      38.045  30.089  28.331  1.00  0.00     0.014 A 
ATOM     10  C   UNL A   1      39.630  29.054  30.400  1.00  0.00     0.010 A 
ATOM     11  C   UNL A   1      39.372  29.740  28.084  1.00  0.00     0.010 A 
ATOM     12  C   UNL A   1      40.178  29.242  29.122  1.00  0.00    -0.014 A 
BRANCH  12  13
ATOM     13  C   UNL A   1      41.581  28.858  28.849  1.00  0.00     0.031 A 
ATOM     14  C   UNL A   1      42.677  29.883  28.883  1.00  0.00     0.074 A 
ATOM     15  C   UNL A   1      41.847  27.581  28.523  1.00  0.00     0.049 A 
ATOM     16  N   UNL A   1      43.938  29.746  28.566  1.00  0.00    -0.248 NA
ATOM     17  C   UNL A   1      42.306  31.238  29.318  1.00  0.00     0.031 C 
ATOM     18  C   UNL A   1      40.856  26.504  28.463  1.00  0.00     0.029 A 
ATOM     19  N   UNL A   1      43.022  26.976  28.160  1.00  0.00    -0.354 N 
ATOM     20  C   UNL A   1      44.507  31.003  28.731  1.00  0.00     0.074 A 
ATOM     21  C   UNL A   1      43.450  31.891  29.166  1.00  0.00     0.031 C 
ATOM     22  C   UNL A   1      41.465  25.370  28.088  1.00  0.00     0.029 A 
ATOM     23  C   UNL A   1      42.870  25.654  27.821  1.00  0.00     0.049 A 
ATOM     24  H   UNL A   1      43.889  27.442  28.145  1.00  0.00     0.167 HD
ATOM     25  C   UNL A   1      45.795  31.378  28.532  1.00  0.00     0.031 A 
ATOM     26  C   UNL A   1      43.751  24.774  27.311  1.00  0.00     0.031 A 
ATOM     27  C   UNL A   1      46.831  30.484  28.086  1.00  0.00     0.049 A 
ATOM     28  C   UNL A   1      45.162  25.215  27.065  1.00  0.00     0.074 A 
ATOM     29  C   UNL A   1      48.173  30.755  27.884  1.00  0.00     0.029 A 
ATOM     30  N   UNL A   1      46.639  29.148  27.761  1.00  0.00    -0.354 N 
ATOM     31  N   UNL A   1      45.694  26.398  27.259  1.00  0.00    -0.248 NA
ATOM     32  C   UNL A   1      46.092  24.210  26.538  1.00  0.00     0.031 C 
ATOM     33  C   UNL A   1      48.781  29.596  27.389  1.00  0.00     0.029 A 
ATOM     34  C   UNL A   1      47.831  28.587  27.336  1.00  0.00     0.049 A 
ATOM     35  H   UNL A   1      45.779  28.671  27.824  1.00  0.00     0.167 HD
ATOM     36  C   UNL A   1      47.030  26.276  26.898  1.00  0.00     0.074 A 
ATOM     37  C   UNL A   1      47.224  24.902  26.477  1.00  0.00     0.031 C 
ATOM     38  C   UNL A   1      48.005  27.216  26.922  1.00  0.00     0.031 A 
BRANCH  25  39
ATOM     39  C   UNL A   1      46.132  32.830  28.746  1.00  0.00    -0.014 A 
ATOM     40  C   UNL A   1      46.560  33.309  29.996  1.00  0.00     0.010 A 
ATOM     41  C   UNL A   1      46.019  33.733  27.671  1.00  0.00     0.010 A 
ATOM     42  C   UNL A   1      46.805  34.673  30.187  1.00  0.00     0.020 A 
ATOM     43  C   UNL A   1      46.289  35.093  27.850  1.00  0.00     0.020 A 
ATOM     44  C   UNL A   1      46.654  35.558  29.115  1.00  0.00     0.054 A 
BRANCH  44  45
ATOM     45  S   UNL A   1      46.943  37.326  29.394  1.00  0.00     0.124 S 
ATOM     46  O   UNL A   1      48.048  37.300  30.351  1.00  0.00    -0.237 OA
ATOM     47  O   UNL A   1      47.282  37.814  28.060  1.00  0.00    -0.237 OA
ATOM     48  O   UNL A   1      45.671  37.807  29.926  1.00  0.00    -0.744 OA
ENDBRANCH  44  45
ENDBRANCH  25  39
BRANCH  26  49
ATOM     49  C   UNL A   1      43.285  23.400  26.991  1.00  0.00    -0.014 A 
ATOM     50  C   UNL A   1      43.281  22.937  25.666  1.00  0.00     0.010 A 
ATOM     51  C   UNL A   1      42.947  22.511  28.031  1.00  0.00     0.010 A 
ATOM     52  C   UNL A   1      42.965  21.605  25.386  1.00  0.00     0.020 A 
ATOM     53  C   UNL A   1      42.654  21.173  27.757  1.00  0.00     0.020 A 
ATOM     54  C   UNL A   1      42.665  20.729  26.434  1.00  0.00     0.054 A 
BRANCH  54  55
ATOM     55  S   UNL A   1      42.370  18.979  26.055  1.00  0.00     0.124 S 
ATOM     56  O   UNL A   1      42.701  18.334  27.321  1.00  0.00    -0.237 OA
ATOM     57  O   UNL A   1      40.956  18.970  25.689  1.00  0.00    -0.237 OA
ATOM     58  O   UNL A   1      43.291  18.708  24.953  1.00  0.00    -0.744 OA
ENDBRANCH  54  55
ENDBRANCH  26  49
BRANCH  38  59
ATOM     59  C   UNL A   1      49.389  26.791  26.516  1.00  0.00    -0.014 A 
ATOM     60  C   UNL A   1      50.236  26.118  27.413  1.00  0.00     0.010 A 
ATOM     61  C   UNL A   1      49.804  26.982  25.185  1.00  0.00     0.010 A 
ATOM     62  C   UNL A   1      51.479  25.645  26.984  1.00  0.00     0.020 A 
ATOM     63  C   UNL A   1      51.037  26.492  24.749  1.00  0.00     0.020 A 
ATOM     64  C   UNL A   1      51.869  25.830  25.653  1.00  0.00     0.054 A 
BRANCH  64  65
ATOM     65  S   UNL A   1      53.448  25.129  25.098  1.00  0.00     0.124 S 
ATOM     66  O   UNL A   1      53.244  23.702  25.329  1.00  0.00    -0.237 OA
ATOM     67  O   UNL A   1      53.505  25.538  23.696  1.00  0.00    -0.237 OA
ATOM     68  O   UNL A   1      54.434  25.766  25.966  1.00  0.00    -0.744 OA
ENDBRANCH  64  65
ENDBRANCH  38  59
ENDBRANCH  12  13
ENDBRANCH   5   7
ENDBRANCH   2   3
ENDBRANCH   1   2
BRANCH   1  69
ATOM     69  C   UNL A   1      32.927  28.592  27.259  1.00  0.00     0.023 C 
BRANCH  69  70
ATOM     70  C   UNL A   1      32.514  27.602  26.177  1.00  0.00     0.116 C 
BRANCH  70  71
ATOM     71  N   UNL A   1      31.190  27.063  26.421  1.00  0.00    -0.356 N 
ATOM     72  C   UNL A   1      30.654  25.847  26.154  1.00  0.00     0.229 C 
ATOM     73  H   UNL A   1      30.571  27.692  26.857  1.00  0.00     0.163 HD
ATOM     74  O   UNL A   1      29.479  25.664  26.486  1.00  0.00    -0.275 OA
BRANCH  72  75
ATOM     75  C   UNL A   1      31.436  24.717  25.506  1.00  0.00     0.145 C 
ATOM     76  C   UNL A   1      30.883  23.324  25.795  1.00  0.00     0.276 C 
ATOM     77  C   UNL A   1      31.736  24.806  23.978  1.00  0.00     0.037 C 
ATOM     78  N   UNL A   1      31.210  22.505  24.637  1.00  0.00    -0.330 N 
ATOM     79  C   UNL A   1      31.359  23.386  23.478  1.00  0.00     0.270 C 
ATOM     80  C   UNL A   1      30.973  25.917  23.210  1.00  0.00     0.014 C 
ATOM     81  C   UNL A   1      33.245  25.125  23.787  1.00  0.00     0.014 C 
ATOM     82  H   UNL A   1      30.428  21.880  24.439  1.00  0.00     0.348 HD
ATOM     83  C   UNL A   1      31.399  26.077  21.748  1.00  0.00     0.001 C 
ATOM     84  C   UNL A   1      33.682  25.220  22.328  1.00  0.00     0.001 C 
ATOM     85  C   UNL A   1      32.896  26.299  21.601  1.00  0.00     0.000 C 
BRANCH  78  86
ATOM     86  C   UNL A   1      32.197  21.443  24.837  1.00  0.00     0.299 C 
BRANCH  86  87
ATOM     87  C   UNL A   1      33.617  21.873  25.137  1.00  0.00     0.008 A 
ATOM     88  C   UNL A   1      34.013  22.218  26.438  1.00  0.00     0.011 A 
ATOM     89  C   UNL A   1      34.555  21.989  24.098  1.00  0.00     0.031 A 
ATOM     90  C   UNL A   1      35.272  22.772  26.679  1.00  0.00     0.022 A 
ATOM     91  C   UNL A   1      35.826  22.526  24.339  1.00  0.00     0.060 A 
ATOM     92  C   UNL A   1      36.174  22.944  25.629  1.00  0.00     0.059 A 
ATOM     93  Cl  UNL A   1      36.892  22.699  22.992  1.00  0.00    -0.083 Cl
ATOM     94  Cl  UNL A   1      37.683  23.707  25.983  1.00  0.00    -0.083 Cl
ENDBRANCH  86  87
ENDBRANCH  78  86
ENDBRANCH  72  75
ENDBRANCH  70  71
ENDBRANCH  69  70
ENDBRANCH   1  69
TORSDOF 16
ENDMDL
MODEL 2
REMARK VINA RESULT:     -11.9      4.995      9.175
REMARK SMILES O=C(NCCCCNC(=O)[C@H]1C[N@H+](Cc2ccc(Cl)c(Cl)c2)CC12CCCCC2)c1ccc(-c2c3nc(c(-c4ccc(S(=O)(=O)[O-])cc4)c4ccc([nH]4)c(-c4ccc(S(=O)(=O)[O-])cc4)c4nc(c(-c5ccc(S(=O)(=O)[O-])cc5)c5ccc2[nH]5)C=C4)C=C3)cc1
REMARK SMILES IDX 5 1 4 2 3 3 1 4 2 5 30 7 31 8 89 9 32 10 88 11 33 12 34 13
REMARK SMILES IDX 35 14 82 15 36 16 87 17 81 18 83 19 37 20 86 21 80 22 79 23
REMARK SMILES IDX 38 25 68 26 49 27 67 28 50 29 53 30 66 31 84 32 51 33 52 34
REMARK SMILES IDX 65 36 85 37 54 38 39 39 40 40 48 41 41 42 47 43 42 44 43 45
REMARK SMILES IDX 44 46 45 47 46 48 69 49 70 50 78 51 71 52 77 53 72 54 73 55
REMARK SMILES IDX 74 56 75 57 76 58 55 59 56 60 64 61 57 62 63 63 58 64 59 65
REMARK SMILES IDX 60 66 61 67 62 68 6 69 7 70 8 71 9 72 10 74 11 75 12 76
REMARK SMILES IDX 24 77 13 78 23 79 25 80 29 81 26 83 28 84 27 85 14 86 15 87
REMARK SMILES IDX 16 88 22 89 17 90 20 91 18 92 21 93 19 94
REMARK H PARENT 3 6 83 24 53 35 8 73 13 82
REMARK Flexibility Score: inf
ROOT
ATOM      1  C   UNL A   1      33.532  28.580  25.190  1.00  0.00     0.023 C 
ENDROOT
BRANCH   1   2
ATOM      2  C   UNL A   1      34.459  29.190  26.235  1.00  0.00     0.116 C 
BRANCH   2   3
ATOM      3  N   UNL A   1      33.953  30.446  26.768  1.00  0.00    -0.352 N 
ATOM      4  O   UNL A   1      33.860  32.172  28.223  1.00  0.00    -0.269 OA
ATOM      5  C   UNL A   1      34.472  31.200  27.789  1.00  0.00     0.251 C 
ATOM      6  H   UNL A   1      33.138  30.798  26.344  1.00  0.00     0.163 HD
BRANCH   5   7
ATOM      7  C   UNL A   1      35.764  30.800  28.372  1.00  0.00     0.039 A 
ATOM      8  C   UNL A   1      35.835  29.690  29.221  1.00  0.00     0.014 A 
ATOM      9  C   UNL A   1      36.892  31.575  28.107  1.00  0.00     0.014 A 
ATOM     10  C   UNL A   1      37.021  29.416  29.891  1.00  0.00     0.010 A 
ATOM     11  C   UNL A   1      38.097  31.260  28.732  1.00  0.00     0.010 A 
ATOM     12  C   UNL A   1      38.163  30.193  29.644  1.00  0.00    -0.014 A 
BRANCH  12  13
ATOM     13  C   UNL A   1      39.450  29.854  30.293  1.00  0.00     0.031 A 
ATOM     14  C   UNL A   1      40.302  28.736  29.768  1.00  0.00     0.074 A 
ATOM     15  C   UNL A   1      39.816  30.536  31.393  1.00  0.00     0.049 A 
ATOM     16  N   UNL A   1      41.399  28.234  30.272  1.00  0.00    -0.248 NA
ATOM     17  C   UNL A   1      39.860  28.093  28.521  1.00  0.00     0.031 C 
ATOM     18  C   UNL A   1      39.061  31.643  31.986  1.00  0.00     0.029 A 
ATOM     19  N   UNL A   1      40.899  30.388  32.218  1.00  0.00    -0.354 N 
ATOM     20  C   UNL A   1      41.763  27.194  29.425  1.00  0.00     0.074 A 
ATOM     21  C   UNL A   1      40.763  27.132  28.380  1.00  0.00     0.031 C 
ATOM     22  C   UNL A   1      39.706  32.075  33.079  1.00  0.00     0.029 A 
ATOM     23  C   UNL A   1      40.880  31.237  33.297  1.00  0.00     0.049 A 
ATOM     24  H   UNL A   1      41.620  29.738  32.053  1.00  0.00     0.167 HD
ATOM     25  C   UNL A   1      42.833  26.366  29.518  1.00  0.00     0.031 A 
ATOM     26  C   UNL A   1      41.691  31.311  34.369  1.00  0.00     0.031 A 
ATOM     27  C   UNL A   1      43.811  26.434  30.571  1.00  0.00     0.049 A 
ATOM     28  C   UNL A   1      42.849  30.365  34.472  1.00  0.00     0.074 A 
ATOM     29  C   UNL A   1      44.949  25.666  30.740  1.00  0.00     0.029 A 
ATOM     30  N   UNL A   1      43.761  27.316  31.643  1.00  0.00    -0.354 N 
ATOM     31  N   UNL A   1      43.200  29.410  33.644  1.00  0.00    -0.248 NA
ATOM     32  C   UNL A   1      43.721  30.506  35.643  1.00  0.00     0.031 C 
ATOM     33  C   UNL A   1      45.559  26.048  31.940  1.00  0.00     0.029 A 
ATOM     34  C   UNL A   1      44.833  27.094  32.490  1.00  0.00     0.049 A 
ATOM     35  H   UNL A   1      43.064  27.999  31.779  1.00  0.00     0.167 HD
ATOM     36  C   UNL A   1      44.349  28.847  34.184  1.00  0.00     0.074 A 
ATOM     37  C   UNL A   1      44.635  29.572  35.407  1.00  0.00     0.031 C 
ATOM     38  C   UNL A   1      45.102  27.827  33.703  1.00  0.00     0.031 A 
BRANCH  25  39
ATOM     39  C   UNL A   1      42.962  25.286  28.477  1.00  0.00    -0.014 A 
ATOM     40  C   UNL A   1      42.409  24.008  28.670  1.00  0.00     0.010 A 
ATOM     41  C   UNL A   1      43.653  25.557  27.280  1.00  0.00     0.010 A 
ATOM     42  C   UNL A   1      42.598  23.002  27.717  1.00  0.00     0.020 A 
ATOM     43  C   UNL A   1      43.822  24.562  26.312  1.00  0.00     0.020 A 
ATOM     44  C   UNL A   1      43.317  23.282  26.550  1.00  0.00     0.054 A 
BRANCH  44  45
ATOM     45  S   UNL A   1      43.579  21.953  25.345  1.00  0.00     0.124 S 
ATOM     46  O   UNL A   1      43.461  22.672  24.078  1.00  0.00    -0.237 OA
ATOM     47  O   UNL A   1      44.921  21.478  25.673  1.00  0.00    -0.237 OA
ATOM     48  O   UNL A   1      42.500  21.010  25.628  1.00  0.00    -0.744 OA
ENDBRANCH  44  45
ENDBRANCH  25  39
BRANCH  26  49
ATOM     49  C   UNL A   1      41.393  32.315  35.422  1.00  0.00    -0.014 A 
ATOM     50  C   UNL A   1      41.945  33.605  35.355  1.00  0.00     0.010 A 
ATOM     51  C   UNL A   1      40.463  32.017  36.438  1.00  0.00     0.010 A 
ATOM     52  C   UNL A   1      41.562  34.584  36.275  1.00  0.00     0.020 A 
ATOM     53  C   UNL A   1      40.060  33.000  37.344  1.00  0.00     0.020 A 
ATOM     54  C   UNL A   1      40.612  34.279  37.256  1.00  0.00     0.054 A 
BRANCH  54  55
ATOM     55  S   UNL A   1      40.045  35.598  38.365  1.00  0.00     0.124 S 
ATOM     56  O   UNL A   1      41.235  35.849  39.171  1.00  0.00    -0.237 OA
ATOM     57  O   UNL A   1      39.677  36.660  37.432  1.00  0.00    -0.237 OA
ATOM     58  O   UNL A   1      38.923  34.989  39.076  1.00  0.00    -0.744 OA
ENDBRANCH  54  55
ENDBRANCH  26  49
BRANCH  38  59
ATOM     59  C   UNL A   1      46.334  27.450  34.476  1.00  0.00    -0.014 A 
ATOM     60  C   UNL A   1      47.569  28.071  34.225  1.00  0.00     0.010 A 
ATOM     61  C   UNL A   1      46.226  26.531  35.537  1.00  0.00     0.010 A 
ATOM     62  C   UNL A   1      48.680  27.775  35.022  1.00  0.00     0.020 A 
ATOM     63  C   UNL A   1      47.328  26.250  36.347  1.00  0.00     0.020 A 
ATOM     64  C   UNL A   1      48.550  26.871  36.081  1.00  0.00     0.054 A 
BRANCH  64  65
ATOM     65  S   UNL A   1      49.980  26.572  37.156  1.00  0.00     0.124 S 
ATOM     66  O   UNL A   1      49.431  26.855  38.479  1.00  0.00    -0.237 OA
ATOM     67  O   UNL A   1      50.292  25.169  36.892  1.00  0.00    -0.237 OA
ATOM     68  O   UNL A   1      50.978  27.526  36.678  1.00  0.00    -0.744 OA
ENDBRANCH  64  65
ENDBRANCH  38  59
ENDBRANCH  12  13
ENDBRANCH   5   7
ENDBRANCH   2   3
ENDBRANCH   1   2
BRANCH   1  69
ATOM     69  C   UNL A   1      32.105  28.319  25.675  1.00  0.00     0.023 C 
BRANCH  69  70
ATOM     70  C   UNL A   1      32.006  27.259  26.765  1.00  0.00     0.116 C 
BRANCH  70  71
ATOM     71  N   UNL A   1      30.700  26.630  26.784  1.00  0.00    -0.356 N 
ATOM     72  C   UNL A   1      30.285  25.414  26.351  1.00  0.00     0.229 C 
ATOM     73  H   UNL A   1      29.989  27.184  27.178  1.00  0.00     0.163 HD
ATOM     74  O   UNL A   1      29.091  25.139  26.505  1.00  0.00    -0.275 OA
BRANCH  72  75
ATOM     75  C   UNL A   1      31.217  24.388  25.730  1.00  0.00     0.145 C 
ATOM     76  C   UNL A   1      30.759  22.941  25.894  1.00  0.00     0.276 C 
ATOM     77  C   UNL A   1      31.652  24.588  24.246  1.00  0.00     0.037 C 
ATOM     78  N   UNL A   1      31.262  22.218  24.737  1.00  0.00    -0.330 N 
ATOM     79  C   UNL A   1      31.446  23.172  23.642  1.00  0.00     0.270 C 
ATOM     80  C   UNL A   1      30.874  25.676  23.461  1.00  0.00     0.014 C 
ATOM     81  C   UNL A   1      33.141  25.035  24.222  1.00  0.00     0.014 C 
ATOM     82  H   UNL A   1      30.558  21.546  24.431  1.00  0.00     0.348 HD
ATOM     83  C   UNL A   1      31.423  25.952  22.058  1.00  0.00     0.001 C 
ATOM     84  C   UNL A   1      33.705  25.247  22.820  1.00  0.00     0.001 C 
ATOM     85  C   UNL A   1      32.903  26.300  22.072  1.00  0.00     0.000 C 
BRANCH  78  86
ATOM     86  C   UNL A   1      32.313  21.228  24.981  1.00  0.00     0.299 C 
BRANCH  86  87
ATOM     87  C   UNL A   1      33.706  21.756  25.246  1.00  0.00     0.008 A 
ATOM     88  C   UNL A   1      34.094  22.173  26.528  1.00  0.00     0.011 A 
ATOM     89  C   UNL A   1      34.623  21.892  24.191  1.00  0.00     0.031 A 
ATOM     90  C   UNL A   1      35.319  22.813  26.733  1.00  0.00     0.022 A 
ATOM     91  C   UNL A   1      35.861  22.516  24.396  1.00  0.00     0.060 A 
ATOM     92  C   UNL A   1      36.196  23.002  25.664  1.00  0.00     0.059 A 
ATOM     93  Cl  UNL A   1      36.898  22.706  23.028  1.00  0.00    -0.083 Cl
ATOM     94  Cl  UNL A   1      37.658  23.870  25.970  1.00  0.00    -0.083 Cl
ENDBRANCH  86  87
ENDBRANCH  78  86
ENDBRANCH  72  75
ENDBRANCH  70  71
ENDBRANCH  69  70
ENDBRANCH   1  69
TORSDOF 16
ENDMDL
MODEL 3
REMARK VINA RESULT:     -11.7      2.713      3.595
REMARK SMILES O=C(NCCCCNC(=O)[C@H]1C[N@H+](Cc2ccc(Cl)c(Cl)c2)CC12CCCCC2)c1ccc(-c2c3nc(c(-c4ccc(S(=O)(=O)[O-])cc4)c4ccc([nH]4)c(-c4ccc(S(=O)(=O)[O-])cc4)c4nc(c(-c5ccc(S(=O)(=O)[O-])cc5)c5ccc2[nH]5)C=C4)C=C3)cc1
REMARK SMILES IDX 5 1 4 2 3 3 1 4 2 5 30 7 31 8 89 9 32 10 88 11 33 12 34 13
REMARK SMILES IDX 35 14 82 15 36 16 87 17 81 18 83 19 37 20 86 21 80 22 79 23
REMARK SMILES IDX 38 25 68 26 49 27 67 28 50 29 53 30 66 31 84 32 51 33 52 34
REMARK SMILES IDX 65 36 85 37 54 38 39 39 40 40 48 41 41 42 47 43 42 44 43 45
REMARK SMILES IDX 44 46 45 47 46 48 69 49 70 50 78 51 71 52 77 53 72 54 73 55
REMARK SMILES IDX 74 56 75 57 76 58 55 59 56 60 64 61 57 62 63 63 58 64 59 65
REMARK SMILES IDX 60 66 61 67 62 68 6 69 7 70 8 71 9 72 10 74 11 75 12 76
REMARK SMILES IDX 24 77 13 78 23 79 25 80 29 81 26 83 28 84 27 85 14 86 15 87
REMARK SMILES IDX 16 88 22 89 17 90 20 91 18 92 21 93 19 94
REMARK H PARENT 3 6 83 24 53 35 8 73 13 82
REMARK Flexibility Score: inf
ROOT
ATOM      1  C   UNL A   1      34.208  28.224  25.481  1.00  0.00     0.023 C 
ENDROOT
BRANCH   1   2
ATOM      2  C   UNL A   1      33.796  28.368  26.941  1.00  0.00     0.116 C 
BRANCH   2   3
ATOM      3  N   UNL A   1      33.565  29.753  27.325  1.00  0.00    -0.352 N 
ATOM      4  O   UNL A   1      34.021  31.694  28.385  1.00  0.00    -0.269 OA
ATOM      5  C   UNL A   1      34.405  30.590  28.013  1.00  0.00     0.251 C 
ATOM      6  H   UNL A   1      32.699  30.136  27.058  1.00  0.00     0.163 HD
BRANCH   5   7
ATOM      7  C   UNL A   1      35.768  30.121  28.319  1.00  0.00     0.039 A 
ATOM      8  C   UNL A   1      36.073  29.648  29.600  1.00  0.00     0.014 A 
ATOM      9  C   UNL A   1      36.749  30.210  27.333  1.00  0.00     0.014 A 
ATOM     10  C   UNL A   1      37.393  29.359  29.926  1.00  0.00     0.010 A 
ATOM     11  C   UNL A   1      38.061  29.860  27.645  1.00  0.00     0.010 A 
ATOM     12  C   UNL A   1      38.395  29.454  28.948  1.00  0.00    -0.014 A 
BRANCH  12  13
ATOM     13  C   UNL A   1      39.788  29.069  29.269  1.00  0.00     0.031 A 
ATOM     14  C   UNL A   1      40.743  30.064  29.857  1.00  0.00     0.074 A 
ATOM     15  C   UNL A   1      40.194  27.820  28.976  1.00  0.00     0.049 A 
ATOM     16  N   UNL A   1      42.021  29.932  30.099  1.00  0.00    -0.248 NA
ATOM     17  C   UNL A   1      40.195  31.382  30.211  1.00  0.00     0.031 C 
ATOM     18  C   UNL A   1      39.344  26.772  28.403  1.00  0.00     0.029 A 
ATOM     19  N   UNL A   1      41.422  27.226  29.099  1.00  0.00    -0.354 N 
ATOM     20  C   UNL A   1      42.440  31.157  30.603  1.00  0.00     0.074 A 
ATOM     21  C   UNL A   1      41.281  32.024  30.621  1.00  0.00     0.031 C 
ATOM     22  C   UNL A   1      40.078  25.664  28.226  1.00  0.00     0.029 A 
ATOM     23  C   UNL A   1      41.456  25.943  28.612  1.00  0.00     0.049 A 
ATOM     24  H   UNL A   1      42.203  27.675  29.497  1.00  0.00     0.167 HD
ATOM     25  C   UNL A   1      43.681  31.523  31.007  1.00  0.00     0.031 A 
ATOM     26  C   UNL A   1      42.489  25.094  28.452  1.00  0.00     0.031 A 
ATOM     27  C   UNL A   1      44.827  30.652  30.970  1.00  0.00     0.049 A 
ATOM     28  C   UNL A   1      43.860  25.528  28.872  1.00  0.00     0.074 A 
ATOM     29  C   UNL A   1      46.120  30.912  31.386  1.00  0.00     0.029 A 
ATOM     30  N   UNL A   1      44.819  29.354  30.478  1.00  0.00    -0.354 N 
ATOM     31  N   UNL A   1      44.234  26.678  29.379  1.00  0.00    -0.248 NA
ATOM     32  C   UNL A   1      44.946  24.555  28.707  1.00  0.00     0.031 C 
ATOM     33  C   UNL A   1      46.905  29.790  31.098  1.00  0.00     0.029 A 
ATOM     34  C   UNL A   1      46.089  28.809  30.555  1.00  0.00     0.049 A 
ATOM     35  H   UNL A   1      44.025  28.889  30.124  1.00  0.00     0.167 HD
ATOM     36  C   UNL A   1      45.598  26.562  29.614  1.00  0.00     0.074 A 
ATOM     37  C   UNL A   1      45.981  25.226  29.197  1.00  0.00     0.031 C 
ATOM     38  C   UNL A   1      46.451  27.477  30.136  1.00  0.00     0.031 A 
BRANCH  25  39
ATOM     39  C   UNL A   1      43.866  32.943  31.472  1.00  0.00    -0.014 A 
ATOM     40  C   UNL A   1      43.756  33.293  32.829  1.00  0.00     0.010 A 
ATOM     41  C   UNL A   1      44.156  33.948  30.529  1.00  0.00     0.010 A 
ATOM     42  C   UNL A   1      43.867  34.629  33.228  1.00  0.00     0.020 A 
ATOM     43  C   UNL A   1      44.295  35.282  30.927  1.00  0.00     0.020 A 
ATOM     44  C   UNL A   1      44.122  35.617  32.271  1.00  0.00     0.054 A 
BRANCH  44  45
ATOM     45  S   UNL A   1      44.228  37.346  32.807  1.00  0.00     0.124 S 
ATOM     46  O   UNL A   1      43.052  37.464  33.668  1.00  0.00    -0.237 OA
ATOM     47  O   UNL A   1      45.515  37.394  33.494  1.00  0.00    -0.237 OA
ATOM     48  O   UNL A   1      44.162  38.101  31.558  1.00  0.00    -0.744 OA
ENDBRANCH  44  45
ENDBRANCH  25  39
BRANCH  26  49
ATOM     49  C   UNL A   1      42.231  23.763  27.844  1.00  0.00    -0.014 A 
ATOM     50  C   UNL A   1      42.415  23.560  26.467  1.00  0.00     0.010 A 
ATOM     51  C   UNL A   1      41.908  22.664  28.664  1.00  0.00     0.010 A 
ATOM     52  C   UNL A   1      42.296  22.278  25.922  1.00  0.00     0.020 A 
ATOM     53  C   UNL A   1      41.813  21.378  28.127  1.00  0.00     0.020 A 
ATOM     54  C   UNL A   1      42.008  21.195  26.757  1.00  0.00     0.054 A 
BRANCH  54  55
ATOM     55  S   UNL A   1      41.973  19.526  26.046  1.00  0.00     0.124 S 
ATOM     56  O   UNL A   1      40.550  19.336  25.786  1.00  0.00    -0.237 OA
ATOM     57  O   UNL A   1      42.819  19.669  24.863  1.00  0.00    -0.237 OA
ATOM     58  O   UNL A   1      42.534  18.690  27.105  1.00  0.00    -0.744 OA
ENDBRANCH  54  55
ENDBRANCH  26  49
BRANCH  38  59
ATOM     59  C   UNL A   1      47.884  27.062  30.324  1.00  0.00    -0.014 A 
ATOM     60  C   UNL A   1      48.828  27.223  29.297  1.00  0.00     0.010 A 
ATOM     61  C   UNL A   1      48.305  26.598  31.584  1.00  0.00     0.010 A 
ATOM     62  C   UNL A   1      50.174  26.923  29.527  1.00  0.00     0.020 A 
ATOM     63  C   UNL A   1      49.652  26.317  31.822  1.00  0.00     0.020 A 
ATOM     64  C   UNL A   1      50.578  26.477  30.790  1.00  0.00     0.054 A 
BRANCH  64  65
ATOM     65  S   UNL A   1      52.342  26.180  31.090  1.00  0.00     0.124 S 
ATOM     66  O   UNL A   1      52.680  27.260  32.013  1.00  0.00    -0.237 OA
ATOM     67  O   UNL A   1      52.348  24.837  31.666  1.00  0.00    -0.237 OA
ATOM     68  O   UNL A   1      52.942  26.284  29.762  1.00  0.00    -0.744 OA
ENDBRANCH  64  65
ENDBRANCH  38  59
ENDBRANCH  12  13
ENDBRANCH   5   7
ENDBRANCH   2   3
ENDBRANCH   1   2
BRANCH   1  69
ATOM     69  C   UNL A   1      33.385  29.059  24.498  1.00  0.00     0.023 C 
BRANCH  69  70
ATOM     70  C   UNL A   1      33.595  28.680  23.037  1.00  0.00     0.116 C 
BRANCH  70  71
ATOM     71  N   UNL A   1      32.356  28.263  22.410  1.00  0.00    -0.356 N 
ATOM     72  C   UNL A   1      31.783  27.041  22.282  1.00  0.00     0.229 C 
ATOM     73  H   UNL A   1      31.842  28.997  22.003  1.00  0.00     0.163 HD
ATOM     74  O   UNL A   1      30.699  26.986  21.692  1.00  0.00    -0.275 OA
BRANCH  72  75
ATOM     75  C   UNL A   1      32.392  25.772  22.854  1.00  0.00     0.145 C 
ATOM     76  C   UNL A   1      33.915  25.715  22.774  1.00  0.00     0.276 C 
ATOM     77  C   UNL A   1      31.969  25.332  24.289  1.00  0.00     0.037 C 
ATOM     78  N   UNL A   1      34.355  24.914  23.908  1.00  0.00    -0.330 N 
ATOM     79  C   UNL A   1      33.333  24.996  24.952  1.00  0.00     0.270 C 
ATOM     80  C   UNL A   1      31.167  26.381  25.103  1.00  0.00     0.014 C 
ATOM     81  C   UNL A   1      31.041  24.091  24.173  1.00  0.00     0.014 C 
ATOM     82  H   UNL A   1      35.207  25.321  24.293  1.00  0.00     0.348 HD
ATOM     83  C   UNL A   1      30.640  25.867  26.445  1.00  0.00     0.001 C 
ATOM     84  C   UNL A   1      30.568  23.539  25.516  1.00  0.00     0.001 C 
ATOM     85  C   UNL A   1      29.810  24.601  26.295  1.00  0.00     0.000 C 
BRANCH  78  86
ATOM     86  C   UNL A   1      34.939  23.607  23.606  1.00  0.00     0.299 C 
BRANCH  86  87
ATOM     87  C   UNL A   1      34.264  22.396  24.213  1.00  0.00     0.008 A 
ATOM     88  C   UNL A   1      34.457  22.055  25.560  1.00  0.00     0.011 A 
ATOM     89  C   UNL A   1      33.473  21.553  23.416  1.00  0.00     0.031 A 
ATOM     90  C   UNL A   1      33.971  20.849  26.070  1.00  0.00     0.022 A 
ATOM     91  C   UNL A   1      32.967  20.352  23.928  1.00  0.00     0.060 A 
ATOM     92  C   UNL A   1      33.241  19.987  25.251  1.00  0.00     0.059 A 
ATOM     93  Cl  UNL A   1      32.064  19.342  22.858  1.00  0.00    -0.083 Cl
ATOM     94  Cl  UNL A   1      32.736  18.477  25.922  1.00  0.00    -0.083 Cl
ENDBRANCH  86  87
ENDBRANCH  78  86
ENDBRANCH  72  75
ENDBRANCH  70  71
ENDBRANCH  69  70
ENDBRANCH   1  69
TORSDOF 16
ENDMDL
