MODEL 1
REMARK VINA RESULT:     -12.4      0.000      0.000
REMARK SMILES CCc1ccc2c(CC(=O)NCCCCNC(=O)c3ccc(-c4c5nc(c(-c6ccc(S(=O)(=O)[O-])cc6)c6ccc([nH]6)c(-c6ccc(S(=O)(=O)[O-])cc6)c6nc(c(-c7ccc(S(=O)(=O)[O-])cc7)c7ccc4[nH]7)C=C6)C=C5)cc3)c(C(=O)c3cc(C)ccn3)[nH]c2c1
REMARK SMILES IDX 13 1 12 2 11 3 9 4 10 5 8 7 7 8 3 9 4 10 91 11 5 12 90 13
REMARK SMILES IDX 6 14 89 15 79 16 2 18 1 19 80 20 81 21 82 22 83 23 88 24
REMARK SMILES IDX 84 25 87 26 85 27 86 28 14 29 15 30 16 31 17 32 18 34 19 35
REMARK SMILES IDX 20 36 78 37 21 38 77 39 22 40 23 41 24 42 71 43 25 44 76 45
REMARK SMILES IDX 70 46 72 47 26 48 75 49 69 50 68 51 27 53 57 54 38 55 56 56
REMARK SMILES IDX 39 57 42 58 55 59 73 60 40 61 41 62 54 64 74 65 43 66 28 67
REMARK SMILES IDX 29 68 37 69 30 70 36 71 31 72 32 73 33 74 34 75 35 76 58 77
REMARK SMILES IDX 59 78 67 79 60 80 66 81 61 82 62 83 63 84 64 85 65 86 44 87
REMARK SMILES IDX 45 88 53 89 46 90 52 91 47 92 48 93 49 94 50 95 51 96
REMARK H PARENT 11 6 89 17 16 33 72 52 42 63
REMARK Flexibility Score: inf
ROOT
ATOM      1  C   UNL A   1      37.025  23.361  24.663  1.00  0.00     0.023 C 
ENDROOT
BRANCH   1   2
ATOM      2  C   UNL A   1      35.510  23.520  24.782  1.00  0.00     0.116 C 
BRANCH   2   3
ATOM      3  N   UNL A   1      34.907  24.022  23.566  1.00  0.00    -0.356 N 
ATOM      4  C   UNL A   1      34.031  25.056  23.394  1.00  0.00     0.224 C 
ATOM      5  O   UNL A   1      33.818  25.422  22.234  1.00  0.00    -0.275 OA
ATOM      6  H   UNL A   1      35.168  23.550  22.742  1.00  0.00     0.163 HD
BRANCH   4   7
ATOM      7  C   UNL A   1      33.452  25.814  24.585  1.00  0.00     0.138 C 
BRANCH   7   8
ATOM      8  C   UNL A   1      31.947  25.818  24.671  1.00  0.00    -0.002 A 
ATOM      9  C   UNL A   1      28.886  28.218  22.999  1.00  0.00    -0.046 A 
ATOM     10  C   UNL A   1      30.186  28.480  22.551  1.00  0.00     0.004 A 
ATOM     11  C   UNL A   1      28.674  27.209  23.954  1.00  0.00     0.030 A 
ATOM     12  C   UNL A   1      31.278  27.737  23.014  1.00  0.00     0.011 A 
ATOM     13  C   UNL A   1      29.781  26.471  24.400  1.00  0.00     0.046 A 
ATOM     14  C   UNL A   1      31.077  26.711  23.960  1.00  0.00     0.004 A 
ATOM     15  N   UNL A   1      29.852  25.447  25.313  1.00  0.00    -0.352 N 
ATOM     16  C   UNL A   1      31.140  24.960  25.420  1.00  0.00     0.093 A 
ATOM     17  H   UNL A   1      29.084  25.104  25.826  1.00  0.00     0.167 HD
BRANCH   9  18
ATOM     18  C   UNL A   1      27.750  29.078  22.488  1.00  0.00     0.032 C 
ATOM     19  C   UNL A   1      28.180  30.206  21.558  1.00  0.00     0.009 C 
ENDBRANCH   9  18
BRANCH  16  20
ATOM     20  C   UNL A   1      31.542  23.795  26.201  1.00  0.00     0.227 C 
ATOM     21  O   UNL A   1      31.582  23.788  27.430  1.00  0.00    -0.285 OA
BRANCH  20  22
ATOM     22  C   UNL A   1      32.016  22.576  25.495  1.00  0.00     0.113 A 
ATOM     23  C   UNL A   1      31.740  22.416  24.139  1.00  0.00     0.036 A 
ATOM     24  N   UNL A   1      32.726  21.689  26.233  1.00  0.00    -0.253 NA
ATOM     25  C   UNL A   1      32.221  21.274  23.497  1.00  0.00    -0.047 A 
ATOM     26  C   UNL A   1      33.205  20.609  25.582  1.00  0.00     0.112 A 
ATOM     27  C   UNL A   1      31.958  21.034  22.041  1.00  0.00     0.044 C 
ATOM     28  C   UNL A   1      32.978  20.360  24.236  1.00  0.00     0.023 A 
ENDBRANCH  20  22
ENDBRANCH  16  20
ENDBRANCH   7   8
ENDBRANCH   4   7
ENDBRANCH   2   3
ENDBRANCH   1   2
BRANCH   1  29
ATOM     29  C   UNL A   1      37.748  23.105  25.986  1.00  0.00     0.023 C 
BRANCH  29  30
ATOM     30  C   UNL A   1      38.576  24.271  26.509  1.00  0.00     0.116 C 
BRANCH  30  31
ATOM     31  N   UNL A   1      39.961  24.238  26.061  1.00  0.00    -0.352 N 
ATOM     32  C   UNL A   1      41.000  25.054  26.435  1.00  0.00     0.251 C 
ATOM     33  H   UNL A   1      40.180  23.539  25.403  1.00  0.00     0.163 HD
ATOM     34  O   UNL A   1      42.085  24.969  25.862  1.00  0.00    -0.269 OA
BRANCH  32  35
ATOM     35  C   UNL A   1      40.799  26.056  27.504  1.00  0.00     0.039 A 
ATOM     36  C   UNL A   1      39.828  25.817  28.480  1.00  0.00     0.014 A 
ATOM     37  C   UNL A   1      41.572  27.219  27.553  1.00  0.00     0.014 A 
ATOM     38  C   UNL A   1      39.668  26.721  29.533  1.00  0.00     0.010 A 
ATOM     39  C   UNL A   1      41.469  28.074  28.646  1.00  0.00     0.010 A 
ATOM     40  C   UNL A   1      40.505  27.845  29.639  1.00  0.00    -0.014 A 
BRANCH  40  41
ATOM     41  C   UNL A   1      40.365  28.808  30.762  1.00  0.00     0.031 A 
ATOM     42  C   UNL A   1      41.240  28.676  31.981  1.00  0.00     0.074 A 
ATOM     43  C   UNL A   1      39.423  29.770  30.709  1.00  0.00     0.049 A 
ATOM     44  N   UNL A   1      41.248  29.396  33.073  1.00  0.00    -0.248 NA
ATOM     45  C   UNL A   1      42.218  27.574  31.981  1.00  0.00     0.031 C 
ATOM     46  C   UNL A   1      38.484  29.979  29.604  1.00  0.00     0.029 A 
ATOM     47  N   UNL A   1      39.098  30.754  31.609  1.00  0.00    -0.354 N 
ATOM     48  C   UNL A   1      42.215  28.825  33.895  1.00  0.00     0.074 A 
ATOM     49  C   UNL A   1      42.728  27.665  33.199  1.00  0.00     0.031 C 
ATOM     50  C   UNL A   1      37.715  31.046  29.876  1.00  0.00     0.029 A 
ATOM     51  C   UNL A   1      38.077  31.574  31.188  1.00  0.00     0.049 A 
ATOM     52  H   UNL A   1      39.553  30.862  32.475  1.00  0.00     0.167 HD
ATOM     53  C   UNL A   1      42.656  29.241  35.107  1.00  0.00     0.031 A 
ATOM     54  C   UNL A   1      37.499  32.631  31.789  1.00  0.00     0.031 A 
ATOM     55  C   UNL A   1      42.149  30.399  35.792  1.00  0.00     0.049 A 
ATOM     56  C   UNL A   1      38.001  33.073  33.137  1.00  0.00     0.074 A 
ATOM     57  C   UNL A   1      42.557  30.931  37.003  1.00  0.00     0.029 A 
ATOM     58  N   UNL A   1      41.122  31.208  35.326  1.00  0.00    -0.354 N 
ATOM     59  N   UNL A   1      38.956  32.555  33.873  1.00  0.00    -0.248 NA
ATOM     60  C   UNL A   1      37.361  34.257  33.725  1.00  0.00     0.031 C 
ATOM     61  C   UNL A   1      41.745  32.033  37.292  1.00  0.00     0.029 A 
ATOM     62  C   UNL A   1      40.874  32.226  36.231  1.00  0.00     0.049 A 
ATOM     63  H   UNL A   1      40.641  31.077  34.477  1.00  0.00     0.167 HD
ATOM     64  C   UNL A   1      39.057  33.373  34.993  1.00  0.00     0.074 A 
ATOM     65  C   UNL A   1      38.073  34.424  34.831  1.00  0.00     0.031 C 
ATOM     66  C   UNL A   1      39.893  33.267  36.056  1.00  0.00     0.031 A 
BRANCH  53  67
ATOM     67  C   UNL A   1      43.740  28.426  35.765  1.00  0.00    -0.014 A 
ATOM     68  C   UNL A   1      43.425  27.341  36.606  1.00  0.00     0.010 A 
ATOM     69  C   UNL A   1      45.091  28.733  35.527  1.00  0.00     0.010 A 
ATOM     70  C   UNL A   1      44.438  26.617  37.238  1.00  0.00     0.020 A 
ATOM     71  C   UNL A   1      46.109  27.989  36.131  1.00  0.00     0.020 A 
ATOM     72  C   UNL A   1      45.774  26.948  36.999  1.00  0.00     0.054 A 
BRANCH  72  73
ATOM     73  S   UNL A   1      47.069  25.984  37.826  1.00  0.00     0.124 S 
ATOM     74  O   UNL A   1      48.284  26.635  37.342  1.00  0.00    -0.237 OA
ATOM     75  O   UNL A   1      46.769  26.189  39.240  1.00  0.00    -0.237 OA
ATOM     76  O   UNL A   1      46.855  24.624  37.338  1.00  0.00    -0.744 OA
ENDBRANCH  72  73
ENDBRANCH  53  67
BRANCH  54  77
ATOM     77  C   UNL A   1      36.402  33.370  31.102  1.00  0.00    -0.014 A 
ATOM     78  C   UNL A   1      36.625  33.971  29.850  1.00  0.00     0.010 A 
ATOM     79  C   UNL A   1      35.127  33.465  31.687  1.00  0.00     0.010 A 
ATOM     80  C   UNL A   1      35.600  34.669  29.205  1.00  0.00     0.020 A 
ATOM     81  C   UNL A   1      34.091  34.138  31.034  1.00  0.00     0.020 A 
ATOM     82  C   UNL A   1      34.337  34.746  29.800  1.00  0.00     0.054 A 
BRANCH  82  83
ATOM     83  S   UNL A   1      33.007  35.612  28.920  1.00  0.00     0.124 S 
ATOM     84  O   UNL A   1      32.201  36.129  30.021  1.00  0.00    -0.237 OA
ATOM     85  O   UNL A   1      33.740  36.611  28.147  1.00  0.00    -0.237 OA
ATOM     86  O   UNL A   1      32.380  34.558  28.126  1.00  0.00    -0.744 OA
ENDBRANCH  82  83
ENDBRANCH  54  77
BRANCH  66  87
ATOM     87  C   UNL A   1      39.822  34.348  37.104  1.00  0.00    -0.014 A 
ATOM     88  C   UNL A   1      39.055  34.194  38.272  1.00  0.00     0.010 A 
ATOM     89  C   UNL A   1      40.570  35.527  36.926  1.00  0.00     0.010 A 
ATOM     90  C   UNL A   1      39.002  35.218  39.222  1.00  0.00     0.020 A 
ATOM     91  C   UNL A   1      40.544  36.540  37.888  1.00  0.00     0.020 A 
ATOM     92  C   UNL A   1      39.745  36.387  39.020  1.00  0.00     0.054 A 
BRANCH  92  93
ATOM     93  S   UNL A   1      39.677  37.693  40.277  1.00  0.00     0.124 S 
ATOM     94  O   UNL A   1      39.088  36.990  41.414  1.00  0.00    -0.237 OA
ATOM     95  O   UNL A   1      41.081  38.068  40.427  1.00  0.00    -0.237 OA
ATOM     96  O   UNL A   1      38.827  38.715  39.670  1.00  0.00    -0.744 OA
ENDBRANCH  92  93
ENDBRANCH  66  87
ENDBRANCH  40  41
ENDBRANCH  32  35
ENDBRANCH  30  31
ENDBRANCH  29  30
ENDBRANCH   1  29
TORSDOF 18
ENDMDL
MODEL 2
REMARK VINA RESULT:     -12.4      2.911      9.412
REMARK SMILES CCc1ccc2c(CC(=O)NCCCCNC(=O)c3ccc(-c4c5nc(c(-c6ccc(S(=O)(=O)[O-])cc6)c6ccc([nH]6)c(-c6ccc(S(=O)(=O)[O-])cc6)c6nc(c(-c7ccc(S(=O)(=O)[O-])cc7)c7ccc4[nH]7)C=C6)C=C5)cc3)c(C(=O)c3cc(C)ccn3)[nH]c2c1
REMARK SMILES IDX 13 1 12 2 11 3 9 4 10 5 8 7 7 8 3 9 4 10 91 11 5 12 90 13
REMARK SMILES IDX 6 14 89 15 79 16 2 18 1 19 80 20 81 21 82 22 83 23 88 24
REMARK SMILES IDX 84 25 87 26 85 27 86 28 14 29 15 30 16 31 17 32 18 34 19 35
REMARK SMILES IDX 20 36 78 37 21 38 77 39 22 40 23 41 24 42 71 43 25 44 76 45
REMARK SMILES IDX 70 46 72 47 26 48 75 49 69 50 68 51 27 53 57 54 38 55 56 56
REMARK SMILES IDX 39 57 42 58 55 59 73 60 40 61 41 62 54 64 74 65 43 66 28 67
REMARK SMILES IDX 29 68 37 69 30 70 36 71 31 72 32 73 33 74 34 75 35 76 58 77
REMARK SMILES IDX 59 78 67 79 60 80 66 81 61 82 62 83 63 84 64 85 65 86 44 87
REMARK SMILES IDX 45 88 53 89 46 90 52 91 47 92 48 93 49 94 50 95 51 96
REMARK H PARENT 11 6 89 17 16 33 72 52 42 63
REMARK Flexibility Score: inf
ROOT
ATOM      1  C   UNL A   1      32.581  26.756  26.408  1.00  0.00     0.023 C 
ENDROOT
BRANCH   1   2
ATOM      2  C   UNL A   1      32.691  25.285  26.012  1.00  0.00     0.116 C 
BRANCH   2   3
ATOM      3  N   UNL A   1      33.973  24.711  26.361  1.00  0.00    -0.356 N 
ATOM      4  C   UNL A   1      34.998  24.318  25.548  1.00  0.00     0.224 C 
ATOM      5  O   UNL A   1      36.073  24.047  26.093  1.00  0.00    -0.275 OA
ATOM      6  H   UNL A   1      34.130  24.586  27.325  1.00  0.00     0.163 HD
BRANCH   4   7
ATOM      7  C   UNL A   1      34.865  24.350  24.028  1.00  0.00     0.138 C 
BRANCH   7   8
ATOM      8  C   UNL A   1      33.813  23.433  23.459  1.00  0.00    -0.002 A 
ATOM      9  C   UNL A   1      32.854  19.340  23.966  1.00  0.00    -0.046 A 
ATOM     10  C   UNL A   1      33.857  19.845  24.801  1.00  0.00     0.004 A 
ATOM     11  C   UNL A   1      32.243  20.191  23.029  1.00  0.00     0.030 A 
ATOM     12  C   UNL A   1      34.245  21.189  24.743  1.00  0.00     0.011 A 
ATOM     13  C   UNL A   1      32.641  21.536  22.991  1.00  0.00     0.046 A 
ATOM     14  C   UNL A   1      33.628  22.056  23.819  1.00  0.00     0.004 A 
ATOM     15  N   UNL A   1      32.211  22.564  22.186  1.00  0.00    -0.352 N 
ATOM     16  C   UNL A   1      32.830  23.752  22.519  1.00  0.00     0.093 A 
ATOM     17  H   UNL A   1      31.549  22.465  21.464  1.00  0.00     0.167 HD
BRANCH   9  18
ATOM     18  C   UNL A   1      32.502  17.871  24.052  1.00  0.00     0.032 C 
ATOM     19  C   UNL A   1      33.498  16.941  23.370  1.00  0.00     0.009 C 
ENDBRANCH   9  18
BRANCH  16  20
ATOM     20  C   UNL A   1      32.516  25.058  21.951  1.00  0.00     0.227 C 
ATOM     21  O   UNL A   1      33.150  25.562  21.025  1.00  0.00    -0.285 OA
BRANCH  20  22
ATOM     22  C   UNL A   1      31.436  25.875  22.564  1.00  0.00     0.113 A 
ATOM     23  C   UNL A   1      31.372  27.240  22.297  1.00  0.00     0.036 A 
ATOM     24  N   UNL A   1      30.546  25.213  23.341  1.00  0.00    -0.253 NA
ATOM     25  C   UNL A   1      30.331  27.977  22.865  1.00  0.00    -0.047 A 
ATOM     26  C   UNL A   1      29.532  25.941  23.853  1.00  0.00     0.112 A 
ATOM     27  C   UNL A   1      30.202  29.451  22.626  1.00  0.00     0.044 C 
ATOM     28  C   UNL A   1      29.388  27.306  23.649  1.00  0.00     0.023 A 
ENDBRANCH  20  22
ENDBRANCH  16  20
ENDBRANCH   7   8
ENDBRANCH   4   7
ENDBRANCH   2   3
ENDBRANCH   1   2
BRANCH   1  29
ATOM     29  C   UNL A   1      33.296  27.728  25.468  1.00  0.00     0.023 C 
BRANCH  29  30
ATOM     30  C   UNL A   1      34.363  28.596  26.121  1.00  0.00     0.116 C 
BRANCH  30  31
ATOM     31  N   UNL A   1      33.881  29.920  26.484  1.00  0.00    -0.352 N 
ATOM     32  C   UNL A   1      34.380  30.783  27.429  1.00  0.00     0.251 C 
ATOM     33  H   UNL A   1      33.092  30.239  25.988  1.00  0.00     0.163 HD
ATOM     34  O   UNL A   1      33.773  31.818  27.699  1.00  0.00    -0.269 OA
BRANCH  32  35
ATOM     35  C   UNL A   1      35.631  30.445  28.143  1.00  0.00     0.039 A 
ATOM     36  C   UNL A   1      35.555  29.725  29.337  1.00  0.00     0.014 A 
ATOM     37  C   UNL A   1      36.875  30.824  27.629  1.00  0.00     0.014 A 
ATOM     38  C   UNL A   1      36.729  29.342  29.991  1.00  0.00     0.010 A 
ATOM     39  C   UNL A   1      38.042  30.371  28.237  1.00  0.00     0.010 A 
ATOM     40  C   UNL A   1      37.983  29.639  29.432  1.00  0.00    -0.014 A 
BRANCH  40  41
ATOM     41  C   UNL A   1      39.243  29.224  30.101  1.00  0.00     0.031 A 
ATOM     42  C   UNL A   1      39.696  29.925  31.355  1.00  0.00     0.074 A 
ATOM     43  C   UNL A   1      40.003  28.251  29.560  1.00  0.00     0.049 A 
ATOM     44  N   UNL A   1      40.777  29.730  32.066  1.00  0.00    -0.248 NA
ATOM     45  C   UNL A   1      38.832  31.006  31.862  1.00  0.00     0.031 C 
ATOM     46  C   UNL A   1      39.697  27.522  28.327  1.00  0.00     0.029 A 
ATOM     47  N   UNL A   1      41.192  27.709  29.979  1.00  0.00    -0.354 N 
ATOM     48  C   UNL A   1      40.732  30.671  33.089  1.00  0.00     0.074 A 
ATOM     49  C   UNL A   1      39.549  31.474  32.872  1.00  0.00     0.031 C 
ATOM     50  C   UNL A   1      40.654  26.605  28.110  1.00  0.00     0.029 A 
ATOM     51  C   UNL A   1      41.660  26.704  29.163  1.00  0.00     0.049 A 
ATOM     52  H   UNL A   1      41.666  28.010  30.787  1.00  0.00     0.167 HD
ATOM     53  C   UNL A   1      41.582  30.836  34.131  1.00  0.00     0.031 A 
ATOM     54  C   UNL A   1      42.772  25.949  29.254  1.00  0.00     0.031 A 
ATOM     55  C   UNL A   1      42.753  30.031  34.349  1.00  0.00     0.049 A 
ATOM     56  C   UNL A   1      43.704  26.153  30.417  1.00  0.00     0.074 A 
ATOM     57  C   UNL A   1      43.656  30.089  35.397  1.00  0.00     0.029 A 
ATOM     58  N   UNL A   1      43.185  29.018  33.505  1.00  0.00    -0.354 N 
ATOM     59  N   UNL A   1      43.613  27.010  31.407  1.00  0.00    -0.248 NA
ATOM     60  C   UNL A   1      44.877  25.273  30.486  1.00  0.00     0.031 C 
ATOM     61  C   UNL A   1      44.660  29.144  35.161  1.00  0.00     0.029 A 
ATOM     62  C   UNL A   1      44.348  28.453  34.000  1.00  0.00     0.049 A 
ATOM     63  H   UNL A   1      42.731  28.742  32.676  1.00  0.00     0.167 HD
ATOM     64  C   UNL A   1      44.698  26.745  32.237  1.00  0.00     0.074 A 
ATOM     65  C   UNL A   1      45.422  25.643  31.637  1.00  0.00     0.031 C 
ATOM     66  C   UNL A   1      45.057  27.354  33.394  1.00  0.00     0.031 A 
BRANCH  53  67
ATOM     67  C   UNL A   1      41.269  31.940  35.110  1.00  0.00    -0.014 A 
ATOM     68  C   UNL A   1      41.725  33.255  34.893  1.00  0.00     0.010 A 
ATOM     69  C   UNL A   1      40.493  31.668  36.250  1.00  0.00     0.010 A 
ATOM     70  C   UNL A   1      41.459  34.261  35.825  1.00  0.00     0.020 A 
ATOM     71  C   UNL A   1      40.195  32.679  37.168  1.00  0.00     0.020 A 
ATOM     72  C   UNL A   1      40.699  33.965  36.960  1.00  0.00     0.054 A 
BRANCH  72  73
ATOM     73  S   UNL A   1      40.360  35.293  38.148  1.00  0.00     0.124 S 
ATOM     74  O   UNL A   1      41.027  36.432  37.524  1.00  0.00    -0.237 OA
ATOM     75  O   UNL A   1      38.900  35.350  38.158  1.00  0.00    -0.237 OA
ATOM     76  O   UNL A   1      40.970  34.816  39.386  1.00  0.00    -0.744 OA
ENDBRANCH  72  73
ENDBRANCH  53  67
BRANCH  54  77
ATOM     77  C   UNL A   1      43.044  24.902  28.230  1.00  0.00    -0.014 A 
ATOM     78  C   UNL A   1      43.854  25.189  27.117  1.00  0.00     0.010 A 
ATOM     79  C   UNL A   1      42.507  23.609  28.368  1.00  0.00     0.010 A 
ATOM     80  C   UNL A   1      44.107  24.210  26.151  1.00  0.00     0.020 A 
ATOM     81  C   UNL A   1      42.780  22.619  27.420  1.00  0.00     0.020 A 
ATOM     82  C   UNL A   1      43.570  22.928  26.311  1.00  0.00     0.054 A 
BRANCH  82  83
ATOM     83  S   UNL A   1      43.956  21.659  25.073  1.00  0.00     0.124 S 
ATOM     84  O   UNL A   1      45.333  21.313  25.410  1.00  0.00    -0.237 OA
ATOM     85  O   UNL A   1      42.957  20.631  25.354  1.00  0.00    -0.237 OA
ATOM     86  O   UNL A   1      43.778  22.357  23.801  1.00  0.00    -0.744 OA
ENDBRANCH  82  83
ENDBRANCH  54  77
BRANCH  66  87
ATOM     87  C   UNL A   1      46.258  26.807  34.122  1.00  0.00    -0.014 A 
ATOM     88  C   UNL A   1      46.139  25.776  35.070  1.00  0.00     0.010 A 
ATOM     89  C   UNL A   1      47.535  27.315  33.818  1.00  0.00     0.010 A 
ATOM     90  C   UNL A   1      47.271  25.295  35.736  1.00  0.00     0.020 A 
ATOM     91  C   UNL A   1      48.672  26.815  34.458  1.00  0.00     0.020 A 
ATOM     92  C   UNL A   1      48.529  25.822  35.427  1.00  0.00     0.054 A 
BRANCH  92  93
ATOM     93  S   UNL A   1      49.985  25.167  36.287  1.00  0.00     0.124 S 
ATOM     94  O   UNL A   1      50.901  26.304  36.245  1.00  0.00    -0.237 OA
ATOM     95  O   UNL A   1      49.456  24.834  37.608  1.00  0.00    -0.237 OA
ATOM     96  O   UNL A   1      50.382  24.019  35.475  1.00  0.00    -0.744 OA
ENDBRANCH  92  93
ENDBRANCH  66  87
ENDBRANCH  40  41
ENDBRANCH  32  35
ENDBRANCH  30  31
ENDBRANCH  29  30
ENDBRANCH   1  29
TORSDOF 18
ENDMDL
MODEL 3
REMARK VINA RESULT:     -12.3      6.304     11.949
REMARK SMILES CCc1ccc2c(CC(=O)NCCCCNC(=O)c3ccc(-c4c5nc(c(-c6ccc(S(=O)(=O)[O-])cc6)c6ccc([nH]6)c(-c6ccc(S(=O)(=O)[O-])cc6)c6nc(c(-c7ccc(S(=O)(=O)[O-])cc7)c7ccc4[nH]7)C=C6)C=C5)cc3)c(C(=O)c3cc(C)ccn3)[nH]c2c1
REMARK SMILES IDX 13 1 12 2 11 3 9 4 10 5 8 7 7 8 3 9 4 10 91 11 5 12 90 13
REMARK SMILES IDX 6 14 89 15 79 16 2 18 1 19 80 20 81 21 82 22 83 23 88 24
REMARK SMILES IDX 84 25 87 26 85 27 86 28 14 29 15 30 16 31 17 32 18 34 19 35
REMARK SMILES IDX 20 36 78 37 21 38 77 39 22 40 23 41 24 42 71 43 25 44 76 45
REMARK SMILES IDX 70 46 72 47 26 48 75 49 69 50 68 51 27 53 57 54 38 55 56 56
REMARK SMILES IDX 39 57 42 58 55 59 73 60 40 61 41 62 54 64 74 65 43 66 28 67
REMARK SMILES IDX 29 68 37 69 30 70 36 71 31 72 32 73 33 74 34 75 35 76 58 77
REMARK SMILES IDX 59 78 67 79 60 80 66 81 61 82 62 83 63 84 64 85 65 86 44 87
REMARK SMILES IDX 45 88 53 89 46 90 52 91 47 92 48 93 49 94 50 95 51 96
REMARK H PARENT 11 6 89 17 16 33 72 52 42 63
REMARK Flexibility Score: inf
ROOT
ATOM      1  C   UNL A   1      34.112  28.303  26.690  1.00  0.00     0.023 C 
ENDROOT
BRANCH   1   2
ATOM      2  C   UNL A   1      32.910  27.954  25.815  1.00  0.00     0.116 C 
BRANCH   2   3
ATOM      3  N   UNL A   1      32.179  26.806  26.308  1.00  0.00    -0.356 N 
ATOM      4  C   UNL A   1      32.423  25.476  26.118  1.00  0.00     0.224 C 
ATOM      5  O   UNL A   1      31.775  24.684  26.810  1.00  0.00    -0.275 OA
ATOM      6  H   UNL A   1      31.392  27.015  26.861  1.00  0.00     0.163 HD
BRANCH   4   7
ATOM      7  C   UNL A   1      33.542  24.995  25.199  1.00  0.00     0.138 C 
BRANCH   7   8
ATOM      8  C   UNL A   1      33.099  24.115  24.057  1.00  0.00    -0.002 A 
ATOM      9  C   UNL A   1      32.356  19.970  23.622  1.00  0.00    -0.046 A 
ATOM     10  C   UNL A   1      32.636  20.411  24.920  1.00  0.00     0.004 A 
ATOM     11  C   UNL A   1      32.343  20.896  22.565  1.00  0.00     0.030 A 
ATOM     12  C   UNL A   1      32.876  21.763  25.193  1.00  0.00     0.011 A 
ATOM     13  C   UNL A   1      32.579  22.248  22.860  1.00  0.00     0.046 A 
ATOM     14  C   UNL A   1      32.849  22.704  24.144  1.00  0.00     0.004 A 
ATOM     15  N   UNL A   1      32.621  23.341  22.029  1.00  0.00    -0.352 N 
ATOM     16  C   UNL A   1      32.830  24.504  22.743  1.00  0.00     0.093 A 
ATOM     17  H   UNL A   1      32.516  23.301  21.051  1.00  0.00     0.167 HD
BRANCH   9  18
ATOM     18  C   UNL A   1      32.139  18.491  23.383  1.00  0.00     0.032 C 
ATOM     19  C   UNL A   1      33.410  17.651  23.423  1.00  0.00     0.009 C 
ENDBRANCH   9  18
BRANCH  16  20
ATOM     20  C   UNL A   1      32.805  25.853  22.189  1.00  0.00     0.227 C 
ATOM     21  O   UNL A   1      33.705  26.312  21.488  1.00  0.00    -0.285 OA
BRANCH  20  22
ATOM     22  C   UNL A   1      31.687  26.765  22.550  1.00  0.00     0.113 A 
ATOM     23  C   UNL A   1      30.510  26.235  23.071  1.00  0.00     0.036 A 
ATOM     24  N   UNL A   1      31.905  28.089  22.366  1.00  0.00    -0.253 NA
ATOM     25  C   UNL A   1      29.488  27.118  23.426  1.00  0.00    -0.047 A 
ATOM     26  C   UNL A   1      30.915  28.922  22.745  1.00  0.00     0.112 A 
ATOM     27  C   UNL A   1      28.191  26.619  23.989  1.00  0.00     0.044 C 
ATOM     28  C   UNL A   1      29.705  28.490  23.267  1.00  0.00     0.023 A 
ENDBRANCH  20  22
ENDBRANCH  16  20
ENDBRANCH   7   8
ENDBRANCH   4   7
ENDBRANCH   2   3
ENDBRANCH   1   2
BRANCH   1  29
ATOM     29  C   UNL A   1      34.284  29.796  26.978  1.00  0.00     0.023 C 
BRANCH  29  30
ATOM     30  C   UNL A   1      35.564  30.172  27.712  1.00  0.00     0.116 C 
BRANCH  30  31
ATOM     31  N   UNL A   1      35.410  30.194  29.159  1.00  0.00    -0.352 N 
ATOM     32  C   UNL A   1      36.345  29.907  30.123  1.00  0.00     0.251 C 
ATOM     33  H   UNL A   1      34.518  30.447  29.490  1.00  0.00     0.163 HD
ATOM     34  O   UNL A   1      36.012  29.851  31.306  1.00  0.00    -0.269 OA
BRANCH  32  35
ATOM     35  C   UNL A   1      37.744  29.632  29.729  1.00  0.00     0.039 A 
ATOM     36  C   UNL A   1      38.653  29.221  30.707  1.00  0.00     0.014 A 
ATOM     37  C   UNL A   1      38.155  29.766  28.400  1.00  0.00     0.014 A 
ATOM     38  C   UNL A   1      39.962  28.896  30.341  1.00  0.00     0.010 A 
ATOM     39  C   UNL A   1      39.433  29.363  28.026  1.00  0.00     0.010 A 
ATOM     40  C   UNL A   1      40.356  28.939  28.993  1.00  0.00    -0.014 A 
BRANCH  40  41
ATOM     41  C   UNL A   1      41.737  28.579  28.582  1.00  0.00     0.031 A 
ATOM     42  C   UNL A   1      42.813  29.633  28.551  1.00  0.00     0.074 A 
ATOM     43  C   UNL A   1      42.016  27.319  28.193  1.00  0.00     0.049 A 
ATOM     44  N   UNL A   1      44.066  29.524  28.192  1.00  0.00    -0.248 NA
ATOM     45  C   UNL A   1      42.420  30.996  28.951  1.00  0.00     0.031 C 
ATOM     46  C   UNL A   1      41.055  26.215  28.139  1.00  0.00     0.029 A 
ATOM     47  N   UNL A   1      43.192  26.754  27.768  1.00  0.00    -0.354 N 
ATOM     48  C   UNL A   1      44.605  30.801  28.306  1.00  0.00     0.074 A 
ATOM     49  C   UNL A   1      43.528  31.679  28.709  1.00  0.00     0.031 C 
ATOM     50  C   UNL A   1      41.689  25.100  27.740  1.00  0.00     0.029 A 
ATOM     51  C   UNL A   1      43.088  25.414  27.473  1.00  0.00     0.049 A 
ATOM     52  H   UNL A   1      44.032  27.260  27.682  1.00  0.00     0.167 HD
ATOM     53  C   UNL A   1      45.885  31.205  28.119  1.00  0.00     0.031 A 
ATOM     54  C   UNL A   1      44.016  24.539  27.039  1.00  0.00     0.031 A 
ATOM     55  C   UNL A   1      46.955  30.328  27.727  1.00  0.00     0.049 A 
ATOM     56  C   UNL A   1      45.430  25.010  26.834  1.00  0.00     0.074 A 
ATOM     57  C   UNL A   1      48.295  30.629  27.553  1.00  0.00     0.029 A 
ATOM     58  N   UNL A   1      46.809  28.977  27.449  1.00  0.00    -0.354 N 
ATOM     59  N   UNL A   1      45.933  26.210  27.002  1.00  0.00    -0.248 NA
ATOM     60  C   UNL A   1      46.406  24.002  26.399  1.00  0.00     0.031 C 
ATOM     61  C   UNL A   1      48.950  29.470  27.122  1.00  0.00     0.029 A 
ATOM     62  C   UNL A   1      48.031  28.433  27.090  1.00  0.00     0.049 A 
ATOM     63  H   UNL A   1      45.962  28.478  27.498  1.00  0.00     0.167 HD
ATOM     64  C   UNL A   1      47.292  26.093  26.732  1.00  0.00     0.074 A 
ATOM     65  C   UNL A   1      47.532  24.703  26.400  1.00  0.00     0.031 C 
ATOM     66  C   UNL A   1      48.255  27.047  26.764  1.00  0.00     0.031 A 
BRANCH  53  67
ATOM     67  C   UNL A   1      46.187  32.666  28.335  1.00  0.00    -0.014 A 
ATOM     68  C   UNL A   1      46.062  33.597  27.286  1.00  0.00     0.010 A 
ATOM     69  C   UNL A   1      46.582  33.121  29.605  1.00  0.00     0.010 A 
ATOM     70  C   UNL A   1      46.379  34.942  27.489  1.00  0.00     0.020 A 
ATOM     71  C   UNL A   1      46.868  34.472  29.822  1.00  0.00     0.020 A 
ATOM     72  C   UNL A   1      46.785  35.370  28.756  1.00  0.00     0.054 A 
BRANCH  72  73
ATOM     73  S   UNL A   1      47.181  37.124  28.994  1.00  0.00     0.124 S 
ATOM     74  O   UNL A   1      47.768  37.478  27.704  1.00  0.00    -0.237 OA
ATOM     75  O   UNL A   1      45.874  37.714  29.271  1.00  0.00    -0.237 OA
ATOM     76  O   UNL A   1      48.110  37.121  30.121  1.00  0.00    -0.744 OA
ENDBRANCH  72  73
ENDBRANCH  53  67
BRANCH  54  77
ATOM     77  C   UNL A   1      43.642  23.116  26.805  1.00  0.00    -0.014 A 
ATOM     78  C   UNL A   1      42.879  22.415  27.756  1.00  0.00     0.010 A 
ATOM     79  C   UNL A   1      44.036  22.457  25.627  1.00  0.00     0.010 A 
ATOM     80  C   UNL A   1      42.532  21.078  27.542  1.00  0.00     0.020 A 
ATOM     81  C   UNL A   1      43.667  21.129  25.395  1.00  0.00     0.020 A 
ATOM     82  C   UNL A   1      42.926  20.443  26.360  1.00  0.00     0.054 A 
BRANCH  82  83
ATOM     83  S   UNL A   1      42.419  18.723  26.080  1.00  0.00     0.124 S 
ATOM     84  O   UNL A   1      41.014  18.876  25.717  1.00  0.00    -0.237 OA
ATOM     85  O   UNL A   1      43.310  18.303  25.002  1.00  0.00    -0.237 OA
ATOM     86  O   UNL A   1      42.666  18.080  27.369  1.00  0.00    -0.744 OA
ENDBRANCH  82  83
ENDBRANCH  54  77
BRANCH  66  87
ATOM     87  C   UNL A   1      49.671  26.612  26.485  1.00  0.00    -0.014 A 
ATOM     88  C   UNL A   1      50.496  26.093  27.498  1.00  0.00     0.010 A 
ATOM     89  C   UNL A   1      50.168  26.693  25.171  1.00  0.00     0.010 A 
ATOM     90  C   UNL A   1      51.809  25.706  27.210  1.00  0.00     0.020 A 
ATOM     91  C   UNL A   1      51.469  26.278  24.874  1.00  0.00     0.020 A 
ATOM     92  C   UNL A   1      52.287  25.805  25.899  1.00  0.00     0.054 A 
BRANCH  92  93
ATOM     93  S   UNL A   1      53.985  25.277  25.546  1.00  0.00     0.124 S 
ATOM     94  O   UNL A   1      54.527  25.076  26.888  1.00  0.00    -0.237 OA
ATOM     95  O   UNL A   1      53.787  24.061  24.760  1.00  0.00    -0.237 OA
ATOM     96  O   UNL A   1      54.553  26.402  24.808  1.00  0.00    -0.744 OA
ENDBRANCH  92  93
ENDBRANCH  66  87
ENDBRANCH  40  41
ENDBRANCH  32  35
ENDBRANCH  30  31
ENDBRANCH  29  30
ENDBRANCH   1  29
TORSDOF 18
ENDMDL
