MODEL 1
REMARK VINA RESULT:     -12.1      0.000      0.000
REMARK SMILES Cc1ccnc(C(=O)c2[nH]c3ccc(OC(F)(F)F)cc3c2CC(=O)NCCCCNC(=O)c2ccc(-c3c4nc(c(-c5ccc(S(=O)(=O)[O-])cc5)c5ccc([nH]5)c(-c5ccc(S(=O)(=O)[O-])cc5)c5nc(c(-c6ccc(S(=O)(=O)[O-])cc6)c6ccc3[nH]6)C=C5)C=C4)cc2)c1
REMARK SMILES IDX 28 1 27 2 26 3 24 4 25 5 23 7 22 8 9 9 10 10 11 11 21 13
REMARK SMILES IDX 12 14 20 15 13 16 14 17 7 18 8 19 6 20 1 21 2 22 3 23 94 24
REMARK SMILES IDX 4 25 5 26 15 27 16 28 17 29 18 30 19 31 29 32 30 33 31 34
REMARK SMILES IDX 32 35 33 37 34 38 35 39 93 40 36 41 92 42 37 43 38 44 39 45
REMARK SMILES IDX 86 46 40 47 91 48 85 49 87 50 41 51 90 52 84 53 83 54 42 56
REMARK SMILES IDX 72 57 53 58 71 59 54 60 57 61 70 62 88 63 55 64 56 65 69 67
REMARK SMILES IDX 89 68 58 69 43 70 44 71 52 72 45 73 51 74 46 75 47 76 48 77
REMARK SMILES IDX 49 78 50 79 73 80 74 81 82 82 75 83 81 84 76 85 77 86 78 87
REMARK SMILES IDX 79 88 80 89 59 90 60 91 68 92 61 93 67 94 62 95 63 96 64 97
REMARK SMILES IDX 65 98 66 99
REMARK H PARENT 26 6 10 12 31 36 87 55 57 66
REMARK Flexibility Score: inf
ROOT
ATOM      1  C   UNL A   1      35.019  23.915  23.924  1.00  0.00     0.023 C 
ENDROOT
BRANCH   1   2
ATOM      2  C   UNL A   1      34.435  25.074  24.730  1.00  0.00     0.116 C 
BRANCH   2   3
ATOM      3  N   UNL A   1      34.263  26.280  23.947  1.00  0.00    -0.356 N 
ATOM      4  C   UNL A   1      33.409  27.328  24.147  1.00  0.00     0.224 C 
ATOM      5  O   UNL A   1      33.552  28.335  23.449  1.00  0.00    -0.275 OA
ATOM      6  H   UNL A   1      34.845  26.356  23.157  1.00  0.00     0.163 HD
BRANCH   4   7
ATOM      7  C   UNL A   1      32.399  27.314  25.286  1.00  0.00     0.138 C 
BRANCH   7   8
ATOM      8  C   UNL A   1      31.010  26.877  24.911  1.00  0.00    -0.002 A 
ATOM      9  C   UNL A   1      30.408  25.651  25.179  1.00  0.00     0.093 A 
ATOM     10  N   UNL A   1      29.099  25.738  24.762  1.00  0.00    -0.352 N 
ATOM     11  C   UNL A   1      28.874  26.926  24.111  1.00  0.00     0.046 A 
ATOM     12  H   UNL A   1      28.417  25.044  24.910  1.00  0.00     0.167 HD
ATOM     13  C   UNL A   1      30.059  27.654  24.168  1.00  0.00     0.008 A 
ATOM     14  C   UNL A   1      27.714  27.417  23.506  1.00  0.00     0.030 A 
ATOM     15  C   UNL A   1      30.083  28.932  23.573  1.00  0.00     0.057 A 
ATOM     16  C   UNL A   1      27.765  28.695  22.931  1.00  0.00     0.049 A 
ATOM     17  C   UNL A   1      28.934  29.453  22.959  1.00  0.00     0.130 A 
BRANCH   9  18
ATOM     18  C   UNL A   1      30.945  24.492  25.873  1.00  0.00     0.227 C 
ATOM     19  O   UNL A   1      30.987  24.455  27.097  1.00  0.00    -0.285 OA
BRANCH  18  20
ATOM     20  C   UNL A   1      31.425  23.317  25.050  1.00  0.00     0.113 A 
ATOM     21  C   UNL A   1      32.945  19.857  25.391  1.00  0.00     0.044 C 
ATOM     22  C   UNL A   1      32.376  21.116  24.810  1.00  0.00    -0.047 A 
ATOM     23  C   UNL A   1      32.303  21.281  23.428  1.00  0.00     0.023 A 
ATOM     24  C   UNL A   1      31.909  22.147  25.634  1.00  0.00     0.036 A 
ATOM     25  C   UNL A   1      31.789  22.466  22.928  1.00  0.00     0.112 A 
ATOM     26  N   UNL A   1      31.366  23.482  23.704  1.00  0.00    -0.253 NA
ENDBRANCH  18  20
ENDBRANCH   9  18
BRANCH  17  27
ATOM     27  O   UNL A   1      29.104  30.706  22.440  1.00  0.00    -0.406 OA
BRANCH  27  28
ATOM     28  C   UNL A   1      28.709  31.811  23.232  1.00  0.00     0.573 C 
ATOM     29  F   UNL A   1      29.271  31.755  24.459  1.00  0.00    -0.132 F 
ATOM     30  F   UNL A   1      29.032  32.980  22.640  1.00  0.00    -0.132 F 
ATOM     31  F   UNL A   1      27.366  31.774  23.388  1.00  0.00    -0.132 F 
ENDBRANCH  27  28
ENDBRANCH  17  27
ENDBRANCH   7   8
ENDBRANCH   4   7
ENDBRANCH   2   3
ENDBRANCH   1   2
BRANCH   1  32
ATOM     32  C   UNL A   1      35.797  22.875  24.733  1.00  0.00     0.023 C 
BRANCH  32  33
ATOM     33  C   UNL A   1      36.819  23.432  25.717  1.00  0.00     0.116 C 
BRANCH  33  34
ATOM     34  N   UNL A   1      37.945  22.541  25.950  1.00  0.00    -0.352 N 
ATOM     35  C   UNL A   1      39.175  22.828  26.491  1.00  0.00     0.251 C 
ATOM     36  H   UNL A   1      37.806  21.603  25.684  1.00  0.00     0.163 HD
ATOM     37  O   UNL A   1      40.043  21.959  26.528  1.00  0.00    -0.269 OA
BRANCH  35  38
ATOM     38  C   UNL A   1      39.469  24.192  26.985  1.00  0.00     0.039 A 
ATOM     39  C   UNL A   1      39.137  24.509  28.306  1.00  0.00     0.014 A 
ATOM     40  C   UNL A   1      40.071  25.150  26.164  1.00  0.00     0.014 A 
ATOM     41  C   UNL A   1      39.474  25.761  28.826  1.00  0.00     0.010 A 
ATOM     42  C   UNL A   1      40.452  26.379  26.697  1.00  0.00     0.010 A 
ATOM     43  C   UNL A   1      40.164  26.693  28.035  1.00  0.00    -0.014 A 
BRANCH  43  44
ATOM     44  C   UNL A   1      40.614  27.990  28.592  1.00  0.00     0.031 A 
ATOM     45  C   UNL A   1      42.033  28.170  29.047  1.00  0.00     0.074 A 
ATOM     46  C   UNL A   1      39.723  28.988  28.750  1.00  0.00     0.049 A 
ATOM     47  N   UNL A   1      42.588  29.205  29.623  1.00  0.00    -0.248 NA
ATOM     48  C   UNL A   1      42.940  27.029  28.849  1.00  0.00     0.031 C 
ATOM     49  C   UNL A   1      38.310  28.931  28.375  1.00  0.00     0.029 A 
ATOM     50  N   UNL A   1      39.879  30.245  29.278  1.00  0.00    -0.354 N 
ATOM     51  C   UNL A   1      43.901  28.834  29.882  1.00  0.00     0.074 A 
ATOM     52  C   UNL A   1      44.053  27.470  29.418  1.00  0.00     0.031 C 
ATOM     53  C   UNL A   1      37.733  30.110  28.658  1.00  0.00     0.029 A 
ATOM     54  C   UNL A   1      38.727  30.993  29.264  1.00  0.00     0.049 A 
ATOM     55  H   UNL A   1      40.734  30.580  29.632  1.00  0.00     0.167 HD
ATOM     56  C   UNL A   1      44.894  29.562  30.448  1.00  0.00     0.031 A 
ATOM     57  C   UNL A   1      38.493  32.248  29.690  1.00  0.00     0.031 A 
ATOM     58  C   UNL A   1      44.755  30.921  30.892  1.00  0.00     0.049 A 
ATOM     59  C   UNL A   1      39.610  33.041  30.302  1.00  0.00     0.074 A 
ATOM     60  C   UNL A   1      45.719  31.759  31.426  1.00  0.00     0.029 A 
ATOM     61  N   UNL A   1      43.573  31.645  30.854  1.00  0.00    -0.354 N 
ATOM     62  N   UNL A   1      40.856  32.685  30.504  1.00  0.00    -0.248 NA
ATOM     63  C   UNL A   1      39.289  34.405  30.745  1.00  0.00     0.031 C 
ATOM     64  C   UNL A   1      45.112  32.984  31.732  1.00  0.00     0.029 A 
ATOM     65  C   UNL A   1      43.778  32.915  31.365  1.00  0.00     0.049 A 
ATOM     66  H   UNL A   1      42.714  31.305  30.513  1.00  0.00     0.167 HD
ATOM     67  C   UNL A   1      41.473  33.788  31.081  1.00  0.00     0.074 A 
ATOM     68  C   UNL A   1      40.465  34.824  31.194  1.00  0.00     0.031 C 
ATOM     69  C   UNL A   1      42.762  33.931  31.476  1.00  0.00     0.031 A 
BRANCH  56  70
ATOM     70  C   UNL A   1      46.216  28.870  30.625  1.00  0.00    -0.014 A 
ATOM     71  C   UNL A   1      47.178  28.876  29.599  1.00  0.00     0.010 A 
ATOM     72  C   UNL A   1      46.484  28.175  31.817  1.00  0.00     0.010 A 
ATOM     73  C   UNL A   1      48.360  28.145  29.737  1.00  0.00     0.020 A 
ATOM     74  C   UNL A   1      47.674  27.458  31.966  1.00  0.00     0.020 A 
ATOM     75  C   UNL A   1      48.592  27.424  30.912  1.00  0.00     0.054 A 
BRANCH  75  76
ATOM     76  S   UNL A   1      50.112  26.446  31.066  1.00  0.00     0.124 S 
ATOM     77  O   UNL A   1      50.742  26.668  29.767  1.00  0.00    -0.237 OA
ATOM     78  O   UNL A   1      50.789  27.064  32.204  1.00  0.00    -0.237 OA
ATOM     79  O   UNL A   1      49.622  25.090  31.301  1.00  0.00    -0.744 OA
ENDBRANCH  75  76
ENDBRANCH  56  70
BRANCH  57  80
ATOM     80  C   UNL A   1      37.144  32.839  29.509  1.00  0.00    -0.014 A 
ATOM     81  C   UNL A   1      36.262  32.916  30.599  1.00  0.00     0.010 A 
ATOM     82  C   UNL A   1      36.758  33.377  28.269  1.00  0.00     0.010 A 
ATOM     83  C   UNL A   1      35.015  33.528  30.456  1.00  0.00     0.020 A 
ATOM     84  C   UNL A   1      35.516  34.002  28.126  1.00  0.00     0.020 A 
ATOM     85  C   UNL A   1      34.650  34.071  29.221  1.00  0.00     0.054 A 
BRANCH  85  86
ATOM     86  S   UNL A   1      33.065  34.943  29.077  1.00  0.00     0.124 S 
ATOM     87  O   UNL A   1      32.356  34.126  28.098  1.00  0.00    -0.237 OA
ATOM     88  O   UNL A   1      32.544  34.890  30.442  1.00  0.00    -0.237 OA
ATOM     89  O   UNL A   1      33.453  36.276  28.621  1.00  0.00    -0.744 OA
ENDBRANCH  85  86
ENDBRANCH  57  80
BRANCH  69  90
ATOM     90  C   UNL A   1      43.157  35.261  32.049  1.00  0.00    -0.014 A 
ATOM     91  C   UNL A   1      42.949  35.549  33.408  1.00  0.00     0.010 A 
ATOM     92  C   UNL A   1      43.778  36.217  31.226  1.00  0.00     0.010 A 
ATOM     93  C   UNL A   1      43.339  36.785  33.933  1.00  0.00     0.020 A 
ATOM     94  C   UNL A   1      44.180  37.448  31.750  1.00  0.00     0.020 A 
ATOM     95  C   UNL A   1      43.946  37.729  33.100  1.00  0.00     0.054 A 
BRANCH  95  96
ATOM     96  S   UNL A   1      44.487  39.312  33.803  1.00  0.00     0.124 S 
ATOM     97  O   UNL A   1      45.256  39.885  32.703  1.00  0.00    -0.237 OA
ATOM     98  O   UNL A   1      43.226  39.985  34.104  1.00  0.00    -0.237 OA
ATOM     99  O   UNL A   1      45.267  38.917  34.973  1.00  0.00    -0.744 OA
ENDBRANCH  95  96
ENDBRANCH  69  90
ENDBRANCH  43  44
ENDBRANCH  35  38
ENDBRANCH  33  34
ENDBRANCH  32  33
ENDBRANCH   1  32
TORSDOF 19
ENDMDL
MODEL 2
REMARK VINA RESULT:     -11.8      3.084      4.718
REMARK SMILES Cc1ccnc(C(=O)c2[nH]c3ccc(OC(F)(F)F)cc3c2CC(=O)NCCCCNC(=O)c2ccc(-c3c4nc(c(-c5ccc(S(=O)(=O)[O-])cc5)c5ccc([nH]5)c(-c5ccc(S(=O)(=O)[O-])cc5)c5nc(c(-c6ccc(S(=O)(=O)[O-])cc6)c6ccc3[nH]6)C=C5)C=C4)cc2)c1
REMARK SMILES IDX 28 1 27 2 26 3 24 4 25 5 23 7 22 8 9 9 10 10 11 11 21 13
REMARK SMILES IDX 12 14 20 15 13 16 14 17 7 18 8 19 6 20 1 21 2 22 3 23 94 24
REMARK SMILES IDX 4 25 5 26 15 27 16 28 17 29 18 30 19 31 29 32 30 33 31 34
REMARK SMILES IDX 32 35 33 37 34 38 35 39 93 40 36 41 92 42 37 43 38 44 39 45
REMARK SMILES IDX 86 46 40 47 91 48 85 49 87 50 41 51 90 52 84 53 83 54 42 56
REMARK SMILES IDX 72 57 53 58 71 59 54 60 57 61 70 62 88 63 55 64 56 65 69 67
REMARK SMILES IDX 89 68 58 69 43 70 44 71 52 72 45 73 51 74 46 75 47 76 48 77
REMARK SMILES IDX 49 78 50 79 73 80 74 81 82 82 75 83 81 84 76 85 77 86 78 87
REMARK SMILES IDX 79 88 80 89 59 90 60 91 68 92 61 93 67 94 62 95 63 96 64 97
REMARK SMILES IDX 65 98 66 99
REMARK H PARENT 26 6 10 12 31 36 87 55 57 66
REMARK Flexibility Score: inf
ROOT
ATOM      1  C   UNL A   1      34.810  23.699  24.194  1.00  0.00     0.023 C 
ENDROOT
BRANCH   1   2
ATOM      2  C   UNL A   1      34.460  24.427  25.490  1.00  0.00     0.116 C 
BRANCH   2   3
ATOM      3  N   UNL A   1      34.229  23.527  26.602  1.00  0.00    -0.356 N 
ATOM      4  C   UNL A   1      33.056  22.993  27.054  1.00  0.00     0.224 C 
ATOM      5  O   UNL A   1      33.112  22.111  27.915  1.00  0.00    -0.275 OA
ATOM      6  H   UNL A   1      35.034  23.263  27.103  1.00  0.00     0.163 HD
BRANCH   4   7
ATOM      7  C   UNL A   1      31.723  23.371  26.422  1.00  0.00     0.138 C 
BRANCH   7   8
ATOM      8  C   UNL A   1      31.596  23.066  24.955  1.00  0.00    -0.002 A 
ATOM      9  C   UNL A   1      31.180  23.928  23.944  1.00  0.00     0.093 A 
ATOM     10  N   UNL A   1      31.335  23.264  22.749  1.00  0.00    -0.352 N 
ATOM     11  C   UNL A   1      31.704  21.959  22.963  1.00  0.00     0.046 A 
ATOM     12  H   UNL A   1      31.201  23.668  21.862  1.00  0.00     0.167 HD
ATOM     13  C   UNL A   1      31.855  21.796  24.336  1.00  0.00     0.008 A 
ATOM     14  C   UNL A   1      31.941  20.928  22.050  1.00  0.00     0.030 A 
ATOM     15  C   UNL A   1      32.247  20.530  24.817  1.00  0.00     0.057 A 
ATOM     16  C   UNL A   1      32.338  19.682  22.556  1.00  0.00     0.049 A 
ATOM     17  C   UNL A   1      32.492  19.475  23.926  1.00  0.00     0.130 A 
BRANCH   9  18
ATOM     18  C   UNL A   1      30.766  25.319  24.032  1.00  0.00     0.227 C 
ATOM     19  O   UNL A   1      29.603  25.644  23.821  1.00  0.00    -0.285 OA
BRANCH  18  20
ATOM     20  C   UNL A   1      31.796  26.356  24.418  1.00  0.00     0.113 A 
ATOM     21  C   UNL A   1      32.822  28.621  27.285  1.00  0.00     0.044 C 
ATOM     22  C   UNL A   1      32.780  27.928  25.957  1.00  0.00    -0.047 A 
ATOM     23  C   UNL A   1      33.702  28.259  24.964  1.00  0.00     0.023 A 
ATOM     24  C   UNL A   1      31.823  26.944  25.682  1.00  0.00     0.036 A 
ATOM     25  C   UNL A   1      33.619  27.613  23.741  1.00  0.00     0.112 A 
ATOM     26  N   UNL A   1      32.686  26.687  23.448  1.00  0.00    -0.253 NA
ENDBRANCH  18  20
ENDBRANCH   9  18
BRANCH  17  27
ATOM     27  O   UNL A   1      32.877  18.314  24.534  1.00  0.00    -0.406 OA
BRANCH  27  28
ATOM     28  C   UNL A   1      34.194  17.849  24.302  1.00  0.00     0.573 C 
ATOM     29  F   UNL A   1      34.310  17.313  23.068  1.00  0.00    -0.132 F 
ATOM     30  F   UNL A   1      35.098  18.840  24.451  1.00  0.00    -0.132 F 
ATOM     31  F   UNL A   1      34.477  16.882  25.203  1.00  0.00    -0.132 F 
ENDBRANCH  27  28
ENDBRANCH  17  27
ENDBRANCH   7   8
ENDBRANCH   4   7
ENDBRANCH   2   3
ENDBRANCH   1   2
BRANCH   1  32
ATOM     32  C   UNL A   1      36.164  22.985  24.184  1.00  0.00     0.023 C 
BRANCH  32  33
ATOM     33  C   UNL A   1      37.243  23.600  25.066  1.00  0.00     0.116 C 
BRANCH  33  34
ATOM     34  N   UNL A   1      38.233  22.638  25.525  1.00  0.00    -0.352 N 
ATOM     35  C   UNL A   1      39.340  22.848  26.313  1.00  0.00     0.251 C 
ATOM     36  H   UNL A   1      38.091  21.709  25.231  1.00  0.00     0.163 HD
ATOM     37  O   UNL A   1      40.121  21.924  26.526  1.00  0.00    -0.269 OA
BRANCH  35  38
ATOM     38  C   UNL A   1      39.614  24.194  26.866  1.00  0.00     0.039 A 
ATOM     39  C   UNL A   1      39.188  24.481  28.166  1.00  0.00     0.014 A 
ATOM     40  C   UNL A   1      40.286  25.165  26.118  1.00  0.00     0.014 A 
ATOM     41  C   UNL A   1      39.501  25.713  28.744  1.00  0.00     0.010 A 
ATOM     42  C   UNL A   1      40.642  26.374  26.712  1.00  0.00     0.010 A 
ATOM     43  C   UNL A   1      40.260  26.655  28.032  1.00  0.00    -0.014 A 
BRANCH  43  44
ATOM     44  C   UNL A   1      40.683  27.931  28.657  1.00  0.00     0.031 A 
ATOM     45  C   UNL A   1      42.077  28.089  29.192  1.00  0.00     0.074 A 
ATOM     46  C   UNL A   1      39.788  28.927  28.803  1.00  0.00     0.049 A 
ATOM     47  N   UNL A   1      42.604  29.101  29.832  1.00  0.00    -0.248 NA
ATOM     48  C   UNL A   1      42.989  26.951  29.002  1.00  0.00     0.031 C 
ATOM     49  C   UNL A   1      38.395  28.889  28.352  1.00  0.00     0.029 A 
ATOM     50  N   UNL A   1      39.919  30.164  29.381  1.00  0.00    -0.354 N 
ATOM     51  C   UNL A   1      43.900  28.715  30.146  1.00  0.00     0.074 A 
ATOM     52  C   UNL A   1      44.072  27.367  29.644  1.00  0.00     0.031 C 
ATOM     53  C   UNL A   1      37.808  30.061  28.646  1.00  0.00     0.029 A 
ATOM     54  C   UNL A   1      38.771  30.917  29.333  1.00  0.00     0.049 A 
ATOM     55  H   UNL A   1      40.755  30.482  29.791  1.00  0.00     0.167 HD
ATOM     56  C   UNL A   1      44.864  29.419  30.788  1.00  0.00     0.031 A 
ATOM     57  C   UNL A   1      38.519  32.157  29.790  1.00  0.00     0.031 A 
ATOM     58  C   UNL A   1      44.705  30.763  31.271  1.00  0.00     0.049 A 
ATOM     59  C   UNL A   1      39.603  32.924  30.487  1.00  0.00     0.074 A 
ATOM     60  C   UNL A   1      45.641  31.577  31.884  1.00  0.00     0.029 A 
ATOM     61  N   UNL A   1      43.528  31.492  31.197  1.00  0.00    -0.354 N 
ATOM     62  N   UNL A   1      40.836  32.556  30.741  1.00  0.00    -0.248 NA
ATOM     63  C   UNL A   1      39.263  34.273  30.959  1.00  0.00     0.031 C 
ATOM     64  C   UNL A   1      45.023  32.793  32.200  1.00  0.00     0.029 A 
ATOM     65  C   UNL A   1      43.709  32.743  31.761  1.00  0.00     0.049 A 
ATOM     66  H   UNL A   1      42.687  31.169  30.799  1.00  0.00     0.167 HD
ATOM     67  C   UNL A   1      41.425  33.636  31.387  1.00  0.00     0.074 A 
ATOM     68  C   UNL A   1      40.415  34.671  31.483  1.00  0.00     0.031 C 
ATOM     69  C   UNL A   1      42.692  33.759  31.854  1.00  0.00     0.031 A 
BRANCH  56  70
ATOM     70  C   UNL A   1      46.173  28.715  31.010  1.00  0.00    -0.014 A 
ATOM     71  C   UNL A   1      46.416  27.999  32.196  1.00  0.00     0.010 A 
ATOM     72  C   UNL A   1      47.184  28.803  30.038  1.00  0.00     0.010 A 
ATOM     73  C   UNL A   1      47.672  27.436  32.434  1.00  0.00     0.020 A 
ATOM     74  C   UNL A   1      48.435  28.224  30.264  1.00  0.00     0.020 A 
ATOM     75  C   UNL A   1      48.680  27.568  31.474  1.00  0.00     0.054 A 
BRANCH  75  76
ATOM     76  S   UNL A   1      50.319  26.867  31.809  1.00  0.00     0.124 S 
ATOM     77  O   UNL A   1      50.278  26.692  33.258  1.00  0.00    -0.237 OA
ATOM     78  O   UNL A   1      50.317  25.632  31.029  1.00  0.00    -0.237 OA
ATOM     79  O   UNL A   1      51.235  27.899  31.329  1.00  0.00    -0.744 OA
ENDBRANCH  75  76
ENDBRANCH  56  70
BRANCH  57  80
ATOM     80  C   UNL A   1      37.182  32.761  29.558  1.00  0.00    -0.014 A 
ATOM     81  C   UNL A   1      36.185  32.650  30.542  1.00  0.00     0.010 A 
ATOM     82  C   UNL A   1      36.919  33.494  28.388  1.00  0.00     0.010 A 
ATOM     83  C   UNL A   1      34.946  33.267  30.363  1.00  0.00     0.020 A 
ATOM     84  C   UNL A   1      35.684  34.125  28.212  1.00  0.00     0.020 A 
ATOM     85  C   UNL A   1      34.704  34.005  29.201  1.00  0.00     0.054 A 
BRANCH  85  86
ATOM     86  S   UNL A   1      33.122  34.877  29.026  1.00  0.00     0.124 S 
ATOM     87  O   UNL A   1      32.425  34.049  28.046  1.00  0.00    -0.237 OA
ATOM     88  O   UNL A   1      32.582  34.840  30.384  1.00  0.00    -0.237 OA
ATOM     89  O   UNL A   1      33.518  36.205  28.560  1.00  0.00    -0.744 OA
ENDBRANCH  85  86
ENDBRANCH  57  80
BRANCH  69  90
ATOM     90  C   UNL A   1      43.060  35.067  32.493  1.00  0.00    -0.014 A 
ATOM     91  C   UNL A   1      43.618  36.108  31.732  1.00  0.00     0.010 A 
ATOM     92  C   UNL A   1      42.807  35.269  33.861  1.00  0.00     0.010 A 
ATOM     93  C   UNL A   1      43.938  37.327  32.335  1.00  0.00     0.020 A 
ATOM     94  C   UNL A   1      43.114  36.491  34.464  1.00  0.00     0.020 A 
ATOM     95  C   UNL A   1      43.689  37.510  33.699  1.00  0.00     0.054 A 
BRANCH  95  96
ATOM     96  S   UNL A   1      44.068  39.112  34.460  1.00  0.00     0.124 S 
ATOM     97  O   UNL A   1      45.410  39.379  33.953  1.00  0.00    -0.237 OA
ATOM     98  O   UNL A   1      43.016  39.981  33.939  1.00  0.00    -0.237 OA
ATOM     99  O   UNL A   1      43.984  38.837  35.893  1.00  0.00    -0.744 OA
ENDBRANCH  95  96
ENDBRANCH  69  90
ENDBRANCH  43  44
ENDBRANCH  35  38
ENDBRANCH  33  34
ENDBRANCH  32  33
ENDBRANCH   1  32
TORSDOF 19
ENDMDL
MODEL 3
REMARK VINA RESULT:     -11.6      4.180      8.979
REMARK SMILES Cc1ccnc(C(=O)c2[nH]c3ccc(OC(F)(F)F)cc3c2CC(=O)NCCCCNC(=O)c2ccc(-c3c4nc(c(-c5ccc(S(=O)(=O)[O-])cc5)c5ccc([nH]5)c(-c5ccc(S(=O)(=O)[O-])cc5)c5nc(c(-c6ccc(S(=O)(=O)[O-])cc6)c6ccc3[nH]6)C=C5)C=C4)cc2)c1
REMARK SMILES IDX 28 1 27 2 26 3 24 4 25 5 23 7 22 8 9 9 10 10 11 11 21 13
REMARK SMILES IDX 12 14 20 15 13 16 14 17 7 18 8 19 6 20 1 21 2 22 3 23 94 24
REMARK SMILES IDX 4 25 5 26 15 27 16 28 17 29 18 30 19 31 29 32 30 33 31 34
REMARK SMILES IDX 32 35 33 37 34 38 35 39 93 40 36 41 92 42 37 43 38 44 39 45
REMARK SMILES IDX 86 46 40 47 91 48 85 49 87 50 41 51 90 52 84 53 83 54 42 56
REMARK SMILES IDX 72 57 53 58 71 59 54 60 57 61 70 62 88 63 55 64 56 65 69 67
REMARK SMILES IDX 89 68 58 69 43 70 44 71 52 72 45 73 51 74 46 75 47 76 48 77
REMARK SMILES IDX 49 78 50 79 73 80 74 81 82 82 75 83 81 84 76 85 77 86 78 87
REMARK SMILES IDX 79 88 80 89 59 90 60 91 68 92 61 93 67 94 62 95 63 96 64 97
REMARK SMILES IDX 65 98 66 99
REMARK H PARENT 26 6 10 12 31 36 87 55 57 66
REMARK Flexibility Score: inf
ROOT
ATOM      1  C   UNL A   1      36.291  23.273  26.144  1.00  0.00     0.023 C 
ENDROOT
BRANCH   1   2
ATOM      2  C   UNL A   1      35.602  24.347  25.304  1.00  0.00     0.116 C 
BRANCH   2   3
ATOM      3  N   UNL A   1      35.055  23.833  24.065  1.00  0.00    -0.356 N 
ATOM      4  C   UNL A   1      34.266  24.460  23.142  1.00  0.00     0.224 C 
ATOM      5  O   UNL A   1      34.056  23.885  22.071  1.00  0.00    -0.275 OA
ATOM      6  H   UNL A   1      35.285  22.899  23.858  1.00  0.00     0.163 HD
BRANCH   4   7
ATOM      7  C   UNL A   1      33.769  25.882  23.366  1.00  0.00     0.138 C 
BRANCH   7   8
ATOM      8  C   UNL A   1      32.758  26.046  24.467  1.00  0.00    -0.002 A 
ATOM      9  C   UNL A   1      31.702  25.196  24.779  1.00  0.00     0.093 A 
ATOM     10  N   UNL A   1      31.117  25.675  25.930  1.00  0.00    -0.352 N 
ATOM     11  C   UNL A   1      31.671  26.878  26.292  1.00  0.00     0.046 A 
ATOM     12  H   UNL A   1      30.400  25.218  26.426  1.00  0.00     0.167 HD
ATOM     13  C   UNL A   1      32.689  27.150  25.383  1.00  0.00     0.008 A 
ATOM     14  C   UNL A   1      31.370  27.723  27.363  1.00  0.00     0.030 A 
ATOM     15  C   UNL A   1      33.428  28.339  25.549  1.00  0.00     0.057 A 
ATOM     16  C   UNL A   1      32.127  28.894  27.509  1.00  0.00     0.049 A 
ATOM     17  C   UNL A   1      33.149  29.207  26.614  1.00  0.00     0.130 A 
BRANCH   9  18
ATOM     18  C   UNL A   1      31.298  23.954  24.141  1.00  0.00     0.227 C 
ATOM     19  O   UNL A   1      30.485  23.952  23.224  1.00  0.00    -0.285 OA
BRANCH  18  20
ATOM     20  C   UNL A   1      31.927  22.663  24.614  1.00  0.00     0.113 A 
ATOM     21  C   UNL A   1      32.542  19.074  23.544  1.00  0.00     0.044 C 
ATOM     22  C   UNL A   1      32.522  20.343  24.340  1.00  0.00    -0.047 A 
ATOM     23  C   UNL A   1      33.066  20.375  25.624  1.00  0.00     0.023 A 
ATOM     24  C   UNL A   1      31.960  21.516  23.821  1.00  0.00     0.036 A 
ATOM     25  C   UNL A   1      33.010  21.560  26.338  1.00  0.00     0.112 A 
ATOM     26  N   UNL A   1      32.446  22.689  25.869  1.00  0.00    -0.253 NA
ENDBRANCH  18  20
ENDBRANCH   9  18
BRANCH  17  27
ATOM     27  O   UNL A   1      33.955  30.310  26.655  1.00  0.00    -0.406 OA
BRANCH  27  28
ATOM     28  C   UNL A   1      34.939  30.375  27.671  1.00  0.00     0.573 C 
ATOM     29  F   UNL A   1      35.085  29.180  28.283  1.00  0.00    -0.132 F 
ATOM     30  F   UNL A   1      36.129  30.777  27.178  1.00  0.00    -0.132 F 
ATOM     31  F   UNL A   1      34.544  31.273  28.601  1.00  0.00    -0.132 F 
ENDBRANCH  27  28
ENDBRANCH  17  27
ENDBRANCH   7   8
ENDBRANCH   4   7
ENDBRANCH   2   3
ENDBRANCH   1   2
BRANCH   1  32
ATOM     32  C   UNL A   1      37.814  23.208  26.011  1.00  0.00     0.023 C 
BRANCH  32  33
ATOM     33  C   UNL A   1      38.578  24.405  26.564  1.00  0.00     0.116 C 
BRANCH  33  34
ATOM     34  N   UNL A   1      39.750  24.757  25.777  1.00  0.00    -0.352 N 
ATOM     35  C   UNL A   1      40.730  25.680  26.055  1.00  0.00     0.251 C 
ATOM     36  H   UNL A   1      39.856  24.267  24.930  1.00  0.00     0.163 HD
ATOM     37  O   UNL A   1      41.604  25.910  25.224  1.00  0.00    -0.269 OA
BRANCH  35  38
ATOM     38  C   UNL A   1      40.705  26.428  27.333  1.00  0.00     0.039 A 
ATOM     39  C   UNL A   1      41.561  27.524  27.481  1.00  0.00     0.014 A 
ATOM     40  C   UNL A   1      39.849  26.062  28.374  1.00  0.00     0.014 A 
ATOM     41  C   UNL A   1      41.505  28.298  28.643  1.00  0.00     0.010 A 
ATOM     42  C   UNL A   1      39.757  26.862  29.511  1.00  0.00     0.010 A 
ATOM     43  C   UNL A   1      40.579  27.991  29.652  1.00  0.00    -0.014 A 
BRANCH  43  44
ATOM     44  C   UNL A   1      40.436  28.851  30.851  1.00  0.00     0.031 A 
ATOM     45  C   UNL A   1      39.378  29.914  30.902  1.00  0.00     0.074 A 
ATOM     46  C   UNL A   1      41.309  28.717  31.869  1.00  0.00     0.049 A 
ATOM     47  N   UNL A   1      39.149  30.803  31.834  1.00  0.00    -0.248 NA
ATOM     48  C   UNL A   1      38.473  30.001  29.746  1.00  0.00     0.031 C 
ATOM     49  C   UNL A   1      42.400  27.743  31.930  1.00  0.00     0.029 A 
ATOM     50  N   UNL A   1      41.415  29.413  33.047  1.00  0.00    -0.354 N 
ATOM     51  C   UNL A   1      38.093  31.575  31.367  1.00  0.00     0.074 A 
ATOM     52  C   UNL A   1      37.740  31.060  30.060  1.00  0.00     0.031 C 
ATOM     53  C   UNL A   1      43.049  27.884  33.097  1.00  0.00     0.029 A 
ATOM     54  C   UNL A   1      42.441  28.978  33.850  1.00  0.00     0.049 A 
ATOM     55  H   UNL A   1      40.814  30.153  33.293  1.00  0.00     0.167 HD
ATOM     56  C   UNL A   1      37.467  32.614  31.972  1.00  0.00     0.031 A 
ATOM     57  C   UNL A   1      42.849  29.410  35.058  1.00  0.00     0.031 A 
ATOM     58  C   UNL A   1      37.799  33.117  33.276  1.00  0.00     0.049 A 
ATOM     59  C   UNL A   1      42.135  30.553  35.716  1.00  0.00     0.074 A 
ATOM     60  C   UNL A   1      37.187  34.128  33.995  1.00  0.00     0.029 A 
ATOM     61  N   UNL A   1      38.841  32.643  34.060  1.00  0.00    -0.354 N 
ATOM     62  N   UNL A   1      41.112  31.245  35.275  1.00  0.00    -0.248 NA
ATOM     63  C   UNL A   1      42.629  30.973  37.034  1.00  0.00     0.031 C 
ATOM     64  C   UNL A   1      37.873  34.281  35.206  1.00  0.00     0.029 A 
ATOM     65  C   UNL A   1      38.897  33.348  35.250  1.00  0.00     0.049 A 
ATOM     66  H   UNL A   1      39.451  31.913  33.808  1.00  0.00     0.167 HD
ATOM     67  C   UNL A   1      40.829  32.173  36.270  1.00  0.00     0.074 A 
ATOM     68  C   UNL A   1      41.785  31.951  37.336  1.00  0.00     0.031 C 
ATOM     69  C   UNL A   1      39.858  33.120  36.298  1.00  0.00     0.031 A 
BRANCH  56  70
ATOM     70  C   UNL A   1      36.364  33.276  31.196  1.00  0.00    -0.014 A 
ATOM     71  C   UNL A   1      36.582  33.747  29.889  1.00  0.00     0.010 A 
ATOM     72  C   UNL A   1      35.106  33.463  31.795  1.00  0.00     0.010 A 
ATOM     73  C   UNL A   1      35.580  34.450  29.217  1.00  0.00     0.020 A 
ATOM     74  C   UNL A   1      34.095  34.150  31.119  1.00  0.00     0.020 A 
ATOM     75  C   UNL A   1      34.349  34.665  29.844  1.00  0.00     0.054 A 
BRANCH  75  76
ATOM     76  S   UNL A   1      33.068  35.614  28.979  1.00  0.00     0.124 S 
ATOM     77  O   UNL A   1      33.857  36.657  28.329  1.00  0.00    -0.237 OA
ATOM     78  O   UNL A   1      32.474  34.627  28.080  1.00  0.00    -0.237 OA
ATOM     79  O   UNL A   1      32.195  36.070  30.058  1.00  0.00    -0.744 OA
ENDBRANCH  75  76
ENDBRANCH  56  70
BRANCH  57  80
ATOM     80  C   UNL A   1      43.974  28.718  35.736  1.00  0.00    -0.014 A 
ATOM     81  C   UNL A   1      45.286  29.194  35.576  1.00  0.00     0.010 A 
ATOM     82  C   UNL A   1      43.736  27.624  36.585  1.00  0.00     0.010 A 
ATOM     83  C   UNL A   1      46.344  28.591  36.259  1.00  0.00     0.020 A 
ATOM     84  C   UNL A   1      44.790  27.026  37.282  1.00  0.00     0.020 A 
ATOM     85  C   UNL A   1      46.089  27.513  37.111  1.00  0.00     0.054 A 
BRANCH  85  86
ATOM     86  S   UNL A   1      47.461  26.800  38.062  1.00  0.00     0.124 S 
ATOM     87  O   UNL A   1      46.764  25.889  38.965  1.00  0.00    -0.237 OA
ATOM     88  O   UNL A   1      48.275  26.166  37.027  1.00  0.00    -0.237 OA
ATOM     89  O   UNL A   1      48.075  27.966  38.696  1.00  0.00    -0.744 OA
ENDBRANCH  85  86
ENDBRANCH  57  80
BRANCH  69  90
ATOM     90  C   UNL A   1      39.773  33.972  37.530  1.00  0.00    -0.014 A 
ATOM     91  C   UNL A   1      40.302  35.274  37.543  1.00  0.00     0.010 A 
ATOM     92  C   UNL A   1      39.122  33.479  38.675  1.00  0.00     0.010 A 
ATOM     93  C   UNL A   1      40.199  36.064  38.691  1.00  0.00     0.020 A 
ATOM     94  C   UNL A   1      39.007  34.270  39.820  1.00  0.00     0.020 A 
ATOM     95  C   UNL A   1      39.557  35.556  39.825  1.00  0.00     0.054 A 
BRANCH  95  96
ATOM     96  S   UNL A   1      39.391  36.607  41.294  1.00  0.00     0.124 S 
ATOM     97  O   UNL A   1      39.019  37.891  40.708  1.00  0.00    -0.237 OA
ATOM     98  O   UNL A   1      38.342  35.939  42.060  1.00  0.00    -0.237 OA
ATOM     99  O   UNL A   1      40.719  36.557  41.900  1.00  0.00    -0.744 OA
ENDBRANCH  95  96
ENDBRANCH  69  90
ENDBRANCH  43  44
ENDBRANCH  35  38
ENDBRANCH  33  34
ENDBRANCH  32  33
ENDBRANCH   1  32
TORSDOF 19
ENDMDL
