MODEL 1
REMARK VINA RESULT:     -11.4      0.000      0.000
REMARK SMILES CN(C)S(=O)(=O)c1ccc(-n2c(CCC(=O)NCCCCNC(=O)c3ccc(-c4c5nc(c(-c6ccc(S(=O)(=O)[O-])cc6)c6ccc([nH]6)c(-c6ccc(S(=O)(=O)[O-])cc6)c6nc(c(-c7ccc(S(=O)(=O)[O-])cc7)c7ccc4[nH]7)C=C6)C=C5)cc3)ccc2-c2ccc(F)cc2)cc1
REMARK SMILES IDX 18 1 17 2 15 3 16 4 14 6 13 7 12 8 11 9 87 10 85 11 86 12
REMARK SMILES IDX 10 13 7 14 8 15 96 16 9 17 95 18 4 19 5 20 6 21 2 22 1 23
REMARK SMILES IDX 3 24 88 25 89 26 94 27 90 28 93 29 91 30 92 31 19 32 20 33
REMARK SMILES IDX 21 34 22 35 23 36 24 38 25 39 26 40 84 41 27 42 83 43 28 44
REMARK SMILES IDX 29 45 30 46 77 47 31 48 82 49 76 50 78 51 32 52 81 53 75 54
REMARK SMILES IDX 74 55 33 57 63 58 44 59 62 60 45 61 48 62 61 63 79 64 46 65
REMARK SMILES IDX 47 66 60 68 80 69 49 70 34 71 35 72 43 73 36 74 42 75 37 76
REMARK SMILES IDX 38 77 39 78 40 79 41 80 64 81 65 82 73 83 66 84 72 85 67 86
REMARK SMILES IDX 68 87 69 88 70 89 71 90 50 91 51 92 59 93 52 94 58 95 53 96
REMARK SMILES IDX 54 97 55 98 56 99 57 100
REMARK H PARENT 17 5 22 37 78 56 48 67
REMARK Flexibility Score: inf
ROOT
ATOM      1  C   UNL A   1      36.908  32.772  28.177  1.00  0.00     0.116 C 
ENDROOT
BRANCH   1   2
ATOM      2  N   UNL A   1      37.567  31.605  28.737  1.00  0.00    -0.356 N 
ATOM      3  C   UNL A   1      37.346  30.286  28.454  1.00  0.00     0.220 C 
ATOM      4  O   UNL A   1      37.908  29.430  29.140  1.00  0.00    -0.275 OA
ATOM      5  H   UNL A   1      38.263  31.788  29.409  1.00  0.00     0.163 HD
BRANCH   3   6
ATOM      6  C   UNL A   1      36.412  29.881  27.322  1.00  0.00     0.106 C 
BRANCH   6   7
ATOM      7  C   UNL A   1      35.100  29.195  27.763  1.00  0.00     0.064 C 
BRANCH   7   8
ATOM      8  C   UNL A   1      33.870  29.663  27.000  1.00  0.00     0.024 A 
ATOM      9  N   UNL A   1      33.195  29.049  25.907  1.00  0.00    -0.314 N 
ATOM     10  C   UNL A   1      32.111  29.902  25.574  1.00  0.00     0.053 A 
ATOM     11  C   UNL A   1      33.246  30.871  27.269  1.00  0.00     0.024 A 
ATOM     12  C   UNL A   1      32.175  31.021  26.389  1.00  0.00     0.029 A 
BRANCH   9  13
ATOM     13  C   UNL A   1      33.472  27.751  25.311  1.00  0.00     0.046 A 
ATOM     14  C   UNL A   1      33.776  25.177  24.162  1.00  0.00     0.082 A 
ATOM     15  C   UNL A   1      33.990  26.314  23.386  1.00  0.00     0.024 A 
ATOM     16  C   UNL A   1      33.438  25.311  25.500  1.00  0.00     0.024 A 
ATOM     17  C   UNL A   1      33.842  27.596  23.963  1.00  0.00     0.028 A 
ATOM     18  C   UNL A   1      33.300  26.581  26.053  1.00  0.00     0.028 A 
BRANCH  14  19
ATOM     19  S   UNL A   1      33.939  23.515  23.572  1.00  0.00     0.242 S 
ATOM     20  O   UNL A   1      34.016  23.572  22.134  1.00  0.00    -0.207 OA
ATOM     21  O   UNL A   1      32.894  22.757  24.243  1.00  0.00    -0.207 OA
BRANCH  19  22
ATOM     22  N   UNL A   1      35.449  22.929  24.129  1.00  0.00    -0.204 NA
ATOM     23  C   UNL A   1      35.303  21.571  24.723  1.00  0.00     0.124 C 
ATOM     24  C   UNL A   1      36.527  22.921  23.107  1.00  0.00     0.124 C 
ENDBRANCH  19  22
ENDBRANCH  14  19
ENDBRANCH   9  13
BRANCH  10  25
ATOM     25  C   UNL A   1      30.933  29.609  24.736  1.00  0.00    -0.001 A 
ATOM     26  C   UNL A   1      30.703  28.329  24.218  1.00  0.00     0.013 A 
ATOM     27  C   UNL A   1      30.119  30.654  24.294  1.00  0.00     0.013 A 
ATOM     28  C   UNL A   1      29.678  28.116  23.287  1.00  0.00     0.040 A 
ATOM     29  C   UNL A   1      29.111  30.459  23.349  1.00  0.00     0.040 A 
ATOM     30  C   UNL A   1      28.899  29.185  22.853  1.00  0.00     0.123 A 
ATOM     31  F   UNL A   1      27.940  28.983  21.941  1.00  0.00    -0.207 F 
ENDBRANCH  10  25
ENDBRANCH   7   8
ENDBRANCH   6   7
ENDBRANCH   3   6
ENDBRANCH   1   2
BRANCH   1  32
ATOM     32  C   UNL A   1      36.446  33.694  29.293  1.00  0.00     0.023 C 
BRANCH  32  33
ATOM     33  C   UNL A   1      34.969  33.577  29.657  1.00  0.00     0.023 C 
BRANCH  33  34
ATOM     34  C   UNL A   1      34.716  32.486  30.685  1.00  0.00     0.116 C 
BRANCH  34  35
ATOM     35  N   UNL A   1      34.304  32.967  32.010  1.00  0.00    -0.352 N 
ATOM     36  C   UNL A   1      35.055  33.030  33.161  1.00  0.00     0.251 C 
ATOM     37  H   UNL A   1      33.375  33.285  32.084  1.00  0.00     0.163 HD
ATOM     38  O   UNL A   1      34.557  33.338  34.237  1.00  0.00    -0.269 OA
BRANCH  36  39
ATOM     39  C   UNL A   1      36.468  32.646  33.062  1.00  0.00     0.039 A 
ATOM     40  C   UNL A   1      36.818  31.523  32.310  1.00  0.00     0.014 A 
ATOM     41  C   UNL A   1      37.429  33.518  33.573  1.00  0.00     0.014 A 
ATOM     42  C   UNL A   1      38.150  31.346  31.960  1.00  0.00     0.010 A 
ATOM     43  C   UNL A   1      38.726  33.412  33.129  1.00  0.00     0.010 A 
ATOM     44  C   UNL A   1      39.087  32.324  32.324  1.00  0.00    -0.014 A 
BRANCH  44  45
ATOM     45  C   UNL A   1      40.483  32.248  31.850  1.00  0.00     0.031 A 
ATOM     46  C   UNL A   1      41.297  31.119  32.477  1.00  0.00     0.074 A 
ATOM     47  C   UNL A   1      40.807  33.159  30.890  1.00  0.00     0.049 A 
ATOM     48  N   UNL A   1      42.582  31.015  32.618  1.00  0.00    -0.248 NA
ATOM     49  C   UNL A   1      40.588  29.975  33.111  1.00  0.00     0.031 C 
ATOM     50  C   UNL A   1      39.880  34.206  30.402  1.00  0.00     0.029 A 
ATOM     51  N   UNL A   1      41.921  33.392  30.119  1.00  0.00    -0.354 N 
ATOM     52  C   UNL A   1      42.851  29.772  33.231  1.00  0.00     0.074 A 
ATOM     53  C   UNL A   1      41.579  29.215  33.590  1.00  0.00     0.031 C 
ATOM     54  C   UNL A   1      40.461  34.954  29.449  1.00  0.00     0.029 A 
ATOM     55  C   UNL A   1      41.816  34.495  29.242  1.00  0.00     0.049 A 
ATOM     56  H   UNL A   1      42.729  32.832  30.172  1.00  0.00     0.167 HD
ATOM     57  C   UNL A   1      44.101  29.230  33.319  1.00  0.00     0.031 A 
ATOM     58  C   UNL A   1      42.766  35.059  28.443  1.00  0.00     0.031 A 
ATOM     59  C   UNL A   1      45.064  30.095  32.721  1.00  0.00     0.049 A 
ATOM     60  C   UNL A   1      43.986  34.249  28.601  1.00  0.00     0.074 A 
ATOM     61  C   UNL A   1      45.647  31.274  33.104  1.00  0.00     0.029 A 
ATOM     62  N   UNL A   1      45.317  29.894  31.384  1.00  0.00    -0.354 N 
ATOM     63  N   UNL A   1      44.167  33.055  28.126  1.00  0.00    -0.248 NA
ATOM     64  C   UNL A   1      45.060  34.763  29.461  1.00  0.00     0.031 C 
ATOM     65  C   UNL A   1      45.848  31.970  31.889  1.00  0.00     0.029 A 
ATOM     66  C   UNL A   1      45.487  31.139  30.823  1.00  0.00     0.049 A 
ATOM     67  H   UNL A   1      45.367  29.028  30.920  1.00  0.00     0.167 HD
ATOM     68  C   UNL A   1      45.176  32.558  28.918  1.00  0.00     0.074 A 
ATOM     69  C   UNL A   1      45.858  33.700  29.485  1.00  0.00     0.031 C 
ATOM     70  C   UNL A   1      45.076  31.313  29.448  1.00  0.00     0.031 A 
BRANCH  57  71
ATOM     71  C   UNL A   1      44.574  27.855  33.722  1.00  0.00    -0.014 A 
ATOM     72  C   UNL A   1      44.132  26.761  32.931  1.00  0.00     0.010 A 
ATOM     73  C   UNL A   1      45.159  27.558  34.961  1.00  0.00     0.010 A 
ATOM     74  C   UNL A   1      44.161  25.447  33.400  1.00  0.00     0.020 A 
ATOM     75  C   UNL A   1      45.224  26.230  35.427  1.00  0.00     0.020 A 
ATOM     76  C   UNL A   1      44.679  25.193  34.665  1.00  0.00     0.054 A 
BRANCH  76  77
ATOM     77  S   UNL A   1      44.560  23.504  35.317  1.00  0.00     0.124 S 
ATOM     78  O   UNL A   1      45.589  22.805  34.551  1.00  0.00    -0.237 OA
ATOM     79  O   UNL A   1      44.855  23.689  36.736  1.00  0.00    -0.237 OA
ATOM     80  O   UNL A   1      43.183  23.118  35.022  1.00  0.00    -0.744 OA
ENDBRANCH  76  77
ENDBRANCH  57  71
BRANCH  58  81
ATOM     81  C   UNL A   1      42.867  36.350  27.676  1.00  0.00    -0.014 A 
ATOM     82  C   UNL A   1      41.790  37.163  27.294  1.00  0.00     0.010 A 
ATOM     83  C   UNL A   1      44.159  36.866  27.402  1.00  0.00     0.010 A 
ATOM     84  C   UNL A   1      41.992  38.479  26.836  1.00  0.00     0.020 A 
ATOM     85  C   UNL A   1      44.375  38.179  26.979  1.00  0.00     0.020 A 
ATOM     86  C   UNL A   1      43.284  38.995  26.730  1.00  0.00     0.054 A 
BRANCH  86  87
ATOM     87  S   UNL A   1      43.551  40.756  26.402  1.00  0.00     0.124 S 
ATOM     88  O   UNL A   1      42.249  41.179  25.895  1.00  0.00    -0.237 OA
ATOM     89  O   UNL A   1      43.919  41.281  27.716  1.00  0.00    -0.237 OA
ATOM     90  O   UNL A   1      44.636  40.753  25.422  1.00  0.00    -0.744 OA
ENDBRANCH  86  87
ENDBRANCH  58  81
BRANCH  70  91
ATOM     91  C   UNL A   1      44.149  30.369  28.698  1.00  0.00    -0.014 A 
ATOM     92  C   UNL A   1      42.999  29.867  29.332  1.00  0.00     0.010 A 
ATOM     93  C   UNL A   1      44.434  29.901  27.399  1.00  0.00     0.010 A 
ATOM     94  C   UNL A   1      42.168  28.930  28.699  1.00  0.00     0.020 A 
ATOM     95  C   UNL A   1      43.605  28.970  26.753  1.00  0.00     0.020 A 
ATOM     96  C   UNL A   1      42.476  28.485  27.411  1.00  0.00     0.054 A 
BRANCH  96  97
ATOM     97  S   UNL A   1      41.394  27.254  26.628  1.00  0.00     0.124 S 
ATOM     98  O   UNL A   1      41.858  27.252  25.242  1.00  0.00    -0.237 OA
ATOM     99  O   UNL A   1      41.692  26.044  27.388  1.00  0.00    -0.237 OA
ATOM    100  O   UNL A   1      40.049  27.794  26.822  1.00  0.00    -0.744 OA
ENDBRANCH  96  97
ENDBRANCH  70  91
ENDBRANCH  44  45
ENDBRANCH  36  39
ENDBRANCH  34  35
ENDBRANCH  33  34
ENDBRANCH  32  33
ENDBRANCH   1  32
TORSDOF 20
ENDMDL
MODEL 2
REMARK VINA RESULT:     -10.3      6.380     12.470
REMARK SMILES CN(C)S(=O)(=O)c1ccc(-n2c(CCC(=O)NCCCCNC(=O)c3ccc(-c4c5nc(c(-c6ccc(S(=O)(=O)[O-])cc6)c6ccc([nH]6)c(-c6ccc(S(=O)(=O)[O-])cc6)c6nc(c(-c7ccc(S(=O)(=O)[O-])cc7)c7ccc4[nH]7)C=C6)C=C5)cc3)ccc2-c2ccc(F)cc2)cc1
REMARK SMILES IDX 18 1 17 2 15 3 16 4 14 6 13 7 12 8 11 9 87 10 85 11 86 12
REMARK SMILES IDX 10 13 7 14 8 15 96 16 9 17 95 18 4 19 5 20 6 21 2 22 1 23
REMARK SMILES IDX 3 24 88 25 89 26 94 27 90 28 93 29 91 30 92 31 19 32 20 33
REMARK SMILES IDX 21 34 22 35 23 36 24 38 25 39 26 40 84 41 27 42 83 43 28 44
REMARK SMILES IDX 29 45 30 46 77 47 31 48 82 49 76 50 78 51 32 52 81 53 75 54
REMARK SMILES IDX 74 55 33 57 63 58 44 59 62 60 45 61 48 62 61 63 79 64 46 65
REMARK SMILES IDX 47 66 60 68 80 69 49 70 34 71 35 72 43 73 36 74 42 75 37 76
REMARK SMILES IDX 38 77 39 78 40 79 41 80 64 81 65 82 73 83 66 84 72 85 67 86
REMARK SMILES IDX 68 87 69 88 70 89 71 90 50 91 51 92 59 93 52 94 58 95 53 96
REMARK SMILES IDX 54 97 55 98 56 99 57 100
REMARK H PARENT 17 5 22 37 78 56 48 67
REMARK Flexibility Score: inf
ROOT
ATOM      1  C   UNL A   1      38.700  32.263  32.938  1.00  0.00     0.116 C 
ENDROOT
BRANCH   1   2
ATOM      2  N   UNL A   1      39.501  31.897  34.093  1.00  0.00    -0.356 N 
ATOM      3  C   UNL A   1      40.166  32.717  34.961  1.00  0.00     0.220 C 
ATOM      4  O   UNL A   1      40.913  32.211  35.801  1.00  0.00    -0.275 OA
ATOM      5  H   UNL A   1      39.575  30.932  34.273  1.00  0.00     0.163 HD
BRANCH   3   6
ATOM      6  C   UNL A   1      39.998  34.228  34.884  1.00  0.00     0.106 C 
BRANCH   6   7
ATOM      7  C   UNL A   1      38.757  34.793  35.611  1.00  0.00     0.064 C 
BRANCH   7   8
ATOM      8  C   UNL A   1      38.404  34.059  36.895  1.00  0.00     0.024 A 
ATOM      9  N   UNL A   1      38.867  34.286  38.223  1.00  0.00    -0.314 N 
ATOM     10  C   UNL A   1      38.224  33.321  39.042  1.00  0.00     0.053 A 
ATOM     11  C   UNL A   1      37.562  32.959  36.913  1.00  0.00     0.024 A 
ATOM     12  C   UNL A   1      37.460  32.501  38.226  1.00  0.00     0.029 A 
BRANCH   9  13
ATOM     13  C   UNL A   1      39.733  35.357  38.689  1.00  0.00     0.046 A 
ATOM     14  C   UNL A   1      41.286  37.456  39.795  1.00  0.00     0.082 A 
ATOM     15  C   UNL A   1      41.832  36.181  39.666  1.00  0.00     0.024 A 
ATOM     16  C   UNL A   1      39.991  37.697  39.360  1.00  0.00     0.024 A 
ATOM     17  C   UNL A   1      41.057  35.138  39.109  1.00  0.00     0.028 A 
ATOM     18  C   UNL A   1      39.243  36.659  38.811  1.00  0.00     0.028 A 
BRANCH  14  19
ATOM     19  S   UNL A   1      42.147  38.853  40.460  1.00  0.00     0.242 S 
ATOM     20  O   UNL A   1      43.220  39.172  39.553  1.00  0.00    -0.207 OA
ATOM     21  O   UNL A   1      42.409  38.524  41.853  1.00  0.00    -0.207 OA
BRANCH  19  22
ATOM     22  N   UNL A   1      41.059  40.176  40.431  1.00  0.00    -0.204 NA
ATOM     23  C   UNL A   1      40.469  40.405  41.779  1.00  0.00     0.124 C 
ATOM     24  C   UNL A   1      41.636  41.441  39.909  1.00  0.00     0.124 C 
ENDBRANCH  19  22
ENDBRANCH  14  19
ENDBRANCH   9  13
BRANCH  10  25
ATOM     25  C   UNL A   1      38.108  33.293  40.512  1.00  0.00    -0.001 A 
ATOM     26  C   UNL A   1      38.107  32.088  41.224  1.00  0.00     0.013 A 
ATOM     27  C   UNL A   1      37.815  34.469  41.207  1.00  0.00     0.013 A 
ATOM     28  C   UNL A   1      37.822  32.077  42.596  1.00  0.00     0.040 A 
ATOM     29  C   UNL A   1      37.507  34.467  42.567  1.00  0.00     0.040 A 
ATOM     30  C   UNL A   1      37.514  33.265  43.252  1.00  0.00     0.123 A 
ATOM     31  F   UNL A   1      37.214  33.246  44.556  1.00  0.00    -0.207 F 
ENDBRANCH  10  25
ENDBRANCH   7   8
ENDBRANCH   6   7
ENDBRANCH   3   6
ENDBRANCH   1   2
BRANCH   1  32
ATOM     32  C   UNL A   1      37.223  32.188  33.285  1.00  0.00     0.023 C 
BRANCH  32  33
ATOM     33  C   UNL A   1      36.326  31.643  32.177  1.00  0.00     0.023 C 
BRANCH  33  34
ATOM     34  C   UNL A   1      36.919  31.871  30.796  1.00  0.00     0.116 C 
BRANCH  34  35
ATOM     35  N   UNL A   1      35.982  31.680  29.681  1.00  0.00    -0.352 N 
ATOM     36  C   UNL A   1      36.050  30.755  28.665  1.00  0.00     0.251 C 
ATOM     37  H   UNL A   1      35.209  32.289  29.659  1.00  0.00     0.163 HD
ATOM     38  O   UNL A   1      35.268  30.778  27.722  1.00  0.00    -0.269 OA
BRANCH  36  39
ATOM     39  C   UNL A   1      37.142  29.777  28.719  1.00  0.00     0.039 A 
ATOM     40  C   UNL A   1      38.241  29.934  27.872  1.00  0.00     0.014 A 
ATOM     41  C   UNL A   1      37.131  28.827  29.740  1.00  0.00     0.014 A 
ATOM     42  C   UNL A   1      39.395  29.209  28.137  1.00  0.00     0.010 A 
ATOM     43  C   UNL A   1      38.307  28.199  30.077  1.00  0.00     0.010 A 
ATOM     44  C   UNL A   1      39.439  28.388  29.274  1.00  0.00    -0.014 A 
BRANCH  44  45
ATOM     45  C   UNL A   1      40.689  27.714  29.672  1.00  0.00     0.031 A 
ATOM     46  C   UNL A   1      41.056  26.511  28.806  1.00  0.00     0.074 A 
ATOM     47  C   UNL A   1      41.346  28.303  30.711  1.00  0.00     0.049 A 
ATOM     48  N   UNL A   1      41.800  25.489  29.095  1.00  0.00    -0.248 NA
ATOM     49  C   UNL A   1      40.454  26.378  27.452  1.00  0.00     0.031 C 
ATOM     50  C   UNL A   1      40.829  29.475  31.454  1.00  0.00     0.029 A 
ATOM     51  N   UNL A   1      42.550  28.085  31.338  1.00  0.00    -0.354 N 
ATOM     52  C   UNL A   1      41.861  24.661  27.952  1.00  0.00     0.074 A 
ATOM     53  C   UNL A   1      40.941  25.217  27.002  1.00  0.00     0.031 C 
ATOM     54  C   UNL A   1      41.687  29.848  32.417  1.00  0.00     0.029 A 
ATOM     55  C   UNL A   1      42.822  28.953  32.419  1.00  0.00     0.049 A 
ATOM     56  H   UNL A   1      43.176  27.379  31.054  1.00  0.00     0.167 HD
ATOM     57  C   UNL A   1      42.738  23.623  27.820  1.00  0.00     0.031 A 
ATOM     58  C   UNL A   1      43.853  28.928  33.311  1.00  0.00     0.031 A 
ATOM     59  C   UNL A   1      43.551  23.504  28.985  1.00  0.00     0.049 A 
ATOM     60  C   UNL A   1      44.732  27.817  32.910  1.00  0.00     0.074 A 
ATOM     61  C   UNL A   1      43.328  23.035  30.253  1.00  0.00     0.029 A 
ATOM     62  N   UNL A   1      44.732  24.207  28.979  1.00  0.00    -0.354 N 
ATOM     63  N   UNL A   1      45.511  27.805  31.872  1.00  0.00    -0.248 NA
ATOM     64  C   UNL A   1      44.654  26.557  33.662  1.00  0.00     0.031 C 
ATOM     65  C   UNL A   1      44.148  23.848  31.070  1.00  0.00     0.029 A 
ATOM     66  C   UNL A   1      44.913  24.689  30.254  1.00  0.00     0.049 A 
ATOM     67  H   UNL A   1      45.333  24.339  28.210  1.00  0.00     0.167 HD
ATOM     68  C   UNL A   1      45.713  26.463  31.652  1.00  0.00     0.074 A 
ATOM     69  C   UNL A   1      45.430  25.791  32.901  1.00  0.00     0.031 C 
ATOM     70  C   UNL A   1      45.600  25.953  30.399  1.00  0.00     0.031 A 
BRANCH  57  71
ATOM     71  C   UNL A   1      43.116  22.773  26.633  1.00  0.00    -0.014 A 
ATOM     72  C   UNL A   1      42.582  21.458  26.581  1.00  0.00     0.010 A 
ATOM     73  C   UNL A   1      44.165  23.075  25.754  1.00  0.00     0.010 A 
ATOM     74  C   UNL A   1      43.142  20.460  25.781  1.00  0.00     0.020 A 
ATOM     75  C   UNL A   1      44.713  22.083  24.917  1.00  0.00     0.020 A 
ATOM     76  C   UNL A   1      44.230  20.773  24.975  1.00  0.00     0.054 A 
BRANCH  76  77
ATOM     77  S   UNL A   1      45.040  19.427  24.068  1.00  0.00     0.124 S 
ATOM     78  O   UNL A   1      44.531  19.618  22.713  1.00  0.00    -0.237 OA
ATOM     79  O   UNL A   1      46.459  19.728  24.251  1.00  0.00    -0.237 OA
ATOM     80  O   UNL A   1      44.575  18.223  24.753  1.00  0.00    -0.744 OA
ENDBRANCH  76  77
ENDBRANCH  57  71
BRANCH  58  81
ATOM     81  C   UNL A   1      44.126  29.608  34.626  1.00  0.00    -0.014 A 
ATOM     82  C   UNL A   1      44.929  30.742  34.811  1.00  0.00     0.010 A 
ATOM     83  C   UNL A   1      43.434  29.146  35.774  1.00  0.00     0.010 A 
ATOM     84  C   UNL A   1      44.900  31.472  36.015  1.00  0.00     0.020 A 
ATOM     85  C   UNL A   1      43.370  29.875  36.964  1.00  0.00     0.020 A 
ATOM     86  C   UNL A   1      44.081  31.060  37.066  1.00  0.00     0.054 A 
BRANCH  86  87
ATOM     87  S   UNL A   1      43.828  32.122  38.511  1.00  0.00     0.124 S 
ATOM     88  O   UNL A   1      44.960  31.767  39.361  1.00  0.00    -0.237 OA
ATOM     89  O   UNL A   1      43.865  33.467  37.939  1.00  0.00    -0.237 OA
ATOM     90  O   UNL A   1      42.516  31.707  39.005  1.00  0.00    -0.744 OA
ENDBRANCH  86  87
ENDBRANCH  58  81
BRANCH  70  91
ATOM     91  C   UNL A   1      45.806  26.958  29.277  1.00  0.00    -0.014 A 
ATOM     92  C   UNL A   1      47.099  27.198  28.782  1.00  0.00     0.010 A 
ATOM     93  C   UNL A   1      44.753  27.735  28.753  1.00  0.00     0.010 A 
ATOM     94  C   UNL A   1      47.335  28.179  27.807  1.00  0.00     0.020 A 
ATOM     95  C   UNL A   1      44.976  28.713  27.771  1.00  0.00     0.020 A 
ATOM     96  C   UNL A   1      46.272  28.932  27.306  1.00  0.00     0.054 A 
BRANCH  96  97
ATOM     97  S   UNL A   1      46.613  30.211  26.061  1.00  0.00     0.124 S 
ATOM     98  O   UNL A   1      47.870  30.789  26.530  1.00  0.00    -0.237 OA
ATOM     99  O   UNL A   1      46.704  29.434  24.829  1.00  0.00    -0.237 OA
ATOM    100  O   UNL A   1      45.458  31.104  26.148  1.00  0.00    -0.744 OA
ENDBRANCH  96  97
ENDBRANCH  70  91
ENDBRANCH  44  45
ENDBRANCH  36  39
ENDBRANCH  34  35
ENDBRANCH  33  34
ENDBRANCH  32  33
ENDBRANCH   1  32
TORSDOF 20
ENDMDL
MODEL 3
REMARK VINA RESULT:     -10.2      5.541     11.993
REMARK SMILES CN(C)S(=O)(=O)c1ccc(-n2c(CCC(=O)NCCCCNC(=O)c3ccc(-c4c5nc(c(-c6ccc(S(=O)(=O)[O-])cc6)c6ccc([nH]6)c(-c6ccc(S(=O)(=O)[O-])cc6)c6nc(c(-c7ccc(S(=O)(=O)[O-])cc7)c7ccc4[nH]7)C=C6)C=C5)cc3)ccc2-c2ccc(F)cc2)cc1
REMARK SMILES IDX 18 1 17 2 15 3 16 4 14 6 13 7 12 8 11 9 87 10 85 11 86 12
REMARK SMILES IDX 10 13 7 14 8 15 96 16 9 17 95 18 4 19 5 20 6 21 2 22 1 23
REMARK SMILES IDX 3 24 88 25 89 26 94 27 90 28 93 29 91 30 92 31 19 32 20 33
REMARK SMILES IDX 21 34 22 35 23 36 24 38 25 39 26 40 84 41 27 42 83 43 28 44
REMARK SMILES IDX 29 45 30 46 77 47 31 48 82 49 76 50 78 51 32 52 81 53 75 54
REMARK SMILES IDX 74 55 33 57 63 58 44 59 62 60 45 61 48 62 61 63 79 64 46 65
REMARK SMILES IDX 47 66 60 68 80 69 49 70 34 71 35 72 43 73 36 74 42 75 37 76
REMARK SMILES IDX 38 77 39 78 40 79 41 80 64 81 65 82 73 83 66 84 72 85 67 86
REMARK SMILES IDX 68 87 69 88 70 89 71 90 50 91 51 92 59 93 52 94 58 95 53 96
REMARK SMILES IDX 54 97 55 98 56 99 57 100
REMARK H PARENT 17 5 22 37 78 56 48 67
REMARK Flexibility Score: inf
ROOT
ATOM      1  C   UNL A   1      45.749  27.421  25.976  1.00  0.00     0.116 C 
ENDROOT
BRANCH   1   2
ATOM      2  N   UNL A   1      46.690  27.216  24.889  1.00  0.00    -0.356 N 
ATOM      3  C   UNL A   1      47.481  26.129  24.643  1.00  0.00     0.220 C 
ATOM      4  O   UNL A   1      48.324  26.200  23.747  1.00  0.00    -0.275 OA
ATOM      5  H   UNL A   1      46.769  27.957  24.245  1.00  0.00     0.163 HD
BRANCH   3   6
ATOM      6  C   UNL A   1      47.335  24.860  25.471  1.00  0.00     0.106 C 
BRANCH   6   7
ATOM      7  C   UNL A   1      47.949  24.920  26.887  1.00  0.00     0.064 C 
BRANCH   7   8
ATOM      8  C   UNL A   1      46.925  24.858  28.010  1.00  0.00     0.024 A 
ATOM      9  N   UNL A   1      46.954  25.469  29.295  1.00  0.00    -0.314 N 
ATOM     10  C   UNL A   1      45.752  25.089  29.947  1.00  0.00     0.053 A 
ATOM     11  C   UNL A   1      45.775  24.091  27.921  1.00  0.00     0.024 A 
ATOM     12  C   UNL A   1      45.061  24.224  29.112  1.00  0.00     0.029 A 
BRANCH   9  13
ATOM     13  C   UNL A   1      47.948  26.395  29.814  1.00  0.00     0.046 A 
ATOM     14  C   UNL A   1      49.717  28.280  30.980  1.00  0.00     0.082 A 
ATOM     15  C   UNL A   1      49.928  26.916  31.173  1.00  0.00     0.024 A 
ATOM     16  C   UNL A   1      48.655  28.707  30.198  1.00  0.00     0.024 A 
ATOM     17  C   UNL A   1      49.047  25.979  30.587  1.00  0.00     0.028 A 
ATOM     18  C   UNL A   1      47.798  27.772  29.625  1.00  0.00     0.028 A 
BRANCH  14  19
ATOM     19  S   UNL A   1      50.748  29.558  31.643  1.00  0.00     0.242 S 
ATOM     20  O   UNL A   1      50.767  30.638  30.689  1.00  0.00    -0.207 OA
ATOM     21  O   UNL A   1      51.976  28.895  32.056  1.00  0.00    -0.207 OA
BRANCH  19  22
ATOM     22  N   UNL A   1      49.974  30.149  33.052  1.00  0.00    -0.204 NA
ATOM     23  C   UNL A   1      49.978  29.120  34.129  1.00  0.00     0.124 C 
ATOM     24  C   UNL A   1      50.523  31.428  33.571  1.00  0.00     0.124 C 
ENDBRANCH  19  22
ENDBRANCH  14  19
ENDBRANCH   9  13
BRANCH  10  25
ATOM     25  C   UNL A   1      45.137  25.670  31.156  1.00  0.00    -0.001 A 
ATOM     26  C   UNL A   1      43.994  26.474  31.082  1.00  0.00     0.013 A 
ATOM     27  C   UNL A   1      45.796  25.571  32.385  1.00  0.00     0.013 A 
ATOM     28  C   UNL A   1      43.532  27.153  32.218  1.00  0.00     0.040 A 
ATOM     29  C   UNL A   1      45.359  26.261  33.515  1.00  0.00     0.040 A 
ATOM     30  C   UNL A   1      44.225  27.048  33.420  1.00  0.00     0.123 A 
ATOM     31  F   UNL A   1      43.798  27.722  34.495  1.00  0.00    -0.207 F 
ENDBRANCH  10  25
ENDBRANCH   7   8
ENDBRANCH   6   7
ENDBRANCH   3   6
ENDBRANCH   1   2
BRANCH   1  32
ATOM     32  C   UNL A   1      44.326  27.243  25.472  1.00  0.00     0.023 C 
BRANCH  32  33
ATOM     33  C   UNL A   1      43.580  26.045  26.053  1.00  0.00     0.023 C 
BRANCH  33  34
ATOM     34  C   UNL A   1      42.468  25.562  25.137  1.00  0.00     0.116 C 
BRANCH  34  35
ATOM     35  N   UNL A   1      41.667  24.452  25.667  1.00  0.00    -0.352 N 
ATOM     36  C   UNL A   1      40.792  24.468  26.729  1.00  0.00     0.251 C 
ATOM     37  H   UNL A   1      41.767  23.588  25.204  1.00  0.00     0.163 HD
ATOM     38  O   UNL A   1      40.274  23.441  27.151  1.00  0.00    -0.269 OA
BRANCH  36  39
ATOM     39  C   UNL A   1      40.554  25.760  27.383  1.00  0.00     0.039 A 
ATOM     40  C   UNL A   1      40.862  25.906  28.737  1.00  0.00     0.014 A 
ATOM     41  C   UNL A   1      40.199  26.849  26.588  1.00  0.00     0.014 A 
ATOM     42  C   UNL A   1      40.936  27.186  29.268  1.00  0.00     0.010 A 
ATOM     43  C   UNL A   1      40.388  28.120  27.079  1.00  0.00     0.010 A 
ATOM     44  C   UNL A   1      40.755  28.289  28.420  1.00  0.00    -0.014 A 
BRANCH  44  45
ATOM     45  C   UNL A   1      40.966  29.664  28.911  1.00  0.00     0.031 A 
ATOM     46  C   UNL A   1      39.681  30.407  29.268  1.00  0.00     0.074 A 
ATOM     47  C   UNL A   1      42.274  30.033  29.021  1.00  0.00     0.049 A 
ATOM     48  N   UNL A   1      39.459  31.684  29.320  1.00  0.00    -0.248 NA
ATOM     49  C   UNL A   1      38.440  29.630  29.530  1.00  0.00     0.031 C 
ATOM     50  C   UNL A   1      43.409  29.175  28.611  1.00  0.00     0.029 A 
ATOM     51  N   UNL A   1      42.924  31.144  29.504  1.00  0.00    -0.354 N 
ATOM     52  C   UNL A   1      38.121  31.874  29.728  1.00  0.00     0.074 A 
ATOM     53  C   UNL A   1      37.519  30.572  29.757  1.00  0.00     0.031 C 
ATOM     54  C   UNL A   1      44.581  29.788  28.842  1.00  0.00     0.029 A 
ATOM     55  C   UNL A   1      44.333  31.101  29.394  1.00  0.00     0.049 A 
ATOM     56  H   UNL A   1      42.446  31.910  29.896  1.00  0.00     0.167 HD
ATOM     57  C   UNL A   1      37.615  33.083  30.112  1.00  0.00     0.031 A 
ATOM     58  C   UNL A   1      45.252  32.071  29.662  1.00  0.00     0.031 A 
ATOM     59  C   UNL A   1      38.618  34.093  30.030  1.00  0.00     0.049 A 
ATOM     60  C   UNL A   1      44.503  33.232  30.174  1.00  0.00     0.074 A 
ATOM     61  C   UNL A   1      39.200  34.769  28.990  1.00  0.00     0.029 A 
ATOM     62  N   UNL A   1      39.369  34.301  31.163  1.00  0.00    -0.354 N 
ATOM     63  N   UNL A   1      43.943  33.315  31.342  1.00  0.00    -0.248 NA
ATOM     64  C   UNL A   1      44.254  34.360  29.266  1.00  0.00     0.031 C 
ATOM     65  C   UNL A   1      40.527  34.994  29.424  1.00  0.00     0.029 A 
ATOM     66  C   UNL A   1      40.655  34.550  30.745  1.00  0.00     0.049 A 
ATOM     67  H   UNL A   1      39.047  34.277  32.093  1.00  0.00     0.167 HD
ATOM     68  C   UNL A   1      43.001  34.302  31.163  1.00  0.00     0.074 A 
ATOM     69  C   UNL A   1      43.427  35.078  30.019  1.00  0.00     0.031 C 
ATOM     70  C   UNL A   1      41.733  34.122  31.609  1.00  0.00     0.031 A 
BRANCH  57  71
ATOM     71  C   UNL A   1      36.316  33.462  30.777  1.00  0.00    -0.014 A 
ATOM     72  C   UNL A   1      35.215  33.753  29.929  1.00  0.00     0.010 A 
ATOM     73  C   UNL A   1      36.202  33.828  32.126  1.00  0.00     0.010 A 
ATOM     74  C   UNL A   1      34.107  34.478  30.372  1.00  0.00     0.020 A 
ATOM     75  C   UNL A   1      35.071  34.528  32.590  1.00  0.00     0.020 A 
ATOM     76  C   UNL A   1      34.058  34.891  31.698  1.00  0.00     0.054 A 
BRANCH  76  77
ATOM     77  S   UNL A   1      32.688  35.965  32.211  1.00  0.00     0.124 S 
ATOM     78  O   UNL A   1      31.703  35.001  32.692  1.00  0.00    -0.237 OA
ATOM     79  O   UNL A   1      33.305  36.796  33.244  1.00  0.00    -0.237 OA
ATOM     80  O   UNL A   1      32.331  36.675  30.985  1.00  0.00    -0.744 OA
ENDBRANCH  76  77
ENDBRANCH  57  71
BRANCH  58  81
ATOM     81  C   UNL A   1      46.715  32.251  29.358  1.00  0.00    -0.014 A 
ATOM     82  C   UNL A   1      47.376  31.790  28.211  1.00  0.00     0.010 A 
ATOM     83  C   UNL A   1      47.489  33.046  30.239  1.00  0.00     0.010 A 
ATOM     84  C   UNL A   1      48.666  32.243  27.876  1.00  0.00     0.020 A 
ATOM     85  C   UNL A   1      48.757  33.530  29.907  1.00  0.00     0.020 A 
ATOM     86  C   UNL A   1      49.328  33.150  28.704  1.00  0.00     0.054 A 
BRANCH  86  87
ATOM     87  S   UNL A   1      50.862  33.945  28.162  1.00  0.00     0.124 S 
ATOM     88  O   UNL A   1      50.750  35.274  28.755  1.00  0.00    -0.237 OA
ATOM     89  O   UNL A   1      51.896  33.084  28.734  1.00  0.00    -0.237 OA
ATOM     90  O   UNL A   1      50.767  33.897  26.704  1.00  0.00    -0.744 OA
ENDBRANCH  86  87
ENDBRANCH  58  81
BRANCH  70  91
ATOM     91  C   UNL A   1      41.586  33.112  32.736  1.00  0.00    -0.014 A 
ATOM     92  C   UNL A   1      41.248  31.780  32.443  1.00  0.00     0.010 A 
ATOM     93  C   UNL A   1      41.698  33.471  34.095  1.00  0.00     0.010 A 
ATOM     94  C   UNL A   1      41.022  30.843  33.463  1.00  0.00     0.020 A 
ATOM     95  C   UNL A   1      41.483  32.541  35.124  1.00  0.00     0.020 A 
ATOM     96  C   UNL A   1      41.141  31.229  34.800  1.00  0.00     0.054 A 
BRANCH  96  97
ATOM     97  S   UNL A   1      40.820  29.999  36.098  1.00  0.00     0.124 S 
ATOM     98  O   UNL A   1      41.762  30.384  37.147  1.00  0.00    -0.237 OA
ATOM     99  O   UNL A   1      39.412  30.229  36.408  1.00  0.00    -0.237 OA
ATOM    100  O   UNL A   1      41.113  28.721  35.451  1.00  0.00    -0.744 OA
ENDBRANCH  96  97
ENDBRANCH  70  91
ENDBRANCH  44  45
ENDBRANCH  36  39
ENDBRANCH  34  35
ENDBRANCH  33  34
ENDBRANCH  32  33
ENDBRANCH   1  32
TORSDOF 20
ENDMDL
