MODEL 1
REMARK VINA RESULT:     -10.7      0.000      0.000
REMARK SMILES O=C(Cc1ccccc1C(=O)NCCCCNC(=O)c1ccc(-c2c3nc(c(-c4ccc(S(=O)(=O)[O-])cc4)c4ccc([nH]4)c(-c4ccc(S(=O)(=O)[O-])cc4)c4nc(c(-c5ccc(S(=O)(=O)[O-])cc5)c5ccc2[nH]5)C=C4)C=C3)cc1)Nc1ccc(S(=O)(=O)N2CCCC2)cc1
REMARK SMILES IDX 13 1 12 2 10 3 11 4 9 6 4 7 5 8 6 9 8 10 7 11 3 12 2 13 1 14
REMARK SMILES IDX 80 15 81 17 82 18 94 19 83 20 93 21 84 22 85 23 86 24 87 25
REMARK SMILES IDX 88 26 89 27 92 28 90 29 91 30 14 31 15 32 16 33 17 34 18 35
REMARK SMILES IDX 19 37 20 38 21 39 79 40 22 41 78 42 23 43 24 44 25 45 72 46
REMARK SMILES IDX 26 47 77 48 71 49 73 50 27 51 76 52 70 53 69 54 28 56 58 57
REMARK SMILES IDX 39 58 57 59 40 60 43 61 56 62 74 63 41 64 42 65 55 67 75 68
REMARK SMILES IDX 44 69 29 70 30 71 38 72 31 73 37 74 32 75 33 76 34 77 35 78
REMARK SMILES IDX 36 79 59 80 60 81 68 82 61 83 67 84 62 85 63 86 64 87 65 88
REMARK SMILES IDX 66 89 45 90 46 91 54 92 47 93 53 94 48 95 49 96 50 97 51 98
REMARK SMILES IDX 52 99
REMARK H PARENT 12 5 80 16 17 36 73 55 43 66
REMARK Flexibility Score: inf
ROOT
ATOM      1  C   UNL A   1      32.492  28.611  25.288  1.00  0.00     0.116 C 
ENDROOT
BRANCH   1   2
ATOM      2  N   UNL A   1      31.364  27.722  25.521  1.00  0.00    -0.352 N 
ATOM      3  C   UNL A   1      31.208  26.372  25.292  1.00  0.00     0.251 C 
ATOM      4  O   UNL A   1      30.371  25.751  25.944  1.00  0.00    -0.269 OA
ATOM      5  H   UNL A   1      30.574  28.162  25.910  1.00  0.00     0.163 HD
BRANCH   3   6
ATOM      6  C   UNL A   1      32.048  25.627  24.320  1.00  0.00     0.043 A 
ATOM      7  C   UNL A   1      33.125  24.796  24.645  1.00  0.00    -0.026 A 
ATOM      8  C   UNL A   1      33.607  23.918  23.649  1.00  0.00     0.005 A 
ATOM      9  C   UNL A   1      33.245  24.073  22.314  1.00  0.00     0.000 A 
ATOM     10  C   UNL A   1      31.769  25.855  22.959  1.00  0.00     0.014 A 
ATOM     11  C   UNL A   1      32.395  25.110  21.958  1.00  0.00     0.001 A 
BRANCH   7  12
ATOM     12  C   UNL A   1      33.954  24.829  25.910  1.00  0.00     0.136 C 
BRANCH  12  13
ATOM     13  C   UNL A   1      35.101  23.864  26.123  1.00  0.00     0.228 C 
ATOM     14  O   UNL A   1      34.877  22.788  26.683  1.00  0.00    -0.274 OA
ATOM     15  N   UNL A   1      36.315  24.158  25.530  1.00  0.00    -0.326 N 
ATOM     16  H   UNL A   1      36.345  24.852  24.832  1.00  0.00     0.169 HD
BRANCH  15  17
ATOM     17  C   UNL A   1      37.517  23.501  25.888  1.00  0.00     0.041 A 
ATOM     18  C   UNL A   1      37.807  22.231  25.396  1.00  0.00     0.027 A 
ATOM     19  C   UNL A   1      38.456  24.123  26.714  1.00  0.00     0.027 A 
ATOM     20  C   UNL A   1      38.964  21.559  25.832  1.00  0.00     0.024 A 
ATOM     21  C   UNL A   1      39.636  23.493  27.097  1.00  0.00     0.024 A 
ATOM     22  C   UNL A   1      39.873  22.189  26.698  1.00  0.00     0.082 A 
BRANCH  22  23
ATOM     23  S   UNL A   1      41.290  21.271  27.279  1.00  0.00     0.243 S 
ATOM     24  O   UNL A   1      42.066  22.201  28.068  1.00  0.00    -0.207 OA
ATOM     25  O   UNL A   1      40.760  20.050  27.856  1.00  0.00    -0.207 OA
BRANCH  23  26
ATOM     26  N   UNL A   1      42.212  20.856  25.939  1.00  0.00    -0.198 NA
ATOM     27  C   UNL A   1      42.563  19.464  25.631  1.00  0.00     0.102 C 
ATOM     28  C   UNL A   1      43.211  21.767  25.363  1.00  0.00     0.102 C 
ATOM     29  C   UNL A   1      44.076  19.492  25.499  1.00  0.00     0.018 C 
ATOM     30  C   UNL A   1      44.389  20.879  24.957  1.00  0.00     0.018 C 
ENDBRANCH  23  26
ENDBRANCH  22  23
ENDBRANCH  15  17
ENDBRANCH  12  13
ENDBRANCH   7  12
ENDBRANCH   3   6
ENDBRANCH   1   2
BRANCH   1  31
ATOM     31  C   UNL A   1      33.165  29.214  26.527  1.00  0.00     0.023 C 
BRANCH  31  32
ATOM     32  C   UNL A   1      32.851  30.666  26.889  1.00  0.00     0.023 C 
BRANCH  32  33
ATOM     33  C   UNL A   1      33.976  31.428  27.552  1.00  0.00     0.116 C 
BRANCH  33  34
ATOM     34  N   UNL A   1      33.543  32.772  27.878  1.00  0.00    -0.352 N 
ATOM     35  C   UNL A   1      33.847  33.492  29.005  1.00  0.00     0.251 C 
ATOM     36  H   UNL A   1      32.966  33.218  27.216  1.00  0.00     0.163 HD
ATOM     37  O   UNL A   1      33.091  34.382  29.383  1.00  0.00    -0.269 OA
BRANCH  35  38
ATOM     38  C   UNL A   1      35.105  33.210  29.730  1.00  0.00     0.039 A 
ATOM     39  C   UNL A   1      36.283  33.845  29.331  1.00  0.00     0.014 A 
ATOM     40  C   UNL A   1      35.130  32.263  30.761  1.00  0.00     0.014 A 
ATOM     41  C   UNL A   1      37.482  33.524  29.965  1.00  0.00     0.010 A 
ATOM     42  C   UNL A   1      36.305  32.017  31.454  1.00  0.00     0.010 A 
ATOM     43  C   UNL A   1      37.500  32.612  31.034  1.00  0.00    -0.014 A 
BRANCH  43  44
ATOM     44  C   UNL A   1      38.770  32.232  31.691  1.00  0.00     0.031 A 
ATOM     45  C   UNL A   1      39.139  32.841  33.018  1.00  0.00     0.074 A 
ATOM     46  C   UNL A   1      39.595  31.368  31.072  1.00  0.00     0.049 A 
ATOM     47  N   UNL A   1      40.197  32.625  33.754  1.00  0.00    -0.248 NA
ATOM     48  C   UNL A   1      38.215  33.841  33.582  1.00  0.00     0.031 C 
ATOM     49  C   UNL A   1      39.349  30.755  29.763  1.00  0.00     0.029 A 
ATOM     50  N   UNL A   1      40.801  30.849  31.459  1.00  0.00    -0.354 N 
ATOM     51  C   UNL A   1      40.068  33.462  34.857  1.00  0.00     0.074 A 
ATOM     52  C   UNL A   1      38.866  34.238  34.664  1.00  0.00     0.031 C 
ATOM     53  C   UNL A   1      40.356  29.918  29.473  1.00  0.00     0.029 A 
ATOM     54  C   UNL A   1      41.331  29.957  30.557  1.00  0.00     0.049 A 
ATOM     55  H   UNL A   1      41.246  31.090  32.304  1.00  0.00     0.167 HD
ATOM     56  C   UNL A   1      40.867  33.554  35.946  1.00  0.00     0.031 A 
ATOM     57  C   UNL A   1      42.472  29.245  30.606  1.00  0.00     0.031 A 
ATOM     58  C   UNL A   1      42.055  32.764  36.127  1.00  0.00     0.049 A 
ATOM     59  C   UNL A   1      43.341  29.365  31.826  1.00  0.00     0.074 A 
ATOM     60  C   UNL A   1      42.909  32.730  37.215  1.00  0.00     0.029 A 
ATOM     61  N   UNL A   1      42.560  31.871  35.192  1.00  0.00    -0.354 N 
ATOM     62  N   UNL A   1      43.158  30.101  32.899  1.00  0.00    -0.248 NA
ATOM     63  C   UNL A   1      44.557  28.544  31.853  1.00  0.00     0.031 C 
ATOM     64  C   UNL A   1      43.965  31.866  36.910  1.00  0.00     0.029 A 
ATOM     65  C   UNL A   1      43.731  31.305  35.664  1.00  0.00     0.049 A 
ATOM     66  H   UNL A   1      42.146  31.670  34.323  1.00  0.00     0.167 HD
ATOM     67  C   UNL A   1      44.226  29.812  33.740  1.00  0.00     0.074 A 
ATOM     68  C   UNL A   1      45.031  28.815  33.061  1.00  0.00     0.031 C 
ATOM     69  C   UNL A   1      44.520  30.325  34.961  1.00  0.00     0.031 A 
BRANCH  56  70
ATOM     70  C   UNL A   1      40.486  34.542  37.019  1.00  0.00    -0.014 A 
ATOM     71  C   UNL A   1      40.983  35.859  37.011  1.00  0.00     0.010 A 
ATOM     72  C   UNL A   1      39.575  34.165  38.024  1.00  0.00     0.010 A 
ATOM     73  C   UNL A   1      40.603  36.769  38.002  1.00  0.00     0.020 A 
ATOM     74  C   UNL A   1      39.167  35.081  38.999  1.00  0.00     0.020 A 
ATOM     75  C   UNL A   1      39.695  36.374  38.989  1.00  0.00     0.054 A 
BRANCH  75  76
ATOM     76  S   UNL A   1      39.185  37.590  40.235  1.00  0.00     0.124 S 
ATOM     77  O   UNL A   1      40.438  38.293  40.500  1.00  0.00    -0.237 OA
ATOM     78  O   UNL A   1      38.168  38.363  39.528  1.00  0.00    -0.237 OA
ATOM     79  O   UNL A   1      38.687  36.770  41.338  1.00  0.00    -0.744 OA
ENDBRANCH  75  76
ENDBRANCH  56  70
BRANCH  57  80
ATOM     80  C   UNL A   1      42.836  28.345  29.478  1.00  0.00    -0.014 A 
ATOM     81  C   UNL A   1      42.386  27.013  29.445  1.00  0.00     0.010 A 
ATOM     82  C   UNL A   1      43.627  28.825  28.417  1.00  0.00     0.010 A 
ATOM     83  C   UNL A   1      42.744  26.170  28.389  1.00  0.00     0.020 A 
ATOM     84  C   UNL A   1      43.958  27.995  27.342  1.00  0.00     0.020 A 
ATOM     85  C   UNL A   1      43.527  26.667  27.343  1.00  0.00     0.054 A 
BRANCH  85  86
ATOM     86  S   UNL A   1      43.947  25.563  25.966  1.00  0.00     0.124 S 
ATOM     87  O   UNL A   1      44.745  26.437  25.112  1.00  0.00    -0.237 OA
ATOM     88  O   UNL A   1      44.678  24.490  26.636  1.00  0.00    -0.237 OA
ATOM     89  O   UNL A   1      42.644  25.178  25.428  1.00  0.00    -0.744 OA
ENDBRANCH  85  86
ENDBRANCH  57  80
BRANCH  69  90
ATOM     90  C   UNL A   1      45.754  29.797  35.644  1.00  0.00    -0.014 A 
ATOM     91  C   UNL A   1      45.686  28.702  36.526  1.00  0.00     0.010 A 
ATOM     92  C   UNL A   1      47.001  30.389  35.377  1.00  0.00     0.010 A 
ATOM     93  C   UNL A   1      46.838  28.245  37.168  1.00  0.00     0.020 A 
ATOM     94  C   UNL A   1      48.161  29.910  35.989  1.00  0.00     0.020 A 
ATOM     95  C   UNL A   1      48.068  28.854  36.898  1.00  0.00     0.054 A 
BRANCH  95  96
ATOM     96  S   UNL A   1      49.550  28.231  37.734  1.00  0.00     0.124 S 
ATOM     97  O   UNL A   1      49.019  27.099  38.490  1.00  0.00    -0.237 OA
ATOM     98  O   UNL A   1      50.426  27.887  36.617  1.00  0.00    -0.237 OA
ATOM     99  O   UNL A   1      49.995  29.365  38.542  1.00  0.00    -0.744 OA
ENDBRANCH  95  96
ENDBRANCH  69  90
ENDBRANCH  43  44
ENDBRANCH  35  38
ENDBRANCH  33  34
ENDBRANCH  32  33
ENDBRANCH  31  32
ENDBRANCH   1  31
TORSDOF 19
ENDMDL
MODEL 2
REMARK VINA RESULT:     -10.5      5.923      9.472
REMARK SMILES O=C(Cc1ccccc1C(=O)NCCCCNC(=O)c1ccc(-c2c3nc(c(-c4ccc(S(=O)(=O)[O-])cc4)c4ccc([nH]4)c(-c4ccc(S(=O)(=O)[O-])cc4)c4nc(c(-c5ccc(S(=O)(=O)[O-])cc5)c5ccc2[nH]5)C=C4)C=C3)cc1)Nc1ccc(S(=O)(=O)N2CCCC2)cc1
REMARK SMILES IDX 13 1 12 2 10 3 11 4 9 6 4 7 5 8 6 9 8 10 7 11 3 12 2 13 1 14
REMARK SMILES IDX 80 15 81 17 82 18 94 19 83 20 93 21 84 22 85 23 86 24 87 25
REMARK SMILES IDX 88 26 89 27 92 28 90 29 91 30 14 31 15 32 16 33 17 34 18 35
REMARK SMILES IDX 19 37 20 38 21 39 79 40 22 41 78 42 23 43 24 44 25 45 72 46
REMARK SMILES IDX 26 47 77 48 71 49 73 50 27 51 76 52 70 53 69 54 28 56 58 57
REMARK SMILES IDX 39 58 57 59 40 60 43 61 56 62 74 63 41 64 42 65 55 67 75 68
REMARK SMILES IDX 44 69 29 70 30 71 38 72 31 73 37 74 32 75 33 76 34 77 35 78
REMARK SMILES IDX 36 79 59 80 60 81 68 82 61 83 67 84 62 85 63 86 64 87 65 88
REMARK SMILES IDX 66 89 45 90 46 91 54 92 47 93 53 94 48 95 49 96 50 97 51 98
REMARK SMILES IDX 52 99
REMARK H PARENT 12 5 80 16 17 36 73 55 43 66
REMARK Flexibility Score: inf
ROOT
ATOM      1  C   UNL A   1      36.597  34.104  33.555  1.00  0.00     0.116 C 
ENDROOT
BRANCH   1   2
ATOM      2  N   UNL A   1      35.229  33.681  33.815  1.00  0.00    -0.352 N 
ATOM      3  C   UNL A   1      34.099  33.723  33.027  1.00  0.00     0.251 C 
ATOM      4  O   UNL A   1      33.181  32.940  33.261  1.00  0.00    -0.269 OA
ATOM      5  H   UNL A   1      35.086  33.297  34.710  1.00  0.00     0.163 HD
BRANCH   3   6
ATOM      6  C   UNL A   1      33.969  34.648  31.872  1.00  0.00     0.043 A 
ATOM      7  C   UNL A   1      34.319  34.352  30.551  1.00  0.00    -0.026 A 
ATOM      8  C   UNL A   1      33.837  35.206  29.534  1.00  0.00     0.005 A 
ATOM      9  C   UNL A   1      33.299  36.455  29.834  1.00  0.00     0.000 A 
ATOM     10  C   UNL A   1      33.529  35.952  32.171  1.00  0.00     0.014 A 
ATOM     11  C   UNL A   1      33.234  36.864  31.157  1.00  0.00     0.001 A 
BRANCH   7  12
ATOM     12  C   UNL A   1      35.294  33.297  30.078  1.00  0.00     0.136 C 
BRANCH  12  13
ATOM     13  C   UNL A   1      35.051  32.517  28.804  1.00  0.00     0.228 C 
ATOM     14  O   UNL A   1      35.542  32.930  27.751  1.00  0.00    -0.274 OA
ATOM     15  N   UNL A   1      34.430  31.285  28.906  1.00  0.00    -0.326 N 
ATOM     16  H   UNL A   1      34.358  30.864  29.793  1.00  0.00     0.169 HD
BRANCH  15  17
ATOM     17  C   UNL A   1      33.895  30.607  27.784  1.00  0.00     0.041 A 
ATOM     18  C   UNL A   1      34.542  29.496  27.250  1.00  0.00     0.027 A 
ATOM     19  C   UNL A   1      32.689  31.013  27.208  1.00  0.00     0.027 A 
ATOM     20  C   UNL A   1      34.042  28.889  26.083  1.00  0.00     0.024 A 
ATOM     21  C   UNL A   1      32.150  30.377  26.094  1.00  0.00     0.024 A 
ATOM     22  C   UNL A   1      32.849  29.342  25.495  1.00  0.00     0.082 A 
BRANCH  22  23
ATOM     23  S   UNL A   1      32.292  28.586  23.978  1.00  0.00     0.243 S 
ATOM     24  O   UNL A   1      31.141  29.353  23.554  1.00  0.00    -0.207 OA
ATOM     25  O   UNL A   1      33.470  28.468  23.140  1.00  0.00    -0.207 OA
BRANCH  23  26
ATOM     26  N   UNL A   1      31.757  27.038  24.347  1.00  0.00    -0.198 NA
ATOM     27  C   UNL A   1      31.271  26.112  23.317  1.00  0.00     0.102 C 
ATOM     28  C   UNL A   1      31.159  26.705  25.646  1.00  0.00     0.102 C 
ATOM     29  C   UNL A   1      29.899  25.697  23.819  1.00  0.00     0.018 C 
ATOM     30  C   UNL A   1      30.019  25.733  25.336  1.00  0.00     0.018 C 
ENDBRANCH  23  26
ENDBRANCH  22  23
ENDBRANCH  15  17
ENDBRANCH  12  13
ENDBRANCH   7  12
ENDBRANCH   3   6
ENDBRANCH   1   2
BRANCH   1  31
ATOM     31  C   UNL A   1      37.689  33.504  34.450  1.00  0.00     0.023 C 
BRANCH  31  32
ATOM     32  C   UNL A   1      37.289  32.427  35.460  1.00  0.00     0.023 C 
BRANCH  32  33
ATOM     33  C   UNL A   1      38.246  31.263  35.581  1.00  0.00     0.116 C 
BRANCH  33  34
ATOM     34  N   UNL A   1      37.779  30.151  34.778  1.00  0.00    -0.352 N 
ATOM     35  C   UNL A   1      37.931  29.980  33.426  1.00  0.00     0.251 C 
ATOM     36  H   UNL A   1      37.300  29.437  35.258  1.00  0.00     0.163 HD
ATOM     37  O   UNL A   1      37.135  29.282  32.805  1.00  0.00    -0.269 OA
BRANCH  35  38
ATOM     38  C   UNL A   1      39.078  30.614  32.738  1.00  0.00     0.039 A 
ATOM     39  C   UNL A   1      38.857  31.340  31.566  1.00  0.00     0.014 A 
ATOM     40  C   UNL A   1      40.380  30.430  33.218  1.00  0.00     0.014 A 
ATOM     41  C   UNL A   1      39.944  31.874  30.877  1.00  0.00     0.010 A 
ATOM     42  C   UNL A   1      41.450  31.044  32.584  1.00  0.00     0.010 A 
ATOM     43  C   UNL A   1      41.247  31.734  31.385  1.00  0.00    -0.014 A 
BRANCH  43  44
ATOM     44  C   UNL A   1      42.415  32.262  30.645  1.00  0.00     0.031 A 
ATOM     45  C   UNL A   1      42.774  33.720  30.754  1.00  0.00     0.074 A 
ATOM     46  C   UNL A   1      43.121  31.431  29.857  1.00  0.00     0.049 A 
ATOM     47  N   UNL A   1      43.765  34.365  30.196  1.00  0.00    -0.248 NA
ATOM     48  C   UNL A   1      41.895  34.573  31.574  1.00  0.00     0.031 C 
ATOM     49  C   UNL A   1      42.828  30.011  29.649  1.00  0.00     0.029 A 
ATOM     50  N   UNL A   1      44.232  31.656  29.089  1.00  0.00    -0.354 N 
ATOM     51  C   UNL A   1      43.624  35.691  30.591  1.00  0.00     0.074 A 
ATOM     52  C   UNL A   1      42.417  35.774  31.380  1.00  0.00     0.031 C 
ATOM     53  C   UNL A   1      43.756  29.483  28.836  1.00  0.00     0.029 A 
ATOM     54  C   UNL A   1      44.690  30.532  28.442  1.00  0.00     0.049 A 
ATOM     55  H   UNL A   1      44.663  32.537  29.008  1.00  0.00     0.167 HD
ATOM     56  C   UNL A   1      44.443  36.739  30.341  1.00  0.00     0.031 A 
ATOM     57  C   UNL A   1      45.751  30.367  27.630  1.00  0.00     0.031 A 
ATOM     58  C   UNL A   1      45.647  36.636  29.563  1.00  0.00     0.049 A 
ATOM     59  C   UNL A   1      46.644  31.547  27.369  1.00  0.00     0.074 A 
ATOM     60  C   UNL A   1      46.585  37.617  29.293  1.00  0.00     0.029 A 
ATOM     61  N   UNL A   1      46.079  35.481  28.924  1.00  0.00    -0.354 N 
ATOM     62  N   UNL A   1      46.540  32.775  27.821  1.00  0.00    -0.248 NA
ATOM     63  C   UNL A   1      47.808  31.314  26.507  1.00  0.00     0.031 C 
ATOM     64  C   UNL A   1      47.548  37.072  28.437  1.00  0.00     0.029 A 
ATOM     65  C   UNL A   1      47.252  35.734  28.234  1.00  0.00     0.049 A 
ATOM     66  H   UNL A   1      45.619  34.612  28.958  1.00  0.00     0.167 HD
ATOM     67  C   UNL A   1      47.641  33.457  27.316  1.00  0.00     0.074 A 
ATOM     68  C   UNL A   1      48.409  32.494  26.550  1.00  0.00     0.031 C 
ATOM     69  C   UNL A   1      47.987  34.760  27.467  1.00  0.00     0.031 A 
BRANCH  56  70
ATOM     70  C   UNL A   1      44.062  38.083  30.909  1.00  0.00    -0.014 A 
ATOM     71  C   UNL A   1      43.713  39.159  30.072  1.00  0.00     0.010 A 
ATOM     72  C   UNL A   1      44.002  38.260  32.304  1.00  0.00     0.010 A 
ATOM     73  C   UNL A   1      43.342  40.392  30.615  1.00  0.00     0.020 A 
ATOM     74  C   UNL A   1      43.602  39.482  32.853  1.00  0.00     0.020 A 
ATOM     75  C   UNL A   1      43.287  40.545  32.004  1.00  0.00     0.054 A 
BRANCH  75  76
ATOM     76  S   UNL A   1      42.759  42.144  32.680  1.00  0.00     0.124 S 
ATOM     77  O   UNL A   1      44.039  42.795  32.948  1.00  0.00    -0.237 OA
ATOM     78  O   UNL A   1      41.982  42.713  31.582  1.00  0.00    -0.237 OA
ATOM     79  O   UNL A   1      41.985  41.781  33.866  1.00  0.00    -0.744 OA
ENDBRANCH  75  76
ENDBRANCH  56  70
BRANCH  57  80
ATOM     80  C   UNL A   1      46.030  29.033  27.033  1.00  0.00    -0.014 A 
ATOM     81  C   UNL A   1      45.530  28.693  25.763  1.00  0.00     0.010 A 
ATOM     82  C   UNL A   1      46.815  28.096  27.731  1.00  0.00     0.010 A 
ATOM     83  C   UNL A   1      45.784  27.433  25.216  1.00  0.00     0.020 A 
ATOM     84  C   UNL A   1      47.100  26.847  27.171  1.00  0.00     0.020 A 
ATOM     85  C   UNL A   1      46.569  26.517  25.923  1.00  0.00     0.054 A 
BRANCH  85  86
ATOM     86  S   UNL A   1      46.915  24.901  25.175  1.00  0.00     0.124 S 
ATOM     87  O   UNL A   1      47.381  24.130  26.323  1.00  0.00    -0.237 OA
ATOM     88  O   UNL A   1      45.611  24.518  24.639  1.00  0.00    -0.237 OA
ATOM     89  O   UNL A   1      47.930  25.203  24.168  1.00  0.00    -0.744 OA
ENDBRANCH  85  86
ENDBRANCH  57  80
BRANCH  69  90
ATOM     90  C   UNL A   1      49.264  35.208  26.805  1.00  0.00    -0.014 A 
ATOM     91  C   UNL A   1      49.276  35.647  25.469  1.00  0.00     0.010 A 
ATOM     92  C   UNL A   1      50.461  35.214  27.542  1.00  0.00     0.010 A 
ATOM     93  C   UNL A   1      50.475  36.033  24.867  1.00  0.00     0.020 A 
ATOM     94  C   UNL A   1      51.655  35.636  26.955  1.00  0.00     0.020 A 
ATOM     95  C   UNL A   1      51.658  36.023  25.613  1.00  0.00     0.054 A 
BRANCH  95  96
ATOM     96  S   UNL A   1      53.198  36.544  24.812  1.00  0.00     0.124 S 
ATOM     97  O   UNL A   1      52.805  36.595  23.406  1.00  0.00    -0.237 OA
ATOM     98  O   UNL A   1      53.462  37.836  25.439  1.00  0.00    -0.237 OA
ATOM     99  O   UNL A   1      54.143  35.484  25.156  1.00  0.00    -0.744 OA
ENDBRANCH  95  96
ENDBRANCH  69  90
ENDBRANCH  43  44
ENDBRANCH  35  38
ENDBRANCH  33  34
ENDBRANCH  32  33
ENDBRANCH  31  32
ENDBRANCH   1  31
TORSDOF 19
ENDMDL
MODEL 3
REMARK VINA RESULT:     -10.3      5.126     10.426
REMARK SMILES O=C(Cc1ccccc1C(=O)NCCCCNC(=O)c1ccc(-c2c3nc(c(-c4ccc(S(=O)(=O)[O-])cc4)c4ccc([nH]4)c(-c4ccc(S(=O)(=O)[O-])cc4)c4nc(c(-c5ccc(S(=O)(=O)[O-])cc5)c5ccc2[nH]5)C=C4)C=C3)cc1)Nc1ccc(S(=O)(=O)N2CCCC2)cc1
REMARK SMILES IDX 13 1 12 2 10 3 11 4 9 6 4 7 5 8 6 9 8 10 7 11 3 12 2 13 1 14
REMARK SMILES IDX 80 15 81 17 82 18 94 19 83 20 93 21 84 22 85 23 86 24 87 25
REMARK SMILES IDX 88 26 89 27 92 28 90 29 91 30 14 31 15 32 16 33 17 34 18 35
REMARK SMILES IDX 19 37 20 38 21 39 79 40 22 41 78 42 23 43 24 44 25 45 72 46
REMARK SMILES IDX 26 47 77 48 71 49 73 50 27 51 76 52 70 53 69 54 28 56 58 57
REMARK SMILES IDX 39 58 57 59 40 60 43 61 56 62 74 63 41 64 42 65 55 67 75 68
REMARK SMILES IDX 44 69 29 70 30 71 38 72 31 73 37 74 32 75 33 76 34 77 35 78
REMARK SMILES IDX 36 79 59 80 60 81 68 82 61 83 67 84 62 85 63 86 64 87 65 88
REMARK SMILES IDX 66 89 45 90 46 91 54 92 47 93 53 94 48 95 49 96 50 97 51 98
REMARK SMILES IDX 52 99
REMARK H PARENT 12 5 80 16 17 36 73 55 43 66
REMARK Flexibility Score: inf
ROOT
ATOM      1  C   UNL A   1      34.507  34.415  30.865  1.00  0.00     0.116 C 
ENDROOT
BRANCH   1   2
ATOM      2  N   UNL A   1      34.758  34.895  29.514  1.00  0.00    -0.352 N 
ATOM      3  C   UNL A   1      35.117  34.225  28.364  1.00  0.00     0.251 C 
ATOM      4  O   UNL A   1      34.856  34.731  27.275  1.00  0.00    -0.269 OA
ATOM      5  H   UNL A   1      34.653  35.867  29.402  1.00  0.00     0.163 HD
BRANCH   3   6
ATOM      6  C   UNL A   1      35.766  32.889  28.391  1.00  0.00     0.043 A 
ATOM      7  C   UNL A   1      35.207  31.704  27.902  1.00  0.00    -0.026 A 
ATOM      8  C   UNL A   1      36.066  30.600  27.707  1.00  0.00     0.005 A 
ATOM      9  C   UNL A   1      37.346  30.575  28.256  1.00  0.00     0.000 A 
ATOM     10  C   UNL A   1      37.014  32.821  29.040  1.00  0.00     0.014 A 
ATOM     11  C   UNL A   1      37.782  31.656  29.007  1.00  0.00     0.001 A 
BRANCH   7  12
ATOM     12  C   UNL A   1      33.739  31.404  27.694  1.00  0.00     0.136 C 
BRANCH  12  13
ATOM     13  C   UNL A   1      33.286  30.122  27.030  1.00  0.00     0.228 C 
ATOM     14  O   UNL A   1      32.235  29.596  27.406  1.00  0.00    -0.274 OA
ATOM     15  N   UNL A   1      33.981  29.687  25.917  1.00  0.00    -0.326 N 
ATOM     16  H   UNL A   1      34.597  30.311  25.470  1.00  0.00     0.169 HD
BRANCH  15  17
ATOM     17  C   UNL A   1      33.841  28.378  25.394  1.00  0.00     0.041 A 
ATOM     18  C   UNL A   1      33.780  27.276  26.243  1.00  0.00     0.027 A 
ATOM     19  C   UNL A   1      33.727  28.163  24.019  1.00  0.00     0.027 A 
ATOM     20  C   UNL A   1      33.729  25.978  25.703  1.00  0.00     0.024 A 
ATOM     21  C   UNL A   1      33.607  26.887  23.477  1.00  0.00     0.024 A 
ATOM     22  C   UNL A   1      33.658  25.784  24.313  1.00  0.00     0.082 A 
BRANCH  22  23
ATOM     23  S   UNL A   1      33.665  24.118  23.672  1.00  0.00     0.243 S 
ATOM     24  O   UNL A   1      32.371  23.563  24.001  1.00  0.00    -0.207 OA
ATOM     25  O   UNL A   1      34.112  24.226  22.296  1.00  0.00    -0.207 OA
BRANCH  23  26
ATOM     26  N   UNL A   1      34.818  23.249  24.527  1.00  0.00    -0.198 NA
ATOM     27  C   UNL A   1      36.250  23.565  24.455  1.00  0.00     0.102 C 
ATOM     28  C   UNL A   1      34.632  21.833  24.876  1.00  0.00     0.102 C 
ATOM     29  C   UNL A   1      36.895  22.245  24.069  1.00  0.00     0.018 C 
ATOM     30  C   UNL A   1      36.006  21.184  24.700  1.00  0.00     0.018 C 
ENDBRANCH  23  26
ENDBRANCH  22  23
ENDBRANCH  15  17
ENDBRANCH  12  13
ENDBRANCH   7  12
ENDBRANCH   3   6
ENDBRANCH   1   2
BRANCH   1  31
ATOM     31  C   UNL A   1      33.896  35.418  31.852  1.00  0.00     0.023 C 
BRANCH  31  32
ATOM     32  C   UNL A   1      34.331  35.352  33.317  1.00  0.00     0.023 C 
BRANCH  32  33
ATOM     33  C   UNL A   1      34.928  34.034  33.757  1.00  0.00     0.116 C 
BRANCH  33  34
ATOM     34  N   UNL A   1      35.368  34.123  35.135  1.00  0.00    -0.352 N 
ATOM     35  C   UNL A   1      36.562  33.694  35.655  1.00  0.00     0.251 C 
ATOM     36  H   UNL A   1      34.739  34.539  35.768  1.00  0.00     0.163 HD
ATOM     37  O   UNL A   1      36.639  33.400  36.844  1.00  0.00    -0.269 OA
BRANCH  35  38
ATOM     38  C   UNL A   1      37.753  33.625  34.781  1.00  0.00     0.039 A 
ATOM     39  C   UNL A   1      38.815  32.790  35.135  1.00  0.00     0.014 A 
ATOM     40  C   UNL A   1      37.845  34.439  33.645  1.00  0.00     0.014 A 
ATOM     41  C   UNL A   1      39.968  32.781  34.351  1.00  0.00     0.010 A 
ATOM     42  C   UNL A   1      38.952  34.355  32.815  1.00  0.00     0.010 A 
ATOM     43  C   UNL A   1      40.042  33.559  33.183  1.00  0.00    -0.014 A 
BRANCH  43  44
ATOM     44  C   UNL A   1      41.272  33.588  32.363  1.00  0.00     0.031 A 
ATOM     45  C   UNL A   1      41.525  32.501  31.352  1.00  0.00     0.074 A 
ATOM     46  C   UNL A   1      42.167  34.574  32.558  1.00  0.00     0.049 A 
ATOM     47  N   UNL A   1      42.534  32.361  30.532  1.00  0.00    -0.248 NA
ATOM     48  C   UNL A   1      40.531  31.416  31.264  1.00  0.00     0.031 C 
ATOM     49  C   UNL A   1      42.036  35.650  33.545  1.00  0.00     0.029 A 
ATOM     50  N   UNL A   1      43.358  34.838  31.937  1.00  0.00    -0.354 N 
ATOM     51  C   UNL A   1      42.299  31.178  29.841  1.00  0.00     0.074 A 
ATOM     52  C   UNL A   1      41.090  30.602  30.382  1.00  0.00     0.031 C 
ATOM     53  C   UNL A   1      43.087  36.477  33.438  1.00  0.00     0.029 A 
ATOM     54  C   UNL A   1      43.979  35.974  32.400  1.00  0.00     0.049 A 
ATOM     55  H   UNL A   1      43.733  34.269  31.226  1.00  0.00     0.167 HD
ATOM     56  C   UNL A   1      43.014  30.634  28.829  1.00  0.00     0.031 A 
ATOM     57  C   UNL A   1      45.136  36.548  32.020  1.00  0.00     0.031 A 
ATOM     58  C   UNL A   1      44.210  31.227  28.295  1.00  0.00     0.049 A 
ATOM     59  C   UNL A   1      45.910  35.925  30.893  1.00  0.00     0.074 A 
ATOM     60  C   UNL A   1      44.984  30.797  27.232  1.00  0.00     0.029 A 
ATOM     61  N   UNL A   1      44.809  32.378  28.788  1.00  0.00    -0.354 N 
ATOM     62  N   UNL A   1      45.627  34.849  30.194  1.00  0.00    -0.248 NA
ATOM     63  C   UNL A   1      47.147  36.603  30.487  1.00  0.00     0.031 C 
ATOM     64  C   UNL A   1      46.087  31.651  27.125  1.00  0.00     0.029 A 
ATOM     65  C   UNL A   1      45.961  32.655  28.072  1.00  0.00     0.049 A 
ATOM     66  H   UNL A   1      44.465  32.917  29.536  1.00  0.00     0.167 HD
ATOM     67  C   UNL A   1      46.640  34.736  29.250  1.00  0.00     0.074 A 
ATOM     68  C   UNL A   1      47.523  35.868  29.451  1.00  0.00     0.031 C 
ATOM     69  C   UNL A   1      46.829  33.782  28.304  1.00  0.00     0.031 A 
BRANCH  56  70
ATOM     70  C   UNL A   1      42.525  29.336  28.238  1.00  0.00    -0.014 A 
ATOM     71  C   UNL A   1      42.876  28.096  28.803  1.00  0.00     0.010 A 
ATOM     72  C   UNL A   1      41.658  29.356  27.129  1.00  0.00     0.010 A 
ATOM     73  C   UNL A   1      42.398  26.903  28.255  1.00  0.00     0.020 A 
ATOM     74  C   UNL A   1      41.151  28.167  26.596  1.00  0.00     0.020 A 
ATOM     75  C   UNL A   1      41.535  26.947  27.155  1.00  0.00     0.054 A 
BRANCH  75  76
ATOM     76  S   UNL A   1      40.894  25.384  26.494  1.00  0.00     0.124 S 
ATOM     77  O   UNL A   1      41.796  24.407  27.099  1.00  0.00    -0.237 OA
ATOM     78  O   UNL A   1      39.521  25.366  26.993  1.00  0.00    -0.237 OA
ATOM     79  O   UNL A   1      41.025  25.539  25.046  1.00  0.00    -0.744 OA
ENDBRANCH  75  76
ENDBRANCH  56  70
BRANCH  57  80
ATOM     80  C   UNL A   1      45.609  37.786  32.697  1.00  0.00    -0.014 A 
ATOM     81  C   UNL A   1      46.461  37.716  33.813  1.00  0.00     0.010 A 
ATOM     82  C   UNL A   1      45.217  39.050  32.215  1.00  0.00     0.010 A 
ATOM     83  C   UNL A   1      46.889  38.882  34.452  1.00  0.00     0.020 A 
ATOM     84  C   UNL A   1      45.671  40.219  32.831  1.00  0.00     0.020 A 
ATOM     85  C   UNL A   1      46.492  40.128  33.956  1.00  0.00     0.054 A 
BRANCH  85  86
ATOM     86  S   UNL A   1      47.091  41.629  34.781  1.00  0.00     0.124 S 
ATOM     87  O   UNL A   1      47.639  42.390  33.663  1.00  0.00    -0.237 OA
ATOM     88  O   UNL A   1      45.870  42.166  35.378  1.00  0.00    -0.237 OA
ATOM     89  O   UNL A   1      48.073  41.123  35.738  1.00  0.00    -0.744 OA
ENDBRANCH  85  86
ENDBRANCH  57  80
BRANCH  69  90
ATOM     90  C   UNL A   1      48.026  33.941  27.404  1.00  0.00    -0.014 A 
ATOM     91  C   UNL A   1      47.954  34.700  26.222  1.00  0.00     0.010 A 
ATOM     92  C   UNL A   1      49.247  33.342  27.764  1.00  0.00     0.010 A 
ATOM     93  C   UNL A   1      49.069  34.812  25.389  1.00  0.00     0.020 A 
ATOM     94  C   UNL A   1      50.374  33.484  26.952  1.00  0.00     0.020 A 
ATOM     95  C   UNL A   1      50.272  34.201  25.759  1.00  0.00     0.054 A 
BRANCH  95  96
ATOM     96  S   UNL A   1      51.708  34.376  24.667  1.00  0.00     0.124 S 
ATOM     97  O   UNL A   1      52.814  34.388  25.621  1.00  0.00    -0.237 OA
ATOM     98  O   UNL A   1      51.616  33.185  23.826  1.00  0.00    -0.237 OA
ATOM     99  O   UNL A   1      51.467  35.640  23.977  1.00  0.00    -0.744 OA
ENDBRANCH  95  96
ENDBRANCH  69  90
ENDBRANCH  43  44
ENDBRANCH  35  38
ENDBRANCH  33  34
ENDBRANCH  32  33
ENDBRANCH  31  32
ENDBRANCH   1  31
TORSDOF 19
ENDMDL
