MODEL 1
REMARK VINA RESULT:      -9.6      0.000      0.000
REMARK SMILES O=C(CN1C(=O)COc2ccccc21)Nc1ccc(C(=O)NCCCCNC(=O)c2ccc(-c3c4nc(c(-c5ccc(S(=O)(=O)[O-])cc5)c5ccc([nH]5)c(-c5ccc(S(=O)(=O)[O-])cc5)c5nc(c(-c6ccc(S(=O)(=O)[O-])cc6)c6ccc3[nH]6)C=C5)C=C4)cc2)cc1
REMARK SMILES IDX 24 1 23 2 22 3 20 4 21 5 19 7 16 8 17 9 91 10 18 11 90 12
REMARK SMILES IDX 15 13 1 14 2 15 3 17 4 18 5 19 14 20 6 21 7 22 9 23 13 24
REMARK SMILES IDX 8 25 10 26 12 27 11 28 25 29 26 30 27 31 28 32 29 34 30 35
REMARK SMILES IDX 31 36 89 37 32 38 88 39 33 40 34 41 35 42 82 43 36 44 87 45
REMARK SMILES IDX 81 46 83 47 37 48 86 49 80 50 79 51 38 53 68 54 49 55 67 56
REMARK SMILES IDX 50 57 53 58 66 59 84 60 51 61 52 62 65 64 85 65 54 66 39 67
REMARK SMILES IDX 40 68 48 69 41 70 47 71 42 72 43 73 44 74 45 75 46 76 69 77
REMARK SMILES IDX 70 78 78 79 71 80 77 81 72 82 73 83 74 84 75 85 76 86 55 87
REMARK SMILES IDX 56 88 64 89 57 90 63 91 58 92 59 93 60 94 61 95 62 96
REMARK H PARENT 22 6 15 16 27 33 83 52 53 63
REMARK Flexibility Score: inf
ROOT
ATOM      1  C   UNL A   1      34.778  32.983  31.083  1.00  0.00     0.023 C 
ENDROOT
BRANCH   1   2
ATOM      2  C   UNL A   1      35.477  33.890  32.100  1.00  0.00     0.116 C 
BRANCH   2   3
ATOM      3  N   UNL A   1      36.662  34.493  31.520  1.00  0.00    -0.352 N 
ATOM      4  C   UNL A   1      38.001  34.259  31.715  1.00  0.00     0.251 C 
ATOM      5  O   UNL A   1      38.799  34.907  31.037  1.00  0.00    -0.269 OA
ATOM      6  H   UNL A   1      36.471  35.203  30.865  1.00  0.00     0.163 HD
BRANCH   4   7
ATOM      7  C   UNL A   1      38.530  33.227  32.656  1.00  0.00     0.039 A 
ATOM      8  C   UNL A   1      39.752  31.374  34.409  1.00  0.00     0.041 A 
ATOM      9  C   UNL A   1      40.021  32.739  34.526  1.00  0.00     0.027 A 
ATOM     10  C   UNL A   1      38.804  30.957  33.480  1.00  0.00     0.027 A 
ATOM     11  C   UNL A   1      39.430  33.655  33.644  1.00  0.00     0.016 A 
ATOM     12  C   UNL A   1      38.177  31.879  32.636  1.00  0.00     0.016 A 
BRANCH   8  13
ATOM     13  N   UNL A   1      40.495  30.481  35.206  1.00  0.00    -0.325 N 
ATOM     14  O   UNL A   1      40.403  28.564  33.888  1.00  0.00    -0.273 OA
ATOM     15  C   UNL A   1      40.852  29.192  34.847  1.00  0.00     0.244 C 
ATOM     16  H   UNL A   1      40.786  30.799  36.090  1.00  0.00     0.169 HD
BRANCH  15  17
ATOM     17  C   UNL A   1      41.872  28.509  35.770  1.00  0.00     0.226 C 
BRANCH  17  18
ATOM     18  N   UNL A   1      42.975  27.715  35.224  1.00  0.00    -0.297 N 
ATOM     19  C   UNL A   1      44.125  28.393  34.823  1.00  0.00     0.265 C 
ATOM     20  C   UNL A   1      42.959  26.288  35.172  1.00  0.00     0.087 A 
ATOM     21  O   UNL A   1      44.244  29.617  34.837  1.00  0.00    -0.270 OA
ATOM     22  C   UNL A   1      45.300  27.489  34.477  1.00  0.00     0.330 C 
ATOM     23  C   UNL A   1      43.934  25.635  34.399  1.00  0.00     0.143 A 
ATOM     24  C   UNL A   1      41.960  25.512  35.772  1.00  0.00     0.030 A 
ATOM     25  O   UNL A   1      44.971  26.292  33.793  1.00  0.00    -0.482 OA
ATOM     26  C   UNL A   1      43.849  24.266  34.140  1.00  0.00     0.049 A 
ATOM     27  C   UNL A   1      41.876  24.139  35.515  1.00  0.00     0.002 A 
ATOM     28  C   UNL A   1      42.808  23.520  34.686  1.00  0.00     0.004 A 
ENDBRANCH  17  18
ENDBRANCH  15  17
ENDBRANCH   8  13
ENDBRANCH   4   7
ENDBRANCH   2   3
ENDBRANCH   1   2
BRANCH   1  29
ATOM     29  C   UNL A   1      34.543  33.630  29.717  1.00  0.00     0.023 C 
BRANCH  29  30
ATOM     30  C   UNL A   1      35.048  32.821  28.529  1.00  0.00     0.116 C 
BRANCH  30  31
ATOM     31  N   UNL A   1      34.170  31.717  28.175  1.00  0.00    -0.352 N 
ATOM     32  C   UNL A   1      34.483  30.391  27.990  1.00  0.00     0.251 C 
ATOM     33  H   UNL A   1      33.221  31.951  28.052  1.00  0.00     0.163 HD
ATOM     34  O   UNL A   1      33.633  29.617  27.571  1.00  0.00    -0.269 OA
BRANCH  32  35
ATOM     35  C   UNL A   1      35.858  29.919  28.261  1.00  0.00     0.039 A 
ATOM     36  C   UNL A   1      36.785  29.936  27.217  1.00  0.00     0.014 A 
ATOM     37  C   UNL A   1      36.238  29.478  29.532  1.00  0.00     0.014 A 
ATOM     38  C   UNL A   1      38.105  29.559  27.463  1.00  0.00     0.010 A 
ATOM     39  C   UNL A   1      37.571  29.181  29.794  1.00  0.00     0.010 A 
ATOM     40  C   UNL A   1      38.518  29.212  28.762  1.00  0.00    -0.014 A 
BRANCH  40  41
ATOM     41  C   UNL A   1      39.943  28.897  29.039  1.00  0.00     0.031 A 
ATOM     42  C   UNL A   1      40.839  29.911  29.697  1.00  0.00     0.074 A 
ATOM     43  C   UNL A   1      40.432  27.693  28.679  1.00  0.00     0.049 A 
ATOM     44  N   UNL A   1      42.091  29.791  30.056  1.00  0.00    -0.248 NA
ATOM     45  C   UNL A   1      40.265  31.239  29.969  1.00  0.00     0.031 C 
ATOM     46  C   UNL A   1      39.676  26.645  27.986  1.00  0.00     0.029 A 
ATOM     47  N   UNL A   1      41.674  27.139  28.858  1.00  0.00    -0.354 N 
ATOM     48  C   UNL A   1      42.453  31.019  30.596  1.00  0.00     0.074 A 
ATOM     49  C   UNL A   1      41.309  31.892  30.460  1.00  0.00     0.031 C 
ATOM     50  C   UNL A   1      40.454  25.561  27.844  1.00  0.00     0.029 A 
ATOM     51  C   UNL A   1      41.773  25.846  28.399  1.00  0.00     0.049 A 
ATOM     52  H   UNL A   1      42.424  27.622  29.275  1.00  0.00     0.167 HD
ATOM     53  C   UNL A   1      43.621  31.381  31.179  1.00  0.00     0.031 A 
ATOM     54  C   UNL A   1      42.807  24.983  28.428  1.00  0.00     0.031 A 
ATOM     55  C   UNL A   1      44.758  30.507  31.312  1.00  0.00     0.049 A 
ATOM     56  C   UNL A   1      44.097  25.414  29.070  1.00  0.00     0.074 A 
ATOM     57  C   UNL A   1      45.973  30.764  31.925  1.00  0.00     0.029 A 
ATOM     58  N   UNL A   1      44.823  29.210  30.825  1.00  0.00    -0.354 N 
ATOM     59  N   UNL A   1      44.392  26.557  29.643  1.00  0.00    -0.248 NA
ATOM     60  C   UNL A   1      45.188  24.432  29.084  1.00  0.00     0.031 C 
ATOM     61  C   UNL A   1      46.792  29.642  31.758  1.00  0.00     0.029 A 
ATOM     62  C   UNL A   1      46.065  28.662  31.102  1.00  0.00     0.049 A 
ATOM     63  H   UNL A   1      44.094  28.747  30.353  1.00  0.00     0.167 HD
ATOM     64  C   UNL A   1      45.696  26.420  30.109  1.00  0.00     0.074 A 
ATOM     65  C   UNL A   1      46.118  25.075  29.776  1.00  0.00     0.031 C 
ATOM     66  C   UNL A   1      46.474  27.325  30.755  1.00  0.00     0.031 A 
BRANCH  53  67
ATOM     67  C   UNL A   1      43.729  32.782  31.721  1.00  0.00    -0.014 A 
ATOM     68  C   UNL A   1      44.207  33.835  30.920  1.00  0.00     0.010 A 
ATOM     69  C   UNL A   1      43.293  33.065  33.029  1.00  0.00     0.010 A 
ATOM     70  C   UNL A   1      44.277  35.136  31.424  1.00  0.00     0.020 A 
ATOM     71  C   UNL A   1      43.332  34.371  33.528  1.00  0.00     0.020 A 
ATOM     72  C   UNL A   1      43.837  35.396  32.725  1.00  0.00     0.054 A 
BRANCH  72  73
ATOM     73  S   UNL A   1      43.900  37.103  33.336  1.00  0.00     0.124 S 
ATOM     74  O   UNL A   1      42.712  37.164  34.185  1.00  0.00    -0.237 OA
ATOM     75  O   UNL A   1      45.178  37.144  34.042  1.00  0.00    -0.237 OA
ATOM     76  O   UNL A   1      43.836  37.910  32.120  1.00  0.00    -0.744 OA
ENDBRANCH  72  73
ENDBRANCH  53  67
BRANCH  54  77
ATOM     77  C   UNL A   1      42.662  23.618  27.851  1.00  0.00    -0.014 A 
ATOM     78  C   UNL A   1      43.173  23.319  26.575  1.00  0.00     0.010 A 
ATOM     79  C   UNL A   1      41.995  22.609  28.571  1.00  0.00     0.010 A 
ATOM     80  C   UNL A   1      42.990  22.050  26.016  1.00  0.00     0.020 A 
ATOM     81  C   UNL A   1      41.840  21.330  28.030  1.00  0.00     0.020 A 
ATOM     82  C   UNL A   1      42.323  21.064  26.748  1.00  0.00     0.054 A 
BRANCH  82  83
ATOM     83  S   UNL A   1      42.119  19.417  26.014  1.00  0.00     0.124 S 
ATOM     84  O   UNL A   1      42.632  18.549  27.068  1.00  0.00    -0.237 OA
ATOM     85  O   UNL A   1      40.678  19.352  25.782  1.00  0.00    -0.237 OA
ATOM     86  O   UNL A   1      42.934  19.481  24.802  1.00  0.00    -0.744 OA
ENDBRANCH  82  83
ENDBRANCH  54  77
BRANCH  66  87
ATOM     87  C   UNL A   1      47.851  26.874  31.167  1.00  0.00    -0.014 A 
ATOM     88  C   UNL A   1      48.071  26.221  32.393  1.00  0.00     0.010 A 
ATOM     89  C   UNL A   1      48.940  27.092  30.304  1.00  0.00     0.010 A 
ATOM     90  C   UNL A   1      49.362  25.846  32.772  1.00  0.00     0.020 A 
ATOM     91  C   UNL A   1      50.227  26.687  30.663  1.00  0.00     0.020 A 
ATOM     92  C   UNL A   1      50.434  26.087  31.907  1.00  0.00     0.054 A 
BRANCH  92  93
ATOM     93  S   UNL A   1      52.099  25.584  32.418  1.00  0.00     0.124 S 
ATOM     94  O   UNL A   1      52.289  26.362  33.639  1.00  0.00    -0.237 OA
ATOM     95  O   UNL A   1      51.955  24.142  32.606  1.00  0.00    -0.237 OA
ATOM     96  O   UNL A   1      52.942  25.977  31.291  1.00  0.00    -0.744 OA
ENDBRANCH  92  93
ENDBRANCH  66  87
ENDBRANCH  40  41
ENDBRANCH  32  35
ENDBRANCH  30  31
ENDBRANCH  29  30
ENDBRANCH   1  29
TORSDOF 17
ENDMDL
MODEL 2
REMARK VINA RESULT:      -9.5      5.254     12.483
REMARK SMILES O=C(CN1C(=O)COc2ccccc21)Nc1ccc(C(=O)NCCCCNC(=O)c2ccc(-c3c4nc(c(-c5ccc(S(=O)(=O)[O-])cc5)c5ccc([nH]5)c(-c5ccc(S(=O)(=O)[O-])cc5)c5nc(c(-c6ccc(S(=O)(=O)[O-])cc6)c6ccc3[nH]6)C=C5)C=C4)cc2)cc1
REMARK SMILES IDX 24 1 23 2 22 3 20 4 21 5 19 7 16 8 17 9 91 10 18 11 90 12
REMARK SMILES IDX 15 13 1 14 2 15 3 17 4 18 5 19 14 20 6 21 7 22 9 23 13 24
REMARK SMILES IDX 8 25 10 26 12 27 11 28 25 29 26 30 27 31 28 32 29 34 30 35
REMARK SMILES IDX 31 36 89 37 32 38 88 39 33 40 34 41 35 42 82 43 36 44 87 45
REMARK SMILES IDX 81 46 83 47 37 48 86 49 80 50 79 51 38 53 68 54 49 55 67 56
REMARK SMILES IDX 50 57 53 58 66 59 84 60 51 61 52 62 65 64 85 65 54 66 39 67
REMARK SMILES IDX 40 68 48 69 41 70 47 71 42 72 43 73 44 74 45 75 46 76 69 77
REMARK SMILES IDX 70 78 78 79 71 80 77 81 72 82 73 83 74 84 75 85 76 86 55 87
REMARK SMILES IDX 56 88 64 89 57 90 63 91 58 92 59 93 60 94 61 95 62 96
REMARK H PARENT 22 6 15 16 27 33 83 52 53 63
REMARK Flexibility Score: inf
ROOT
ATOM      1  C   UNL A   1      37.397  20.933  24.630  1.00  0.00     0.023 C 
ENDROOT
BRANCH   1   2
ATOM      2  C   UNL A   1      36.074  20.874  25.400  1.00  0.00     0.116 C 
BRANCH   2   3
ATOM      3  N   UNL A   1      35.271  19.750  24.955  1.00  0.00    -0.352 N 
ATOM      4  C   UNL A   1      33.943  19.645  24.624  1.00  0.00     0.251 C 
ATOM      5  O   UNL A   1      33.538  18.550  24.229  1.00  0.00    -0.269 OA
ATOM      6  H   UNL A   1      35.773  18.906  24.876  1.00  0.00     0.163 HD
BRANCH   4   7
ATOM      7  C   UNL A   1      32.989  20.792  24.663  1.00  0.00     0.039 A 
ATOM      8  C   UNL A   1      31.363  23.106  24.650  1.00  0.00     0.041 A 
ATOM      9  C   UNL A   1      32.147  22.788  23.538  1.00  0.00     0.027 A 
ATOM     10  C   UNL A   1      31.326  22.216  25.718  1.00  0.00     0.027 A 
ATOM     11  C   UNL A   1      32.967  21.652  23.554  1.00  0.00     0.016 A 
ATOM     12  C   UNL A   1      32.107  21.056  25.709  1.00  0.00     0.016 A 
BRANCH   8  13
ATOM     13  N   UNL A   1      30.686  24.342  24.652  1.00  0.00    -0.325 N 
ATOM     14  O   UNL A   1      31.160  25.079  26.808  1.00  0.00    -0.273 OA
ATOM     15  C   UNL A   1      30.719  25.273  25.676  1.00  0.00     0.244 C 
ATOM     16  H   UNL A   1      30.146  24.563  23.859  1.00  0.00     0.169 HD
BRANCH  15  17
ATOM     17  C   UNL A   1      30.113  26.644  25.341  1.00  0.00     0.226 C 
BRANCH  17  18
ATOM     18  N   UNL A   1      30.623  27.447  24.227  1.00  0.00    -0.297 N 
ATOM     19  C   UNL A   1      31.992  27.400  23.968  1.00  0.00     0.265 C 
ATOM     20  C   UNL A   1      29.779  28.192  23.350  1.00  0.00     0.087 A 
ATOM     21  O   UNL A   1      32.803  26.781  24.657  1.00  0.00    -0.270 OA
ATOM     22  C   UNL A   1      32.412  28.079  22.673  1.00  0.00     0.330 C 
ATOM     23  C   UNL A   1      30.370  29.131  22.488  1.00  0.00     0.143 A 
ATOM     24  C   UNL A   1      28.382  28.105  23.377  1.00  0.00     0.030 A 
ATOM     25  O   UNL A   1      31.726  29.279  22.360  1.00  0.00    -0.482 OA
ATOM     26  C   UNL A   1      29.590  30.032  21.761  1.00  0.00     0.049 A 
ATOM     27  C   UNL A   1      27.600  29.007  22.646  1.00  0.00     0.002 A 
ATOM     28  C   UNL A   1      28.203  29.979  21.853  1.00  0.00     0.004 A 
ENDBRANCH  17  18
ENDBRANCH  15  17
ENDBRANCH   8  13
ENDBRANCH   4   7
ENDBRANCH   2   3
ENDBRANCH   1   2
BRANCH   1  29
ATOM     29  C   UNL A   1      38.373  19.804  24.967  1.00  0.00     0.023 C 
BRANCH  29  30
ATOM     30  C   UNL A   1      39.374  20.130  26.069  1.00  0.00     0.116 C 
BRANCH  30  31
ATOM     31  N   UNL A   1      40.540  19.262  26.056  1.00  0.00    -0.352 N 
ATOM     32  C   UNL A   1      41.866  19.597  26.191  1.00  0.00     0.251 C 
ATOM     33  H   UNL A   1      40.354  18.302  25.934  1.00  0.00     0.163 HD
ATOM     34  O   UNL A   1      42.730  18.744  26.030  1.00  0.00    -0.269 OA
BRANCH  32  35
ATOM     35  C   UNL A   1      42.241  20.996  26.490  1.00  0.00     0.039 A 
ATOM     36  C   UNL A   1      42.500  21.346  27.816  1.00  0.00     0.014 A 
ATOM     37  C   UNL A   1      42.349  21.952  25.475  1.00  0.00     0.014 A 
ATOM     38  C   UNL A   1      42.920  22.643  28.116  1.00  0.00     0.010 A 
ATOM     39  C   UNL A   1      42.844  23.219  25.765  1.00  0.00     0.010 A 
ATOM     40  C   UNL A   1      43.130  23.580  27.089  1.00  0.00    -0.014 A 
BRANCH  40  41
ATOM     41  C   UNL A   1      43.660  24.931  27.402  1.00  0.00     0.031 A 
ATOM     42  C   UNL A   1      45.109  25.261  27.164  1.00  0.00     0.074 A 
ATOM     43  C   UNL A   1      42.830  25.860  27.918  1.00  0.00     0.049 A 
ATOM     44  N   UNL A   1      45.732  26.399  27.334  1.00  0.00    -0.248 NA
ATOM     45  C   UNL A   1      45.978  24.169  26.694  1.00  0.00     0.031 C 
ATOM     46  C   UNL A   1      41.417  25.645  28.244  1.00  0.00     0.029 A 
ATOM     47  N   UNL A   1      43.047  27.175  28.246  1.00  0.00    -0.354 N 
ATOM     48  C   UNL A   1      47.058  26.162  26.992  1.00  0.00     0.074 A 
ATOM     49  C   UNL A   1      47.165  24.758  26.667  1.00  0.00     0.031 C 
ATOM     50  C   UNL A   1      40.884  26.798  28.677  1.00  0.00     0.029 A 
ATOM     51  C   UNL A   1      41.922  27.824  28.697  1.00  0.00     0.049 A 
ATOM     52  H   UNL A   1      43.926  27.611  28.167  1.00  0.00     0.167 HD
ATOM     53  C   UNL A   1      48.089  27.039  26.927  1.00  0.00     0.031 A 
ATOM     54  C   UNL A   1      41.742  29.104  29.077  1.00  0.00     0.031 A 
ATOM     55  C   UNL A   1      47.977  28.437  27.253  1.00  0.00     0.049 A 
ATOM     56  C   UNL A   1      42.906  30.054  29.008  1.00  0.00     0.074 A 
ATOM     57  C   UNL A   1      48.950  29.418  27.178  1.00  0.00     0.029 A 
ATOM     58  N   UNL A   1      46.824  29.054  27.716  1.00  0.00    -0.354 N 
ATOM     59  N   UNL A   1      44.135  29.826  28.608  1.00  0.00    -0.248 NA
ATOM     60  C   UNL A   1      42.654  31.439  29.423  1.00  0.00     0.031 C 
ATOM     61  C   UNL A   1      48.402  30.616  27.650  1.00  0.00     0.029 A 
ATOM     62  C   UNL A   1      47.069  30.397  27.954  1.00  0.00     0.049 A 
ATOM     63  H   UNL A   1      45.959  28.604  27.854  1.00  0.00     0.167 HD
ATOM     64  C   UNL A   1      44.795  31.047  28.700  1.00  0.00     0.074 A 
ATOM     65  C   UNL A   1      43.820  32.013  29.164  1.00  0.00     0.031 C 
ATOM     66  C   UNL A   1      46.090  31.343  28.426  1.00  0.00     0.031 A 
BRANCH  53  67
ATOM     67  C   UNL A   1      49.429  26.514  26.483  1.00  0.00    -0.014 A 
ATOM     68  C   UNL A   1      49.842  26.624  25.143  1.00  0.00     0.010 A 
ATOM     69  C   UNL A   1      50.313  25.955  27.425  1.00  0.00     0.010 A 
ATOM     70  C   UNL A   1      51.099  26.158  24.746  1.00  0.00     0.020 A 
ATOM     71  C   UNL A   1      51.583  25.515  27.039  1.00  0.00     0.020 A 
ATOM     72  C   UNL A   1      51.962  25.608  25.699  1.00  0.00     0.054 A 
BRANCH  72  73
ATOM     73  S   UNL A   1      53.603  25.051  25.161  1.00  0.00     0.124 S 
ATOM     74  O   UNL A   1      54.482  25.773  26.078  1.00  0.00    -0.237 OA
ATOM     75  O   UNL A   1      53.534  23.607  25.365  1.00  0.00    -0.237 OA
ATOM     76  O   UNL A   1      53.675  25.478  23.766  1.00  0.00    -0.744 OA
ENDBRANCH  72  73
ENDBRANCH  53  67
BRANCH  54  77
ATOM     77  C   UNL A   1      40.405  29.569  29.538  1.00  0.00    -0.014 A 
ATOM     78  C   UNL A   1      39.479  30.110  28.629  1.00  0.00     0.010 A 
ATOM     79  C   UNL A   1      40.054  29.486  30.898  1.00  0.00     0.010 A 
ATOM     80  C   UNL A   1      38.243  30.591  29.074  1.00  0.00     0.020 A 
ATOM     81  C   UNL A   1      38.807  29.935  31.343  1.00  0.00     0.020 A 
ATOM     82  C   UNL A   1      37.917  30.501  30.430  1.00  0.00     0.054 A 
BRANCH  82  83
ATOM     83  S   UNL A   1      36.299  31.109  30.982  1.00  0.00     0.124 S 
ATOM     84  O   UNL A   1      35.468  30.871  29.807  1.00  0.00    -0.237 OA
ATOM     85  O   UNL A   1      36.021  30.261  32.138  1.00  0.00    -0.237 OA
ATOM     86  O   UNL A   1      36.552  32.514  31.296  1.00  0.00    -0.744 OA
ENDBRANCH  82  83
ENDBRANCH  54  77
BRANCH  66  87
ATOM     87  C   UNL A   1      46.515  32.779  28.595  1.00  0.00    -0.014 A 
ATOM     88  C   UNL A   1      46.396  33.706  27.544  1.00  0.00     0.010 A 
ATOM     89  C   UNL A   1      47.025  33.211  29.832  1.00  0.00     0.010 A 
ATOM     90  C   UNL A   1      46.832  35.023  27.710  1.00  0.00     0.020 A 
ATOM     91  C   UNL A   1      47.430  34.535  30.014  1.00  0.00     0.020 A 
ATOM     92  C   UNL A   1      47.352  35.428  28.943  1.00  0.00     0.054 A 
BRANCH  92  93
ATOM     93  S   UNL A   1      47.904  37.144  29.137  1.00  0.00     0.124 S 
ATOM     94  O   UNL A   1      47.500  37.738  27.867  1.00  0.00    -0.237 OA
ATOM     95  O   UNL A   1      47.154  37.591  30.309  1.00  0.00    -0.237 OA
ATOM     96  O   UNL A   1      49.347  37.024  29.338  1.00  0.00    -0.744 OA
ENDBRANCH  92  93
ENDBRANCH  66  87
ENDBRANCH  40  41
ENDBRANCH  32  35
ENDBRANCH  30  31
ENDBRANCH  29  30
ENDBRANCH   1  29
TORSDOF 17
ENDMDL
MODEL 3
REMARK VINA RESULT:      -9.3      4.381      7.656
REMARK SMILES O=C(CN1C(=O)COc2ccccc21)Nc1ccc(C(=O)NCCCCNC(=O)c2ccc(-c3c4nc(c(-c5ccc(S(=O)(=O)[O-])cc5)c5ccc([nH]5)c(-c5ccc(S(=O)(=O)[O-])cc5)c5nc(c(-c6ccc(S(=O)(=O)[O-])cc6)c6ccc3[nH]6)C=C5)C=C4)cc2)cc1
REMARK SMILES IDX 24 1 23 2 22 3 20 4 21 5 19 7 16 8 17 9 91 10 18 11 90 12
REMARK SMILES IDX 15 13 1 14 2 15 3 17 4 18 5 19 14 20 6 21 7 22 9 23 13 24
REMARK SMILES IDX 8 25 10 26 12 27 11 28 25 29 26 30 27 31 28 32 29 34 30 35
REMARK SMILES IDX 31 36 89 37 32 38 88 39 33 40 34 41 35 42 82 43 36 44 87 45
REMARK SMILES IDX 81 46 83 47 37 48 86 49 80 50 79 51 38 53 68 54 49 55 67 56
REMARK SMILES IDX 50 57 53 58 66 59 84 60 51 61 52 62 65 64 85 65 54 66 39 67
REMARK SMILES IDX 40 68 48 69 41 70 47 71 42 72 43 73 44 74 45 75 46 76 69 77
REMARK SMILES IDX 70 78 78 79 71 80 77 81 72 82 73 83 74 84 75 85 76 86 55 87
REMARK SMILES IDX 56 88 64 89 57 90 63 91 58 92 59 93 60 94 61 95 62 96
REMARK H PARENT 22 6 15 16 27 33 83 52 53 63
REMARK Flexibility Score: inf
ROOT
ATOM      1  C   UNL A   1      36.023  32.051  27.888  1.00  0.00     0.023 C 
ENDROOT
BRANCH   1   2
ATOM      2  C   UNL A   1      34.877  31.046  28.034  1.00  0.00     0.116 C 
BRANCH   2   3
ATOM      3  N   UNL A   1      33.626  31.625  27.581  1.00  0.00    -0.352 N 
ATOM      4  C   UNL A   1      32.533  31.076  26.957  1.00  0.00     0.251 C 
ATOM      5  O   UNL A   1      31.575  31.816  26.727  1.00  0.00    -0.269 OA
ATOM      6  H   UNL A   1      33.546  32.591  27.753  1.00  0.00     0.163 HD
BRANCH   4   7
ATOM      7  C   UNL A   1      32.425  29.630  26.601  1.00  0.00     0.039 A 
ATOM      8  C   UNL A   1      32.199  26.961  25.694  1.00  0.00     0.041 A 
ATOM      9  C   UNL A   1      33.060  27.855  25.051  1.00  0.00     0.027 A 
ATOM     10  C   UNL A   1      31.532  27.383  26.839  1.00  0.00     0.027 A 
ATOM     11  C   UNL A   1      33.156  29.183  25.490  1.00  0.00     0.016 A 
ATOM     12  C   UNL A   1      31.670  28.694  27.305  1.00  0.00     0.016 A 
BRANCH   8  13
ATOM     13  N   UNL A   1      32.012  25.690  25.116  1.00  0.00    -0.325 N 
ATOM     14  O   UNL A   1      32.938  26.044  23.010  1.00  0.00    -0.273 OA
ATOM     15  C   UNL A   1      32.481  25.296  23.874  1.00  0.00     0.244 C 
ATOM     16  H   UNL A   1      31.508  25.026  25.639  1.00  0.00     0.169 HD
BRANCH  15  17
ATOM     17  C   UNL A   1      32.373  23.794  23.574  1.00  0.00     0.226 C 
BRANCH  17  18
ATOM     18  N   UNL A   1      33.047  22.802  24.416  1.00  0.00    -0.297 N 
ATOM     19  C   UNL A   1      32.267  22.077  25.314  1.00  0.00     0.265 C 
ATOM     20  C   UNL A   1      34.434  22.485  24.291  1.00  0.00     0.087 A 
ATOM     21  O   UNL A   1      31.064  22.266  25.491  1.00  0.00    -0.270 OA
ATOM     22  C   UNL A   1      32.993  20.923  25.990  1.00  0.00     0.330 C 
ATOM     23  C   UNL A   1      35.041  21.726  25.305  1.00  0.00     0.143 A 
ATOM     24  C   UNL A   1      35.242  22.978  23.259  1.00  0.00     0.030 A 
ATOM     25  O   UNL A   1      34.342  21.172  26.345  1.00  0.00    -0.482 OA
ATOM     26  C   UNL A   1      36.426  21.560  25.349  1.00  0.00     0.049 A 
ATOM     27  C   UNL A   1      36.630  22.810  23.302  1.00  0.00     0.002 A 
ATOM     28  C   UNL A   1      37.223  22.117  24.353  1.00  0.00     0.004 A 
ENDBRANCH  17  18
ENDBRANCH  15  17
ENDBRANCH   8  13
ENDBRANCH   4   7
ENDBRANCH   2   3
ENDBRANCH   1   2
BRANCH   1  29
ATOM     29  C   UNL A   1      36.021  33.166  28.935  1.00  0.00     0.023 C 
BRANCH  29  30
ATOM     30  C   UNL A   1      36.951  32.936  30.120  1.00  0.00     0.116 C 
BRANCH  30  31
ATOM     31  N   UNL A   1      36.407  32.011  31.101  1.00  0.00    -0.352 N 
ATOM     32  C   UNL A   1      36.864  30.765  31.458  1.00  0.00     0.251 C 
ATOM     33  H   UNL A   1      35.600  32.320  31.575  1.00  0.00     0.163 HD
ATOM     34  O   UNL A   1      36.205  30.069  32.220  1.00  0.00    -0.269 OA
BRANCH  32  35
ATOM     35  C   UNL A   1      38.130  30.259  30.886  1.00  0.00     0.039 A 
ATOM     36  C   UNL A   1      38.205  30.061  29.507  1.00  0.00     0.014 A 
ATOM     37  C   UNL A   1      39.239  29.994  31.696  1.00  0.00     0.014 A 
ATOM     38  C   UNL A   1      39.409  29.648  28.935  1.00  0.00     0.010 A 
ATOM     39  C   UNL A   1      40.459  29.661  31.116  1.00  0.00     0.010 A 
ATOM     40  C   UNL A   1      40.556  29.479  29.730  1.00  0.00    -0.014 A 
BRANCH  40  41
ATOM     41  C   UNL A   1      41.857  29.125  29.108  1.00  0.00     0.031 A 
ATOM     42  C   UNL A   1      42.959  30.144  29.002  1.00  0.00     0.074 A 
ATOM     43  C   UNL A   1      42.036  27.880  28.621  1.00  0.00     0.049 A 
ATOM     44  N   UNL A   1      44.172  29.997  28.534  1.00  0.00    -0.248 NA
ATOM     45  C   UNL A   1      42.658  31.510  29.462  1.00  0.00     0.031 C 
ATOM     46  C   UNL A   1      41.024  26.820  28.616  1.00  0.00     0.029 A 
ATOM     47  N   UNL A   1      43.135  27.289  28.052  1.00  0.00    -0.354 N 
ATOM     48  C   UNL A   1      44.777  31.244  28.645  1.00  0.00     0.074 A 
ATOM     49  C   UNL A   1      43.778  32.152  29.163  1.00  0.00     0.031 C 
ATOM     50  C   UNL A   1      41.564  25.697  28.117  1.00  0.00     0.029 A 
ATOM     51  C   UNL A   1      42.946  25.965  27.731  1.00  0.00     0.049 A 
ATOM     52  H   UNL A   1      43.979  27.768  27.886  1.00  0.00     0.167 HD
ATOM     53  C   UNL A   1      46.055  31.596  28.366  1.00  0.00     0.031 A 
ATOM     54  C   UNL A   1      43.791  25.064  27.193  1.00  0.00     0.031 A 
ATOM     55  C   UNL A   1      47.045  30.688  27.849  1.00  0.00     0.049 A 
ATOM     56  C   UNL A   1      45.201  25.485  26.881  1.00  0.00     0.074 A 
ATOM     57  C   UNL A   1      48.379  30.935  27.574  1.00  0.00     0.029 A 
ATOM     58  N   UNL A   1      46.812  29.359  27.527  1.00  0.00    -0.354 N 
ATOM     59  N   UNL A   1      45.774  26.652  27.064  1.00  0.00    -0.248 NA
ATOM     60  C   UNL A   1      46.084  24.463  26.306  1.00  0.00     0.031 C 
ATOM     61  C   UNL A   1      48.938  29.772  27.033  1.00  0.00     0.029 A 
ATOM     62  C   UNL A   1      47.971  28.781  27.034  1.00  0.00     0.049 A 
ATOM     63  H   UNL A   1      45.950  28.895  27.634  1.00  0.00     0.167 HD
ATOM     64  C   UNL A   1      47.093  26.493  26.651  1.00  0.00     0.074 A 
ATOM     65  C   UNL A   1      47.237  25.113  26.238  1.00  0.00     0.031 C 
ATOM     66  C   UNL A   1      48.095  27.408  26.617  1.00  0.00     0.031 A 
BRANCH  53  67
ATOM     67  C   UNL A   1      46.458  33.025  28.618  1.00  0.00    -0.014 A 
ATOM     68  C   UNL A   1      46.988  33.420  29.860  1.00  0.00     0.010 A 
ATOM     69  C   UNL A   1      46.362  33.976  27.585  1.00  0.00     0.010 A 
ATOM     70  C   UNL A   1      47.385  34.743  30.075  1.00  0.00     0.020 A 
ATOM     71  C   UNL A   1      46.786  35.294  27.786  1.00  0.00     0.020 A 
ATOM     72  C   UNL A   1      47.283  35.671  29.035  1.00  0.00     0.054 A 
BRANCH  72  73
ATOM     73  S   UNL A   1      47.846  37.370  29.332  1.00  0.00     0.124 S 
ATOM     74  O   UNL A   1      49.263  37.171  29.625  1.00  0.00    -0.237 OA
ATOM     75  O   UNL A   1      47.554  38.031  28.063  1.00  0.00    -0.237 OA
ATOM     76  O   UNL A   1      47.034  37.812  30.463  1.00  0.00    -0.744 OA
ENDBRANCH  72  73
ENDBRANCH  53  67
BRANCH  54  77
ATOM     77  C   UNL A   1      43.336  23.671  26.933  1.00  0.00    -0.014 A 
ATOM     78  C   UNL A   1      43.046  22.799  27.998  1.00  0.00     0.010 A 
ATOM     79  C   UNL A   1      43.204  23.201  25.614  1.00  0.00     0.010 A 
ATOM     80  C   UNL A   1      42.667  21.475  27.750  1.00  0.00     0.020 A 
ATOM     81  C   UNL A   1      42.792  21.889  25.360  1.00  0.00     0.020 A 
ATOM     82  C   UNL A   1      42.544  21.029  26.431  1.00  0.00     0.054 A 
BRANCH  82  83
ATOM     83  S   UNL A   1      42.028  19.316  26.132  1.00  0.00     0.124 S 
ATOM     84  O   UNL A   1      42.793  18.972  24.939  1.00  0.00    -0.237 OA
ATOM     85  O   UNL A   1      42.435  18.645  27.363  1.00  0.00    -0.237 OA
ATOM     86  O   UNL A   1      40.583  19.425  25.939  1.00  0.00    -0.744 OA
ENDBRANCH  82  83
ENDBRANCH  54  77
BRANCH  66  87
ATOM     87  C   UNL A   1      49.442  26.929  26.141  1.00  0.00    -0.014 A 
ATOM     88  C   UNL A   1      49.894  27.194  24.835  1.00  0.00     0.010 A 
ATOM     89  C   UNL A   1      50.277  26.218  27.021  1.00  0.00     0.010 A 
ATOM     90  C   UNL A   1      51.130  26.708  24.403  1.00  0.00     0.020 A 
ATOM     91  C   UNL A   1      51.528  25.760  26.605  1.00  0.00     0.020 A 
ATOM     92  C   UNL A   1      51.937  25.988  25.289  1.00  0.00     0.054 A 
BRANCH  92  93
ATOM     93  S   UNL A   1      53.541  25.374  24.707  1.00  0.00     0.124 S 
ATOM     94  O   UNL A   1      53.444  25.591  23.267  1.00  0.00    -0.237 OA
ATOM     95  O   UNL A   1      54.489  26.235  25.411  1.00  0.00    -0.237 OA
ATOM     96  O   UNL A   1      53.550  23.974  25.127  1.00  0.00    -0.744 OA
ENDBRANCH  92  93
ENDBRANCH  66  87
ENDBRANCH  40  41
ENDBRANCH  32  35
ENDBRANCH  30  31
ENDBRANCH  29  30
ENDBRANCH   1  29
TORSDOF 17
ENDMDL
