MODEL 1
REMARK VINA RESULT:      -9.8      0.000      0.000
REMARK SMILES CN(CC1CCC1)C(=O)N(CC(=O)NCCCCNC(=O)c1ccc(-c2c3nc(c(-c4ccc(S(=O)(=O)[O-])cc4)c4ccc([nH]4)c(-c4ccc(S(=O)(=O)[O-])cc4)c4nc(c(-c5ccc(S(=O)(=O)[O-])cc5)c5ccc2[nH]5)C=C4)C=C3)cc1)C(C)(C)C
REMARK SMILES IDX 15 1 14 2 12 3 13 4 11 6 10 7 8 8 9 9 2 10 1 11 3 12 4 13
REMARK SMILES IDX 5 14 7 15 6 16 82 17 83 18 84 19 85 20 16 21 17 22 18 23
REMARK SMILES IDX 19 24 20 25 21 27 22 28 23 29 81 30 24 31 80 32 25 33 26 34
REMARK SMILES IDX 27 35 74 36 28 37 79 38 73 39 75 40 29 41 78 42 72 43 71 44
REMARK SMILES IDX 30 46 60 47 41 48 59 49 42 50 45 51 58 52 76 53 43 54 44 55
REMARK SMILES IDX 57 57 77 58 46 59 31 60 32 61 40 62 33 63 39 64 34 65 35 66
REMARK SMILES IDX 36 67 37 68 38 69 61 70 62 71 70 72 63 73 69 74 64 75 65 76
REMARK SMILES IDX 66 77 67 78 68 79 47 80 48 81 56 82 49 83 55 84 50 85 51 86
REMARK SMILES IDX 52 87 53 88 54 89
REMARK H PARENT 14 5 19 26 75 45 45 56
REMARK Flexibility Score: inf
ROOT
ATOM      1  C   UNL A   1      31.252  27.934  24.494  1.00  0.00     0.116 C 
ENDROOT
BRANCH   1   2
ATOM      2  N   UNL A   1      31.631  27.360  23.216  1.00  0.00    -0.355 N 
ATOM      3  C   UNL A   1      31.690  26.068  22.791  1.00  0.00     0.239 C 
ATOM      4  O   UNL A   1      31.727  25.899  21.565  1.00  0.00    -0.273 OA
ATOM      5  H   UNL A   1      31.890  28.022  22.536  1.00  0.00     0.163 HD
BRANCH   3   6
ATOM      6  C   UNL A   1      31.554  24.831  23.706  1.00  0.00     0.221 C 
BRANCH   6   7
ATOM      7  N   UNL A   1      32.722  24.010  24.038  1.00  0.00    -0.311 N 
BRANCH   7   8
ATOM      8  C   UNL A   1      33.192  22.910  23.311  1.00  0.00     0.320 C 
ATOM      9  O   UNL A   1      34.280  22.992  22.724  1.00  0.00    -0.248 OA
BRANCH   8  10
ATOM     10  N   UNL A   1      32.554  21.671  23.283  1.00  0.00    -0.327 N 
ATOM     11  C   UNL A   1      32.026  21.301  21.968  1.00  0.00     0.148 C 
BRANCH  10  12
ATOM     12  C   UNL A   1      32.114  20.783  24.369  1.00  0.00     0.124 C 
BRANCH  12  13
ATOM     13  C   UNL A   1      32.920  19.495  24.279  1.00  0.00     0.008 C 
ATOM     14  C   UNL A   1      33.069  18.649  25.573  1.00  0.00     0.005 C 
ATOM     15  C   UNL A   1      32.412  18.183  23.614  1.00  0.00     0.005 C 
ATOM     16  C   UNL A   1      33.327  17.449  24.632  1.00  0.00     0.001 C 
ENDBRANCH  12  13
ENDBRANCH  10  12
ENDBRANCH   8  10
ENDBRANCH   7   8
BRANCH   7  17
ATOM     17  C   UNL A   1      33.330  24.275  25.421  1.00  0.00     0.037 C 
ATOM     18  C   UNL A   1      34.564  25.197  25.319  1.00  0.00     0.034 C 
ATOM     19  C   UNL A   1      32.301  24.896  26.393  1.00  0.00     0.034 C 
ATOM     20  C   UNL A   1      33.834  22.992  26.147  1.00  0.00     0.034 C 
ENDBRANCH   7  17
ENDBRANCH   6   7
ENDBRANCH   3   6
ENDBRANCH   1   2
BRANCH   1  21
ATOM     21  C   UNL A   1      32.209  29.004  25.007  1.00  0.00     0.023 C 
BRANCH  21  22
ATOM     22  C   UNL A   1      33.487  28.466  25.638  1.00  0.00     0.023 C 
BRANCH  22  23
ATOM     23  C   UNL A   1      33.553  28.599  27.153  1.00  0.00     0.116 C 
BRANCH  23  24
ATOM     24  N   UNL A   1      33.527  29.986  27.598  1.00  0.00    -0.352 N 
ATOM     25  C   UNL A   1      34.499  30.708  28.257  1.00  0.00     0.251 C 
ATOM     26  H   UNL A   1      32.697  30.477  27.400  1.00  0.00     0.163 HD
ATOM     27  O   UNL A   1      34.254  31.817  28.702  1.00  0.00    -0.269 OA
BRANCH  25  28
ATOM     28  C   UNL A   1      35.834  30.102  28.441  1.00  0.00     0.039 A 
ATOM     29  C   UNL A   1      36.732  30.094  27.372  1.00  0.00     0.014 A 
ATOM     30  C   UNL A   1      36.212  29.601  29.688  1.00  0.00     0.014 A 
ATOM     31  C   UNL A   1      38.045  29.663  27.584  1.00  0.00     0.010 A 
ATOM     32  C   UNL A   1      37.539  29.265  29.919  1.00  0.00     0.010 A 
ATOM     33  C   UNL A   1      38.471  29.292  28.870  1.00  0.00    -0.014 A 
BRANCH  33  34
ATOM     34  C   UNL A   1      39.883  28.925  29.147  1.00  0.00     0.031 A 
ATOM     35  C   UNL A   1      40.819  29.943  29.742  1.00  0.00     0.074 A 
ATOM     36  C   UNL A   1      40.343  27.710  28.789  1.00  0.00     0.049 A 
ATOM     37  N   UNL A   1      42.102  29.846  29.976  1.00  0.00    -0.248 NA
ATOM     38  C   UNL A   1      40.243  31.254  30.086  1.00  0.00     0.031 C 
ATOM     39  C   UNL A   1      39.550  26.652  28.157  1.00  0.00     0.029 A 
ATOM     40  N   UNL A   1      41.597  27.161  28.897  1.00  0.00    -0.354 N 
ATOM     41  C   UNL A   1      42.489  31.085  30.470  1.00  0.00     0.074 A 
ATOM     42  C   UNL A   1      41.319  31.935  30.450  1.00  0.00     0.031 C 
ATOM     43  C   UNL A   1      40.327  25.574  27.963  1.00  0.00     0.029 A 
ATOM     44  C   UNL A   1      41.683  25.876  28.415  1.00  0.00     0.049 A 
ATOM     45  H   UNL A   1      42.364  27.642  29.283  1.00  0.00     0.167 HD
ATOM     46  C   UNL A   1      43.704  31.477  30.922  1.00  0.00     0.031 A 
ATOM     47  C   UNL A   1      42.733  25.035  28.340  1.00  0.00     0.031 A 
ATOM     48  C   UNL A   1      44.860  30.624  30.961  1.00  0.00     0.049 A 
ATOM     49  C   UNL A   1      44.071  25.489  28.855  1.00  0.00     0.074 A 
ATOM     50  C   UNL A   1      46.121  30.906  31.459  1.00  0.00     0.029 A 
ATOM     51  N   UNL A   1      44.898  29.322  30.486  1.00  0.00    -0.354 N 
ATOM     52  N   UNL A   1      44.402  26.644  29.381  1.00  0.00    -0.248 NA
ATOM     53  C   UNL A   1      45.174  24.521  28.778  1.00  0.00     0.031 C 
ATOM     54  C   UNL A   1      46.934  29.788  31.242  1.00  0.00     0.029 A 
ATOM     55  C   UNL A   1      46.164  28.792  30.661  1.00  0.00     0.049 A 
ATOM     56  H   UNL A   1      44.137  28.845  30.084  1.00  0.00     0.167 HD
ATOM     57  C   UNL A   1      45.745  26.534  29.722  1.00  0.00     0.074 A 
ATOM     58  C   UNL A   1      46.161  25.195  29.355  1.00  0.00     0.031 C 
ATOM     59  C   UNL A   1      46.561  27.457  30.290  1.00  0.00     0.031 A 
BRANCH  46  60
ATOM     60  C   UNL A   1      43.836  32.896  31.410  1.00  0.00    -0.014 A 
ATOM     61  C   UNL A   1      43.671  33.214  32.771  1.00  0.00     0.010 A 
ATOM     62  C   UNL A   1      44.151  33.922  30.502  1.00  0.00     0.010 A 
ATOM     63  C   UNL A   1      43.768  34.539  33.205  1.00  0.00     0.020 A 
ATOM     64  C   UNL A   1      44.278  35.245  30.937  1.00  0.00     0.020 A 
ATOM     65  C   UNL A   1      44.065  35.547  32.284  1.00  0.00     0.054 A 
BRANCH  65  66
ATOM     66  S   UNL A   1      44.195  37.256  32.877  1.00  0.00     0.124 S 
ATOM     67  O   UNL A   1      43.089  37.326  33.830  1.00  0.00    -0.237 OA
ATOM     68  O   UNL A   1      45.532  37.291  33.464  1.00  0.00    -0.237 OA
ATOM     69  O   UNL A   1      44.027  38.056  31.668  1.00  0.00    -0.744 OA
ENDBRANCH  65  66
ENDBRANCH  46  60
BRANCH  47  70
ATOM     70  C   UNL A   1      42.553  23.670  27.776  1.00  0.00    -0.014 A 
ATOM     71  C   UNL A   1      42.809  23.422  26.415  1.00  0.00     0.010 A 
ATOM     72  C   UNL A   1      42.145  22.603  28.599  1.00  0.00     0.010 A 
ATOM     73  C   UNL A   1      42.644  22.140  25.884  1.00  0.00     0.020 A 
ATOM     74  C   UNL A   1      42.005  21.314  28.077  1.00  0.00     0.020 A 
ATOM     75  C   UNL A   1      42.245  21.093  26.719  1.00  0.00     0.054 A 
BRANCH  75  76
ATOM     76  S   UNL A   1      42.092  19.425  26.021  1.00  0.00     0.124 S 
ATOM     77  O   UNL A   1      40.652  19.312  25.817  1.00  0.00    -0.237 OA
ATOM     78  O   UNL A   1      42.898  19.517  24.805  1.00  0.00    -0.237 OA
ATOM     79  O   UNL A   1      42.648  18.566  27.063  1.00  0.00    -0.744 OA
ENDBRANCH  75  76
ENDBRANCH  47  70
BRANCH  59  80
ATOM     80  C   UNL A   1      47.977  27.043  30.583  1.00  0.00    -0.014 A 
ATOM     81  C   UNL A   1      49.023  27.346  29.694  1.00  0.00     0.010 A 
ATOM     82  C   UNL A   1      48.271  26.395  31.797  1.00  0.00     0.010 A 
ATOM     83  C   UNL A   1      50.337  26.982  30.003  1.00  0.00     0.020 A 
ATOM     84  C   UNL A   1      49.586  26.055  32.121  1.00  0.00     0.020 A 
ATOM     85  C   UNL A   1      50.610  26.340  31.216  1.00  0.00     0.054 A 
BRANCH  85  86
ATOM     86  S   UNL A   1      52.330  25.923  31.615  1.00  0.00     0.124 S 
ATOM     87  O   UNL A   1      52.992  26.098  30.325  1.00  0.00    -0.237 OA
ATOM     88  O   UNL A   1      52.671  26.910  32.636  1.00  0.00    -0.237 OA
ATOM     89  O   UNL A   1      52.250  24.544  32.093  1.00  0.00    -0.744 OA
ENDBRANCH  85  86
ENDBRANCH  59  80
ENDBRANCH  33  34
ENDBRANCH  25  28
ENDBRANCH  23  24
ENDBRANCH  22  23
ENDBRANCH  21  22
ENDBRANCH   1  21
TORSDOF 20
ENDMDL
MODEL 2
REMARK VINA RESULT:      -9.7      2.788      9.282
REMARK SMILES CN(CC1CCC1)C(=O)N(CC(=O)NCCCCNC(=O)c1ccc(-c2c3nc(c(-c4ccc(S(=O)(=O)[O-])cc4)c4ccc([nH]4)c(-c4ccc(S(=O)(=O)[O-])cc4)c4nc(c(-c5ccc(S(=O)(=O)[O-])cc5)c5ccc2[nH]5)C=C4)C=C3)cc1)C(C)(C)C
REMARK SMILES IDX 15 1 14 2 12 3 13 4 11 6 10 7 8 8 9 9 2 10 1 11 3 12 4 13
REMARK SMILES IDX 5 14 7 15 6 16 82 17 83 18 84 19 85 20 16 21 17 22 18 23
REMARK SMILES IDX 19 24 20 25 21 27 22 28 23 29 81 30 24 31 80 32 25 33 26 34
REMARK SMILES IDX 27 35 74 36 28 37 79 38 73 39 75 40 29 41 78 42 72 43 71 44
REMARK SMILES IDX 30 46 60 47 41 48 59 49 42 50 45 51 58 52 76 53 43 54 44 55
REMARK SMILES IDX 57 57 77 58 46 59 31 60 32 61 40 62 33 63 39 64 34 65 35 66
REMARK SMILES IDX 36 67 37 68 38 69 61 70 62 71 70 72 63 73 69 74 64 75 65 76
REMARK SMILES IDX 66 77 67 78 68 79 47 80 48 81 56 82 49 83 55 84 50 85 51 86
REMARK SMILES IDX 52 87 53 88 54 89
REMARK H PARENT 14 5 19 26 75 45 45 56
REMARK Flexibility Score: inf
ROOT
ATOM      1  C   UNL A   1      33.533  22.569  24.376  1.00  0.00     0.116 C 
ENDROOT
BRANCH   1   2
ATOM      2  N   UNL A   1      33.055  22.613  25.747  1.00  0.00    -0.355 N 
ATOM      3  C   UNL A   1      32.693  23.658  26.541  1.00  0.00     0.239 C 
ATOM      4  O   UNL A   1      32.019  23.374  27.541  1.00  0.00    -0.273 OA
ATOM      5  H   UNL A   1      32.980  21.732  26.177  1.00  0.00     0.163 HD
BRANCH   3   6
ATOM      6  C   UNL A   1      32.923  25.147  26.200  1.00  0.00     0.221 C 
BRANCH   6   7
ATOM      7  N   UNL A   1      31.794  26.074  26.080  1.00  0.00    -0.311 N 
BRANCH   7   8
ATOM      8  C   UNL A   1      30.511  25.759  25.620  1.00  0.00     0.320 C 
ATOM      9  O   UNL A   1      29.579  25.677  26.432  1.00  0.00    -0.248 OA
BRANCH   8  10
ATOM     10  N   UNL A   1      30.184  25.622  24.272  1.00  0.00    -0.327 N 
ATOM     11  C   UNL A   1      28.974  26.345  23.875  1.00  0.00     0.148 C 
BRANCH  10  12
ATOM     12  C   UNL A   1      30.693  24.707  23.240  1.00  0.00     0.124 C 
BRANCH  12  13
ATOM     13  C   UNL A   1      31.686  25.475  22.380  1.00  0.00     0.008 C 
ATOM     14  C   UNL A   1      31.526  27.018  22.303  1.00  0.00     0.005 C 
ATOM     15  C   UNL A   1      33.162  25.760  22.780  1.00  0.00     0.005 C 
ATOM     16  C   UNL A   1      33.025  27.048  21.923  1.00  0.00     0.001 C 
ENDBRANCH  12  13
ENDBRANCH  10  12
ENDBRANCH   8  10
ENDBRANCH   7   8
BRANCH   7  17
ATOM     17  C   UNL A   1      32.145  27.554  26.284  1.00  0.00     0.037 C 
ATOM     18  C   UNL A   1      31.710  28.042  27.682  1.00  0.00     0.034 C 
ATOM     19  C   UNL A   1      33.656  27.818  26.091  1.00  0.00     0.034 C 
ATOM     20  C   UNL A   1      31.445  28.513  25.275  1.00  0.00     0.034 C 
ENDBRANCH   7  17
ENDBRANCH   6   7
ENDBRANCH   3   6
ENDBRANCH   1   2
BRANCH   1  21
ATOM     21  C   UNL A   1      34.972  23.041  24.201  1.00  0.00     0.023 C 
BRANCH  21  22
ATOM     22  C   UNL A   1      35.908  22.670  25.344  1.00  0.00     0.023 C 
BRANCH  22  23
ATOM     23  C   UNL A   1      37.201  23.471  25.393  1.00  0.00     0.116 C 
BRANCH  23  24
ATOM     24  N   UNL A   1      38.374  22.635  25.613  1.00  0.00    -0.352 N 
ATOM     25  C   UNL A   1      39.585  22.966  26.182  1.00  0.00     0.251 C 
ATOM     26  H   UNL A   1      38.289  21.701  25.315  1.00  0.00     0.163 HD
ATOM     27  O   UNL A   1      40.522  22.186  26.145  1.00  0.00    -0.269 OA
BRANCH  25  28
ATOM     28  C   UNL A   1      39.737  24.296  26.810  1.00  0.00     0.039 A 
ATOM     29  C   UNL A   1      39.274  24.491  28.113  1.00  0.00     0.014 A 
ATOM     30  C   UNL A   1      40.393  25.323  26.129  1.00  0.00     0.014 A 
ATOM     31  C   UNL A   1      39.553  25.695  28.765  1.00  0.00     0.010 A 
ATOM     32  C   UNL A   1      40.751  26.478  26.811  1.00  0.00     0.010 A 
ATOM     33  C   UNL A   1      40.335  26.678  28.136  1.00  0.00    -0.014 A 
BRANCH  33  34
ATOM     34  C   UNL A   1      40.731  27.926  28.838  1.00  0.00     0.031 A 
ATOM     35  C   UNL A   1      42.082  28.019  29.495  1.00  0.00     0.074 A 
ATOM     36  C   UNL A   1      39.849  28.938  28.957  1.00  0.00     0.049 A 
ATOM     37  N   UNL A   1      42.579  28.982  30.226  1.00  0.00    -0.248 NA
ATOM     38  C   UNL A   1      42.980  26.862  29.335  1.00  0.00     0.031 C 
ATOM     39  C   UNL A   1      38.488  28.949  28.411  1.00  0.00     0.029 A 
ATOM     40  N   UNL A   1      39.961  30.152  29.588  1.00  0.00    -0.354 N 
ATOM     41  C   UNL A   1      43.831  28.540  30.633  1.00  0.00     0.074 A 
ATOM     42  C   UNL A   1      43.997  27.200  30.114  1.00  0.00     0.031 C 
ATOM     43  C   UNL A   1      37.907  30.125  28.703  1.00  0.00     0.029 A 
ATOM     44  C   UNL A   1      38.832  30.932  29.493  1.00  0.00     0.049 A 
ATOM     45  H   UNL A   1      40.774  30.438  30.063  1.00  0.00     0.167 HD
ATOM     46  C   UNL A   1      44.771  29.195  31.354  1.00  0.00     0.031 A 
ATOM     47  C   UNL A   1      38.568  32.157  29.988  1.00  0.00     0.031 A 
ATOM     48  C   UNL A   1      44.612  30.535  31.851  1.00  0.00     0.049 A 
ATOM     49  C   UNL A   1      39.629  32.870  30.780  1.00  0.00     0.074 A 
ATOM     50  C   UNL A   1      45.529  31.312  32.538  1.00  0.00     0.029 A 
ATOM     51  N   UNL A   1      43.464  31.298  31.712  1.00  0.00    -0.354 N 
ATOM     52  N   UNL A   1      40.835  32.460  31.097  1.00  0.00    -0.248 NA
ATOM     53  C   UNL A   1      39.300  34.215  31.270  1.00  0.00     0.031 C 
ATOM     54  C   UNL A   1      44.917  32.529  32.855  1.00  0.00     0.029 A 
ATOM     55  C   UNL A   1      43.639  32.530  32.316  1.00  0.00     0.049 A 
ATOM     56  H   UNL A   1      42.643  31.007  31.251  1.00  0.00     0.167 HD
ATOM     57  C   UNL A   1      41.417  33.507  31.802  1.00  0.00     0.074 A 
ATOM     58  C   UNL A   1      40.437  34.574  31.852  1.00  0.00     0.031 C 
ATOM     59  C   UNL A   1      42.653  33.581  32.356  1.00  0.00     0.031 A 
BRANCH  46  60
ATOM     60  C   UNL A   1      46.054  28.463  31.647  1.00  0.00    -0.014 A 
ATOM     61  C   UNL A   1      46.112  27.466  32.638  1.00  0.00     0.010 A 
ATOM     62  C   UNL A   1      47.214  28.761  30.910  1.00  0.00     0.010 A 
ATOM     63  C   UNL A   1      47.316  26.816  32.919  1.00  0.00     0.020 A 
ATOM     64  C   UNL A   1      48.414  28.092  31.168  1.00  0.00     0.020 A 
ATOM     65  C   UNL A   1      48.462  27.137  32.186  1.00  0.00     0.054 A 
BRANCH  65  66
ATOM     66  S   UNL A   1      50.008  26.270  32.566  1.00  0.00     0.124 S 
ATOM     67  O   UNL A   1      50.877  26.719  31.480  1.00  0.00    -0.237 OA
ATOM     68  O   UNL A   1      50.346  26.781  33.891  1.00  0.00    -0.237 OA
ATOM     69  O   UNL A   1      49.634  24.859  32.522  1.00  0.00    -0.744 OA
ENDBRANCH  65  66
ENDBRANCH  46  60
BRANCH  47  70
ATOM     70  C   UNL A   1      37.250  32.796  29.727  1.00  0.00    -0.014 A 
ATOM     71  C   UNL A   1      36.224  32.730  30.688  1.00  0.00     0.010 A 
ATOM     72  C   UNL A   1      37.016  33.491  28.526  1.00  0.00     0.010 A 
ATOM     73  C   UNL A   1      34.985  33.332  30.446  1.00  0.00     0.020 A 
ATOM     74  C   UNL A   1      35.788  34.117  28.293  1.00  0.00     0.020 A 
ATOM     75  C   UNL A   1      34.776  34.024  29.250  1.00  0.00     0.054 A 
BRANCH  75  76
ATOM     76  S   UNL A   1      33.181  34.846  28.982  1.00  0.00     0.124 S 
ATOM     77  O   UNL A   1      33.594  36.160  28.499  1.00  0.00    -0.237 OA
ATOM     78  O   UNL A   1      32.542  33.980  27.994  1.00  0.00    -0.237 OA
ATOM     79  O   UNL A   1      32.562  34.830  30.305  1.00  0.00    -0.744 OA
ENDBRANCH  75  76
ENDBRANCH  47  70
BRANCH  59  80
ATOM     80  C   UNL A   1      43.032  34.869  33.035  1.00  0.00    -0.014 A 
ATOM     81  C   UNL A   1      42.858  35.041  34.420  1.00  0.00     0.010 A 
ATOM     82  C   UNL A   1      43.629  35.897  32.283  1.00  0.00     0.010 A 
ATOM     83  C   UNL A   1      43.250  36.233  35.036  1.00  0.00     0.020 A 
ATOM     84  C   UNL A   1      44.046  37.079  32.900  1.00  0.00     0.020 A 
ATOM     85  C   UNL A   1      43.842  37.244  34.271  1.00  0.00     0.054 A 
BRANCH  85  86
ATOM     86  S   UNL A   1      44.387  38.762  35.103  1.00  0.00     0.124 S 
ATOM     87  O   UNL A   1      43.582  39.780  34.433  1.00  0.00    -0.237 OA
ATOM     88  O   UNL A   1      44.041  38.505  36.498  1.00  0.00    -0.237 OA
ATOM     89  O   UNL A   1      45.820  38.815  34.823  1.00  0.00    -0.744 OA
ENDBRANCH  85  86
ENDBRANCH  59  80
ENDBRANCH  33  34
ENDBRANCH  25  28
ENDBRANCH  23  24
ENDBRANCH  22  23
ENDBRANCH  21  22
ENDBRANCH   1  21
TORSDOF 20
ENDMDL
MODEL 3
REMARK VINA RESULT:      -9.5      3.394      9.407
REMARK SMILES CN(CC1CCC1)C(=O)N(CC(=O)NCCCCNC(=O)c1ccc(-c2c3nc(c(-c4ccc(S(=O)(=O)[O-])cc4)c4ccc([nH]4)c(-c4ccc(S(=O)(=O)[O-])cc4)c4nc(c(-c5ccc(S(=O)(=O)[O-])cc5)c5ccc2[nH]5)C=C4)C=C3)cc1)C(C)(C)C
REMARK SMILES IDX 15 1 14 2 12 3 13 4 11 6 10 7 8 8 9 9 2 10 1 11 3 12 4 13
REMARK SMILES IDX 5 14 7 15 6 16 82 17 83 18 84 19 85 20 16 21 17 22 18 23
REMARK SMILES IDX 19 24 20 25 21 27 22 28 23 29 81 30 24 31 80 32 25 33 26 34
REMARK SMILES IDX 27 35 74 36 28 37 79 38 73 39 75 40 29 41 78 42 72 43 71 44
REMARK SMILES IDX 30 46 60 47 41 48 59 49 42 50 45 51 58 52 76 53 43 54 44 55
REMARK SMILES IDX 57 57 77 58 46 59 31 60 32 61 40 62 33 63 39 64 34 65 35 66
REMARK SMILES IDX 36 67 37 68 38 69 61 70 62 71 70 72 63 73 69 74 64 75 65 76
REMARK SMILES IDX 66 77 67 78 68 79 47 80 48 81 56 82 49 83 55 84 50 85 51 86
REMARK SMILES IDX 52 87 53 88 54 89
REMARK H PARENT 14 5 19 26 75 45 45 56
REMARK Flexibility Score: inf
ROOT
ATOM      1  C   UNL A   1      36.835  22.736  24.888  1.00  0.00     0.116 C 
ENDROOT
BRANCH   1   2
ATOM      2  N   UNL A   1      35.833  22.933  23.856  1.00  0.00    -0.355 N 
ATOM      3  C   UNL A   1      34.817  23.833  23.748  1.00  0.00     0.239 C 
ATOM      4  O   UNL A   1      34.334  23.976  22.616  1.00  0.00    -0.273 OA
ATOM      5  H   UNL A   1      35.900  22.304  23.102  1.00  0.00     0.163 HD
BRANCH   3   6
ATOM      6  C   UNL A   1      34.350  24.777  24.878  1.00  0.00     0.221 C 
BRANCH   6   7
ATOM      7  N   UNL A   1      33.113  25.551  24.748  1.00  0.00    -0.311 N 
BRANCH   7   8
ATOM      8  C   UNL A   1      33.011  26.886  24.340  1.00  0.00     0.320 C 
ATOM      9  O   UNL A   1      33.326  27.786  25.130  1.00  0.00    -0.248 OA
BRANCH   8  10
ATOM     10  N   UNL A   1      32.667  27.276  23.047  1.00  0.00    -0.327 N 
ATOM     11  C   UNL A   1      33.683  28.089  22.377  1.00  0.00     0.148 C 
BRANCH  10  12
ATOM     12  C   UNL A   1      31.385  27.218  22.327  1.00  0.00     0.124 C 
BRANCH  12  13
ATOM     13  C   UNL A   1      30.443  28.230  22.963  1.00  0.00     0.008 C 
ATOM     14  C   UNL A   1      30.059  29.480  22.124  1.00  0.00     0.005 C 
ATOM     15  C   UNL A   1      28.912  28.018  23.141  1.00  0.00     0.005 C 
ATOM     16  C   UNL A   1      28.801  29.562  23.019  1.00  0.00     0.001 C 
ENDBRANCH  12  13
ENDBRANCH  10  12
ENDBRANCH   8  10
ENDBRANCH   7   8
BRANCH   7  17
ATOM     17  C   UNL A   1      31.861  24.874  25.320  1.00  0.00     0.037 C 
ATOM     18  C   UNL A   1      32.225  23.909  26.468  1.00  0.00     0.034 C 
ATOM     19  C   UNL A   1      30.826  25.907  25.821  1.00  0.00     0.034 C 
ATOM     20  C   UNL A   1      31.082  24.007  24.285  1.00  0.00     0.034 C 
ENDBRANCH   7  17
ENDBRANCH   6   7
ENDBRANCH   3   6
ENDBRANCH   1   2
BRANCH   1  21
ATOM     21  C   UNL A   1      36.942  21.301  25.390  1.00  0.00     0.023 C 
BRANCH  21  22
ATOM     22  C   UNL A   1      38.249  20.600  25.042  1.00  0.00     0.023 C 
BRANCH  22  23
ATOM     23  C   UNL A   1      39.344  20.739  26.090  1.00  0.00     0.116 C 
BRANCH  23  24
ATOM     24  N   UNL A   1      40.263  19.609  26.099  1.00  0.00    -0.352 N 
ATOM     25  C   UNL A   1      41.641  19.606  26.148  1.00  0.00     0.251 C 
ATOM     26  H   UNL A   1      39.839  18.721  26.065  1.00  0.00     0.163 HD
ATOM     27  O   UNL A   1      42.265  18.571  25.984  1.00  0.00    -0.269 OA
BRANCH  25  28
ATOM     28  C   UNL A   1      42.347  20.884  26.370  1.00  0.00     0.039 A 
ATOM     29  C   UNL A   1      42.784  21.623  25.269  1.00  0.00     0.014 A 
ATOM     30  C   UNL A   1      42.518  21.376  27.666  1.00  0.00     0.014 A 
ATOM     31  C   UNL A   1      43.313  22.901  25.467  1.00  0.00     0.010 A 
ATOM     32  C   UNL A   1      42.953  22.681  27.852  1.00  0.00     0.010 A 
ATOM     33  C   UNL A   1      43.356  23.458  26.756  1.00  0.00    -0.014 A 
BRANCH  33  34
ATOM     34  C   UNL A   1      43.820  24.850  26.987  1.00  0.00     0.031 A 
ATOM     35  C   UNL A   1      45.273  25.196  26.803  1.00  0.00     0.074 A 
ATOM     36  C   UNL A   1      42.955  25.779  27.442  1.00  0.00     0.049 A 
ATOM     37  N   UNL A   1      45.889  26.326  27.038  1.00  0.00    -0.248 NA
ATOM     38  C   UNL A   1      46.157  24.120  26.323  1.00  0.00     0.031 C 
ATOM     39  C   UNL A   1      41.532  25.557  27.711  1.00  0.00     0.029 A 
ATOM     40  N   UNL A   1      43.150  27.098  27.769  1.00  0.00    -0.354 N 
ATOM     41  C   UNL A   1      47.229  26.090  26.760  1.00  0.00     0.074 A 
ATOM     42  C   UNL A   1      47.347  24.696  26.392  1.00  0.00     0.031 C 
ATOM     43  C   UNL A   1      40.978  26.707  28.130  1.00  0.00     0.029 A 
ATOM     44  C   UNL A   1      42.011  27.736  28.203  1.00  0.00     0.049 A 
ATOM     45  H   UNL A   1      44.024  27.547  27.699  1.00  0.00     0.167 HD
ATOM     46  C   UNL A   1      48.267  26.958  26.785  1.00  0.00     0.031 A 
ATOM     47  C   UNL A   1      41.819  29.003  28.617  1.00  0.00     0.031 A 
ATOM     48  C   UNL A   1      48.143  28.349  27.131  1.00  0.00     0.049 A 
ATOM     49  C   UNL A   1      42.985  29.953  28.629  1.00  0.00     0.074 A 
ATOM     50  C   UNL A   1      49.123  29.327  27.126  1.00  0.00     0.029 A 
ATOM     51  N   UNL A   1      46.969  28.959  27.541  1.00  0.00    -0.354 N 
ATOM     52  N   UNL A   1      44.235  29.728  28.298  1.00  0.00    -0.248 NA
ATOM     53  C   UNL A   1      42.714  31.331  29.060  1.00  0.00     0.031 C 
ATOM     54  C   UNL A   1      48.548  30.519  27.578  1.00  0.00     0.029 A 
ATOM     55  C   UNL A   1      47.200  30.296  27.810  1.00  0.00     0.049 A 
ATOM     56  H   UNL A   1      46.097  28.508  27.627  1.00  0.00     0.167 HD
ATOM     57  C   UNL A   1      44.893  30.942  28.455  1.00  0.00     0.074 A 
ATOM     58  C   UNL A   1      43.901  31.901  28.898  1.00  0.00     0.031 C 
ATOM     59  C   UNL A   1      46.200  31.237  28.249  1.00  0.00     0.031 A 
BRANCH  46  60
ATOM     60  C   UNL A   1      49.628  26.421  26.429  1.00  0.00    -0.014 A 
ATOM     61  C   UNL A   1      50.109  26.480  25.107  1.00  0.00     0.010 A 
ATOM     62  C   UNL A   1      50.448  25.870  27.429  1.00  0.00     0.010 A 
ATOM     63  C   UNL A   1      51.361  25.951  24.785  1.00  0.00     0.020 A 
ATOM     64  C   UNL A   1      51.714  25.366  27.116  1.00  0.00     0.020 A 
ATOM     65  C   UNL A   1      52.154  25.392  25.790  1.00  0.00     0.054 A 
BRANCH  65  66
ATOM     66  S   UNL A   1      53.780  24.724  25.345  1.00  0.00     0.124 S 
ATOM     67  O   UNL A   1      54.155  25.576  24.218  1.00  0.00    -0.237 OA
ATOM     68  O   UNL A   1      54.555  24.922  26.567  1.00  0.00    -0.237 OA
ATOM     69  O   UNL A   1      53.501  23.331  25.006  1.00  0.00    -0.744 OA
ENDBRANCH  65  66
ENDBRANCH  46  60
BRANCH  47  70
ATOM     70  C   UNL A   1      40.462  29.453  29.030  1.00  0.00    -0.014 A 
ATOM     71  C   UNL A   1      39.483  29.742  28.062  1.00  0.00     0.010 A 
ATOM     72  C   UNL A   1      40.132  29.575  30.392  1.00  0.00     0.010 A 
ATOM     73  C   UNL A   1      38.206  30.162  28.447  1.00  0.00     0.020 A 
ATOM     74  C   UNL A   1      38.848  29.969  30.781  1.00  0.00     0.020 A 
ATOM     75  C   UNL A   1      37.896  30.270  29.805  1.00  0.00     0.054 A 
BRANCH  75  76
ATOM     76  S   UNL A   1      36.216  30.761  30.283  1.00  0.00     0.124 S 
ATOM     77  O   UNL A   1      35.910  29.804  31.342  1.00  0.00    -0.237 OA
ATOM     78  O   UNL A   1      36.402  32.145  30.715  1.00  0.00    -0.237 OA
ATOM     79  O   UNL A   1      35.450  30.600  29.051  1.00  0.00    -0.744 OA
ENDBRANCH  75  76
ENDBRANCH  47  70
BRANCH  59  80
ATOM     80  C   UNL A   1      46.631  32.662  28.466  1.00  0.00    -0.014 A 
ATOM     81  C   UNL A   1      47.138  33.090  29.705  1.00  0.00     0.010 A 
ATOM     82  C   UNL A   1      46.584  33.570  27.392  1.00  0.00     0.010 A 
ATOM     83  C   UNL A   1      47.565  34.410  29.874  1.00  0.00     0.020 A 
ATOM     84  C   UNL A   1      47.035  34.882  27.549  1.00  0.00     0.020 A 
ATOM     85  C   UNL A   1      47.511  35.298  28.794  1.00  0.00     0.054 A 
BRANCH  85  86
ATOM     86  S   UNL A   1      48.117  36.992  29.024  1.00  0.00     0.124 S 
ATOM     87  O   UNL A   1      46.994  37.786  28.532  1.00  0.00    -0.237 OA
ATOM     88  O   UNL A   1      48.349  37.057  30.465  1.00  0.00    -0.237 OA
ATOM     89  O   UNL A   1      49.324  37.043  28.203  1.00  0.00    -0.744 OA
ENDBRANCH  85  86
ENDBRANCH  59  80
ENDBRANCH  33  34
ENDBRANCH  25  28
ENDBRANCH  23  24
ENDBRANCH  22  23
ENDBRANCH  21  22
ENDBRANCH   1  21
TORSDOF 20
ENDMDL
