MODEL 1
REMARK VINA RESULT:     -11.7      0.000      0.000
REMARK SMILES O=C(NCCCCNC(=O)c1ccn(Cc2c(Cl)cccc2Cl)c1)c1ccc(-c2c3nc(c(-c4ccc(S(=O)(=O)[O-])cc4)c4ccc([nH]4)c(-c4ccc(S(=O)(=O)[O-])cc4)c4nc(c(-c5ccc(S(=O)(=O)[O-])cc5)c5ccc2[nH]5)C=C4)C=C3)cc1
REMARK SMILES IDX 5 1 4 2 3 3 1 4 2 5 25 7 26 8 84 9 27 10 83 11 28 12 29 13
REMARK SMILES IDX 30 14 77 15 31 16 82 17 76 18 78 19 32 20 81 21 75 22 74 23
REMARK SMILES IDX 33 25 63 26 44 27 62 28 45 29 48 30 61 31 79 32 46 33 47 34
REMARK SMILES IDX 60 36 80 37 49 38 34 39 35 40 43 41 36 42 42 43 37 44 38 45
REMARK SMILES IDX 39 46 40 47 41 48 64 49 65 50 73 51 66 52 72 53 67 54 68 55
REMARK SMILES IDX 69 56 70 57 71 58 50 59 51 60 59 61 52 62 58 63 53 64 54 65
REMARK SMILES IDX 55 66 56 67 57 68 6 69 7 70 8 71 9 72 10 74 11 75 12 76
REMARK SMILES IDX 24 77 13 78 14 79 15 80 16 81 17 82 22 83 18 84 19 85 21 86
REMARK SMILES IDX 23 87 20 88
REMARK H PARENT 3 6 78 24 48 35 8 73
REMARK Flexibility Score: inf
ROOT
ATOM      1  C   UNL A   1      33.748  28.332  25.800  1.00  0.00     0.023 C 
ENDROOT
BRANCH   1   2
ATOM      2  C   UNL A   1      33.134  28.678  27.157  1.00  0.00     0.116 C 
BRANCH   2   3
ATOM      3  N   UNL A   1      33.146  30.084  27.510  1.00  0.00    -0.352 N 
ATOM      4  O   UNL A   1      33.848  32.160  27.884  1.00  0.00    -0.269 OA
ATOM      5  C   UNL A   1      34.147  30.965  27.839  1.00  0.00     0.251 C 
ATOM      6  H   UNL A   1      32.251  30.493  27.514  1.00  0.00     0.163 HD
BRANCH   5   7
ATOM      7  C   UNL A   1      35.518  30.548  28.235  1.00  0.00     0.039 A 
ATOM      8  C   UNL A   1      36.587  30.404  27.354  1.00  0.00     0.014 A 
ATOM      9  C   UNL A   1      35.722  30.263  29.600  1.00  0.00     0.014 A 
ATOM     10  C   UNL A   1      37.791  29.863  27.794  1.00  0.00     0.010 A 
ATOM     11  C   UNL A   1      36.936  29.748  30.055  1.00  0.00     0.010 A 
ATOM     12  C   UNL A   1      37.965  29.525  29.143  1.00  0.00    -0.014 A 
BRANCH  12  13
ATOM     13  C   UNL A   1      39.338  29.151  29.561  1.00  0.00     0.031 A 
ATOM     14  C   UNL A   1      40.097  30.424  30.025  1.00  0.00     0.074 A 
ATOM     15  C   UNL A   1      39.719  27.856  29.307  1.00  0.00     0.049 A 
ATOM     16  N   UNL A   1      41.314  30.805  29.791  1.00  0.00    -0.248 NA
ATOM     17  C   UNL A   1      39.349  31.490  30.758  1.00  0.00     0.031 C 
ATOM     18  C   UNL A   1      38.797  26.743  28.961  1.00  0.00     0.029 A 
ATOM     19  N   UNL A   1      40.932  27.194  29.273  1.00  0.00    -0.354 N 
ATOM     20  C   UNL A   1      41.529  32.039  30.461  1.00  0.00     0.074 A 
ATOM     21  C   UNL A   1      40.255  32.455  30.955  1.00  0.00     0.031 C 
ATOM     22  C   UNL A   1      39.478  25.608  28.662  1.00  0.00     0.029 A 
ATOM     23  C   UNL A   1      40.901  25.861  28.756  1.00  0.00     0.049 A 
ATOM     24  H   UNL A   1      41.764  27.613  29.587  1.00  0.00     0.167 HD
ATOM     25  C   UNL A   1      42.773  32.578  30.651  1.00  0.00     0.031 A 
ATOM     26  C   UNL A   1      41.949  25.063  28.357  1.00  0.00     0.031 A 
ATOM     27  C   UNL A   1      43.743  31.756  30.019  1.00  0.00     0.049 A 
ATOM     28  C   UNL A   1      43.141  25.880  28.625  1.00  0.00     0.074 A 
ATOM     29  C   UNL A   1      44.150  31.613  28.721  1.00  0.00     0.029 A 
ATOM     30  N   UNL A   1      44.208  30.700  30.760  1.00  0.00    -0.354 N 
ATOM     31  N   UNL A   1      43.628  26.128  29.800  1.00  0.00    -0.248 NA
ATOM     32  C   UNL A   1      43.769  26.583  27.500  1.00  0.00     0.031 C 
ATOM     33  C   UNL A   1      44.408  30.230  28.619  1.00  0.00     0.029 A 
ATOM     34  C   UNL A   1      44.351  29.648  29.891  1.00  0.00     0.049 A 
ATOM     35  H   UNL A   1      44.401  30.698  31.725  1.00  0.00     0.167 HD
ATOM     36  C   UNL A   1      44.344  27.277  29.587  1.00  0.00     0.074 A 
ATOM     37  C   UNL A   1      44.647  27.320  28.172  1.00  0.00     0.031 C 
ATOM     38  C   UNL A   1      44.228  28.323  30.443  1.00  0.00     0.031 A 
BRANCH  25  39
ATOM     39  C   UNL A   1      43.320  33.669  31.540  1.00  0.00    -0.014 A 
ATOM     40  C   UNL A   1      43.382  33.380  32.933  1.00  0.00     0.010 A 
ATOM     41  C   UNL A   1      43.418  35.015  31.163  1.00  0.00     0.010 A 
ATOM     42  C   UNL A   1      43.370  34.380  33.904  1.00  0.00     0.020 A 
ATOM     43  C   UNL A   1      43.453  36.032  32.141  1.00  0.00     0.020 A 
ATOM     44  C   UNL A   1      43.372  35.708  33.500  1.00  0.00     0.054 A 
BRANCH  44  45
ATOM     45  S   UNL A   1      43.202  36.980  34.783  1.00  0.00     0.124 S 
ATOM     46  O   UNL A   1      43.789  36.327  35.950  1.00  0.00    -0.237 OA
ATOM     47  O   UNL A   1      43.981  38.088  34.233  1.00  0.00    -0.237 OA
ATOM     48  O   UNL A   1      41.762  37.213  34.849  1.00  0.00    -0.744 OA
ENDBRANCH  44  45
ENDBRANCH  25  39
BRANCH  26  49
ATOM     49  C   UNL A   1      42.215  23.769  27.595  1.00  0.00    -0.014 A 
ATOM     50  C   UNL A   1      43.375  22.987  27.627  1.00  0.00     0.010 A 
ATOM     51  C   UNL A   1      41.148  23.222  26.815  1.00  0.00     0.010 A 
ATOM     52  C   UNL A   1      43.395  21.675  27.069  1.00  0.00     0.020 A 
ATOM     53  C   UNL A   1      41.131  21.917  26.310  1.00  0.00     0.020 A 
ATOM     54  C   UNL A   1      42.251  21.128  26.473  1.00  0.00     0.054 A 
BRANCH  54  55
ATOM     55  S   UNL A   1      42.158  19.360  26.043  1.00  0.00     0.124 S 
ATOM     56  O   UNL A   1      42.603  18.708  27.270  1.00  0.00    -0.237 OA
ATOM     57  O   UNL A   1      40.745  19.186  25.712  1.00  0.00    -0.237 OA
ATOM     58  O   UNL A   1      43.068  19.234  24.905  1.00  0.00    -0.744 OA
ENDBRANCH  54  55
ENDBRANCH  26  49
BRANCH  38  59
ATOM     59  C   UNL A   1      43.624  27.987  31.808  1.00  0.00    -0.014 A 
ATOM     60  C   UNL A   1      44.416  27.343  32.773  1.00  0.00     0.010 A 
ATOM     61  C   UNL A   1      42.268  28.207  32.135  1.00  0.00     0.010 A 
ATOM     62  C   UNL A   1      43.885  26.938  34.008  1.00  0.00     0.020 A 
ATOM     63  C   UNL A   1      41.723  27.803  33.371  1.00  0.00     0.020 A 
ATOM     64  C   UNL A   1      42.541  27.172  34.306  1.00  0.00     0.054 A 
BRANCH  64  65
ATOM     65  S   UNL A   1      41.896  26.638  35.921  1.00  0.00     0.124 S 
ATOM     66  O   UNL A   1      40.843  25.694  35.554  1.00  0.00    -0.237 OA
ATOM     67  O   UNL A   1      43.073  26.043  36.548  1.00  0.00    -0.237 OA
ATOM     68  O   UNL A   1      41.423  27.874  36.540  1.00  0.00    -0.744 OA
ENDBRANCH  64  65
ENDBRANCH  38  59
ENDBRANCH  12  13
ENDBRANCH   5   7
ENDBRANCH   2   3
ENDBRANCH   1   2
BRANCH   1  69
ATOM     69  C   UNL A   1      33.037  28.940  24.589  1.00  0.00     0.023 C 
BRANCH  69  70
ATOM     70  C   UNL A   1      32.020  28.031  23.903  1.00  0.00     0.116 C 
BRANCH  70  71
ATOM     71  N   UNL A   1      32.520  27.491  22.650  1.00  0.00    -0.352 N 
ATOM     72  C   UNL A   1      33.143  26.285  22.426  1.00  0.00     0.252 C 
ATOM     73  H   UNL A   1      32.399  28.063  21.858  1.00  0.00     0.163 HD
ATOM     74  O   UNL A   1      33.674  26.067  21.345  1.00  0.00    -0.269 OA
BRANCH  72  75
ATOM     75  C   UNL A   1      33.111  25.298  23.496  1.00  0.00     0.057 A 
ATOM     76  C   UNL A   1      32.063  24.388  23.806  1.00  0.00     0.033 A 
ATOM     77  C   UNL A   1      34.143  25.021  24.380  1.00  0.00     0.099 A 
ATOM     78  C   UNL A   1      32.476  23.621  24.867  1.00  0.00     0.087 A 
ATOM     79  N   UNL A   1      33.724  24.043  25.250  1.00  0.00    -0.349 N 
BRANCH  79  80
ATOM     80  C   UNL A   1      34.532  23.443  26.315  1.00  0.00     0.160 C 
BRANCH  80  81
ATOM     81  C   UNL A   1      35.475  22.372  25.806  1.00  0.00     0.009 A 
ATOM     82  C   UNL A   1      36.835  22.640  25.547  1.00  0.00     0.047 A 
ATOM     83  C   UNL A   1      35.031  21.056  25.568  1.00  0.00     0.047 A 
ATOM     84  Cl  UNL A   1      37.596  24.134  25.976  1.00  0.00    -0.084 Cl
ATOM     85  C   UNL A   1      37.681  21.670  24.994  1.00  0.00     0.021 A 
ATOM     86  C   UNL A   1      35.893  20.075  25.054  1.00  0.00     0.021 A 
ATOM     87  Cl  UNL A   1      33.421  20.541  25.937  1.00  0.00    -0.084 Cl
ATOM     88  C   UNL A   1      37.212  20.388  24.744  1.00  0.00     0.003 A 
ENDBRANCH  80  81
ENDBRANCH  79  80
ENDBRANCH  72  75
ENDBRANCH  70  71
ENDBRANCH  69  70
ENDBRANCH   1  69
TORSDOF 16
ENDMDL
MODEL 2
REMARK VINA RESULT:     -11.6      1.588      2.273
REMARK SMILES O=C(NCCCCNC(=O)c1ccn(Cc2c(Cl)cccc2Cl)c1)c1ccc(-c2c3nc(c(-c4ccc(S(=O)(=O)[O-])cc4)c4ccc([nH]4)c(-c4ccc(S(=O)(=O)[O-])cc4)c4nc(c(-c5ccc(S(=O)(=O)[O-])cc5)c5ccc2[nH]5)C=C4)C=C3)cc1
REMARK SMILES IDX 5 1 4 2 3 3 1 4 2 5 25 7 26 8 84 9 27 10 83 11 28 12 29 13
REMARK SMILES IDX 30 14 77 15 31 16 82 17 76 18 78 19 32 20 81 21 75 22 74 23
REMARK SMILES IDX 33 25 63 26 44 27 62 28 45 29 48 30 61 31 79 32 46 33 47 34
REMARK SMILES IDX 60 36 80 37 49 38 34 39 35 40 43 41 36 42 42 43 37 44 38 45
REMARK SMILES IDX 39 46 40 47 41 48 64 49 65 50 73 51 66 52 72 53 67 54 68 55
REMARK SMILES IDX 69 56 70 57 71 58 50 59 51 60 59 61 52 62 58 63 53 64 54 65
REMARK SMILES IDX 55 66 56 67 57 68 6 69 7 70 8 71 9 72 10 74 11 75 12 76
REMARK SMILES IDX 24 77 13 78 14 79 15 80 16 81 17 82 22 83 18 84 19 85 21 86
REMARK SMILES IDX 23 87 20 88
REMARK H PARENT 3 6 78 24 48 35 8 73
REMARK Flexibility Score: inf
ROOT
ATOM      1  C   UNL A   1      33.772  27.784  25.080  1.00  0.00     0.023 C 
ENDROOT
BRANCH   1   2
ATOM      2  C   UNL A   1      33.739  27.884  26.605  1.00  0.00     0.116 C 
BRANCH   2   3
ATOM      3  N   UNL A   1      33.483  29.207  27.141  1.00  0.00    -0.352 N 
ATOM      4  O   UNL A   1      33.791  31.282  27.875  1.00  0.00    -0.269 OA
ATOM      5  C   UNL A   1      34.285  30.165  27.710  1.00  0.00     0.251 C 
ATOM      6  H   UNL A   1      32.538  29.474  27.085  1.00  0.00     0.163 HD
BRANCH   5   7
ATOM      7  C   UNL A   1      35.657  29.899  28.219  1.00  0.00     0.039 A 
ATOM      8  C   UNL A   1      35.962  29.576  29.540  1.00  0.00     0.014 A 
ATOM      9  C   UNL A   1      36.709  30.008  27.288  1.00  0.00     0.014 A 
ATOM     10  C   UNL A   1      37.287  29.494  29.953  1.00  0.00     0.010 A 
ATOM     11  C   UNL A   1      38.040  29.899  27.689  1.00  0.00     0.010 A 
ATOM     12  C   UNL A   1      38.329  29.664  29.032  1.00  0.00    -0.014 A 
BRANCH  12  13
ATOM     13  C   UNL A   1      39.697  29.358  29.514  1.00  0.00     0.031 A 
ATOM     14  C   UNL A   1      40.371  30.667  30.012  1.00  0.00     0.074 A 
ATOM     15  C   UNL A   1      40.155  28.084  29.278  1.00  0.00     0.049 A 
ATOM     16  N   UNL A   1      41.577  31.107  29.834  1.00  0.00    -0.248 NA
ATOM     17  C   UNL A   1      39.538  31.692  30.709  1.00  0.00     0.031 C 
ATOM     18  C   UNL A   1      39.306  26.927  28.890  1.00  0.00     0.029 A 
ATOM     19  N   UNL A   1      41.398  27.482  29.301  1.00  0.00    -0.354 N 
ATOM     20  C   UNL A   1      41.700  32.349  30.512  1.00  0.00     0.074 A 
ATOM     21  C   UNL A   1      40.384  32.700  30.947  1.00  0.00     0.031 C 
ATOM     22  C   UNL A   1      40.055  25.828  28.625  1.00  0.00     0.029 A 
ATOM     23  C   UNL A   1      41.458  26.151  28.784  1.00  0.00     0.049 A 
ATOM     24  H   UNL A   1      42.194  27.942  29.653  1.00  0.00     0.167 HD
ATOM     25  C   UNL A   1      42.905  32.949  30.760  1.00  0.00     0.031 A 
ATOM     26  C   UNL A   1      42.561  25.406  28.434  1.00  0.00     0.031 A 
ATOM     27  C   UNL A   1      43.943  32.177  30.174  1.00  0.00     0.049 A 
ATOM     28  C   UNL A   1      43.697  26.281  28.757  1.00  0.00     0.074 A 
ATOM     29  C   UNL A   1      44.416  32.057  28.896  1.00  0.00     0.029 A 
ATOM     30  N   UNL A   1      44.425  31.144  30.937  1.00  0.00    -0.354 N 
ATOM     31  N   UNL A   1      44.117  26.550  29.953  1.00  0.00    -0.248 NA
ATOM     32  C   UNL A   1      44.342  27.016  27.662  1.00  0.00     0.031 C 
ATOM     33  C   UNL A   1      44.747  30.688  28.807  1.00  0.00     0.029 A 
ATOM     34  C   UNL A   1      44.659  30.102  30.075  1.00  0.00     0.049 A 
ATOM     35  H   UNL A   1      44.573  31.150  31.910  1.00  0.00     0.167 HD
ATOM     36  C   UNL A   1      44.785  27.734  29.773  1.00  0.00     0.074 A 
ATOM     37  C   UNL A   1      45.150  27.794  28.374  1.00  0.00     0.031 C 
ATOM     38  C   UNL A   1      44.577  28.771  30.622  1.00  0.00     0.031 A 
BRANCH  25  39
ATOM     39  C   UNL A   1      43.356  34.064  31.673  1.00  0.00    -0.014 A 
ATOM     40  C   UNL A   1      43.108  33.884  33.063  1.00  0.00     0.010 A 
ATOM     41  C   UNL A   1      43.648  35.364  31.240  1.00  0.00     0.010 A 
ATOM     42  C   UNL A   1      42.988  34.957  33.945  1.00  0.00     0.020 A 
ATOM     43  C   UNL A   1      43.574  36.451  32.137  1.00  0.00     0.020 A 
ATOM     44  C   UNL A   1      43.191  36.244  33.467  1.00  0.00     0.054 A 
BRANCH  44  45
ATOM     45  S   UNL A   1      42.879  37.625  34.603  1.00  0.00     0.124 S 
ATOM     46  O   UNL A   1      43.999  37.523  35.534  1.00  0.00    -0.237 OA
ATOM     47  O   UNL A   1      42.914  38.782  33.711  1.00  0.00    -0.237 OA
ATOM     48  O   UNL A   1      41.565  37.320  35.163  1.00  0.00    -0.744 OA
ENDBRANCH  44  45
ENDBRANCH  25  39
BRANCH  26  49
ATOM     49  C   UNL A   1      42.926  24.128  27.686  1.00  0.00    -0.014 A 
ATOM     50  C   UNL A   1      42.097  23.366  26.853  1.00  0.00     0.010 A 
ATOM     51  C   UNL A   1      44.281  23.677  27.755  1.00  0.00     0.010 A 
ATOM     52  C   UNL A   1      42.634  22.343  26.018  1.00  0.00     0.020 A 
ATOM     53  C   UNL A   1      44.834  22.714  26.904  1.00  0.00     0.020 A 
ATOM     54  C   UNL A   1      44.009  22.070  26.004  1.00  0.00     0.054 A 
BRANCH  54  55
ATOM     55  S   UNL A   1      44.752  21.001  24.730  1.00  0.00     0.124 S 
ATOM     56  O   UNL A   1      44.696  21.838  23.537  1.00  0.00    -0.237 OA
ATOM     57  O   UNL A   1      46.089  20.749  25.265  1.00  0.00    -0.237 OA
ATOM     58  O   UNL A   1      43.876  19.830  24.710  1.00  0.00    -0.744 OA
ENDBRANCH  54  55
ENDBRANCH  26  49
BRANCH  38  59
ATOM     59  C   UNL A   1      43.928  28.403  31.957  1.00  0.00    -0.014 A 
ATOM     60  C   UNL A   1      42.553  28.622  32.140  1.00  0.00     0.010 A 
ATOM     61  C   UNL A   1      44.655  27.930  33.073  1.00  0.00     0.010 A 
ATOM     62  C   UNL A   1      41.927  28.380  33.374  1.00  0.00     0.020 A 
ATOM     63  C   UNL A   1      44.038  27.685  34.316  1.00  0.00     0.020 A 
ATOM     64  C   UNL A   1      42.670  27.909  34.458  1.00  0.00     0.054 A 
BRANCH  64  65
ATOM     65  S   UNL A   1      41.818  27.602  36.035  1.00  0.00     0.124 S 
ATOM     66  O   UNL A   1      41.173  26.310  35.810  1.00  0.00    -0.237 OA
ATOM     67  O   UNL A   1      42.922  27.587  36.991  1.00  0.00    -0.237 OA
ATOM     68  O   UNL A   1      40.900  28.731  36.168  1.00  0.00    -0.744 OA
ENDBRANCH  64  65
ENDBRANCH  38  59
ENDBRANCH  12  13
ENDBRANCH   5   7
ENDBRANCH   2   3
ENDBRANCH   1   2
BRANCH   1  69
ATOM     69  C   UNL A   1      33.299  29.033  24.335  1.00  0.00     0.023 C 
BRANCH  69  70
ATOM     70  C   UNL A   1      33.157  28.879  22.822  1.00  0.00     0.116 C 
BRANCH  70  71
ATOM     71  N   UNL A   1      31.855  29.308  22.343  1.00  0.00    -0.352 N 
ATOM     72  C   UNL A   1      30.664  28.619  22.367  1.00  0.00     0.252 C 
ATOM     73  H   UNL A   1      31.819  30.210  21.949  1.00  0.00     0.163 HD
ATOM     74  O   UNL A   1      29.701  29.051  21.748  1.00  0.00    -0.269 OA
BRANCH  72  75
ATOM     75  C   UNL A   1      30.601  27.405  23.167  1.00  0.00     0.057 A 
ATOM     76  C   UNL A   1      29.899  27.205  24.387  1.00  0.00     0.033 A 
ATOM     77  C   UNL A   1      31.174  26.184  22.841  1.00  0.00     0.099 A 
ATOM     78  C   UNL A   1      30.087  25.900  24.770  1.00  0.00     0.087 A 
ATOM     79  N   UNL A   1      30.908  25.293  23.854  1.00  0.00    -0.349 N 
BRANCH  79  80
ATOM     80  C   UNL A   1      31.307  23.883  23.877  1.00  0.00     0.160 C 
BRANCH  80  81
ATOM     81  C   UNL A   1      32.764  23.690  24.244  1.00  0.00     0.009 A 
ATOM     82  C   UNL A   1      33.211  23.756  25.580  1.00  0.00     0.047 A 
ATOM     83  C   UNL A   1      33.742  23.436  23.261  1.00  0.00     0.047 A 
ATOM     84  Cl  UNL A   1      32.129  23.853  26.928  1.00  0.00    -0.084 Cl
ATOM     85  C   UNL A   1      34.571  23.664  25.905  1.00  0.00     0.021 A 
ATOM     86  C   UNL A   1      35.098  23.301  23.595  1.00  0.00     0.021 A 
ATOM     87  Cl  UNL A   1      33.340  23.218  21.593  1.00  0.00    -0.084 Cl
ATOM     88  C   UNL A   1      35.516  23.440  24.914  1.00  0.00     0.003 A 
ENDBRANCH  80  81
ENDBRANCH  79  80
ENDBRANCH  72  75
ENDBRANCH  70  71
ENDBRANCH  69  70
ENDBRANCH   1  69
TORSDOF 16
ENDMDL
MODEL 3
REMARK VINA RESULT:     -11.3      1.958      2.485
REMARK SMILES O=C(NCCCCNC(=O)c1ccn(Cc2c(Cl)cccc2Cl)c1)c1ccc(-c2c3nc(c(-c4ccc(S(=O)(=O)[O-])cc4)c4ccc([nH]4)c(-c4ccc(S(=O)(=O)[O-])cc4)c4nc(c(-c5ccc(S(=O)(=O)[O-])cc5)c5ccc2[nH]5)C=C4)C=C3)cc1
REMARK SMILES IDX 5 1 4 2 3 3 1 4 2 5 25 7 26 8 84 9 27 10 83 11 28 12 29 13
REMARK SMILES IDX 30 14 77 15 31 16 82 17 76 18 78 19 32 20 81 21 75 22 74 23
REMARK SMILES IDX 33 25 63 26 44 27 62 28 45 29 48 30 61 31 79 32 46 33 47 34
REMARK SMILES IDX 60 36 80 37 49 38 34 39 35 40 43 41 36 42 42 43 37 44 38 45
REMARK SMILES IDX 39 46 40 47 41 48 64 49 65 50 73 51 66 52 72 53 67 54 68 55
REMARK SMILES IDX 69 56 70 57 71 58 50 59 51 60 59 61 52 62 58 63 53 64 54 65
REMARK SMILES IDX 55 66 56 67 57 68 6 69 7 70 8 71 9 72 10 74 11 75 12 76
REMARK SMILES IDX 24 77 13 78 14 79 15 80 16 81 17 82 22 83 18 84 19 85 21 86
REMARK SMILES IDX 23 87 20 88
REMARK H PARENT 3 6 78 24 48 35 8 73
REMARK Flexibility Score: inf
ROOT
ATOM      1  C   UNL A   1      33.504  27.834  25.214  1.00  0.00     0.023 C 
ENDROOT
BRANCH   1   2
ATOM      2  C   UNL A   1      33.996  28.094  26.638  1.00  0.00     0.116 C 
BRANCH   2   3
ATOM      3  N   UNL A   1      33.711  29.413  27.168  1.00  0.00    -0.352 N 
ATOM      4  O   UNL A   1      33.976  31.491  27.912  1.00  0.00    -0.269 OA
ATOM      5  C   UNL A   1      34.487  30.380  27.758  1.00  0.00     0.251 C 
ATOM      6  H   UNL A   1      32.765  29.669  27.087  1.00  0.00     0.163 HD
BRANCH   5   7
ATOM      7  C   UNL A   1      35.848  30.129  28.303  1.00  0.00     0.039 A 
ATOM      8  C   UNL A   1      37.030  30.292  27.585  1.00  0.00     0.014 A 
ATOM      9  C   UNL A   1      35.922  29.675  29.635  1.00  0.00     0.014 A 
ATOM     10  C   UNL A   1      38.244  29.887  28.131  1.00  0.00     0.010 A 
ATOM     11  C   UNL A   1      37.138  29.294  30.201  1.00  0.00     0.010 A 
ATOM     12  C   UNL A   1      38.300  29.379  29.436  1.00  0.00    -0.014 A 
BRANCH  12  13
ATOM     13  C   UNL A   1      39.651  29.167  30.008  1.00  0.00     0.031 A 
ATOM     14  C   UNL A   1      40.058  30.415  30.839  1.00  0.00     0.074 A 
ATOM     15  C   UNL A   1      40.327  28.051  29.576  1.00  0.00     0.049 A 
ATOM     16  N   UNL A   1      41.189  31.047  30.902  1.00  0.00    -0.248 NA
ATOM     17  C   UNL A   1      39.012  31.138  31.623  1.00  0.00     0.031 C 
ATOM     18  C   UNL A   1      39.714  26.901  28.861  1.00  0.00     0.029 A 
ATOM     19  N   UNL A   1      41.644  27.638  29.627  1.00  0.00    -0.354 N 
ATOM     20  C   UNL A   1      41.048  32.114  31.828  1.00  0.00     0.074 A 
ATOM     21  C   UNL A   1      39.660  32.176  32.162  1.00  0.00     0.031 C 
ATOM     22  C   UNL A   1      40.650  26.002  28.470  1.00  0.00     0.029 A 
ATOM     23  C   UNL A   1      41.963  26.473  28.861  1.00  0.00     0.049 A 
ATOM     24  H   UNL A   1      42.321  28.115  30.158  1.00  0.00     0.167 HD
ATOM     25  C   UNL A   1      42.114  32.806  32.337  1.00  0.00     0.031 A 
ATOM     26  C   UNL A   1      43.199  25.984  28.504  1.00  0.00     0.031 A 
ATOM     27  C   UNL A   1      43.311  32.333  31.737  1.00  0.00     0.049 A 
ATOM     28  C   UNL A   1      44.146  26.914  29.133  1.00  0.00     0.074 A 
ATOM     29  C   UNL A   1      43.910  32.562  30.529  1.00  0.00     0.029 A 
ATOM     30  N   UNL A   1      43.883  31.235  32.326  1.00  0.00    -0.354 N 
ATOM     31  N   UNL A   1      44.409  26.971  30.401  1.00  0.00    -0.248 NA
ATOM     32  C   UNL A   1      44.758  27.954  28.297  1.00  0.00     0.031 C 
ATOM     33  C   UNL A   1      44.463  31.306  30.204  1.00  0.00     0.029 A 
ATOM     34  C   UNL A   1      44.359  30.449  31.306  1.00  0.00     0.049 A 
ATOM     35  H   UNL A   1      43.941  31.047  33.291  1.00  0.00     0.167 HD
ATOM     36  C   UNL A   1      44.890  28.246  30.548  1.00  0.00     0.074 A 
ATOM     37  C   UNL A   1      45.364  28.661  29.244  1.00  0.00     0.031 C 
ATOM     38  C   UNL A   1      44.443  29.033  31.558  1.00  0.00     0.031 A 
BRANCH  25  39
ATOM     39  C   UNL A   1      42.296  33.746  33.505  1.00  0.00    -0.014 A 
ATOM     40  C   UNL A   1      42.306  33.153  34.799  1.00  0.00     0.010 A 
ATOM     41  C   UNL A   1      42.092  35.130  33.439  1.00  0.00     0.010 A 
ATOM     42  C   UNL A   1      41.964  33.864  35.948  1.00  0.00     0.020 A 
ATOM     43  C   UNL A   1      41.789  35.866  34.605  1.00  0.00     0.020 A 
ATOM     44  C   UNL A   1      41.674  35.216  35.839  1.00  0.00     0.054 A 
BRANCH  44  45
ATOM     45  S   UNL A   1      41.084  36.076  37.326  1.00  0.00     0.124 S 
ATOM     46  O   UNL A   1      42.191  36.981  37.622  1.00  0.00    -0.237 OA
ATOM     47  O   UNL A   1      39.862  36.721  36.852  1.00  0.00    -0.237 OA
ATOM     48  O   UNL A   1      40.878  34.997  38.288  1.00  0.00    -0.744 OA
ENDBRANCH  44  45
ENDBRANCH  25  39
BRANCH  26  49
ATOM     49  C   UNL A   1      43.830  24.963  27.562  1.00  0.00    -0.014 A 
ATOM     50  C   UNL A   1      44.972  24.188  27.792  1.00  0.00     0.010 A 
ATOM     51  C   UNL A   1      43.156  24.684  26.332  1.00  0.00     0.010 A 
ATOM     52  C   UNL A   1      45.304  23.095  26.938  1.00  0.00     0.020 A 
ATOM     53  C   UNL A   1      43.434  23.583  25.514  1.00  0.00     0.020 A 
ATOM     54  C   UNL A   1      44.495  22.763  25.843  1.00  0.00     0.054 A 
BRANCH  54  55
ATOM     55  S   UNL A   1      44.718  21.199  24.937  1.00  0.00     0.124 S 
ATOM     56  O   UNL A   1      46.016  20.735  25.414  1.00  0.00    -0.237 OA
ATOM     57  O   UNL A   1      43.566  20.411  25.371  1.00  0.00    -0.237 OA
ATOM     58  O   UNL A   1      44.680  21.606  23.532  1.00  0.00    -0.744 OA
ENDBRANCH  54  55
ENDBRANCH  26  49
BRANCH  38  59
ATOM     59  C   UNL A   1      43.746  28.295  32.702  1.00  0.00    -0.014 A 
ATOM     60  C   UNL A   1      44.509  27.525  33.594  1.00  0.00     0.010 A 
ATOM     61  C   UNL A   1      42.343  28.266  32.870  1.00  0.00     0.010 A 
ATOM     62  C   UNL A   1      43.908  26.763  34.608  1.00  0.00     0.020 A 
ATOM     63  C   UNL A   1      41.728  27.503  33.882  1.00  0.00     0.020 A 
ATOM     64  C   UNL A   1      42.519  26.756  34.752  1.00  0.00     0.054 A 
BRANCH  64  65
ATOM     65  S   UNL A   1      41.783  25.760  36.084  1.00  0.00     0.124 S 
ATOM     66  O   UNL A   1      40.431  25.506  35.591  1.00  0.00    -0.237 OA
ATOM     67  O   UNL A   1      42.659  24.592  36.124  1.00  0.00    -0.237 OA
ATOM     68  O   UNL A   1      41.855  26.628  37.258  1.00  0.00    -0.744 OA
ENDBRANCH  64  65
ENDBRANCH  38  59
ENDBRANCH  12  13
ENDBRANCH   5   7
ENDBRANCH   2   3
ENDBRANCH   1   2
BRANCH   1  69
ATOM     69  C   UNL A   1      33.353  29.080  24.339  1.00  0.00     0.023 C 
BRANCH  69  70
ATOM     70  C   UNL A   1      33.210  28.815  22.842  1.00  0.00     0.116 C 
BRANCH  70  71
ATOM     71  N   UNL A   1      31.955  29.317  22.310  1.00  0.00    -0.352 N 
ATOM     72  C   UNL A   1      30.730  28.691  22.272  1.00  0.00     0.252 C 
ATOM     73  H   UNL A   1      31.984  30.222  21.925  1.00  0.00     0.163 HD
ATOM     74  O   UNL A   1      29.820  29.178  21.616  1.00  0.00    -0.269 OA
BRANCH  72  75
ATOM     75  C   UNL A   1      30.568  27.474  23.055  1.00  0.00     0.057 A 
ATOM     76  C   UNL A   1      29.711  27.269  24.171  1.00  0.00     0.033 A 
ATOM     77  C   UNL A   1      31.184  26.257  22.806  1.00  0.00     0.099 A 
ATOM     78  C   UNL A   1      29.853  25.964  24.573  1.00  0.00     0.087 A 
ATOM     79  N   UNL A   1      30.792  25.362  23.773  1.00  0.00    -0.349 N 
BRANCH  79  80
ATOM     80  C   UNL A   1      31.191  23.954  23.847  1.00  0.00     0.160 C 
BRANCH  80  81
ATOM     81  C   UNL A   1      32.634  23.773  24.270  1.00  0.00     0.009 A 
ATOM     82  C   UNL A   1      33.042  23.929  25.612  1.00  0.00     0.047 A 
ATOM     83  C   UNL A   1      33.637  23.441  23.337  1.00  0.00     0.047 A 
ATOM     84  Cl  UNL A   1      31.922  24.131  26.915  1.00  0.00    -0.084 Cl
ATOM     85  C   UNL A   1      34.390  23.847  25.983  1.00  0.00     0.021 A 
ATOM     86  C   UNL A   1      34.982  23.318  23.721  1.00  0.00     0.021 A 
ATOM     87  Cl  UNL A   1      33.283  23.111  21.677  1.00  0.00    -0.084 Cl
ATOM     88  C   UNL A   1      35.362  23.545  25.039  1.00  0.00     0.003 A 
ENDBRANCH  80  81
ENDBRANCH  79  80
ENDBRANCH  72  75
ENDBRANCH  70  71
ENDBRANCH  69  70
ENDBRANCH   1  69
TORSDOF 16
ENDMDL
