MODEL 1
REMARK VINA RESULT:     -10.8      0.000      0.000
REMARK SMILES CCOc1cc(OCC)cc(-c2ccc([C@@H](C)C(=O)NCCCCNC(=O)c3ccc(-c4c5nc(c(-c6ccc(S(=O)(=O)[O-])cc6)c6ccc([nH]6)c(-c6ccc(S(=O)(=O)[O-])cc6)c6nc(c(-c7ccc(S(=O)(=O)[O-])cc7)c7ccc4[nH]7)C=C6)C=C5)cc3)cc2)c1
REMARK SMILES IDX 22 1 21 2 20 3 18 4 19 5 16 7 17 8 15 9 12 10 13 11 89 12
REMARK SMILES IDX 14 13 88 14 11 15 4 16 5 17 90 18 6 19 10 20 3 21 2 22 1 23
REMARK SMILES IDX 7 24 8 25 9 26 23 27 24 28 25 29 26 30 27 32 28 33 29 34
REMARK SMILES IDX 87 35 30 36 86 37 31 38 32 39 33 40 80 41 34 42 85 43 79 44
REMARK SMILES IDX 81 45 35 46 84 47 78 48 77 49 36 51 66 52 47 53 65 54 48 55
REMARK SMILES IDX 51 56 64 57 82 58 49 59 50 60 63 62 83 63 52 64 37 65 38 66
REMARK SMILES IDX 46 67 39 68 45 69 40 70 41 71 42 72 43 73 44 74 67 75 68 76
REMARK SMILES IDX 76 77 69 78 75 79 70 80 71 81 72 82 73 83 74 84 53 85 54 86
REMARK SMILES IDX 62 87 55 88 61 89 56 90 57 91 58 92 59 93 60 94
REMARK H PARENT 20 6 25 31 81 50 51 61
REMARK Flexibility Score: inf
ROOT
ATOM      1  C   UNL A   1      35.604  21.535  25.865  1.00  0.00     0.023 C 
ENDROOT
BRANCH   1   2
ATOM      2  C   UNL A   1      35.258  20.423  24.873  1.00  0.00     0.116 C 
BRANCH   2   3
ATOM      3  N   UNL A   1      34.314  19.469  25.416  1.00  0.00    -0.356 N 
ATOM      4  C   UNL A   1      32.990  19.261  25.170  1.00  0.00     0.227 C 
ATOM      5  O   UNL A   1      32.435  18.381  25.837  1.00  0.00    -0.274 OA
ATOM      6  H   UNL A   1      34.698  18.860  26.087  1.00  0.00     0.163 HD
BRANCH   4   7
ATOM      7  C   UNL A   1      32.181  20.044  24.123  1.00  0.00     0.105 C 
ATOM      8  C   UNL A   1      32.367  19.549  22.689  1.00  0.00     0.023 C 
BRANCH   7   9
ATOM      9  C   UNL A   1      32.241  21.548  24.323  1.00  0.00    -0.036 A 
ATOM     10  C   UNL A   1      32.160  24.398  24.548  1.00  0.00    -0.018 A 
ATOM     11  C   UNL A   1      31.824  23.555  25.623  1.00  0.00     0.009 A 
ATOM     12  C   UNL A   1      32.580  23.770  23.366  1.00  0.00     0.009 A 
ATOM     13  C   UNL A   1      31.902  22.163  25.527  1.00  0.00     0.005 A 
ATOM     14  C   UNL A   1      32.598  22.374  23.247  1.00  0.00     0.005 A 
BRANCH  10  15
ATOM     15  C   UNL A   1      32.036  25.870  24.668  1.00  0.00    -0.011 A 
ATOM     16  C   UNL A   1      32.941  28.049  25.282  1.00  0.00     0.123 A 
ATOM     17  C   UNL A   1      31.823  28.688  24.752  1.00  0.00     0.092 A 
ATOM     18  C   UNL A   1      33.041  26.658  25.250  1.00  0.00     0.055 A 
ATOM     19  C   UNL A   1      30.795  27.937  24.183  1.00  0.00     0.123 A 
ATOM     20  C   UNL A   1      30.905  26.544  24.165  1.00  0.00     0.055 A 
BRANCH  16  21
ATOM     21  O   UNL A   1      33.871  28.808  25.938  1.00  0.00    -0.494 OA
BRANCH  21  22
ATOM     22  C   UNL A   1      33.347  30.042  26.446  1.00  0.00     0.226 C 
ATOM     23  C   UNL A   1      34.250  30.634  27.518  1.00  0.00     0.049 C 
ENDBRANCH  21  22
ENDBRANCH  16  21
BRANCH  19  24
ATOM     24  O   UNL A   1      29.754  28.657  23.661  1.00  0.00    -0.494 OA
BRANCH  24  25
ATOM     25  C   UNL A   1      29.874  30.081  23.609  1.00  0.00     0.226 C 
ATOM     26  C   UNL A   1      28.528  30.756  23.382  1.00  0.00     0.049 C 
ENDBRANCH  24  25
ENDBRANCH  19  24
ENDBRANCH  10  15
ENDBRANCH   7   9
ENDBRANCH   4   7
ENDBRANCH   2   3
ENDBRANCH   1   2
BRANCH   1  27
ATOM     27  C   UNL A   1      35.678  22.940  25.267  1.00  0.00     0.023 C 
BRANCH  27  28
ATOM     28  C   UNL A   1      37.083  23.513  25.113  1.00  0.00     0.116 C 
BRANCH  28  29
ATOM     29  N   UNL A   1      38.148  22.583  25.462  1.00  0.00    -0.352 N 
ATOM     30  C   UNL A   1      39.274  22.833  26.217  1.00  0.00     0.251 C 
ATOM     31  H   UNL A   1      38.053  21.666  25.116  1.00  0.00     0.163 HD
ATOM     32  O   UNL A   1      40.127  21.967  26.372  1.00  0.00    -0.269 OA
BRANCH  30  33
ATOM     33  C   UNL A   1      39.458  24.183  26.791  1.00  0.00     0.039 A 
ATOM     34  C   UNL A   1      39.003  24.436  28.087  1.00  0.00     0.014 A 
ATOM     35  C   UNL A   1      40.154  25.164  26.080  1.00  0.00     0.014 A 
ATOM     36  C   UNL A   1      39.329  25.646  28.706  1.00  0.00     0.010 A 
ATOM     37  C   UNL A   1      40.536  26.336  26.723  1.00  0.00     0.010 A 
ATOM     38  C   UNL A   1      40.139  26.583  28.046  1.00  0.00    -0.014 A 
BRANCH  38  39
ATOM     39  C   UNL A   1      40.605  27.822  28.719  1.00  0.00     0.031 A 
ATOM     40  C   UNL A   1      41.978  27.874  29.330  1.00  0.00     0.074 A 
ATOM     41  C   UNL A   1      39.759  28.862  28.866  1.00  0.00     0.049 A 
ATOM     42  N   UNL A   1      42.520  28.814  30.060  1.00  0.00    -0.248 NA
ATOM     43  C   UNL A   1      42.841  26.701  29.118  1.00  0.00     0.031 C 
ATOM     44  C   UNL A   1      38.384  28.919  28.363  1.00  0.00     0.029 A 
ATOM     45  N   UNL A   1      39.928  30.069  29.498  1.00  0.00    -0.354 N 
ATOM     46  C   UNL A   1      43.774  28.333  30.420  1.00  0.00     0.074 A 
ATOM     47  C   UNL A   1      43.895  27.005  29.861  1.00  0.00     0.031 C 
ATOM     48  C   UNL A   1      37.844  30.104  28.687  1.00  0.00     0.029 A 
ATOM     49  C   UNL A   1      38.817  30.877  29.453  1.00  0.00     0.049 A 
ATOM     50  H   UNL A   1      40.767  30.332  29.943  1.00  0.00     0.167 HD
ATOM     51  C   UNL A   1      44.743  28.949  31.139  1.00  0.00     0.031 A 
ATOM     52  C   UNL A   1      38.601  32.100  29.975  1.00  0.00     0.031 A 
ATOM     53  C   UNL A   1      44.631  30.280  31.670  1.00  0.00     0.049 A 
ATOM     54  C   UNL A   1      39.702  32.776  30.745  1.00  0.00     0.074 A 
ATOM     55  C   UNL A   1      45.580  31.013  32.362  1.00  0.00     0.029 A 
ATOM     56  N   UNL A   1      43.505  31.082  31.563  1.00  0.00    -0.354 N 
ATOM     57  N   UNL A   1      40.901  32.326  31.031  1.00  0.00    -0.248 NA
ATOM     58  C   UNL A   1      39.427  34.128  31.251  1.00  0.00     0.031 C 
ATOM     59  C   UNL A   1      45.016  32.248  32.700  1.00  0.00     0.029 A 
ATOM     60  C   UNL A   1      43.731  32.298  32.181  1.00  0.00     0.049 A 
ATOM     61  H   UNL A   1      42.668  30.823  31.113  1.00  0.00     0.167 HD
ATOM     62  C   UNL A   1      41.531  33.349  31.728  1.00  0.00     0.074 A 
ATOM     63  C   UNL A   1      40.586  34.445  31.813  1.00  0.00     0.031 C 
ATOM     64  C   UNL A   1      42.782  33.381  32.248  1.00  0.00     0.031 A 
BRANCH  51  65
ATOM     65  C   UNL A   1      46.011  28.178  31.388  1.00  0.00    -0.014 A 
ATOM     66  C   UNL A   1      46.118  27.291  32.473  1.00  0.00     0.010 A 
ATOM     67  C   UNL A   1      47.104  28.330  30.516  1.00  0.00     0.010 A 
ATOM     68  C   UNL A   1      47.312  26.606  32.712  1.00  0.00     0.020 A 
ATOM     69  C   UNL A   1      48.292  27.627  30.736  1.00  0.00     0.020 A 
ATOM     70  C   UNL A   1      48.394  26.786  31.847  1.00  0.00     0.054 A 
BRANCH  70  71
ATOM     71  S   UNL A   1      49.932  25.882  32.175  1.00  0.00     0.124 S 
ATOM     72  O   UNL A   1      49.636  25.244  33.455  1.00  0.00    -0.237 OA
ATOM     73  O   UNL A   1      50.026  24.978  31.030  1.00  0.00    -0.237 OA
ATOM     74  O   UNL A   1      50.947  26.931  32.220  1.00  0.00    -0.744 OA
ENDBRANCH  70  71
ENDBRANCH  51  65
BRANCH  52  75
ATOM     75  C   UNL A   1      37.293  32.777  29.765  1.00  0.00    -0.014 A 
ATOM     76  C   UNL A   1      36.322  32.771  30.781  1.00  0.00     0.010 A 
ATOM     77  C   UNL A   1      37.018  33.446  28.559  1.00  0.00     0.010 A 
ATOM     78  C   UNL A   1      35.092  33.408  30.590  1.00  0.00     0.020 A 
ATOM     79  C   UNL A   1      35.799  34.103  28.372  1.00  0.00     0.020 A 
ATOM     80  C   UNL A   1      34.839  34.071  29.386  1.00  0.00     0.054 A 
BRANCH  80  81
ATOM     81  S   UNL A   1      33.260  34.942  29.180  1.00  0.00     0.124 S 
ATOM     82  O   UNL A   1      32.712  34.900  30.532  1.00  0.00    -0.237 OA
ATOM     83  O   UNL A   1      33.681  36.258  28.708  1.00  0.00    -0.237 OA
ATOM     84  O   UNL A   1      32.553  34.131  28.190  1.00  0.00    -0.744 OA
ENDBRANCH  80  81
ENDBRANCH  52  75
BRANCH  64  85
ATOM     85  C   UNL A   1      43.221  34.651  32.922  1.00  0.00    -0.014 A 
ATOM     86  C   UNL A   1      43.800  35.700  32.189  1.00  0.00     0.010 A 
ATOM     87  C   UNL A   1      42.987  34.818  34.299  1.00  0.00     0.010 A 
ATOM     88  C   UNL A   1      44.157  36.891  32.827  1.00  0.00     0.020 A 
ATOM     89  C   UNL A   1      43.323  36.014  34.936  1.00  0.00     0.020 A 
ATOM     90  C   UNL A   1      43.917  37.041  34.197  1.00  0.00     0.054 A 
BRANCH  90  91
ATOM     91  S   UNL A   1      44.335  38.615  34.994  1.00  0.00     0.124 S 
ATOM     92  O   UNL A   1      43.962  38.361  36.383  1.00  0.00    -0.237 OA
ATOM     93  O   UNL A   1      45.770  38.734  34.742  1.00  0.00    -0.237 OA
ATOM     94  O   UNL A   1      43.504  39.589  34.292  1.00  0.00    -0.744 OA
ENDBRANCH  90  91
ENDBRANCH  64  85
ENDBRANCH  38  39
ENDBRANCH  30  33
ENDBRANCH  28  29
ENDBRANCH  27  28
ENDBRANCH   1  27
TORSDOF 20
ENDMDL
MODEL 2
REMARK VINA RESULT:     -10.3      0.721      8.177
REMARK SMILES CCOc1cc(OCC)cc(-c2ccc([C@@H](C)C(=O)NCCCCNC(=O)c3ccc(-c4c5nc(c(-c6ccc(S(=O)(=O)[O-])cc6)c6ccc([nH]6)c(-c6ccc(S(=O)(=O)[O-])cc6)c6nc(c(-c7ccc(S(=O)(=O)[O-])cc7)c7ccc4[nH]7)C=C6)C=C5)cc3)cc2)c1
REMARK SMILES IDX 22 1 21 2 20 3 18 4 19 5 16 7 17 8 15 9 12 10 13 11 89 12
REMARK SMILES IDX 14 13 88 14 11 15 4 16 5 17 90 18 6 19 10 20 3 21 2 22 1 23
REMARK SMILES IDX 7 24 8 25 9 26 23 27 24 28 25 29 26 30 27 32 28 33 29 34
REMARK SMILES IDX 87 35 30 36 86 37 31 38 32 39 33 40 80 41 34 42 85 43 79 44
REMARK SMILES IDX 81 45 35 46 84 47 78 48 77 49 36 51 66 52 47 53 65 54 48 55
REMARK SMILES IDX 51 56 64 57 82 58 49 59 50 60 63 62 83 63 52 64 37 65 38 66
REMARK SMILES IDX 46 67 39 68 45 69 40 70 41 71 42 72 43 73 44 74 67 75 68 76
REMARK SMILES IDX 76 77 69 78 75 79 70 80 71 81 72 82 73 83 74 84 53 85 54 86
REMARK SMILES IDX 62 87 55 88 61 89 56 90 57 91 58 92 59 93 60 94
REMARK H PARENT 20 6 25 31 81 50 51 61
REMARK Flexibility Score: inf
ROOT
ATOM      1  C   UNL A   1      35.545  21.772  25.859  1.00  0.00     0.023 C 
ENDROOT
BRANCH   1   2
ATOM      2  C   UNL A   1      35.231  20.610  24.915  1.00  0.00     0.116 C 
BRANCH   2   3
ATOM      3  N   UNL A   1      34.322  19.647  25.504  1.00  0.00    -0.356 N 
ATOM      4  C   UNL A   1      33.036  19.311  25.203  1.00  0.00     0.227 C 
ATOM      5  O   UNL A   1      32.502  18.466  25.930  1.00  0.00    -0.274 OA
ATOM      6  H   UNL A   1      34.703  19.144  26.259  1.00  0.00     0.163 HD
BRANCH   4   7
ATOM      7  C   UNL A   1      32.246  19.913  24.030  1.00  0.00     0.105 C 
ATOM      8  C   UNL A   1      32.459  19.195  22.697  1.00  0.00     0.023 C 
BRANCH   7   9
ATOM      9  C   UNL A   1      32.302  21.430  23.987  1.00  0.00    -0.036 A 
ATOM     10  C   UNL A   1      32.216  24.278  23.747  1.00  0.00    -0.018 A 
ATOM     11  C   UNL A   1      31.843  23.618  24.932  1.00  0.00     0.009 A 
ATOM     12  C   UNL A   1      32.675  23.471  22.696  1.00  0.00     0.009 A 
ATOM     13  C   UNL A   1      31.922  22.230  25.064  1.00  0.00     0.005 A 
ATOM     14  C   UNL A   1      32.696  22.074  22.804  1.00  0.00     0.005 A 
BRANCH  10  15
ATOM     15  C   UNL A   1      32.090  25.750  23.624  1.00  0.00    -0.011 A 
ATOM     16  C   UNL A   1      30.877  27.739  22.905  1.00  0.00     0.123 A 
ATOM     17  C   UNL A   1      31.810  28.562  23.531  1.00  0.00     0.092 A 
ATOM     18  C   UNL A   1      31.021  26.352  22.942  1.00  0.00     0.055 A 
ATOM     19  C   UNL A   1      32.895  28.000  24.202  1.00  0.00     0.123 A 
ATOM     20  C   UNL A   1      33.032  26.610  24.224  1.00  0.00     0.055 A 
BRANCH  16  21
ATOM     21  O   UNL A   1      29.894  28.326  22.157  1.00  0.00    -0.494 OA
BRANCH  21  22
ATOM     22  C   UNL A   1      28.671  28.529  22.876  1.00  0.00     0.226 C 
ATOM     23  C   UNL A   1      28.085  29.906  22.605  1.00  0.00     0.049 C 
ENDBRANCH  21  22
ENDBRANCH  16  21
BRANCH  19  24
ATOM     24  O   UNL A   1      33.739  28.889  24.812  1.00  0.00    -0.494 OA
BRANCH  24  25
ATOM     25  C   UNL A   1      33.308  29.510  26.027  1.00  0.00     0.226 C 
ATOM     26  C   UNL A   1      33.628  28.656  27.246  1.00  0.00     0.049 C 
ENDBRANCH  24  25
ENDBRANCH  19  24
ENDBRANCH  10  15
ENDBRANCH   7   9
ENDBRANCH   4   7
ENDBRANCH   2   3
ENDBRANCH   1   2
BRANCH   1  27
ATOM     27  C   UNL A   1      35.627  23.146  25.194  1.00  0.00     0.023 C 
BRANCH  27  28
ATOM     28  C   UNL A   1      36.986  23.832  25.275  1.00  0.00     0.116 C 
BRANCH  28  29
ATOM     29  N   UNL A   1      38.112  22.916  25.390  1.00  0.00    -0.352 N 
ATOM     30  C   UNL A   1      39.297  23.114  26.067  1.00  0.00     0.251 C 
ATOM     31  H   UNL A   1      38.016  22.051  24.928  1.00  0.00     0.163 HD
ATOM     32  O   UNL A   1      40.190  22.277  26.019  1.00  0.00    -0.269 OA
BRANCH  30  33
ATOM     33  C   UNL A   1      39.488  24.379  26.807  1.00  0.00     0.039 A 
ATOM     34  C   UNL A   1      38.983  24.488  28.105  1.00  0.00     0.014 A 
ATOM     35  C   UNL A   1      40.237  25.418  26.248  1.00  0.00     0.014 A 
ATOM     36  C   UNL A   1      39.311  25.604  28.879  1.00  0.00     0.010 A 
ATOM     37  C   UNL A   1      40.619  26.493  27.043  1.00  0.00     0.010 A 
ATOM     38  C   UNL A   1      40.171  26.590  28.370  1.00  0.00    -0.014 A 
BRANCH  38  39
ATOM     39  C   UNL A   1      40.637  27.726  29.206  1.00  0.00     0.031 A 
ATOM     40  C   UNL A   1      39.761  28.934  29.388  1.00  0.00     0.074 A 
ATOM     41  C   UNL A   1      41.885  27.711  29.717  1.00  0.00     0.049 A 
ATOM     42  N   UNL A   1      40.035  30.070  29.976  1.00  0.00    -0.248 NA
ATOM     43  C   UNL A   1      38.411  28.866  28.805  1.00  0.00     0.031 C 
ATOM     44  C   UNL A   1      42.853  26.621  29.570  1.00  0.00     0.029 A 
ATOM     45  N   UNL A   1      42.560  28.654  30.451  1.00  0.00    -0.354 N 
ATOM     46  C   UNL A   1      38.906  30.862  29.807  1.00  0.00     0.074 A 
ATOM     47  C   UNL A   1      37.960  30.092  29.029  1.00  0.00     0.031 C 
ATOM     48  C   UNL A   1      43.986  26.947  30.211  1.00  0.00     0.029 A 
ATOM     49  C   UNL A   1      43.842  28.283  30.781  1.00  0.00     0.049 A 
ATOM     50  H   UNL A   1      42.164  29.516  30.717  1.00  0.00     0.167 HD
ATOM     51  C   UNL A   1      38.671  32.113  30.270  1.00  0.00     0.031 A 
ATOM     52  C   UNL A   1      44.799  28.946  31.461  1.00  0.00     0.031 A 
ATOM     53  C   UNL A   1      39.601  32.867  31.066  1.00  0.00     0.049 A 
ATOM     54  C   UNL A   1      44.505  30.322  31.991  1.00  0.00     0.074 A 
ATOM     55  C   UNL A   1      39.433  34.119  31.632  1.00  0.00     0.029 A 
ATOM     56  N   UNL A   1      40.872  32.435  31.416  1.00  0.00    -0.354 N 
ATOM     57  N   UNL A   1      43.411  31.035  31.864  1.00  0.00    -0.248 NA
ATOM     58  C   UNL A   1      45.569  30.978  32.764  1.00  0.00     0.031 C 
ATOM     59  C   UNL A   1      40.615  34.458  32.300  1.00  0.00     0.029 A 
ATOM     60  C   UNL A   1      41.502  33.399  32.184  1.00  0.00     0.049 A 
ATOM     61  H   UNL A   1      41.267  31.572  31.157  1.00  0.00     0.167 HD
ATOM     62  C   UNL A   1      43.646  32.212  32.564  1.00  0.00     0.074 A 
ATOM     63  C   UNL A   1      44.982  32.113  33.119  1.00  0.00     0.031 C 
ATOM     64  C   UNL A   1      42.828  33.279  32.735  1.00  0.00     0.031 A 
BRANCH  51  65
ATOM     65  C   UNL A   1      37.348  32.740  29.922  1.00  0.00    -0.014 A 
ATOM     66  C   UNL A   1      37.193  33.499  28.749  1.00  0.00     0.010 A 
ATOM     67  C   UNL A   1      36.241  32.553  30.770  1.00  0.00     0.010 A 
ATOM     68  C   UNL A   1      35.968  34.103  28.454  1.00  0.00     0.020 A 
ATOM     69  C   UNL A   1      35.007  33.134  30.465  1.00  0.00     0.020 A 
ATOM     70  C   UNL A   1      34.886  33.924  29.320  1.00  0.00     0.054 A 
BRANCH  70  71
ATOM     71  S   UNL A   1      33.304  34.714  28.912  1.00  0.00     0.124 S 
ATOM     72  O   UNL A   1      33.743  35.996  28.367  1.00  0.00    -0.237 OA
ATOM     73  O   UNL A   1      32.719  33.788  27.945  1.00  0.00    -0.237 OA
ATOM     74  O   UNL A   1      32.613  34.787  30.197  1.00  0.00    -0.744 OA
ENDBRANCH  70  71
ENDBRANCH  51  65
BRANCH  52  75
ATOM     75  C   UNL A   1      46.119  28.303  31.701  1.00  0.00    -0.014 A 
ATOM     76  C   UNL A   1      46.321  27.505  32.840  1.00  0.00     0.010 A 
ATOM     77  C   UNL A   1      47.174  28.469  30.786  1.00  0.00     0.010 A 
ATOM     78  C   UNL A   1      47.558  26.896  33.069  1.00  0.00     0.020 A 
ATOM     79  C   UNL A   1      48.406  27.844  31.000  1.00  0.00     0.020 A 
ATOM     80  C   UNL A   1      48.593  27.069  32.147  1.00  0.00     0.054 A 
BRANCH  80  81
ATOM     81  S   UNL A   1      50.173  26.223  32.432  1.00  0.00     0.124 S 
ATOM     82  O   UNL A   1      50.179  26.073  33.883  1.00  0.00    -0.237 OA
ATOM     83  O   UNL A   1      50.016  24.988  31.668  1.00  0.00    -0.237 OA
ATOM     84  O   UNL A   1      51.160  27.157  31.893  1.00  0.00    -0.744 OA
ENDBRANCH  80  81
ENDBRANCH  52  75
BRANCH  64  85
ATOM     85  C   UNL A   1      43.332  34.410  33.587  1.00  0.00    -0.014 A 
ATOM     86  C   UNL A   1      43.986  35.514  33.016  1.00  0.00     0.010 A 
ATOM     87  C   UNL A   1      43.087  34.394  34.972  1.00  0.00     0.010 A 
ATOM     88  C   UNL A   1      44.405  36.578  33.820  1.00  0.00     0.020 A 
ATOM     89  C   UNL A   1      43.485  35.464  35.776  1.00  0.00     0.020 A 
ATOM     90  C   UNL A   1      44.152  36.546  35.196  1.00  0.00     0.054 A 
BRANCH  90  91
ATOM     91  S   UNL A   1      44.653  37.962  36.213  1.00  0.00     0.124 S 
ATOM     92  O   UNL A   1      46.066  37.680  36.450  1.00  0.00    -0.237 OA
ATOM     93  O   UNL A   1      44.378  39.100  35.339  1.00  0.00    -0.237 OA
ATOM     94  O   UNL A   1      43.791  37.865  37.388  1.00  0.00    -0.744 OA
ENDBRANCH  90  91
ENDBRANCH  64  85
ENDBRANCH  38  39
ENDBRANCH  30  33
ENDBRANCH  28  29
ENDBRANCH  27  28
ENDBRANCH   1  27
TORSDOF 20
ENDMDL
MODEL 3
REMARK VINA RESULT:     -10.2      0.978      2.180
REMARK SMILES CCOc1cc(OCC)cc(-c2ccc([C@@H](C)C(=O)NCCCCNC(=O)c3ccc(-c4c5nc(c(-c6ccc(S(=O)(=O)[O-])cc6)c6ccc([nH]6)c(-c6ccc(S(=O)(=O)[O-])cc6)c6nc(c(-c7ccc(S(=O)(=O)[O-])cc7)c7ccc4[nH]7)C=C6)C=C5)cc3)cc2)c1
REMARK SMILES IDX 22 1 21 2 20 3 18 4 19 5 16 7 17 8 15 9 12 10 13 11 89 12
REMARK SMILES IDX 14 13 88 14 11 15 4 16 5 17 90 18 6 19 10 20 3 21 2 22 1 23
REMARK SMILES IDX 7 24 8 25 9 26 23 27 24 28 25 29 26 30 27 32 28 33 29 34
REMARK SMILES IDX 87 35 30 36 86 37 31 38 32 39 33 40 80 41 34 42 85 43 79 44
REMARK SMILES IDX 81 45 35 46 84 47 78 48 77 49 36 51 66 52 47 53 65 54 48 55
REMARK SMILES IDX 51 56 64 57 82 58 49 59 50 60 63 62 83 63 52 64 37 65 38 66
REMARK SMILES IDX 46 67 39 68 45 69 40 70 41 71 42 72 43 73 44 74 67 75 68 76
REMARK SMILES IDX 76 77 69 78 75 79 70 80 71 81 72 82 73 83 74 84 53 85 54 86
REMARK SMILES IDX 62 87 55 88 61 89 56 90 57 91 58 92 59 93 60 94
REMARK H PARENT 20 6 25 31 81 50 51 61
REMARK Flexibility Score: inf
ROOT
ATOM      1  C   UNL A   1      35.170  22.716  26.602  1.00  0.00     0.023 C 
ENDROOT
BRANCH   1   2
ATOM      2  C   UNL A   1      33.678  22.946  26.848  1.00  0.00     0.116 C 
BRANCH   2   3
ATOM      3  N   UNL A   1      32.875  21.788  26.511  1.00  0.00    -0.356 N 
ATOM      4  C   UNL A   1      32.494  21.267  25.311  1.00  0.00     0.227 C 
ATOM      5  O   UNL A   1      31.757  20.274  25.349  1.00  0.00    -0.274 OA
ATOM      6  H   UNL A   1      32.544  21.287  27.291  1.00  0.00     0.163 HD
BRANCH   4   7
ATOM      7  C   UNL A   1      32.934  21.835  23.952  1.00  0.00     0.105 C 
ATOM      8  C   UNL A   1      34.386  21.533  23.586  1.00  0.00     0.023 C 
BRANCH   7   9
ATOM      9  C   UNL A   1      32.471  23.263  23.724  1.00  0.00    -0.036 A 
ATOM     10  C   UNL A   1      31.552  25.965  23.537  1.00  0.00    -0.018 A 
ATOM     11  C   UNL A   1      32.906  25.625  23.368  1.00  0.00     0.009 A 
ATOM     12  C   UNL A   1      30.662  24.904  23.762  1.00  0.00     0.009 A 
ATOM     13  C   UNL A   1      33.351  24.301  23.418  1.00  0.00     0.005 A 
ATOM     14  C   UNL A   1      31.114  23.583  23.877  1.00  0.00     0.005 A 
BRANCH  10  15
ATOM     15  C   UNL A   1      31.114  27.381  23.510  1.00  0.00    -0.011 A 
ATOM     16  C   UNL A   1      29.815  29.199  22.536  1.00  0.00     0.123 A 
ATOM     17  C   UNL A   1      30.189  30.052  23.572  1.00  0.00     0.092 A 
ATOM     18  C   UNL A   1      30.280  27.885  22.500  1.00  0.00     0.055 A 
ATOM     19  C   UNL A   1      31.031  29.591  24.583  1.00  0.00     0.123 A 
ATOM     20  C   UNL A   1      31.497  28.275  24.530  1.00  0.00     0.055 A 
BRANCH  16  21
ATOM     21  O   UNL A   1      29.087  29.718  21.500  1.00  0.00    -0.494 OA
BRANCH  21  22
ATOM     22  C   UNL A   1      27.971  30.512  21.926  1.00  0.00     0.226 C 
ATOM     23  C   UNL A   1      28.119  31.962  21.492  1.00  0.00     0.049 C 
ENDBRANCH  21  22
ENDBRANCH  16  21
BRANCH  19  24
ATOM     24  O   UNL A   1      31.315  30.493  25.573  1.00  0.00    -0.494 OA
BRANCH  24  25
ATOM     25  C   UNL A   1      31.875  30.005  26.795  1.00  0.00     0.226 C 
ATOM     26  C   UNL A   1      33.251  30.599  27.067  1.00  0.00     0.049 C 
ENDBRANCH  24  25
ENDBRANCH  19  24
ENDBRANCH  10  15
ENDBRANCH   7   9
ENDBRANCH   4   7
ENDBRANCH   2   3
ENDBRANCH   1   2
BRANCH   1  27
ATOM     27  C   UNL A   1      35.929  23.917  26.037  1.00  0.00     0.023 C 
BRANCH  27  28
ATOM     28  C   UNL A   1      37.004  23.587  25.008  1.00  0.00     0.116 C 
BRANCH  28  29
ATOM     29  N   UNL A   1      37.981  22.605  25.458  1.00  0.00    -0.352 N 
ATOM     30  C   UNL A   1      39.068  22.812  26.280  1.00  0.00     0.251 C 
ATOM     31  H   UNL A   1      37.849  21.684  25.137  1.00  0.00     0.163 HD
ATOM     32  O   UNL A   1      39.851  21.900  26.521  1.00  0.00    -0.269 OA
BRANCH  30  33
ATOM     33  C   UNL A   1      39.302  24.168  26.820  1.00  0.00     0.039 A 
ATOM     34  C   UNL A   1      38.885  24.460  28.121  1.00  0.00     0.014 A 
ATOM     35  C   UNL A   1      40.007  25.115  26.072  1.00  0.00     0.014 A 
ATOM     36  C   UNL A   1      39.257  25.673  28.706  1.00  0.00     0.010 A 
ATOM     37  C   UNL A   1      40.435  26.289  26.681  1.00  0.00     0.010 A 
ATOM     38  C   UNL A   1      40.076  26.574  28.008  1.00  0.00    -0.014 A 
BRANCH  38  39
ATOM     39  C   UNL A   1      40.591  27.814  28.643  1.00  0.00     0.031 A 
ATOM     40  C   UNL A   1      41.999  27.859  29.168  1.00  0.00     0.074 A 
ATOM     41  C   UNL A   1      39.763  28.861  28.835  1.00  0.00     0.049 A 
ATOM     42  N   UNL A   1      42.592  28.800  29.857  1.00  0.00    -0.248 NA
ATOM     43  C   UNL A   1      42.840  26.679  28.910  1.00  0.00     0.031 C 
ATOM     44  C   UNL A   1      38.360  28.924  28.418  1.00  0.00     0.029 A 
ATOM     45  N   UNL A   1      39.979  30.069  29.449  1.00  0.00    -0.354 N 
ATOM     46  C   UNL A   1      43.862  28.313  30.142  1.00  0.00     0.074 A 
ATOM     47  C   UNL A   1      43.940  26.980  29.584  1.00  0.00     0.031 C 
ATOM     48  C   UNL A   1      37.849  30.115  28.768  1.00  0.00     0.029 A 
ATOM     49  C   UNL A   1      38.872  30.885  29.467  1.00  0.00     0.049 A 
ATOM     50  H   UNL A   1      40.845  30.329  29.839  1.00  0.00     0.167 HD
ATOM     51  C   UNL A   1      44.878  28.925  30.795  1.00  0.00     0.031 A 
ATOM     52  C   UNL A   1      38.697  32.113  29.994  1.00  0.00     0.031 A 
ATOM     53  C   UNL A   1      44.808  30.260  31.325  1.00  0.00     0.049 A 
ATOM     54  C   UNL A   1      39.848  32.785  30.690  1.00  0.00     0.074 A 
ATOM     55  C   UNL A   1      45.802  30.991  31.952  1.00  0.00     0.029 A 
ATOM     56  N   UNL A   1      43.683  31.069  31.282  1.00  0.00    -0.354 N 
ATOM     57  N   UNL A   1      41.059  32.328  30.905  1.00  0.00    -0.248 NA
ATOM     58  C   UNL A   1      39.613  34.142  31.204  1.00  0.00     0.031 C 
ATOM     59  C   UNL A   1      45.269  32.232  32.316  1.00  0.00     0.029 A 
ATOM     60  C   UNL A   1      43.955  32.288  31.878  1.00  0.00     0.049 A 
ATOM     61  H   UNL A   1      42.818  30.814  30.887  1.00  0.00     0.167 HD
ATOM     62  C   UNL A   1      41.738  33.351  31.555  1.00  0.00     0.074 A 
ATOM     63  C   UNL A   1      40.807  34.454  31.692  1.00  0.00     0.031 C 
ATOM     64  C   UNL A   1      43.019  33.377  31.996  1.00  0.00     0.031 A 
BRANCH  51  65
ATOM     65  C   UNL A   1      46.154  28.147  30.970  1.00  0.00    -0.014 A 
ATOM     66  C   UNL A   1      46.383  27.383  32.127  1.00  0.00     0.010 A 
ATOM     67  C   UNL A   1      47.129  28.167  29.957  1.00  0.00     0.010 A 
ATOM     68  C   UNL A   1      47.586  26.691  32.292  1.00  0.00     0.020 A 
ATOM     69  C   UNL A   1      48.323  27.456  30.106  1.00  0.00     0.020 A 
ATOM     70  C   UNL A   1      48.552  26.740  31.283  1.00  0.00     0.054 A 
BRANCH  70  71
ATOM     71  S   UNL A   1      50.104  25.830  31.518  1.00  0.00     0.124 S 
ATOM     72  O   UNL A   1      49.683  24.745  32.401  1.00  0.00    -0.237 OA
ATOM     73  O   UNL A   1      50.453  25.431  30.156  1.00  0.00    -0.237 OA
ATOM     74  O   UNL A   1      50.995  26.816  32.123  1.00  0.00    -0.744 OA
ENDBRANCH  70  71
ENDBRANCH  51  65
BRANCH  52  75
ATOM     75  C   UNL A   1      37.383  32.797  29.861  1.00  0.00    -0.014 A 
ATOM     76  C   UNL A   1      37.099  33.567  28.719  1.00  0.00     0.010 A 
ATOM     77  C   UNL A   1      36.404  32.670  30.862  1.00  0.00     0.010 A 
ATOM     78  C   UNL A   1      35.865  34.209  28.587  1.00  0.00     0.020 A 
ATOM     79  C   UNL A   1      35.161  33.293  30.724  1.00  0.00     0.020 A 
ATOM     80  C   UNL A   1      34.902  34.068  29.590  1.00  0.00     0.054 A 
BRANCH  80  81
ATOM     81  S   UNL A   1      33.285  34.862  29.373  1.00  0.00     0.124 S 
ATOM     82  O   UNL A   1      32.587  33.901  28.524  1.00  0.00    -0.237 OA
ATOM     83  O   UNL A   1      32.795  34.967  30.745  1.00  0.00    -0.237 OA
ATOM     84  O   UNL A   1      33.616  36.137  28.740  1.00  0.00    -0.744 OA
ENDBRANCH  80  81
ENDBRANCH  52  75
BRANCH  64  85
ATOM     85  C   UNL A   1      43.507  34.648  32.634  1.00  0.00    -0.014 A 
ATOM     86  C   UNL A   1      44.069  35.679  31.863  1.00  0.00     0.010 A 
ATOM     87  C   UNL A   1      43.337  34.835  34.018  1.00  0.00     0.010 A 
ATOM     88  C   UNL A   1      44.472  36.872  32.470  1.00  0.00     0.020 A 
ATOM     89  C   UNL A   1      43.720  36.033  34.624  1.00  0.00     0.020 A 
ATOM     90  C   UNL A   1      44.296  37.041  33.847  1.00  0.00     0.054 A 
BRANCH  90  91
ATOM     91  S   UNL A   1      44.774  38.619  34.605  1.00  0.00     0.124 S 
ATOM     92  O   UNL A   1      43.572  39.424  34.412  1.00  0.00    -0.237 OA
ATOM     93  O   UNL A   1      45.059  38.239  35.987  1.00  0.00    -0.237 OA
ATOM     94  O   UNL A   1      45.937  39.036  33.828  1.00  0.00    -0.744 OA
ENDBRANCH  90  91
ENDBRANCH  64  85
ENDBRANCH  38  39
ENDBRANCH  30  33
ENDBRANCH  28  29
ENDBRANCH  27  28
ENDBRANCH   1  27
TORSDOF 20
ENDMDL
