MODEL 1
REMARK VINA RESULT:     -10.6      0.000      0.000
REMARK SMILES Cc1noc(C)c1CNc1cnc(C(=O)NCCCCNC(=O)c2ccc(-c3c4nc(c(-c5ccc(S(=O)(=O)[O-])cc5)c5ccc([nH]5)c(-c5ccc(S(=O)(=O)[O-])cc5)c5nc(c(-c6ccc(S(=O)(=O)[O-])cc6)c6ccc3[nH]6)C=C5)C=C4)cc2)cn1
REMARK SMILES IDX 18 1 17 2 16 3 14 4 15 5 13 7 10 8 11 9 85 10 12 11 84 12
REMARK SMILES IDX 9 13 8 15 7 16 1 17 2 18 3 19 4 20 5 21 6 22 19 23 20 24
REMARK SMILES IDX 21 25 22 26 23 28 24 29 25 30 83 31 26 32 82 33 27 34 28 35
REMARK SMILES IDX 29 36 76 37 30 38 81 39 75 40 77 41 31 42 80 43 74 44 73 45
REMARK SMILES IDX 32 47 62 48 43 49 61 50 44 51 47 52 60 53 78 54 45 55 46 56
REMARK SMILES IDX 59 58 79 59 48 60 33 61 34 62 42 63 35 64 41 65 36 66 37 67
REMARK SMILES IDX 38 68 39 69 40 70 63 71 64 72 72 73 65 74 71 75 66 76 67 77
REMARK SMILES IDX 68 78 69 79 70 80 49 81 50 82 58 83 51 84 57 85 52 86 53 87
REMARK SMILES IDX 54 88 55 89 56 90
REMARK H PARENT 16 6 9 14 21 27 77 46 47 57
REMARK Flexibility Score: inf
ROOT
ATOM      1  C   UNL A   1      35.467  21.763  26.280  1.00  0.00     0.023 C 
ENDROOT
BRANCH   1   2
ATOM      2  C   UNL A   1      34.176  21.465  27.039  1.00  0.00     0.116 C 
BRANCH   2   3
ATOM      3  N   UNL A   1      33.456  20.353  26.446  1.00  0.00    -0.351 N 
ATOM      4  C   UNL A   1      32.562  20.315  25.398  1.00  0.00     0.271 C 
ATOM      5  O   UNL A   1      32.074  19.224  25.096  1.00  0.00    -0.267 OA
ATOM      6  H   UNL A   1      33.636  19.478  26.862  1.00  0.00     0.163 HD
BRANCH   4   7
ATOM      7  C   UNL A   1      32.190  21.518  24.597  1.00  0.00     0.146 A 
ATOM      8  C   UNL A   1      31.787  23.787  23.154  1.00  0.00     0.144 A 
ATOM      9  C   UNL A   1      31.044  23.479  24.293  1.00  0.00     0.158 A 
ATOM     10  N   UNL A   1      32.703  22.915  22.691  1.00  0.00    -0.235 NA
ATOM     11  N   UNL A   1      31.221  22.357  25.033  1.00  0.00    -0.246 NA
ATOM     12  C   UNL A   1      32.895  21.788  23.433  1.00  0.00     0.147 A 
BRANCH   8  13
ATOM     13  N   UNL A   1      31.687  24.968  22.458  1.00  0.00    -0.365 N 
ATOM     14  H   UNL A   1      31.941  24.994  21.507  1.00  0.00     0.162 HD
BRANCH  13  15
ATOM     15  C   UNL A   1      31.212  26.176  23.105  1.00  0.00     0.156 C 
BRANCH  15  16
ATOM     16  C   UNL A   1      32.238  26.909  23.896  1.00  0.00     0.037 A 
ATOM     17  C   UNL A   1      31.428  26.462  26.344  1.00  0.00     0.071 C 
ATOM     18  C   UNL A   1      32.325  27.035  25.312  1.00  0.00     0.086 A 
ATOM     19  N   UNL A   1      33.377  27.779  25.672  1.00  0.00    -0.085 NA
ATOM     20  O   UNL A   1      33.991  28.158  24.495  1.00  0.00    -0.361 OA
ATOM     21  C   UNL A   1      33.312  27.642  23.439  1.00  0.00     0.138 A 
ATOM     22  C   UNL A   1      33.835  27.970  22.100  1.00  0.00     0.091 C 
ENDBRANCH  15  16
ENDBRANCH  13  15
ENDBRANCH   8  13
ENDBRANCH   4   7
ENDBRANCH   2   3
ENDBRANCH   1   2
BRANCH   1  23
ATOM     23  C   UNL A   1      35.594  23.217  25.811  1.00  0.00     0.023 C 
BRANCH  23  24
ATOM     24  C   UNL A   1      36.884  23.555  25.065  1.00  0.00     0.116 C 
BRANCH  24  25
ATOM     25  N   UNL A   1      37.954  22.595  25.297  1.00  0.00    -0.352 N 
ATOM     26  C   UNL A   1      39.142  22.780  25.961  1.00  0.00     0.251 C 
ATOM     27  H   UNL A   1      37.806  21.694  24.929  1.00  0.00     0.163 HD
ATOM     28  O   UNL A   1      39.986  21.888  25.978  1.00  0.00    -0.269 OA
BRANCH  26  29
ATOM     29  C   UNL A   1      39.412  24.074  26.621  1.00  0.00     0.039 A 
ATOM     30  C   UNL A   1      38.916  24.291  27.909  1.00  0.00     0.014 A 
ATOM     31  C   UNL A   1      40.182  25.053  25.986  1.00  0.00     0.014 A 
ATOM     32  C   UNL A   1      39.253  25.461  28.590  1.00  0.00     0.010 A 
ATOM     33  C   UNL A   1      40.570  26.188  26.691  1.00  0.00     0.010 A 
ATOM     34  C   UNL A   1      40.113  26.403  28.001  1.00  0.00    -0.014 A 
BRANCH  34  35
ATOM     35  C   UNL A   1      40.567  27.604  28.744  1.00  0.00     0.031 A 
ATOM     36  C   UNL A   1      41.907  27.616  29.424  1.00  0.00     0.074 A 
ATOM     37  C   UNL A   1      39.734  28.654  28.880  1.00  0.00     0.049 A 
ATOM     38  N   UNL A   1      42.447  28.548  30.167  1.00  0.00    -0.248 NA
ATOM     39  C   UNL A   1      42.736  26.410  29.273  1.00  0.00     0.031 C 
ATOM     40  C   UNL A   1      38.384  28.742  28.319  1.00  0.00     0.029 A 
ATOM     41  N   UNL A   1      39.895  29.844  29.544  1.00  0.00    -0.354 N 
ATOM     42  C   UNL A   1      43.666  28.034  30.591  1.00  0.00     0.074 A 
ATOM     43  C   UNL A   1      43.764  26.691  30.062  1.00  0.00     0.031 C 
ATOM     44  C   UNL A   1      37.847  29.928  28.649  1.00  0.00     0.029 A 
ATOM     45  C   UNL A   1      38.799  30.670  29.471  1.00  0.00     0.049 A 
ATOM     46  H   UNL A   1      40.718  30.083  30.029  1.00  0.00     0.167 HD
ATOM     47  C   UNL A   1      44.625  28.630  31.341  1.00  0.00     0.031 A 
ATOM     48  C   UNL A   1      38.577  31.885  30.008  1.00  0.00     0.031 A 
ATOM     49  C   UNL A   1      44.526  29.967  31.862  1.00  0.00     0.049 A 
ATOM     50  C   UNL A   1      39.659  32.539  30.817  1.00  0.00     0.074 A 
ATOM     51  C   UNL A   1      45.471  30.686  32.573  1.00  0.00     0.029 A 
ATOM     52  N   UNL A   1      43.413  30.785  31.736  1.00  0.00    -0.354 N 
ATOM     53  N   UNL A   1      40.841  32.071  31.140  1.00  0.00    -0.248 NA
ATOM     54  C   UNL A   1      39.386  33.891  31.323  1.00  0.00     0.031 C 
ATOM     55  C   UNL A   1      44.910  31.923  32.916  1.00  0.00     0.029 A 
ATOM     56  C   UNL A   1      43.636  31.993  32.375  1.00  0.00     0.049 A 
ATOM     57  H   UNL A   1      42.584  30.542  31.262  1.00  0.00     0.167 HD
ATOM     58  C   UNL A   1      41.462  33.076  31.872  1.00  0.00     0.074 A 
ATOM     59  C   UNL A   1      40.528  34.184  31.932  1.00  0.00     0.031 C 
ATOM     60  C   UNL A   1      42.693  33.082  32.440  1.00  0.00     0.031 A 
BRANCH  47  61
ATOM     61  C   UNL A   1      45.854  27.816  31.652  1.00  0.00    -0.014 A 
ATOM     62  C   UNL A   1      45.936  27.041  32.823  1.00  0.00     0.010 A 
ATOM     63  C   UNL A   1      46.946  27.835  30.767  1.00  0.00     0.010 A 
ATOM     64  C   UNL A   1      47.113  26.358  33.140  1.00  0.00     0.020 A 
ATOM     65  C   UNL A   1      48.116  27.129  31.065  1.00  0.00     0.020 A 
ATOM     66  C   UNL A   1      48.201  26.418  32.264  1.00  0.00     0.054 A 
BRANCH  66  67
ATOM     67  S   UNL A   1      49.728  25.546  32.710  1.00  0.00     0.124 S 
ATOM     68  O   UNL A   1      50.507  26.612  33.336  1.00  0.00    -0.237 OA
ATOM     69  O   UNL A   1      49.253  24.502  33.614  1.00  0.00    -0.237 OA
ATOM     70  O   UNL A   1      50.241  25.069  31.427  1.00  0.00    -0.744 OA
ENDBRANCH  66  67
ENDBRANCH  47  61
BRANCH  48  71
ATOM     71  C   UNL A   1      37.277  32.562  29.760  1.00  0.00    -0.014 A 
ATOM     72  C   UNL A   1      36.185  32.340  30.616  1.00  0.00     0.010 A 
ATOM     73  C   UNL A   1      37.147  33.489  28.709  1.00  0.00     0.010 A 
ATOM     74  C   UNL A   1      34.988  33.037  30.431  1.00  0.00     0.020 A 
ATOM     75  C   UNL A   1      35.960  34.205  28.535  1.00  0.00     0.020 A 
ATOM     76  C   UNL A   1      34.886  33.973  29.397  1.00  0.00     0.054 A 
BRANCH  76  77
ATOM     77  S   UNL A   1      33.360  34.943  29.242  1.00  0.00     0.124 S 
ATOM     78  O   UNL A   1      32.863  34.949  30.615  1.00  0.00    -0.237 OA
ATOM     79  O   UNL A   1      33.849  36.223  28.739  1.00  0.00    -0.237 OA
ATOM     80  O   UNL A   1      32.562  34.173  28.290  1.00  0.00    -0.744 OA
ENDBRANCH  76  77
ENDBRANCH  48  71
BRANCH  60  81
ATOM     81  C   UNL A   1      43.114  34.332  33.164  1.00  0.00    -0.014 A 
ATOM     82  C   UNL A   1      43.645  35.432  32.468  1.00  0.00     0.010 A 
ATOM     83  C   UNL A   1      42.921  34.428  34.554  1.00  0.00     0.010 A 
ATOM     84  C   UNL A   1      44.001  36.597  33.154  1.00  0.00     0.020 A 
ATOM     85  C   UNL A   1      43.253  35.599  35.240  1.00  0.00     0.020 A 
ATOM     86  C   UNL A   1      43.803  36.672  34.536  1.00  0.00     0.054 A 
BRANCH  86  87
ATOM     87  S   UNL A   1      44.228  38.210  35.399  1.00  0.00     0.124 S 
ATOM     88  O   UNL A   1      43.601  38.010  36.703  1.00  0.00    -0.237 OA
ATOM     89  O   UNL A   1      45.689  38.189  35.395  1.00  0.00    -0.237 OA
ATOM     90  O   UNL A   1      43.625  39.251  34.569  1.00  0.00    -0.744 OA
ENDBRANCH  86  87
ENDBRANCH  60  81
ENDBRANCH  34  35
ENDBRANCH  26  29
ENDBRANCH  24  25
ENDBRANCH  23  24
ENDBRANCH   1  23
TORSDOF 17
ENDMDL
MODEL 2
REMARK VINA RESULT:     -10.4      3.724      6.508
REMARK SMILES Cc1noc(C)c1CNc1cnc(C(=O)NCCCCNC(=O)c2ccc(-c3c4nc(c(-c5ccc(S(=O)(=O)[O-])cc5)c5ccc([nH]5)c(-c5ccc(S(=O)(=O)[O-])cc5)c5nc(c(-c6ccc(S(=O)(=O)[O-])cc6)c6ccc3[nH]6)C=C5)C=C4)cc2)cn1
REMARK SMILES IDX 18 1 17 2 16 3 14 4 15 5 13 7 10 8 11 9 85 10 12 11 84 12
REMARK SMILES IDX 9 13 8 15 7 16 1 17 2 18 3 19 4 20 5 21 6 22 19 23 20 24
REMARK SMILES IDX 21 25 22 26 23 28 24 29 25 30 83 31 26 32 82 33 27 34 28 35
REMARK SMILES IDX 29 36 76 37 30 38 81 39 75 40 77 41 31 42 80 43 74 44 73 45
REMARK SMILES IDX 32 47 62 48 43 49 61 50 44 51 47 52 60 53 78 54 45 55 46 56
REMARK SMILES IDX 59 58 79 59 48 60 33 61 34 62 42 63 35 64 41 65 36 66 37 67
REMARK SMILES IDX 38 68 39 69 40 70 63 71 64 72 72 73 65 74 71 75 66 76 67 77
REMARK SMILES IDX 68 78 69 79 70 80 49 81 50 82 58 83 51 84 57 85 52 86 53 87
REMARK SMILES IDX 54 88 55 89 56 90
REMARK H PARENT 16 6 9 14 21 27 77 46 47 57
REMARK Flexibility Score: inf
ROOT
ATOM      1  C   UNL A   1      42.300  19.446  27.177  1.00  0.00     0.023 C 
ENDROOT
BRANCH   1   2
ATOM      2  C   UNL A   1      42.227  19.581  25.658  1.00  0.00     0.116 C 
BRANCH   2   3
ATOM      3  N   UNL A   1      43.458  19.143  25.026  1.00  0.00    -0.351 N 
ATOM      4  C   UNL A   1      44.581  19.850  24.655  1.00  0.00     0.271 C 
ATOM      5  O   UNL A   1      45.499  19.231  24.114  1.00  0.00    -0.267 OA
ATOM      6  H   UNL A   1      43.497  18.179  24.828  1.00  0.00     0.163 HD
BRANCH   4   7
ATOM      7  C   UNL A   1      44.749  21.311  24.911  1.00  0.00     0.146 A 
ATOM      8  C   UNL A   1      45.028  23.911  25.656  1.00  0.00     0.144 A 
ATOM      9  C   UNL A   1      44.084  23.495  24.718  1.00  0.00     0.158 A 
ATOM     10  N   UNL A   1      45.890  23.022  26.184  1.00  0.00    -0.235 NA
ATOM     11  N   UNL A   1      43.921  22.208  24.325  1.00  0.00    -0.246 NA
ATOM     12  C   UNL A   1      45.729  21.723  25.803  1.00  0.00     0.147 A 
BRANCH   8  13
ATOM     13  N   UNL A   1      45.131  25.194  26.135  1.00  0.00    -0.365 N 
ATOM     14  H   UNL A   1      45.249  25.344  27.101  1.00  0.00     0.162 HD
BRANCH  13  15
ATOM     15  C   UNL A   1      45.071  26.332  25.238  1.00  0.00     0.156 C 
BRANCH  15  16
ATOM     16  C   UNL A   1      46.221  27.273  25.341  1.00  0.00     0.037 A 
ATOM     17  C   UNL A   1      48.139  25.879  24.235  1.00  0.00     0.071 C 
ATOM     18  C   UNL A   1      47.561  27.068  24.906  1.00  0.00     0.086 A 
ATOM     19  N   UNL A   1      48.329  28.130  25.173  1.00  0.00    -0.085 NA
ATOM     20  O   UNL A   1      47.504  29.045  25.796  1.00  0.00    -0.361 OA
ATOM     21  C   UNL A   1      46.250  28.534  25.898  1.00  0.00     0.138 A 
ATOM     22  C   UNL A   1      45.246  29.388  26.558  1.00  0.00     0.091 C 
ENDBRANCH  15  16
ENDBRANCH  13  15
ENDBRANCH   8  13
ENDBRANCH   4   7
ENDBRANCH   2   3
ENDBRANCH   1   2
BRANCH   1  23
ATOM     23  C   UNL A   1      41.392  20.421  27.936  1.00  0.00     0.023 C 
BRANCH  23  24
ATOM     24  C   UNL A   1      41.098  21.736  27.216  1.00  0.00     0.116 C 
BRANCH  24  25
ATOM     25  N   UNL A   1      39.851  21.718  26.465  1.00  0.00    -0.352 N 
ATOM     26  C   UNL A   1      38.959  22.742  26.259  1.00  0.00     0.251 C 
ATOM     27  H   UNL A   1      39.617  20.857  26.048  1.00  0.00     0.163 HD
ATOM     28  O   UNL A   1      37.896  22.529  25.682  1.00  0.00    -0.269 OA
BRANCH  26  29
ATOM     29  C   UNL A   1      39.271  24.092  26.774  1.00  0.00     0.039 A 
ATOM     30  C   UNL A   1      38.873  24.428  28.070  1.00  0.00     0.014 A 
ATOM     31  C   UNL A   1      39.987  25.005  25.994  1.00  0.00     0.014 A 
ATOM     32  C   UNL A   1      39.255  25.656  28.612  1.00  0.00     0.010 A 
ATOM     33  C   UNL A   1      40.421  26.200  26.559  1.00  0.00     0.010 A 
ATOM     34  C   UNL A   1      40.064  26.536  27.874  1.00  0.00    -0.014 A 
BRANCH  34  35
ATOM     35  C   UNL A   1      40.567  27.801  28.466  1.00  0.00     0.031 A 
ATOM     36  C   UNL A   1      41.984  27.899  28.956  1.00  0.00     0.074 A 
ATOM     37  C   UNL A   1      39.720  28.834  28.641  1.00  0.00     0.049 A 
ATOM     38  N   UNL A   1      42.582  28.898  29.554  1.00  0.00    -0.248 NA
ATOM     39  C   UNL A   1      42.830  26.710  28.778  1.00  0.00     0.031 C 
ATOM     40  C   UNL A   1      38.305  28.843  28.263  1.00  0.00     0.029 A 
ATOM     41  N   UNL A   1      39.923  30.073  29.196  1.00  0.00    -0.354 N 
ATOM     42  C   UNL A   1      43.865  28.450  29.844  1.00  0.00     0.074 A 
ATOM     43  C   UNL A   1      43.942  27.075  29.399  1.00  0.00     0.031 C 
ATOM     44  C   UNL A   1      37.773  30.034  28.581  1.00  0.00     0.029 A 
ATOM     45  C   UNL A   1      38.797  30.860  29.215  1.00  0.00     0.049 A 
ATOM     46  H   UNL A   1      40.794  30.369  29.547  1.00  0.00     0.167 HD
ATOM     47  C   UNL A   1      44.892  29.125  30.416  1.00  0.00     0.031 A 
ATOM     48  C   UNL A   1      38.603  32.105  29.693  1.00  0.00     0.031 A 
ATOM     49  C   UNL A   1      44.813  30.493  30.853  1.00  0.00     0.049 A 
ATOM     50  C   UNL A   1      39.758  32.845  30.303  1.00  0.00     0.074 A 
ATOM     51  C   UNL A   1      45.816  31.288  31.379  1.00  0.00     0.029 A 
ATOM     52  N   UNL A   1      43.663  31.268  30.823  1.00  0.00    -0.354 N 
ATOM     53  N   UNL A   1      40.989  32.435  30.494  1.00  0.00    -0.248 NA
ATOM     54  C   UNL A   1      39.504  34.222  30.748  1.00  0.00     0.031 C 
ATOM     55  C   UNL A   1      45.260  32.530  31.710  1.00  0.00     0.029 A 
ATOM     56  C   UNL A   1      43.924  32.525  31.343  1.00  0.00     0.049 A 
ATOM     57  H   UNL A   1      42.789  30.968  30.483  1.00  0.00     0.167 HD
ATOM     58  C   UNL A   1      41.663  33.508  31.066  1.00  0.00     0.074 A 
ATOM     59  C   UNL A   1      40.704  34.590  31.176  1.00  0.00     0.031 C 
ATOM     60  C   UNL A   1      42.958  33.589  31.460  1.00  0.00     0.031 A 
BRANCH  47  61
ATOM     61  C   UNL A   1      46.181  28.371  30.612  1.00  0.00    -0.014 A 
ATOM     62  C   UNL A   1      46.512  27.809  31.859  1.00  0.00     0.010 A 
ATOM     63  C   UNL A   1      47.079  28.231  29.540  1.00  0.00     0.010 A 
ATOM     64  C   UNL A   1      47.748  27.185  32.049  1.00  0.00     0.020 A 
ATOM     65  C   UNL A   1      48.304  27.580  29.717  1.00  0.00     0.020 A 
ATOM     66  C   UNL A   1      48.641  27.087  30.979  1.00  0.00     0.054 A 
BRANCH  66  67
ATOM     67  S   UNL A   1      50.251  26.297  31.257  1.00  0.00     0.124 S 
ATOM     68  O   UNL A   1      50.320  26.268  32.716  1.00  0.00    -0.237 OA
ATOM     69  O   UNL A   1      50.091  24.998  30.610  1.00  0.00    -0.237 OA
ATOM     70  O   UNL A   1      51.197  27.202  30.606  1.00  0.00    -0.744 OA
ENDBRANCH  66  67
ENDBRANCH  47  61
BRANCH  48  71
ATOM     71  C   UNL A   1      37.257  32.725  29.578  1.00  0.00    -0.014 A 
ATOM     72  C   UNL A   1      36.386  32.743  30.679  1.00  0.00     0.010 A 
ATOM     73  C   UNL A   1      36.870  33.366  28.386  1.00  0.00     0.010 A 
ATOM     74  C   UNL A   1      35.153  33.397  30.595  1.00  0.00     0.020 A 
ATOM     75  C   UNL A   1      35.649  34.040  28.306  1.00  0.00     0.020 A 
ATOM     76  C   UNL A   1      34.796  34.050  29.412  1.00  0.00     0.054 A 
BRANCH  76  77
ATOM     77  S   UNL A   1      33.240  34.981  29.362  1.00  0.00     0.124 S 
ATOM     78  O   UNL A   1      33.686  36.297  28.915  1.00  0.00    -0.237 OA
ATOM     79  O   UNL A   1      32.447  34.221  28.400  1.00  0.00    -0.237 OA
ATOM     80  O   UNL A   1      32.760  34.917  30.741  1.00  0.00    -0.744 OA
ENDBRANCH  76  77
ENDBRANCH  48  71
BRANCH  60  81
ATOM     81  C   UNL A   1      43.424  34.899  32.034  1.00  0.00    -0.014 A 
ATOM     82  C   UNL A   1      43.995  35.890  31.216  1.00  0.00     0.010 A 
ATOM     83  C   UNL A   1      43.234  35.165  33.402  1.00  0.00     0.010 A 
ATOM     84  C   UNL A   1      44.393  37.113  31.762  1.00  0.00     0.020 A 
ATOM     85  C   UNL A   1      43.608  36.396  33.948  1.00  0.00     0.020 A 
ATOM     86  C   UNL A   1      44.198  37.358  33.125  1.00  0.00     0.054 A 
BRANCH  86  87
ATOM     87  S   UNL A   1      44.678  38.971  33.802  1.00  0.00     0.124 S 
ATOM     88  O   UNL A   1      43.490  39.346  34.565  1.00  0.00    -0.237 OA
ATOM     89  O   UNL A   1      45.860  38.647  34.599  1.00  0.00    -0.237 OA
ATOM     90  O   UNL A   1      44.939  39.782  32.615  1.00  0.00    -0.744 OA
ENDBRANCH  86  87
ENDBRANCH  60  81
ENDBRANCH  34  35
ENDBRANCH  26  29
ENDBRANCH  24  25
ENDBRANCH  23  24
ENDBRANCH   1  23
TORSDOF 17
ENDMDL
MODEL 3
REMARK VINA RESULT:     -10.3      3.222      4.226
REMARK SMILES Cc1noc(C)c1CNc1cnc(C(=O)NCCCCNC(=O)c2ccc(-c3c4nc(c(-c5ccc(S(=O)(=O)[O-])cc5)c5ccc([nH]5)c(-c5ccc(S(=O)(=O)[O-])cc5)c5nc(c(-c6ccc(S(=O)(=O)[O-])cc6)c6ccc3[nH]6)C=C5)C=C4)cc2)cn1
REMARK SMILES IDX 18 1 17 2 16 3 14 4 15 5 13 7 10 8 11 9 85 10 12 11 84 12
REMARK SMILES IDX 9 13 8 15 7 16 1 17 2 18 3 19 4 20 5 21 6 22 19 23 20 24
REMARK SMILES IDX 21 25 22 26 23 28 24 29 25 30 83 31 26 32 82 33 27 34 28 35
REMARK SMILES IDX 29 36 76 37 30 38 81 39 75 40 77 41 31 42 80 43 74 44 73 45
REMARK SMILES IDX 32 47 62 48 43 49 61 50 44 51 47 52 60 53 78 54 45 55 46 56
REMARK SMILES IDX 59 58 79 59 48 60 33 61 34 62 42 63 35 64 41 65 36 66 37 67
REMARK SMILES IDX 38 68 39 69 40 70 63 71 64 72 72 73 65 74 71 75 66 76 67 77
REMARK SMILES IDX 68 78 69 79 70 80 49 81 50 82 58 83 51 84 57 85 52 86 53 87
REMARK SMILES IDX 54 88 55 89 56 90
REMARK H PARENT 16 6 9 14 21 27 77 46 47 57
REMARK Flexibility Score: inf
ROOT
ATOM      1  C   UNL A   1      38.717  23.035  26.282  1.00  0.00     0.023 C 
ENDROOT
BRANCH   1   2
ATOM      2  C   UNL A   1      37.637  22.122  25.705  1.00  0.00     0.116 C 
BRANCH   2   3
ATOM      3  N   UNL A   1      37.435  22.369  24.288  1.00  0.00    -0.351 N 
ATOM      4  C   UNL A   1      36.368  22.919  23.613  1.00  0.00     0.271 C 
ATOM      5  O   UNL A   1      36.444  23.006  22.386  1.00  0.00    -0.267 OA
ATOM      6  H   UNL A   1      38.187  22.097  23.713  1.00  0.00     0.163 HD
BRANCH   4   7
ATOM      7  C   UNL A   1      35.149  23.443  24.298  1.00  0.00     0.146 A 
ATOM      8  C   UNL A   1      32.820  24.441  25.285  1.00  0.00     0.144 A 
ATOM      9  C   UNL A   1      34.068  24.945  25.649  1.00  0.00     0.158 A 
ATOM     10  N   UNL A   1      32.737  23.377  24.463  1.00  0.00    -0.235 NA
ATOM     11  N   UNL A   1      35.246  24.470  25.176  1.00  0.00    -0.246 NA
ATOM     12  C   UNL A   1      33.915  22.897  23.974  1.00  0.00     0.147 A 
BRANCH   8  13
ATOM     13  N   UNL A   1      31.620  24.982  25.679  1.00  0.00    -0.365 N 
ATOM     14  H   UNL A   1      30.892  24.387  25.971  1.00  0.00     0.162 HD
BRANCH  13  15
ATOM     15  C   UNL A   1      31.411  26.417  25.670  1.00  0.00     0.156 C 
BRANCH  15  16
ATOM     16  C   UNL A   1      31.126  27.001  24.330  1.00  0.00     0.037 A 
ATOM     17  C   UNL A   1      33.464  27.981  23.680  1.00  0.00     0.071 C 
ATOM     18  C   UNL A   1      32.026  27.688  23.466  1.00  0.00     0.086 A 
ATOM     19  N   UNL A   1      31.417  28.085  22.343  1.00  0.00    -0.085 NA
ATOM     20  O   UNL A   1      30.106  27.669  22.458  1.00  0.00    -0.361 OA
ATOM     21  C   UNL A   1      29.933  27.027  23.641  1.00  0.00     0.138 A 
ATOM     22  C   UNL A   1      28.573  26.531  23.925  1.00  0.00     0.091 C 
ENDBRANCH  15  16
ENDBRANCH  13  15
ENDBRANCH   8  13
ENDBRANCH   4   7
ENDBRANCH   2   3
ENDBRANCH   1   2
BRANCH   1  23
ATOM     23  C   UNL A   1      39.868  22.286  26.965  1.00  0.00     0.023 C 
BRANCH  23  24
ATOM     24  C   UNL A   1      41.126  23.113  27.222  1.00  0.00     0.116 C 
BRANCH  24  25
ATOM     25  N   UNL A   1      41.514  23.942  26.091  1.00  0.00    -0.352 N 
ATOM     26  C   UNL A   1      41.697  25.304  26.048  1.00  0.00     0.251 C 
ATOM     27  H   UNL A   1      41.667  23.464  25.243  1.00  0.00     0.163 HD
ATOM     28  O   UNL A   1      41.927  25.863  24.980  1.00  0.00    -0.269 OA
BRANCH  26  29
ATOM     29  C   UNL A   1      41.576  26.092  27.292  1.00  0.00     0.039 A 
ATOM     30  C   UNL A   1      42.610  26.962  27.643  1.00  0.00     0.014 A 
ATOM     31  C   UNL A   1      40.429  26.000  28.086  1.00  0.00     0.014 A 
ATOM     32  C   UNL A   1      42.465  27.795  28.753  1.00  0.00     0.010 A 
ATOM     33  C   UNL A   1      40.259  26.876  29.153  1.00  0.00     0.010 A 
ATOM     34  C   UNL A   1      41.272  27.785  29.496  1.00  0.00    -0.014 A 
BRANCH  34  35
ATOM     35  C   UNL A   1      41.055  28.732  30.618  1.00  0.00     0.031 A 
ATOM     36  C   UNL A   1      41.875  28.625  31.872  1.00  0.00     0.074 A 
ATOM     37  C   UNL A   1      40.059  29.636  30.539  1.00  0.00     0.049 A 
ATOM     38  N   UNL A   1      41.788  29.322  32.976  1.00  0.00    -0.248 NA
ATOM     39  C   UNL A   1      42.908  27.578  31.900  1.00  0.00     0.031 C 
ATOM     40  C   UNL A   1      39.153  29.802  29.401  1.00  0.00     0.029 A 
ATOM     41  N   UNL A   1      39.632  30.577  31.442  1.00  0.00    -0.354 N 
ATOM     42  C   UNL A   1      42.737  28.783  33.838  1.00  0.00     0.074 A 
ATOM     43  C   UNL A   1      43.353  27.673  33.145  1.00  0.00     0.031 C 
ATOM     44  C   UNL A   1      38.289  30.794  29.666  1.00  0.00     0.029 A 
ATOM     45  C   UNL A   1      38.557  31.313  31.005  1.00  0.00     0.049 A 
ATOM     46  H   UNL A   1      40.055  30.711  32.321  1.00  0.00     0.167 HD
ATOM     47  C   UNL A   1      43.075  29.186  35.087  1.00  0.00     0.031 A 
ATOM     48  C   UNL A   1      37.858  32.292  31.611  1.00  0.00     0.031 A 
ATOM     49  C   UNL A   1      42.464  30.293  35.771  1.00  0.00     0.049 A 
ATOM     50  C   UNL A   1      38.261  32.739  32.987  1.00  0.00     0.074 A 
ATOM     51  C   UNL A   1      42.783  30.824  37.008  1.00  0.00     0.029 A 
ATOM     52  N   UNL A   1      41.401  31.037  35.280  1.00  0.00    -0.354 N 
ATOM     53  N   UNL A   1      39.217  32.273  33.755  1.00  0.00    -0.248 NA
ATOM     54  C   UNL A   1      37.505  33.854  33.572  1.00  0.00     0.031 C 
ATOM     55  C   UNL A   1      41.882  31.859  37.285  1.00  0.00     0.029 A 
ATOM     56  C   UNL A   1      41.035  32.007  36.198  1.00  0.00     0.049 A 
ATOM     57  H   UNL A   1      40.968  30.895  34.406  1.00  0.00     0.167 HD
ATOM     58  C   UNL A   1      39.188  33.048  34.909  1.00  0.00     0.074 A 
ATOM     59  C   UNL A   1      38.130  34.023  34.730  1.00  0.00     0.031 C 
ATOM     60  C   UNL A   1      39.970  32.962  36.013  1.00  0.00     0.031 A 
BRANCH  47  61
ATOM     61  C   UNL A   1      44.149  28.398  35.791  1.00  0.00    -0.014 A 
ATOM     62  C   UNL A   1      45.509  28.729  35.646  1.00  0.00     0.010 A 
ATOM     63  C   UNL A   1      43.794  27.303  36.599  1.00  0.00     0.010 A 
ATOM     64  C   UNL A   1      46.497  27.938  36.237  1.00  0.00     0.020 A 
ATOM     65  C   UNL A   1      44.780  26.526  37.217  1.00  0.00     0.020 A 
ATOM     66  C   UNL A   1      46.125  26.833  37.009  1.00  0.00     0.054 A 
BRANCH  66  67
ATOM     67  S   UNL A   1      47.427  25.805  37.743  1.00  0.00     0.124 S 
ATOM     68  O   UNL A   1      48.039  25.208  36.557  1.00  0.00    -0.237 OA
ATOM     69  O   UNL A   1      48.251  26.782  38.450  1.00  0.00    -0.237 OA
ATOM     70  O   UNL A   1      46.693  24.877  38.600  1.00  0.00    -0.744 OA
ENDBRANCH  66  67
ENDBRANCH  47  61
BRANCH  48  71
ATOM     71  C   UNL A   1      36.723  32.926  30.891  1.00  0.00    -0.014 A 
ATOM     72  C   UNL A   1      35.401  32.704  31.312  1.00  0.00     0.010 A 
ATOM     73  C   UNL A   1      36.964  33.814  29.826  1.00  0.00     0.010 A 
ATOM     74  C   UNL A   1      34.339  33.364  30.686  1.00  0.00     0.020 A 
ATOM     75  C   UNL A   1      35.907  34.493  29.214  1.00  0.00     0.020 A 
ATOM     76  C   UNL A   1      34.600  34.262  29.646  1.00  0.00     0.054 A 
BRANCH  76  77
ATOM     77  S   UNL A   1      33.217  35.186  28.921  1.00  0.00     0.124 S 
ATOM     78  O   UNL A   1      32.695  34.236  27.943  1.00  0.00    -0.237 OA
ATOM     79  O   UNL A   1      32.363  35.437  30.078  1.00  0.00    -0.237 OA
ATOM     80  O   UNL A   1      33.857  36.374  28.360  1.00  0.00    -0.744 OA
ENDBRANCH  76  77
ENDBRANCH  48  71
BRANCH  60  81
ATOM     81  C   UNL A   1      39.725  33.959  37.113  1.00  0.00    -0.014 A 
ATOM     82  C   UNL A   1      38.950  33.624  38.238  1.00  0.00     0.010 A 
ATOM     83  C   UNL A   1      40.327  35.229  37.048  1.00  0.00     0.010 A 
ATOM     84  C   UNL A   1      38.760  34.554  39.265  1.00  0.00     0.020 A 
ATOM     85  C   UNL A   1      40.158  36.151  38.083  1.00  0.00     0.020 A 
ATOM     86  C   UNL A   1      39.364  35.811  39.181  1.00  0.00     0.054 A 
BRANCH  86  87
ATOM     87  S   UNL A   1      39.142  36.983  40.547  1.00  0.00     0.124 S 
ATOM     88  O   UNL A   1      38.313  38.016  39.930  1.00  0.00    -0.237 OA
ATOM     89  O   UNL A   1      38.479  36.170  41.565  1.00  0.00    -0.237 OA
ATOM     90  O   UNL A   1      40.505  37.393  40.878  1.00  0.00    -0.744 OA
ENDBRANCH  86  87
ENDBRANCH  60  81
ENDBRANCH  34  35
ENDBRANCH  26  29
ENDBRANCH  24  25
ENDBRANCH  23  24
ENDBRANCH   1  23
TORSDOF 17
ENDMDL
