MODEL 1
REMARK VINA RESULT:     -11.4      0.000      0.000
REMARK SMILES CCC[N@H+]1CCC[C@H]([C@@H](C)Nc2cccc(C(=O)NCCCCNC(=O)c3ccc(-c4c5nc(c(-c6ccc(S(=O)(=O)[O-])cc6)c6ccc([nH]6)c(-c6ccc(S(=O)(=O)[O-])cc6)c6nc(c(-c7ccc(S(=O)(=O)[O-])cc7)c7ccc4[nH]7)C=C6)C=C5)cc3)c2)C1
REMARK SMILES IDX 20 1 19 2 17 3 18 4 16 6 12 7 13 8 87 9 14 10 15 11 11 12
REMARK SMILES IDX 9 14 10 15 8 16 4 17 5 18 88 19 6 21 7 22 3 23 2 24 1 25
REMARK SMILES IDX 21 26 22 27 23 28 24 29 25 30 26 32 27 33 28 34 86 35 29 36
REMARK SMILES IDX 85 37 30 38 31 39 32 40 79 41 33 42 84 43 78 44 80 45 34 46
REMARK SMILES IDX 83 47 77 48 76 49 35 51 65 52 46 53 64 54 47 55 50 56 63 57
REMARK SMILES IDX 81 58 48 59 49 60 62 62 82 63 51 64 36 65 37 66 45 67 38 68
REMARK SMILES IDX 44 69 39 70 40 71 41 72 42 73 43 74 66 75 67 76 75 77 68 78
REMARK SMILES IDX 74 79 69 80 70 81 71 82 72 83 73 84 52 85 53 86 61 87 54 88
REMARK SMILES IDX 60 89 55 90 56 91 57 92 58 93 59 94
REMARK H PARENT 19 5 11 13 4 20 24 31 80 50 50 61
REMARK Flexibility Score: inf
ROOT
ATOM      1  C   UNL A   1      32.147  30.372  26.176  1.00  0.00     0.116 C 
ENDROOT
BRANCH   1   2
ATOM      2  N   UNL A   1      32.593  30.015  24.835  1.00  0.00    -0.352 N 
ATOM      3  C   UNL A   1      32.160  29.014  23.986  1.00  0.00     0.251 C 
ATOM      4  O   UNL A   1      32.681  28.889  22.880  1.00  0.00    -0.269 OA
ATOM      5  H   UNL A   1      33.317  30.578  24.476  1.00  0.00     0.163 HD
BRANCH   3   6
ATOM      6  C   UNL A   1      31.129  28.036  24.420  1.00  0.00     0.041 A 
ATOM      7  C   UNL A   1      30.588  26.060  25.732  1.00  0.00     0.035 A 
ATOM      8  C   UNL A   1      29.443  25.899  24.941  1.00  0.00     0.026 A 
ATOM      9  C   UNL A   1      31.331  27.223  25.536  1.00  0.00     0.039 A 
ATOM     10  C   UNL A   1      29.111  26.821  23.941  1.00  0.00     0.003 A 
ATOM     11  C   UNL A   1      29.977  27.872  23.653  1.00  0.00     0.014 A 
BRANCH   7  12
ATOM     12  N   UNL A   1      30.941  25.077  26.640  1.00  0.00    -0.382 N 
ATOM     13  H   UNL A   1      31.104  25.353  27.571  1.00  0.00     0.160 HD
BRANCH  12  14
ATOM     14  C   UNL A   1      31.093  23.655  26.315  1.00  0.00     0.084 C 
ATOM     15  C   UNL A   1      30.003  22.873  27.056  1.00  0.00     0.031 C 
BRANCH  14  16
ATOM     16  C   UNL A   1      32.523  23.162  26.675  1.00  0.00     0.066 C 
ATOM     17  N   UNL A   1      33.471  23.711  24.449  1.00  0.00    -0.335 N 
ATOM     18  C   UNL A   1      33.715  22.291  24.136  1.00  0.00     0.262 C 
ATOM     19  C   UNL A   1      33.610  23.925  25.893  1.00  0.00     0.267 C 
ATOM     20  H   UNL A   1      32.515  23.961  24.192  1.00  0.00     0.348 HD
ATOM     21  C   UNL A   1      32.758  21.361  24.892  1.00  0.00     0.062 C 
ATOM     22  C   UNL A   1      32.716  21.659  26.392  1.00  0.00     0.017 C 
BRANCH  17  23
ATOM     23  C   UNL A   1      34.346  24.583  23.650  1.00  0.00     0.261 C 
BRANCH  23  24
ATOM     24  C   UNL A   1      33.631  25.625  22.768  1.00  0.00     0.058 C 
ATOM     25  C   UNL A   1      32.291  25.201  22.184  1.00  0.00     0.010 C 
ENDBRANCH  23  24
ENDBRANCH  17  23
ENDBRANCH  14  16
ENDBRANCH  12  14
ENDBRANCH   7  12
ENDBRANCH   3   6
ENDBRANCH   1   2
BRANCH   1  26
ATOM     26  C   UNL A   1      33.256  30.580  27.197  1.00  0.00     0.023 C 
BRANCH  26  27
ATOM     27  C   UNL A   1      34.363  29.537  27.218  1.00  0.00     0.023 C 
BRANCH  27  28
ATOM     28  C   UNL A   1      35.638  29.926  27.955  1.00  0.00     0.116 C 
BRANCH  28  29
ATOM     29  N   UNL A   1      35.523  29.893  29.406  1.00  0.00    -0.352 N 
ATOM     30  C   UNL A   1      36.510  29.781  30.364  1.00  0.00     0.251 C 
ATOM     31  H   UNL A   1      34.605  29.962  29.755  1.00  0.00     0.163 HD
ATOM     32  O   UNL A   1      36.210  29.716  31.547  1.00  0.00    -0.269 OA
BRANCH  30  33
ATOM     33  C   UNL A   1      37.928  29.687  29.946  1.00  0.00     0.039 A 
ATOM     34  C   UNL A   1      38.910  29.543  30.929  1.00  0.00     0.014 A 
ATOM     35  C   UNL A   1      38.281  29.689  28.594  1.00  0.00     0.014 A 
ATOM     36  C   UNL A   1      40.234  29.297  30.553  1.00  0.00     0.010 A 
ATOM     37  C   UNL A   1      39.582  29.363  28.223  1.00  0.00     0.010 A 
ATOM     38  C   UNL A   1      40.571  29.152  29.197  1.00  0.00    -0.014 A 
BRANCH  38  39
ATOM     39  C   UNL A   1      41.939  28.756  28.775  1.00  0.00     0.031 A 
ATOM     40  C   UNL A   1      43.032  29.786  28.684  1.00  0.00     0.074 A 
ATOM     41  C   UNL A   1      42.179  27.485  28.390  1.00  0.00     0.049 A 
ATOM     42  N   UNL A   1      44.260  29.649  28.254  1.00  0.00    -0.248 NA
ATOM     43  C   UNL A   1      42.690  31.156  29.102  1.00  0.00     0.031 C 
ATOM     44  C   UNL A   1      41.193  26.400  28.378  1.00  0.00     0.029 A 
ATOM     45  N   UNL A   1      43.326  26.893  27.920  1.00  0.00    -0.354 N 
ATOM     46  C   UNL A   1      44.829  30.916  28.326  1.00  0.00     0.074 A 
ATOM     47  C   UNL A   1      43.799  31.815  28.799  1.00  0.00     0.031 C 
ATOM     48  C   UNL A   1      41.784  25.273  27.949  1.00  0.00     0.029 A 
ATOM     49  C   UNL A   1      43.175  25.560  27.618  1.00  0.00     0.049 A 
ATOM     50  H   UNL A   1      44.175  27.378  27.810  1.00  0.00     0.167 HD
ATOM     51  C   UNL A   1      46.098  31.294  28.044  1.00  0.00     0.031 A 
ATOM     52  C   UNL A   1      44.055  24.667  27.123  1.00  0.00     0.031 A 
ATOM     53  C   UNL A   1      47.128  30.397  27.595  1.00  0.00     0.049 A 
ATOM     54  C   UNL A   1      45.463  25.107  26.832  1.00  0.00     0.074 A 
ATOM     55  C   UNL A   1      48.462  30.673  27.343  1.00  0.00     0.029 A 
ATOM     56  N   UNL A   1      46.943  29.048  27.332  1.00  0.00    -0.354 N 
ATOM     57  N   UNL A   1      45.999  26.295  26.970  1.00  0.00    -0.248 NA
ATOM     58  C   UNL A   1      46.390  24.082  26.330  1.00  0.00     0.031 C 
ATOM     59  C   UNL A   1      49.073  29.499  26.891  1.00  0.00     0.029 A 
ATOM     60  C   UNL A   1      48.132  28.482  26.906  1.00  0.00     0.049 A 
ATOM     61  H   UNL A   1      46.091  28.564  27.432  1.00  0.00     0.167 HD
ATOM     62  C   UNL A   1      47.331  26.157  26.596  1.00  0.00     0.074 A 
ATOM     63  C   UNL A   1      47.522  24.765  26.238  1.00  0.00     0.031 C 
ATOM     64  C   UNL A   1      48.308  27.096  26.555  1.00  0.00     0.031 A 
BRANCH  51  65
ATOM     65  C   UNL A   1      46.440  32.750  28.215  1.00  0.00    -0.014 A 
ATOM     66  C   UNL A   1      46.899  33.248  29.449  1.00  0.00     0.010 A 
ATOM     67  C   UNL A   1      46.326  33.630  27.122  1.00  0.00     0.010 A 
ATOM     68  C   UNL A   1      47.193  34.605  29.600  1.00  0.00     0.020 A 
ATOM     69  C   UNL A   1      46.646  34.984  27.263  1.00  0.00     0.020 A 
ATOM     70  C   UNL A   1      47.058  35.465  28.506  1.00  0.00     0.054 A 
BRANCH  70  71
ATOM     71  S   UNL A   1      47.458  37.221  28.727  1.00  0.00     0.124 S 
ATOM     72  O   UNL A   1      47.728  37.288  30.162  1.00  0.00    -0.237 OA
ATOM     73  O   UNL A   1      48.622  37.397  27.862  1.00  0.00    -0.237 OA
ATOM     74  O   UNL A   1      46.248  37.910  28.287  1.00  0.00    -0.744 OA
ENDBRANCH  70  71
ENDBRANCH  51  65
BRANCH  52  75
ATOM     75  C   UNL A   1      43.633  23.259  26.891  1.00  0.00    -0.014 A 
ATOM     76  C   UNL A   1      43.018  22.523  27.919  1.00  0.00     0.010 A 
ATOM     77  C   UNL A   1      43.828  22.651  25.637  1.00  0.00     0.010 A 
ATOM     78  C   UNL A   1      42.620  21.201  27.704  1.00  0.00     0.020 A 
ATOM     79  C   UNL A   1      43.409  21.337  25.411  1.00  0.00     0.020 A 
ATOM     80  C   UNL A   1      42.817  20.616  26.450  1.00  0.00     0.054 A 
BRANCH  80  81
ATOM     81  S   UNL A   1      42.240  18.918  26.176  1.00  0.00     0.124 S 
ATOM     82  O   UNL A   1      42.450  18.310  27.485  1.00  0.00    -0.237 OA
ATOM     83  O   UNL A   1      40.847  19.115  25.784  1.00  0.00    -0.237 OA
ATOM     84  O   UNL A   1      43.114  18.430  25.110  1.00  0.00    -0.744 OA
ENDBRANCH  80  81
ENDBRANCH  52  75
BRANCH  64  85
ATOM     85  C   UNL A   1      49.682  26.647  26.138  1.00  0.00    -0.014 A 
ATOM     86  C   UNL A   1      50.128  26.804  24.814  1.00  0.00     0.010 A 
ATOM     87  C   UNL A   1      50.558  26.114  27.101  1.00  0.00     0.010 A 
ATOM     88  C   UNL A   1      51.419  26.409  24.454  1.00  0.00     0.020 A 
ATOM     89  C   UNL A   1      51.857  25.741  26.750  1.00  0.00     0.020 A 
ATOM     90  C   UNL A   1      52.275  25.879  25.425  1.00  0.00     0.054 A 
BRANCH  90  91
ATOM     91  S   UNL A   1      53.964  25.417  24.945  1.00  0.00     0.124 S 
ATOM     92  O   UNL A   1      53.864  23.964  24.845  1.00  0.00    -0.237 OA
ATOM     93  O   UNL A   1      54.144  26.124  23.679  1.00  0.00    -0.237 OA
ATOM     94  O   UNL A   1      54.783  25.912  26.048  1.00  0.00    -0.744 OA
ENDBRANCH  90  91
ENDBRANCH  64  85
ENDBRANCH  38  39
ENDBRANCH  30  33
ENDBRANCH  28  29
ENDBRANCH  27  28
ENDBRANCH  26  27
ENDBRANCH   1  26
TORSDOF 19
ENDMDL
MODEL 2
REMARK VINA RESULT:     -10.6      2.771      8.775
REMARK SMILES CCC[N@H+]1CCC[C@H]([C@@H](C)Nc2cccc(C(=O)NCCCCNC(=O)c3ccc(-c4c5nc(c(-c6ccc(S(=O)(=O)[O-])cc6)c6ccc([nH]6)c(-c6ccc(S(=O)(=O)[O-])cc6)c6nc(c(-c7ccc(S(=O)(=O)[O-])cc7)c7ccc4[nH]7)C=C6)C=C5)cc3)c2)C1
REMARK SMILES IDX 20 1 19 2 17 3 18 4 16 6 12 7 13 8 87 9 14 10 15 11 11 12
REMARK SMILES IDX 9 14 10 15 8 16 4 17 5 18 88 19 6 21 7 22 3 23 2 24 1 25
REMARK SMILES IDX 21 26 22 27 23 28 24 29 25 30 26 32 27 33 28 34 86 35 29 36
REMARK SMILES IDX 85 37 30 38 31 39 32 40 79 41 33 42 84 43 78 44 80 45 34 46
REMARK SMILES IDX 83 47 77 48 76 49 35 51 65 52 46 53 64 54 47 55 50 56 63 57
REMARK SMILES IDX 81 58 48 59 49 60 62 62 82 63 51 64 36 65 37 66 45 67 38 68
REMARK SMILES IDX 44 69 39 70 40 71 41 72 42 73 43 74 66 75 67 76 75 77 68 78
REMARK SMILES IDX 74 79 69 80 70 81 71 82 72 83 73 84 52 85 53 86 61 87 54 88
REMARK SMILES IDX 60 89 55 90 56 91 57 92 58 93 59 94
REMARK H PARENT 19 5 11 13 4 20 24 31 80 50 50 61
REMARK Flexibility Score: inf
ROOT
ATOM      1  C   UNL A   1      31.298  28.882  24.414  1.00  0.00     0.116 C 
ENDROOT
BRANCH   1   2
ATOM      2  N   UNL A   1      30.581  27.941  25.266  1.00  0.00    -0.352 N 
ATOM      3  C   UNL A   1      30.767  26.584  25.453  1.00  0.00     0.251 C 
ATOM      4  O   UNL A   1      30.038  25.974  26.232  1.00  0.00    -0.269 OA
ATOM      5  H   UNL A   1      29.849  28.336  25.793  1.00  0.00     0.163 HD
BRANCH   3   6
ATOM      6  C   UNL A   1      31.781  25.835  24.666  1.00  0.00     0.041 A 
ATOM      7  C   UNL A   1      34.063  25.010  24.504  1.00  0.00     0.035 A 
ATOM      8  C   UNL A   1      33.874  24.876  23.123  1.00  0.00     0.026 A 
ATOM      9  C   UNL A   1      32.947  25.356  25.263  1.00  0.00     0.039 A 
ATOM     10  C   UNL A   1      32.640  25.162  22.525  1.00  0.00     0.003 A 
ATOM     11  C   UNL A   1      31.601  25.681  23.293  1.00  0.00     0.014 A 
BRANCH   7  12
ATOM     12  N   UNL A   1      35.321  24.819  25.048  1.00  0.00    -0.382 N 
ATOM     13  H   UNL A   1      35.872  25.617  25.219  1.00  0.00     0.160 HD
BRANCH  12  14
ATOM     14  C   UNL A   1      35.895  23.513  25.387  1.00  0.00     0.084 C 
ATOM     15  C   UNL A   1      37.225  23.744  26.112  1.00  0.00     0.031 C 
BRANCH  14  16
ATOM     16  C   UNL A   1      36.062  22.641  24.110  1.00  0.00     0.066 C 
ATOM     17  N   UNL A   1      34.724  20.752  25.004  1.00  0.00    -0.335 N 
ATOM     18  C   UNL A   1      35.895  19.858  25.034  1.00  0.00     0.262 C 
ATOM     19  C   UNL A   1      34.859  21.700  23.894  1.00  0.00     0.267 C 
ATOM     20  H   UNL A   1      34.683  21.293  25.868  1.00  0.00     0.348 HD
ATOM     21  C   UNL A   1      37.211  20.634  25.174  1.00  0.00     0.062 C 
ATOM     22  C   UNL A   1      37.331  21.768  24.154  1.00  0.00     0.017 C 
BRANCH  17  23
ATOM     23  C   UNL A   1      33.474  19.978  24.952  1.00  0.00     0.261 C 
BRANCH  23  24
ATOM     24  C   UNL A   1      32.175  20.805  24.890  1.00  0.00     0.058 C 
ATOM     25  C   UNL A   1      32.096  22.000  25.830  1.00  0.00     0.010 C 
ENDBRANCH  23  24
ENDBRANCH  17  23
ENDBRANCH  14  16
ENDBRANCH  12  14
ENDBRANCH   7  12
ENDBRANCH   3   6
ENDBRANCH   1   2
BRANCH   1  26
ATOM     26  C   UNL A   1      32.496  29.562  25.060  1.00  0.00     0.023 C 
BRANCH  26  27
ATOM     27  C   UNL A   1      33.641  28.657  25.488  1.00  0.00     0.023 C 
BRANCH  27  28
ATOM     28  C   UNL A   1      33.903  28.569  26.986  1.00  0.00     0.116 C 
BRANCH  28  29
ATOM     29  N   UNL A   1      33.790  29.840  27.688  1.00  0.00    -0.352 N 
ATOM     30  C   UNL A   1      34.743  30.538  28.400  1.00  0.00     0.251 C 
ATOM     31  H   UNL A   1      32.901  30.263  27.648  1.00  0.00     0.163 HD
ATOM     32  O   UNL A   1      34.442  31.575  28.972  1.00  0.00    -0.269 OA
BRANCH  30  33
ATOM     33  C   UNL A   1      36.118  29.997  28.508  1.00  0.00     0.039 A 
ATOM     34  C   UNL A   1      36.972  30.109  27.409  1.00  0.00     0.014 A 
ATOM     35  C   UNL A   1      36.578  29.433  29.701  1.00  0.00     0.014 A 
ATOM     36  C   UNL A   1      38.317  29.748  27.538  1.00  0.00     0.010 A 
ATOM     37  C   UNL A   1      37.932  29.152  29.852  1.00  0.00     0.010 A 
ATOM     38  C   UNL A   1      38.820  29.317  28.777  1.00  0.00    -0.014 A 
BRANCH  38  39
ATOM     39  C   UNL A   1      40.269  29.059  28.980  1.00  0.00     0.031 A 
ATOM     40  C   UNL A   1      40.856  27.720  28.624  1.00  0.00     0.074 A 
ATOM     41  C   UNL A   1      41.040  29.998  29.564  1.00  0.00     0.049 A 
ATOM     42  N   UNL A   1      42.074  27.279  28.809  1.00  0.00    -0.248 NA
ATOM     43  C   UNL A   1      39.948  26.738  28.009  1.00  0.00     0.031 C 
ATOM     44  C   UNL A   1      40.583  31.319  30.007  1.00  0.00     0.029 A 
ATOM     45  N   UNL A   1      42.372  29.982  29.899  1.00  0.00    -0.354 N 
ATOM     46  C   UNL A   1      42.072  25.964  28.357  1.00  0.00     0.074 A 
ATOM     47  C   UNL A   1      40.722  25.666  27.930  1.00  0.00     0.031 C 
ATOM     48  C   UNL A   1      41.620  31.991  30.530  1.00  0.00     0.029 A 
ATOM     49  C   UNL A   1      42.805  31.141  30.499  1.00  0.00     0.049 A 
ATOM     50  H   UNL A   1      42.960  29.212  29.727  1.00  0.00     0.167 HD
ATOM     51  C   UNL A   1      43.104  25.090  28.284  1.00  0.00     0.031 A 
ATOM     52  C   UNL A   1      44.019  31.481  30.977  1.00  0.00     0.031 A 
ATOM     53  C   UNL A   1      44.451  25.393  28.688  1.00  0.00     0.049 A 
ATOM     54  C   UNL A   1      45.153  30.500  30.871  1.00  0.00     0.074 A 
ATOM     55  C   UNL A   1      45.578  24.595  28.594  1.00  0.00     0.029 A 
ATOM     56  N   UNL A   1      44.855  26.590  29.260  1.00  0.00    -0.354 N 
ATOM     57  N   UNL A   1      45.146  29.285  30.378  1.00  0.00    -0.248 NA
ATOM     58  C   UNL A   1      46.462  30.940  31.373  1.00  0.00     0.031 C 
ATOM     59  C   UNL A   1      46.656  25.295  29.146  1.00  0.00     0.029 A 
ATOM     60  C   UNL A   1      46.209  26.547  29.540  1.00  0.00     0.049 A 
ATOM     61  H   UNL A   1      44.265  27.357  29.442  1.00  0.00     0.167 HD
ATOM     62  C   UNL A   1      46.453  28.823  30.489  1.00  0.00     0.074 A 
ATOM     63  C   UNL A   1      47.225  29.896  31.083  1.00  0.00     0.031 C 
ATOM     64  C   UNL A   1      46.966  27.622  30.129  1.00  0.00     0.031 A 
BRANCH  51  65
ATOM     65  C   UNL A   1      42.809  23.716  27.745  1.00  0.00    -0.014 A 
ATOM     66  C   UNL A   1      42.382  22.680  28.596  1.00  0.00     0.010 A 
ATOM     67  C   UNL A   1      42.934  23.462  26.367  1.00  0.00     0.010 A 
ATOM     68  C   UNL A   1      42.131  21.403  28.087  1.00  0.00     0.020 A 
ATOM     69  C   UNL A   1      42.657  22.192  25.850  1.00  0.00     0.020 A 
ATOM     70  C   UNL A   1      42.277  21.167  26.717  1.00  0.00     0.054 A 
BRANCH  70  71
ATOM     71  S   UNL A   1      41.933  19.503  26.082  1.00  0.00     0.124 S 
ATOM     72  O   UNL A   1      42.840  19.425  24.939  1.00  0.00    -0.237 OA
ATOM     73  O   UNL A   1      42.278  18.648  27.215  1.00  0.00    -0.237 OA
ATOM     74  O   UNL A   1      40.511  19.546  25.748  1.00  0.00    -0.744 OA
ENDBRANCH  70  71
ENDBRANCH  51  65
BRANCH  52  75
ATOM     75  C   UNL A   1      44.229  32.826  31.581  1.00  0.00    -0.014 A 
ATOM     76  C   UNL A   1      44.573  33.922  30.771  1.00  0.00     0.010 A 
ATOM     77  C   UNL A   1      44.069  33.020  32.965  1.00  0.00     0.010 A 
ATOM     78  C   UNL A   1      44.769  35.186  31.335  1.00  0.00     0.020 A 
ATOM     79  C   UNL A   1      44.240  34.288  33.529  1.00  0.00     0.020 A 
ATOM     80  C   UNL A   1      44.600  35.361  32.711  1.00  0.00     0.054 A 
BRANCH  80  81
ATOM     81  S   UNL A   1      44.803  37.022  33.414  1.00  0.00     0.124 S 
ATOM     82  O   UNL A   1      46.222  37.037  33.752  1.00  0.00    -0.237 OA
ATOM     83  O   UNL A   1      44.405  37.887  32.307  1.00  0.00    -0.237 OA
ATOM     84  O   UNL A   1      43.887  37.023  34.553  1.00  0.00    -0.744 OA
ENDBRANCH  80  81
ENDBRANCH  52  75
BRANCH  64  85
ATOM     85  C   UNL A   1      48.441  27.409  30.336  1.00  0.00    -0.014 A 
ATOM     86  C   UNL A   1      48.924  26.705  31.453  1.00  0.00     0.010 A 
ATOM     87  C   UNL A   1      49.350  27.873  29.368  1.00  0.00     0.010 A 
ATOM     88  C   UNL A   1      50.296  26.491  31.611  1.00  0.00     0.020 A 
ATOM     89  C   UNL A   1      50.720  27.640  29.512  1.00  0.00     0.020 A 
ATOM     90  C   UNL A   1      51.185  26.962  30.639  1.00  0.00     0.054 A 
BRANCH  90  91
ATOM     91  S   UNL A   1      52.958  26.631  30.842  1.00  0.00     0.124 S 
ATOM     92  O   UNL A   1      53.367  26.321  29.476  1.00  0.00    -0.237 OA
ATOM     93  O   UNL A   1      53.462  27.893  31.378  1.00  0.00    -0.237 OA
ATOM     94  O   UNL A   1      52.996  25.508  31.775  1.00  0.00    -0.744 OA
ENDBRANCH  90  91
ENDBRANCH  64  85
ENDBRANCH  38  39
ENDBRANCH  30  33
ENDBRANCH  28  29
ENDBRANCH  27  28
ENDBRANCH  26  27
ENDBRANCH   1  26
TORSDOF 19
ENDMDL
MODEL 3
REMARK VINA RESULT:     -10.0      2.878      9.136
REMARK SMILES CCC[N@H+]1CCC[C@H]([C@@H](C)Nc2cccc(C(=O)NCCCCNC(=O)c3ccc(-c4c5nc(c(-c6ccc(S(=O)(=O)[O-])cc6)c6ccc([nH]6)c(-c6ccc(S(=O)(=O)[O-])cc6)c6nc(c(-c7ccc(S(=O)(=O)[O-])cc7)c7ccc4[nH]7)C=C6)C=C5)cc3)c2)C1
REMARK SMILES IDX 20 1 19 2 17 3 18 4 16 6 12 7 13 8 87 9 14 10 15 11 11 12
REMARK SMILES IDX 9 14 10 15 8 16 4 17 5 18 88 19 6 21 7 22 3 23 2 24 1 25
REMARK SMILES IDX 21 26 22 27 23 28 24 29 25 30 26 32 27 33 28 34 86 35 29 36
REMARK SMILES IDX 85 37 30 38 31 39 32 40 79 41 33 42 84 43 78 44 80 45 34 46
REMARK SMILES IDX 83 47 77 48 76 49 35 51 65 52 46 53 64 54 47 55 50 56 63 57
REMARK SMILES IDX 81 58 48 59 49 60 62 62 82 63 51 64 36 65 37 66 45 67 38 68
REMARK SMILES IDX 44 69 39 70 40 71 41 72 42 73 43 74 66 75 67 76 75 77 68 78
REMARK SMILES IDX 74 79 69 80 70 81 71 82 72 83 73 84 52 85 53 86 61 87 54 88
REMARK SMILES IDX 60 89 55 90 56 91 57 92 58 93 59 94
REMARK H PARENT 19 5 11 13 4 20 24 31 80 50 50 61
REMARK Flexibility Score: inf
ROOT
ATOM      1  C   UNL A   1      34.116  25.976  25.448  1.00  0.00     0.116 C 
ENDROOT
BRANCH   1   2
ATOM      2  N   UNL A   1      33.988  24.738  24.690  1.00  0.00    -0.352 N 
ATOM      3  C   UNL A   1      32.858  24.058  24.274  1.00  0.00     0.251 C 
ATOM      4  O   UNL A   1      32.979  23.015  23.634  1.00  0.00    -0.269 OA
ATOM      5  H   UNL A   1      34.841  24.321  24.432  1.00  0.00     0.163 HD
BRANCH   3   6
ATOM      6  C   UNL A   1      31.500  24.524  24.657  1.00  0.00     0.041 A 
ATOM      7  C   UNL A   1      29.550  25.866  24.098  1.00  0.00     0.035 A 
ATOM      8  C   UNL A   1      29.183  25.822  25.450  1.00  0.00     0.026 A 
ATOM      9  C   UNL A   1      30.637  25.082  23.715  1.00  0.00     0.039 A 
ATOM     10  C   UNL A   1      29.930  25.095  26.385  1.00  0.00     0.003 A 
ATOM     11  C   UNL A   1      31.114  24.475  25.995  1.00  0.00     0.014 A 
BRANCH   7  12
ATOM     12  N   UNL A   1      28.850  26.676  23.222  1.00  0.00    -0.382 N 
ATOM     13  H   UNL A   1      28.622  26.305  22.339  1.00  0.00     0.160 HD
BRANCH  12  14
ATOM     14  C   UNL A   1      28.427  28.050  23.511  1.00  0.00     0.084 C 
ATOM     15  C   UNL A   1      26.899  28.114  23.415  1.00  0.00     0.031 C 
BRANCH  14  16
ATOM     16  C   UNL A   1      29.123  29.052  22.547  1.00  0.00     0.066 C 
ATOM     17  N   UNL A   1      30.072  30.436  24.374  1.00  0.00    -0.335 N 
ATOM     18  C   UNL A   1      29.240  31.596  24.009  1.00  0.00     0.262 C 
ATOM     19  C   UNL A   1      30.393  29.664  23.169  1.00  0.00     0.267 C 
ATOM     20  H   UNL A   1      29.551  29.823  25.002  1.00  0.00     0.348 HD
ATOM     21  C   UNL A   1      27.946  31.179  23.301  1.00  0.00     0.062 C 
ATOM     22  C   UNL A   1      28.199  30.216  22.139  1.00  0.00     0.017 C 
BRANCH  17  23
ATOM     23  C   UNL A   1      31.266  30.859  25.122  1.00  0.00     0.261 C 
BRANCH  23  24
ATOM     24  C   UNL A   1      31.003  31.525  26.487  1.00  0.00     0.058 C 
ATOM     25  C   UNL A   1      31.833  32.762  26.799  1.00  0.00     0.010 C 
ENDBRANCH  23  24
ENDBRANCH  17  23
ENDBRANCH  14  16
ENDBRANCH  12  14
ENDBRANCH   7  12
ENDBRANCH   3   6
ENDBRANCH   1   2
BRANCH   1  26
ATOM     26  C   UNL A   1      33.795  27.248  24.677  1.00  0.00     0.023 C 
BRANCH  26  27
ATOM     27  C   UNL A   1      33.966  28.559  25.429  1.00  0.00     0.023 C 
BRANCH  27  28
ATOM     28  C   UNL A   1      33.949  28.467  26.949  1.00  0.00     0.116 C 
BRANCH  28  29
ATOM     29  N   UNL A   1      33.833  29.753  27.624  1.00  0.00    -0.352 N 
ATOM     30  C   UNL A   1      34.783  30.466  28.326  1.00  0.00     0.251 C 
ATOM     31  H   UNL A   1      32.944  30.174  27.571  1.00  0.00     0.163 HD
ATOM     32  O   UNL A   1      34.478  31.515  28.874  1.00  0.00    -0.269 OA
BRANCH  30  33
ATOM     33  C   UNL A   1      36.157  29.929  28.451  1.00  0.00     0.039 A 
ATOM     34  C   UNL A   1      37.033  30.065  27.372  1.00  0.00     0.014 A 
ATOM     35  C   UNL A   1      36.595  29.343  29.641  1.00  0.00     0.014 A 
ATOM     36  C   UNL A   1      38.376  29.707  27.521  1.00  0.00     0.010 A 
ATOM     37  C   UNL A   1      37.947  29.064  29.814  1.00  0.00     0.010 A 
ATOM     38  C   UNL A   1      38.856  29.254  28.761  1.00  0.00    -0.014 A 
BRANCH  38  39
ATOM     39  C   UNL A   1      40.301  28.997  28.989  1.00  0.00     0.031 A 
ATOM     40  C   UNL A   1      40.898  27.662  28.634  1.00  0.00     0.074 A 
ATOM     41  C   UNL A   1      41.060  29.934  29.594  1.00  0.00     0.049 A 
ATOM     42  N   UNL A   1      42.114  27.223  28.837  1.00  0.00    -0.248 NA
ATOM     43  C   UNL A   1      40.004  26.683  27.994  1.00  0.00     0.031 C 
ATOM     44  C   UNL A   1      40.592  31.250  30.039  1.00  0.00     0.029 A 
ATOM     45  N   UNL A   1      42.385  29.918  29.953  1.00  0.00    -0.354 N 
ATOM     46  C   UNL A   1      42.123  25.911  28.375  1.00  0.00     0.074 A 
ATOM     47  C   UNL A   1      40.782  25.614  27.921  1.00  0.00     0.031 C 
ATOM     48  C   UNL A   1      41.618  31.921  30.586  1.00  0.00     0.029 A 
ATOM     49  C   UNL A   1      42.805  31.073  30.570  1.00  0.00     0.049 A 
ATOM     50  H   UNL A   1      42.979  29.150  29.786  1.00  0.00     0.167 HD
ATOM     51  C   UNL A   1      43.159  25.040  28.314  1.00  0.00     0.031 A 
ATOM     52  C   UNL A   1      44.009  31.413  31.072  1.00  0.00     0.031 A 
ATOM     53  C   UNL A   1      44.497  25.343  28.745  1.00  0.00     0.049 A 
ATOM     54  C   UNL A   1      45.147  30.435  30.979  1.00  0.00     0.074 A 
ATOM     55  C   UNL A   1      45.628  24.548  28.665  1.00  0.00     0.029 A 
ATOM     56  N   UNL A   1      44.887  26.536  29.333  1.00  0.00    -0.354 N 
ATOM     57  N   UNL A   1      45.152  29.223  30.477  1.00  0.00    -0.248 NA
ATOM     58  C   UNL A   1      46.446  30.874  31.508  1.00  0.00     0.031 C 
ATOM     59  C   UNL A   1      46.694  25.247  29.242  1.00  0.00     0.029 A 
ATOM     60  C   UNL A   1      46.237  26.494  29.637  1.00  0.00     0.049 A 
ATOM     61  H   UNL A   1      44.292  27.301  29.510  1.00  0.00     0.167 HD
ATOM     62  C   UNL A   1      46.457  28.764  30.608  1.00  0.00     0.074 A 
ATOM     63  C   UNL A   1      47.217  29.833  31.224  1.00  0.00     0.031 C 
ATOM     64  C   UNL A   1      46.980  27.566  30.248  1.00  0.00     0.031 A 
BRANCH  51  65
ATOM     65  C   UNL A   1      42.877  23.670  27.759  1.00  0.00    -0.014 A 
ATOM     66  C   UNL A   1      42.236  22.689  28.540  1.00  0.00     0.010 A 
ATOM     67  C   UNL A   1      43.231  23.364  26.432  1.00  0.00     0.010 A 
ATOM     68  C   UNL A   1      41.999  21.414  28.021  1.00  0.00     0.020 A 
ATOM     69  C   UNL A   1      42.970  22.097  25.900  1.00  0.00     0.020 A 
ATOM     70  C   UNL A   1      42.373  21.125  26.706  1.00  0.00     0.054 A 
BRANCH  70  71
ATOM     71  S   UNL A   1      42.042  19.465  26.053  1.00  0.00     0.124 S 
ATOM     72  O   UNL A   1      42.535  18.614  27.133  1.00  0.00    -0.237 OA
ATOM     73  O   UNL A   1      40.592  19.473  25.874  1.00  0.00    -0.237 OA
ATOM     74  O   UNL A   1      42.819  19.417  24.817  1.00  0.00    -0.744 OA
ENDBRANCH  70  71
ENDBRANCH  51  65
BRANCH  52  75
ATOM     75  C   UNL A   1      44.204  32.753  31.690  1.00  0.00    -0.014 A 
ATOM     76  C   UNL A   1      44.088  32.916  33.082  1.00  0.00     0.010 A 
ATOM     77  C   UNL A   1      44.524  33.868  30.894  1.00  0.00     0.010 A 
ATOM     78  C   UNL A   1      44.272  34.173  33.666  1.00  0.00     0.020 A 
ATOM     79  C   UNL A   1      44.733  35.121  31.477  1.00  0.00     0.020 A 
ATOM     80  C   UNL A   1      44.595  35.268  32.859  1.00  0.00     0.054 A 
BRANCH  80  81
ATOM     81  S   UNL A   1      44.887  36.878  33.644  1.00  0.00     0.124 S 
ATOM     82  O   UNL A   1      43.683  37.045  34.451  1.00  0.00    -0.237 OA
ATOM     83  O   UNL A   1      46.123  36.650  34.387  1.00  0.00    -0.237 OA
ATOM     84  O   UNL A   1      45.013  37.791  32.510  1.00  0.00    -0.744 OA
ENDBRANCH  80  81
ENDBRANCH  52  75
BRANCH  64  85
ATOM     85  C   UNL A   1      48.452  27.355  30.481  1.00  0.00    -0.014 A 
ATOM     86  C   UNL A   1      48.917  26.665  31.614  1.00  0.00     0.010 A 
ATOM     87  C   UNL A   1      49.376  27.806  29.521  1.00  0.00     0.010 A 
ATOM     88  C   UNL A   1      50.287  26.453  31.795  1.00  0.00     0.020 A 
ATOM     89  C   UNL A   1      50.743  27.574  29.688  1.00  0.00     0.020 A 
ATOM     90  C   UNL A   1      51.191  26.910  30.832  1.00  0.00     0.054 A 
BRANCH  90  91
ATOM     91  S   UNL A   1      52.960  26.581  31.065  1.00  0.00     0.124 S 
ATOM     92  O   UNL A   1      52.941  25.498  32.043  1.00  0.00    -0.237 OA
ATOM     93  O   UNL A   1      53.399  26.209  29.723  1.00  0.00    -0.237 OA
ATOM     94  O   UNL A   1      53.486  27.854  31.555  1.00  0.00    -0.744 OA
ENDBRANCH  90  91
ENDBRANCH  64  85
ENDBRANCH  38  39
ENDBRANCH  30  33
ENDBRANCH  28  29
ENDBRANCH  27  28
ENDBRANCH  26  27
ENDBRANCH   1  26
TORSDOF 19
ENDMDL
