MODEL 1
REMARK VINA RESULT:      -9.6      0.000      0.000
REMARK SMILES O=C(COc1ccc(N2C[C@@H](C(=O)NCCCCNC(=O)c3ccc(-c4c5nc(c(-c6ccc(S(=O)(=O)[O-])cc6)c6ccc([nH]6)c(-c6ccc(S(=O)(=O)[O-])cc6)c6nc(c(-c7ccc(S(=O)(=O)[O-])cc7)c7ccc4[nH]7)C=C6)C=C5)cc3)CC2=O)cc1)Nc1ccc(Cl)cc1Cl
REMARK SMILES IDX 15 1 14 2 12 3 13 4 11 6 9 7 10 8 83 9 82 10 84 11 8 12 5 13
REMARK SMILES IDX 6 14 86 15 7 16 85 17 4 18 3 19 2 20 1 21 87 22 88 24 89 25
REMARK SMILES IDX 94 26 90 27 93 28 95 29 91 30 92 31 16 32 17 33 18 34 19 35
REMARK SMILES IDX 20 36 21 38 22 39 23 40 81 41 24 42 80 43 25 44 26 45 27 46
REMARK SMILES IDX 74 47 28 48 79 49 73 50 75 51 29 52 78 53 72 54 71 55 30 57
REMARK SMILES IDX 60 58 41 59 59 60 42 61 45 62 58 63 76 64 43 65 44 66 57 68
REMARK SMILES IDX 77 69 46 70 31 71 32 72 40 73 33 74 39 75 34 76 35 77 36 78
REMARK SMILES IDX 37 79 38 80 61 81 62 82 70 83 63 84 69 85 64 86 65 87 66 88
REMARK SMILES IDX 67 89 68 90 47 91 48 92 56 93 49 94 55 95 50 96 51 97 52 98
REMARK SMILES IDX 53 99 54 100
REMARK H PARENT 14 5 87 23 19 37 75 56 45 67
REMARK Flexibility Score: inf
ROOT
ATOM      1  C   UNL A   1      37.439  33.725  30.672  1.00  0.00     0.116 C 
ENDROOT
BRANCH   1   2
ATOM      2  N   UNL A   1      36.524  34.546  31.448  1.00  0.00    -0.356 N 
ATOM      3  C   UNL A   1      36.470  34.840  32.771  1.00  0.00     0.225 C 
ATOM      4  O   UNL A   1      35.567  35.591  33.150  1.00  0.00    -0.275 OA
ATOM      5  H   UNL A   1      35.812  34.967  30.913  1.00  0.00     0.163 HD
BRANCH   3   6
ATOM      6  C   UNL A   1      37.477  34.322  33.775  1.00  0.00     0.107 C 
ATOM      7  N   UNL A   1      38.549  32.255  34.133  1.00  0.00    -0.312 N 
ATOM      8  C   UNL A   1      38.440  33.319  33.167  1.00  0.00     0.139 C 
ATOM      9  C   UNL A   1      37.648  32.397  35.189  1.00  0.00     0.227 C 
ATOM     10  C   UNL A   1      36.880  33.675  35.011  1.00  0.00     0.116 C 
ATOM     11  O   UNL A   1      37.480  31.656  36.151  1.00  0.00    -0.274 OA
BRANCH   7  12
ATOM     12  C   UNL A   1      39.414  31.150  33.952  1.00  0.00     0.044 A 
ATOM     13  C   UNL A   1      41.079  28.899  33.627  1.00  0.00     0.120 A 
ATOM     14  C   UNL A   1      41.550  30.022  34.300  1.00  0.00     0.048 A 
ATOM     15  C   UNL A   1      39.781  28.896  33.128  1.00  0.00     0.048 A 
ATOM     16  C   UNL A   1      40.730  31.155  34.436  1.00  0.00     0.030 A 
ATOM     17  C   UNL A   1      38.958  30.009  33.291  1.00  0.00     0.030 A 
BRANCH  13  18
ATOM     18  O   UNL A   1      41.859  27.773  33.584  1.00  0.00    -0.484 OA
BRANCH  18  19
ATOM     19  C   UNL A   1      42.098  27.217  34.881  1.00  0.00     0.329 C 
BRANCH  19  20
ATOM     20  C   UNL A   1      42.816  25.863  34.872  1.00  0.00     0.262 C 
ATOM     21  O   UNL A   1      42.316  24.881  35.410  1.00  0.00    -0.271 OA
ATOM     22  N   UNL A   1      44.083  25.941  34.303  1.00  0.00    -0.322 N 
ATOM     23  H   UNL A   1      44.317  26.767  33.823  1.00  0.00     0.170 HD
BRANCH  22  24
ATOM     24  C   UNL A   1      45.060  24.918  34.364  1.00  0.00     0.060 A 
ATOM     25  C   UNL A   1      46.135  25.167  35.234  1.00  0.00     0.029 A 
ATOM     26  C   UNL A   1      45.022  23.693  33.674  1.00  0.00     0.066 A 
ATOM     27  C   UNL A   1      47.093  24.183  35.490  1.00  0.00     0.023 A 
ATOM     28  C   UNL A   1      45.981  22.705  33.939  1.00  0.00     0.043 A 
ATOM     29  Cl  UNL A   1      43.964  23.387  32.340  1.00  0.00    -0.082 Cl
ATOM     30  C   UNL A   1      47.000  22.949  34.855  1.00  0.00     0.042 A 
ATOM     31  Cl  UNL A   1      48.172  21.734  35.179  1.00  0.00    -0.084 Cl
ENDBRANCH  22  24
ENDBRANCH  19  20
ENDBRANCH  18  19
ENDBRANCH  13  18
ENDBRANCH   7  12
ENDBRANCH   3   6
ENDBRANCH   1   2
BRANCH   1  32
ATOM     32  C   UNL A   1      37.041  33.661  29.198  1.00  0.00     0.023 C 
BRANCH  32  33
ATOM     33  C   UNL A   1      35.534  33.702  28.935  1.00  0.00     0.023 C 
BRANCH  33  34
ATOM     34  C   UNL A   1      34.725  32.600  29.609  1.00  0.00     0.116 C 
BRANCH  34  35
ATOM     35  N   UNL A   1      34.015  31.757  28.661  1.00  0.00    -0.352 N 
ATOM     36  C   UNL A   1      34.466  30.659  27.968  1.00  0.00     0.251 C 
ATOM     37  H   UNL A   1      33.078  32.009  28.491  1.00  0.00     0.163 HD
ATOM     38  O   UNL A   1      33.768  30.157  27.094  1.00  0.00    -0.269 OA
BRANCH  36  39
ATOM     39  C   UNL A   1      35.808  30.110  28.259  1.00  0.00     0.039 A 
ATOM     40  C   UNL A   1      36.791  30.165  27.268  1.00  0.00     0.014 A 
ATOM     41  C   UNL A   1      36.103  29.565  29.512  1.00  0.00     0.014 A 
ATOM     42  C   UNL A   1      38.089  29.739  27.559  1.00  0.00     0.010 A 
ATOM     43  C   UNL A   1      37.414  29.219  29.824  1.00  0.00     0.010 A 
ATOM     44  C   UNL A   1      38.422  29.301  28.851  1.00  0.00    -0.014 A 
BRANCH  44  45
ATOM     45  C   UNL A   1      39.818  28.934  29.206  1.00  0.00     0.031 A 
ATOM     46  C   UNL A   1      40.717  29.934  29.881  1.00  0.00     0.074 A 
ATOM     47  C   UNL A   1      40.295  27.719  28.866  1.00  0.00     0.049 A 
ATOM     48  N   UNL A   1      41.975  29.816  30.218  1.00  0.00    -0.248 NA
ATOM     49  C   UNL A   1      40.133  31.249  30.195  1.00  0.00     0.031 C 
ATOM     50  C   UNL A   1      39.538  26.673  28.174  1.00  0.00     0.029 A 
ATOM     51  N   UNL A   1      41.535  27.159  29.053  1.00  0.00    -0.354 N 
ATOM     52  C   UNL A   1      42.336  31.039  30.770  1.00  0.00     0.074 A 
ATOM     53  C   UNL A   1      41.182  31.905  30.669  1.00  0.00     0.031 C 
ATOM     54  C   UNL A   1      40.319  25.592  28.021  1.00  0.00     0.029 A 
ATOM     55  C   UNL A   1      41.644  25.880  28.560  1.00  0.00     0.049 A 
ATOM     56  H   UNL A   1      42.277  27.629  29.498  1.00  0.00     0.167 HD
ATOM     57  C   UNL A   1      43.514  31.405  31.329  1.00  0.00     0.031 A 
ATOM     58  C   UNL A   1      42.693  25.034  28.535  1.00  0.00     0.031 A 
ATOM     59  C   UNL A   1      44.661  30.540  31.430  1.00  0.00     0.049 A 
ATOM     60  C   UNL A   1      44.000  25.471  29.141  1.00  0.00     0.074 A 
ATOM     61  C   UNL A   1      45.883  30.799  32.023  1.00  0.00     0.029 A 
ATOM     62  N   UNL A   1      44.728  29.252  30.921  1.00  0.00    -0.354 N 
ATOM     63  N   UNL A   1      44.300  26.610  29.719  1.00  0.00    -0.248 NA
ATOM     64  C   UNL A   1      45.105  24.504  29.103  1.00  0.00     0.031 C 
ATOM     65  C   UNL A   1      46.712  29.691  31.820  1.00  0.00     0.029 A 
ATOM     66  C   UNL A   1      45.982  28.714  31.161  1.00  0.00     0.049 A 
ATOM     67  H   UNL A   1      43.995  28.788  30.457  1.00  0.00     0.167 HD
ATOM     68  C   UNL A   1      45.620  26.484  30.139  1.00  0.00     0.074 A 
ATOM     69  C   UNL A   1      46.053  25.154  29.763  1.00  0.00     0.031 C 
ATOM     70  C   UNL A   1      46.402  27.388  30.780  1.00  0.00     0.031 A 
BRANCH  57  71
ATOM     71  C   UNL A   1      43.625  32.808  31.869  1.00  0.00    -0.014 A 
ATOM     72  C   UNL A   1      43.292  33.104  33.204  1.00  0.00     0.010 A 
ATOM     73  C   UNL A   1      44.103  33.841  31.042  1.00  0.00     0.010 A 
ATOM     74  C   UNL A   1      43.392  34.411  33.688  1.00  0.00     0.020 A 
ATOM     75  C   UNL A   1      44.236  35.144  31.530  1.00  0.00     0.020 A 
ATOM     76  C   UNL A   1      43.862  35.423  32.847  1.00  0.00     0.054 A 
BRANCH  76  77
ATOM     77  S   UNL A   1      43.999  37.107  33.507  1.00  0.00     0.124 S 
ATOM     78  O   UNL A   1      45.447  37.292  33.561  1.00  0.00    -0.237 OA
ATOM     79  O   UNL A   1      43.303  37.903  32.499  1.00  0.00    -0.237 OA
ATOM     80  O   UNL A   1      43.333  37.028  34.804  1.00  0.00    -0.744 OA
ENDBRANCH  76  77
ENDBRANCH  57  71
BRANCH  58  81
ATOM     81  C   UNL A   1      42.548  23.685  27.921  1.00  0.00    -0.014 A 
ATOM     82  C   UNL A   1      42.307  22.554  28.722  1.00  0.00     0.010 A 
ATOM     83  C   UNL A   1      42.639  23.524  26.526  1.00  0.00     0.010 A 
ATOM     84  C   UNL A   1      42.180  21.288  28.142  1.00  0.00     0.020 A 
ATOM     85  C   UNL A   1      42.481  22.266  25.940  1.00  0.00     0.020 A 
ATOM     86  C   UNL A   1      42.265  21.152  26.754  1.00  0.00     0.054 A 
BRANCH  86  87
ATOM     87  S   UNL A   1      42.047  19.506  26.021  1.00  0.00     0.124 S 
ATOM     88  O   UNL A   1      40.625  19.509  25.689  1.00  0.00    -0.237 OA
ATOM     89  O   UNL A   1      42.963  19.545  24.885  1.00  0.00    -0.237 OA
ATOM     90  O   UNL A   1      42.438  18.599  27.097  1.00  0.00    -0.744 OA
ENDBRANCH  86  87
ENDBRANCH  58  81
BRANCH  70  91
ATOM     91  C   UNL A   1      47.798  26.961  31.152  1.00  0.00    -0.014 A 
ATOM     92  C   UNL A   1      48.035  26.085  32.227  1.00  0.00     0.010 A 
ATOM     93  C   UNL A   1      48.885  27.399  30.373  1.00  0.00     0.010 A 
ATOM     94  C   UNL A   1      49.339  25.684  32.536  1.00  0.00     0.020 A 
ATOM     95  C   UNL A   1      50.185  26.974  30.659  1.00  0.00     0.020 A 
ATOM     96  C   UNL A   1      50.405  26.130  31.748  1.00  0.00     0.054 A 
BRANCH  96  97
ATOM     97  S   UNL A   1      52.080  25.558  32.144  1.00  0.00     0.124 S 
ATOM     98  O   UNL A   1      52.484  26.497  33.186  1.00  0.00    -0.237 OA
ATOM     99  O   UNL A   1      51.851  24.185  32.589  1.00  0.00    -0.237 OA
ATOM    100  O   UNL A   1      52.798  25.684  30.877  1.00  0.00    -0.744 OA
ENDBRANCH  96  97
ENDBRANCH  70  91
ENDBRANCH  44  45
ENDBRANCH  36  39
ENDBRANCH  34  35
ENDBRANCH  33  34
ENDBRANCH  32  33
ENDBRANCH   1  32
TORSDOF 19
ENDMDL
MODEL 2
REMARK VINA RESULT:      -9.5      1.512      2.187
REMARK SMILES O=C(COc1ccc(N2C[C@@H](C(=O)NCCCCNC(=O)c3ccc(-c4c5nc(c(-c6ccc(S(=O)(=O)[O-])cc6)c6ccc([nH]6)c(-c6ccc(S(=O)(=O)[O-])cc6)c6nc(c(-c7ccc(S(=O)(=O)[O-])cc7)c7ccc4[nH]7)C=C6)C=C5)cc3)CC2=O)cc1)Nc1ccc(Cl)cc1Cl
REMARK SMILES IDX 15 1 14 2 12 3 13 4 11 6 9 7 10 8 83 9 82 10 84 11 8 12 5 13
REMARK SMILES IDX 6 14 86 15 7 16 85 17 4 18 3 19 2 20 1 21 87 22 88 24 89 25
REMARK SMILES IDX 94 26 90 27 93 28 95 29 91 30 92 31 16 32 17 33 18 34 19 35
REMARK SMILES IDX 20 36 21 38 22 39 23 40 81 41 24 42 80 43 25 44 26 45 27 46
REMARK SMILES IDX 74 47 28 48 79 49 73 50 75 51 29 52 78 53 72 54 71 55 30 57
REMARK SMILES IDX 60 58 41 59 59 60 42 61 45 62 58 63 76 64 43 65 44 66 57 68
REMARK SMILES IDX 77 69 46 70 31 71 32 72 40 73 33 74 39 75 34 76 35 77 36 78
REMARK SMILES IDX 37 79 38 80 61 81 62 82 70 83 63 84 69 85 64 86 65 87 66 88
REMARK SMILES IDX 67 89 68 90 47 91 48 92 56 93 49 94 55 95 50 96 51 97 52 98
REMARK SMILES IDX 53 99 54 100
REMARK H PARENT 14 5 87 23 19 37 75 56 45 67
REMARK Flexibility Score: inf
ROOT
ATOM      1  C   UNL A   1      33.880  34.781  30.319  1.00  0.00     0.116 C 
ENDROOT
BRANCH   1   2
ATOM      2  N   UNL A   1      34.063  35.838  31.300  1.00  0.00    -0.356 N 
ATOM      3  C   UNL A   1      34.368  35.805  32.622  1.00  0.00     0.225 C 
ATOM      4  O   UNL A   1      34.473  36.885  33.208  1.00  0.00    -0.275 OA
ATOM      5  H   UNL A   1      33.944  36.746  30.938  1.00  0.00     0.163 HD
BRANCH   3   6
ATOM      6  C   UNL A   1      34.618  34.520  33.381  1.00  0.00     0.107 C 
ATOM      7  N   UNL A   1      36.455  33.064  33.615  1.00  0.00    -0.312 N 
ATOM      8  C   UNL A   1      36.043  34.416  33.894  1.00  0.00     0.139 C 
ATOM      9  C   UNL A   1      35.521  32.366  32.848  1.00  0.00     0.227 C 
ATOM     10  C   UNL A   1      34.329  33.247  32.606  1.00  0.00     0.116 C 
ATOM     11  O   UNL A   1      35.585  31.215  32.433  1.00  0.00    -0.274 OA
BRANCH   7  12
ATOM     12  C   UNL A   1      37.718  32.558  34.006  1.00  0.00     0.044 A 
ATOM     13  C   UNL A   1      40.246  31.527  34.704  1.00  0.00     0.120 A 
ATOM     14  C   UNL A   1      39.110  31.106  35.387  1.00  0.00     0.048 A 
ATOM     15  C   UNL A   1      40.120  32.451  33.672  1.00  0.00     0.048 A 
ATOM     16  C   UNL A   1      37.854  31.642  35.058  1.00  0.00     0.030 A 
ATOM     17  C   UNL A   1      38.870  32.958  33.327  1.00  0.00     0.030 A 
BRANCH  13  18
ATOM     18  O   UNL A   1      41.448  30.927  34.977  1.00  0.00    -0.484 OA
BRANCH  18  19
ATOM     19  C   UNL A   1      41.482  30.323  36.274  1.00  0.00     0.329 C 
BRANCH  19  20
ATOM     20  C   UNL A   1      42.247  28.997  36.342  1.00  0.00     0.262 C 
ATOM     21  O   UNL A   1      43.279  28.897  36.996  1.00  0.00    -0.271 OA
ATOM     22  N   UNL A   1      41.694  28.026  35.512  1.00  0.00    -0.322 N 
ATOM     23  H   UNL A   1      40.810  28.211  35.121  1.00  0.00     0.170 HD
BRANCH  22  24
ATOM     24  C   UNL A   1      42.309  26.793  35.191  1.00  0.00     0.060 A 
ATOM     25  C   UNL A   1      41.693  25.655  35.740  1.00  0.00     0.029 A 
ATOM     26  C   UNL A   1      43.429  26.616  34.360  1.00  0.00     0.066 A 
ATOM     27  C   UNL A   1      42.117  24.371  35.390  1.00  0.00     0.023 A 
ATOM     28  C   UNL A   1      43.848  25.327  34.004  1.00  0.00     0.043 A 
ATOM     29  Cl  UNL A   1      44.479  27.911  33.893  1.00  0.00    -0.082 Cl
ATOM     30  C   UNL A   1      43.181  24.213  34.508  1.00  0.00     0.042 A 
ATOM     31  Cl  UNL A   1      43.696  22.633  34.067  1.00  0.00    -0.084 Cl
ENDBRANCH  22  24
ENDBRANCH  19  20
ENDBRANCH  18  19
ENDBRANCH  13  18
ENDBRANCH   7  12
ENDBRANCH   3   6
ENDBRANCH   1   2
BRANCH   1  32
ATOM     32  C   UNL A   1      33.992  35.304  28.887  1.00  0.00     0.023 C 
BRANCH  32  33
ATOM     33  C   UNL A   1      34.750  34.388  27.924  1.00  0.00     0.023 C 
BRANCH  33  34
ATOM     34  C   UNL A   1      35.154  33.034  28.495  1.00  0.00     0.116 C 
BRANCH  34  35
ATOM     35  N   UNL A   1      34.232  31.969  28.136  1.00  0.00    -0.352 N 
ATOM     36  C   UNL A   1      34.488  30.635  27.924  1.00  0.00     0.251 C 
ATOM     37  H   UNL A   1      33.291  32.242  28.029  1.00  0.00     0.163 HD
ATOM     38  O   UNL A   1      33.606  29.905  27.481  1.00  0.00    -0.269 OA
BRANCH  36  39
ATOM     39  C   UNL A   1      35.835  30.094  28.201  1.00  0.00     0.039 A 
ATOM     40  C   UNL A   1      36.783  30.083  27.174  1.00  0.00     0.014 A 
ATOM     41  C   UNL A   1      36.171  29.622  29.473  1.00  0.00     0.014 A 
ATOM     42  C   UNL A   1      38.089  29.666  27.445  1.00  0.00     0.010 A 
ATOM     43  C   UNL A   1      37.491  29.286  29.760  1.00  0.00     0.010 A 
ATOM     44  C   UNL A   1      38.464  29.303  28.748  1.00  0.00    -0.014 A 
BRANCH  44  45
ATOM     45  C   UNL A   1      39.870  28.947  29.077  1.00  0.00     0.031 A 
ATOM     46  C   UNL A   1      40.782  29.964  29.707  1.00  0.00     0.074 A 
ATOM     47  C   UNL A   1      40.343  27.727  28.750  1.00  0.00     0.049 A 
ATOM     48  N   UNL A   1      42.048  29.858  30.016  1.00  0.00    -0.248 NA
ATOM     49  C   UNL A   1      40.201  31.284  30.008  1.00  0.00     0.031 C 
ATOM     50  C   UNL A   1      39.573  26.665  28.099  1.00  0.00     0.029 A 
ATOM     51  N   UNL A   1      41.589  27.175  28.917  1.00  0.00    -0.354 N 
ATOM     52  C   UNL A   1      42.418  31.093  30.533  1.00  0.00     0.074 A 
ATOM     53  C   UNL A   1      41.259  31.953  30.443  1.00  0.00     0.031 C 
ATOM     54  C   UNL A   1      40.353  25.583  27.950  1.00  0.00     0.029 A 
ATOM     55  C   UNL A   1      41.690  25.886  28.449  1.00  0.00     0.049 A 
ATOM     56  H   UNL A   1      42.340  27.657  29.334  1.00  0.00     0.167 HD
ATOM     57  C   UNL A   1      43.609  31.474  31.055  1.00  0.00     0.031 A 
ATOM     58  C   UNL A   1      42.742  25.043  28.415  1.00  0.00     0.031 A 
ATOM     59  C   UNL A   1      44.761  30.615  31.145  1.00  0.00     0.049 A 
ATOM     60  C   UNL A   1      44.061  25.497  28.979  1.00  0.00     0.074 A 
ATOM     61  C   UNL A   1      45.997  30.890  31.702  1.00  0.00     0.029 A 
ATOM     62  N   UNL A   1      44.820  29.316  30.661  1.00  0.00    -0.354 N 
ATOM     63  N   UNL A   1      44.372  26.648  29.526  1.00  0.00    -0.248 NA
ATOM     64  C   UNL A   1      45.169  24.532  28.934  1.00  0.00     0.031 C 
ATOM     65  C   UNL A   1      46.824  29.781  31.501  1.00  0.00     0.029 A 
ATOM     66  C   UNL A   1      46.082  28.787  30.881  1.00  0.00     0.049 A 
ATOM     67  H   UNL A   1      44.077  28.841  30.226  1.00  0.00     0.167 HD
ATOM     68  C   UNL A   1      45.702  26.535  29.915  1.00  0.00     0.074 A 
ATOM     69  C   UNL A   1      46.131  25.199  29.557  1.00  0.00     0.031 C 
ATOM     70  C   UNL A   1      46.497  27.455  30.518  1.00  0.00     0.031 A 
BRANCH  57  71
ATOM     71  C   UNL A   1      43.728  32.888  31.562  1.00  0.00    -0.014 A 
ATOM     72  C   UNL A   1      43.536  33.193  32.923  1.00  0.00     0.010 A 
ATOM     73  C   UNL A   1      44.074  33.924  30.675  1.00  0.00     0.010 A 
ATOM     74  C   UNL A   1      43.642  34.511  33.377  1.00  0.00     0.020 A 
ATOM     75  C   UNL A   1      44.213  35.238  31.130  1.00  0.00     0.020 A 
ATOM     76  C   UNL A   1      43.978  35.525  32.476  1.00  0.00     0.054 A 
BRANCH  76  77
ATOM     77  S   UNL A   1      44.127  37.223  33.098  1.00  0.00     0.124 S 
ATOM     78  O   UNL A   1      42.863  37.395  33.809  1.00  0.00    -0.237 OA
ATOM     79  O   UNL A   1      45.316  37.150  33.942  1.00  0.00    -0.237 OA
ATOM     80  O   UNL A   1      44.273  38.026  31.887  1.00  0.00    -0.744 OA
ENDBRANCH  76  77
ENDBRANCH  57  71
BRANCH  58  81
ATOM     81  C   UNL A   1      42.586  23.681  27.834  1.00  0.00    -0.014 A 
ATOM     82  C   UNL A   1      42.152  22.606  28.630  1.00  0.00     0.010 A 
ATOM     83  C   UNL A   1      42.861  23.453  26.472  1.00  0.00     0.010 A 
ATOM     84  C   UNL A   1      42.016  21.327  28.082  1.00  0.00     0.020 A 
ATOM     85  C   UNL A   1      42.696  22.183  25.914  1.00  0.00     0.020 A 
ATOM     86  C   UNL A   1      42.286  21.124  26.726  1.00  0.00     0.054 A 
BRANCH  86  87
ATOM     87  S   UNL A   1      42.053  19.466  26.026  1.00  0.00     0.124 S 
ATOM     88  O   UNL A   1      42.890  19.522  24.831  1.00  0.00    -0.237 OA
ATOM     89  O   UNL A   1      42.538  18.602  27.099  1.00  0.00    -0.237 OA
ATOM     90  O   UNL A   1      40.614  19.397  25.782  1.00  0.00    -0.744 OA
ENDBRANCH  86  87
ENDBRANCH  58  81
BRANCH  70  91
ATOM     91  C   UNL A   1      47.903  27.040  30.864  1.00  0.00    -0.014 A 
ATOM     92  C   UNL A   1      48.987  27.350  30.023  1.00  0.00     0.010 A 
ATOM     93  C   UNL A   1      48.149  26.378  32.081  1.00  0.00     0.010 A 
ATOM     94  C   UNL A   1      50.286  26.975  30.378  1.00  0.00     0.020 A 
ATOM     95  C   UNL A   1      49.449  26.030  32.454  1.00  0.00     0.020 A 
ATOM     96  C   UNL A   1      50.508  26.319  31.593  1.00  0.00     0.054 A 
BRANCH  96  97
ATOM     97  S   UNL A   1      52.209  25.883  32.051  1.00  0.00     0.124 S 
ATOM     98  O   UNL A   1      52.034  24.563  32.650  1.00  0.00    -0.237 OA
ATOM     99  O   UNL A   1      52.900  25.903  30.764  1.00  0.00    -0.237 OA
ATOM    100  O   UNL A   1      52.601  26.942  32.979  1.00  0.00    -0.744 OA
ENDBRANCH  96  97
ENDBRANCH  70  91
ENDBRANCH  44  45
ENDBRANCH  36  39
ENDBRANCH  34  35
ENDBRANCH  33  34
ENDBRANCH  32  33
ENDBRANCH   1  32
TORSDOF 19
ENDMDL
MODEL 3
REMARK VINA RESULT:      -9.4      5.082      8.266
REMARK SMILES O=C(COc1ccc(N2C[C@@H](C(=O)NCCCCNC(=O)c3ccc(-c4c5nc(c(-c6ccc(S(=O)(=O)[O-])cc6)c6ccc([nH]6)c(-c6ccc(S(=O)(=O)[O-])cc6)c6nc(c(-c7ccc(S(=O)(=O)[O-])cc7)c7ccc4[nH]7)C=C6)C=C5)cc3)CC2=O)cc1)Nc1ccc(Cl)cc1Cl
REMARK SMILES IDX 15 1 14 2 12 3 13 4 11 6 9 7 10 8 83 9 82 10 84 11 8 12 5 13
REMARK SMILES IDX 6 14 86 15 7 16 85 17 4 18 3 19 2 20 1 21 87 22 88 24 89 25
REMARK SMILES IDX 94 26 90 27 93 28 95 29 91 30 92 31 16 32 17 33 18 34 19 35
REMARK SMILES IDX 20 36 21 38 22 39 23 40 81 41 24 42 80 43 25 44 26 45 27 46
REMARK SMILES IDX 74 47 28 48 79 49 73 50 75 51 29 52 78 53 72 54 71 55 30 57
REMARK SMILES IDX 60 58 41 59 59 60 42 61 45 62 58 63 76 64 43 65 44 66 57 68
REMARK SMILES IDX 77 69 46 70 31 71 32 72 40 73 33 74 39 75 34 76 35 77 36 78
REMARK SMILES IDX 37 79 38 80 61 81 62 82 70 83 63 84 69 85 64 86 65 87 66 88
REMARK SMILES IDX 67 89 68 90 47 91 48 92 56 93 49 94 55 95 50 96 51 97 52 98
REMARK SMILES IDX 53 99 54 100
REMARK H PARENT 14 5 87 23 19 37 75 56 45 67
REMARK Flexibility Score: inf
ROOT
ATOM      1  C   UNL A   1      32.006  30.719  26.619  1.00  0.00     0.116 C 
ENDROOT
BRANCH   1   2
ATOM      2  N   UNL A   1      31.627  30.317  25.275  1.00  0.00    -0.356 N 
ATOM      3  C   UNL A   1      31.382  29.099  24.728  1.00  0.00     0.225 C 
ATOM      4  O   UNL A   1      31.062  29.065  23.537  1.00  0.00    -0.275 OA
ATOM      5  H   UNL A   1      31.531  31.067  24.644  1.00  0.00     0.163 HD
BRANCH   3   6
ATOM      6  C   UNL A   1      31.447  27.810  25.518  1.00  0.00     0.107 C 
ATOM      7  N   UNL A   1      32.680  25.812  25.331  1.00  0.00    -0.312 N 
ATOM      8  C   UNL A   1      32.846  27.225  25.560  1.00  0.00     0.139 C 
ATOM      9  C   UNL A   1      31.370  25.475  24.989  1.00  0.00     0.227 C 
ATOM     10  C   UNL A   1      30.518  26.712  25.034  1.00  0.00     0.116 C 
ATOM     11  O   UNL A   1      30.915  24.370  24.717  1.00  0.00    -0.274 OA
BRANCH   7  12
ATOM     12  C   UNL A   1      33.766  24.904  25.358  1.00  0.00     0.044 A 
ATOM     13  C   UNL A   1      35.953  23.131  25.485  1.00  0.00     0.120 A 
ATOM     14  C   UNL A   1      35.785  23.951  24.374  1.00  0.00     0.048 A 
ATOM     15  C   UNL A   1      35.039  23.202  26.531  1.00  0.00     0.048 A 
ATOM     16  C   UNL A   1      34.679  24.813  24.297  1.00  0.00     0.030 A 
ATOM     17  C   UNL A   1      33.960  24.081  26.468  1.00  0.00     0.030 A 
BRANCH  13  18
ATOM     18  O   UNL A   1      37.084  22.364  25.582  1.00  0.00    -0.484 OA
BRANCH  18  19
ATOM     19  C   UNL A   1      37.191  21.402  24.528  1.00  0.00     0.329 C 
BRANCH  19  20
ATOM     20  C   UNL A   1      36.622  20.019  24.865  1.00  0.00     0.262 C 
ATOM     21  O   UNL A   1      37.364  19.064  25.068  1.00  0.00    -0.271 OA
ATOM     22  N   UNL A   1      35.233  19.989  24.794  1.00  0.00    -0.322 N 
ATOM     23  H   UNL A   1      34.762  20.849  24.717  1.00  0.00     0.170 HD
BRANCH  22  24
ATOM     24  C   UNL A   1      34.448  18.811  24.825  1.00  0.00     0.060 A 
ATOM     25  C   UNL A   1      35.148  17.618  24.578  1.00  0.00     0.029 A 
ATOM     26  C   UNL A   1      33.074  18.737  25.114  1.00  0.00     0.066 A 
ATOM     27  C   UNL A   1      34.521  16.377  24.715  1.00  0.00     0.023 A 
ATOM     28  C   UNL A   1      32.449  17.491  25.257  1.00  0.00     0.043 A 
ATOM     29  Cl  UNL A   1      32.027  20.116  25.106  1.00  0.00    -0.082 Cl
ATOM     30  C   UNL A   1      33.178  16.320  25.073  1.00  0.00     0.042 A 
ATOM     31  Cl  UNL A   1      32.409  14.793  25.253  1.00  0.00    -0.084 Cl
ENDBRANCH  22  24
ENDBRANCH  19  20
ENDBRANCH  18  19
ENDBRANCH  13  18
ENDBRANCH   7  12
ENDBRANCH   3   6
ENDBRANCH   1   2
BRANCH   1  32
ATOM     32  C   UNL A   1      33.495  30.495  26.885  1.00  0.00     0.023 C 
BRANCH  32  33
ATOM     33  C   UNL A   1      34.120  31.457  27.897  1.00  0.00     0.023 C 
BRANCH  33  34
ATOM     34  C   UNL A   1      35.424  30.983  28.527  1.00  0.00     0.116 C 
BRANCH  34  35
ATOM     35  N   UNL A   1      35.453  31.158  29.970  1.00  0.00    -0.352 N 
ATOM     36  C   UNL A   1      36.422  30.781  30.870  1.00  0.00     0.251 C 
ATOM     37  H   UNL A   1      34.668  31.610  30.358  1.00  0.00     0.163 HD
ATOM     38  O   UNL A   1      36.210  30.879  32.075  1.00  0.00    -0.269 OA
BRANCH  36  39
ATOM     39  C   UNL A   1      37.703  30.230  30.380  1.00  0.00     0.039 A 
ATOM     40  C   UNL A   1      38.015  30.349  29.023  1.00  0.00     0.014 A 
ATOM     41  C   UNL A   1      38.605  29.621  31.257  1.00  0.00     0.014 A 
ATOM     42  C   UNL A   1      39.262  29.921  28.562  1.00  0.00     0.010 A 
ATOM     43  C   UNL A   1      39.876  29.271  30.811  1.00  0.00     0.010 A 
ATOM     44  C   UNL A   1      40.218  29.416  29.458  1.00  0.00    -0.014 A 
BRANCH  44  45
ATOM     45  C   UNL A   1      41.583  29.044  29.002  1.00  0.00     0.031 A 
ATOM     46  C   UNL A   1      42.670  30.083  28.935  1.00  0.00     0.074 A 
ATOM     47  C   UNL A   1      41.828  27.783  28.591  1.00  0.00     0.049 A 
ATOM     48  N   UNL A   1      43.902  29.961  28.514  1.00  0.00    -0.248 NA
ATOM     49  C   UNL A   1      42.318  31.444  29.374  1.00  0.00     0.031 C 
ATOM     50  C   UNL A   1      40.851  26.692  28.569  1.00  0.00     0.029 A 
ATOM     51  N   UNL A   1      42.977  27.206  28.106  1.00  0.00    -0.354 N 
ATOM     52  C   UNL A   1      44.468  31.225  28.625  1.00  0.00     0.074 A 
ATOM     53  C   UNL A   1      43.428  32.113  29.096  1.00  0.00     0.031 C 
ATOM     54  C   UNL A   1      41.447  25.575  28.124  1.00  0.00     0.029 A 
ATOM     55  C   UNL A   1      42.834  25.877  27.785  1.00  0.00     0.049 A 
ATOM     56  H   UNL A   1      43.823  27.698  27.999  1.00  0.00     0.167 HD
ATOM     57  C   UNL A   1      45.742  31.612  28.377  1.00  0.00     0.031 A 
ATOM     58  C   UNL A   1      43.716  24.998  27.267  1.00  0.00     0.031 A 
ATOM     59  C   UNL A   1      46.776  30.725  27.909  1.00  0.00     0.049 A 
ATOM     60  C   UNL A   1      45.120  25.456  26.977  1.00  0.00     0.074 A 
ATOM     61  C   UNL A   1      48.110  31.007  27.676  1.00  0.00     0.029 A 
ATOM     62  N   UNL A   1      46.590  29.386  27.599  1.00  0.00    -0.354 N 
ATOM     63  N   UNL A   1      45.653  26.642  27.153  1.00  0.00    -0.248 NA
ATOM     64  C   UNL A   1      46.045  24.453  26.430  1.00  0.00     0.031 C 
ATOM     65  C   UNL A   1      48.718  29.856  27.166  1.00  0.00     0.029 A 
ATOM     66  C   UNL A   1      47.779  28.836  27.148  1.00  0.00     0.049 A 
ATOM     67  H   UNL A   1      45.740  28.898  27.685  1.00  0.00     0.167 HD
ATOM     68  C   UNL A   1      46.983  26.519  26.766  1.00  0.00     0.074 A 
ATOM     69  C   UNL A   1      47.176  25.141  26.363  1.00  0.00     0.031 C 
ATOM     70  C   UNL A   1      47.958  27.462  26.748  1.00  0.00     0.031 A 
BRANCH  57  71
ATOM     71  C   UNL A   1      46.088  33.062  28.599  1.00  0.00    -0.014 A 
ATOM     72  C   UNL A   1      45.903  34.019  27.583  1.00  0.00     0.010 A 
ATOM     73  C   UNL A   1      46.569  33.484  29.851  1.00  0.00     0.010 A 
ATOM     74  C   UNL A   1      46.236  35.358  27.801  1.00  0.00     0.020 A 
ATOM     75  C   UNL A   1      46.873  34.828  30.085  1.00  0.00     0.020 A 
ATOM     76  C   UNL A   1      46.720  35.753  29.051  1.00  0.00     0.054 A 
BRANCH  76  77
ATOM     77  S   UNL A   1      47.126  37.502  29.311  1.00  0.00     0.124 S 
ATOM     78  O   UNL A   1      47.318  37.555  30.758  1.00  0.00    -0.237 OA
ATOM     79  O   UNL A   1      48.338  37.670  28.512  1.00  0.00    -0.237 OA
ATOM     80  O   UNL A   1      45.951  38.211  28.812  1.00  0.00    -0.744 OA
ENDBRANCH  76  77
ENDBRANCH  57  71
BRANCH  58  81
ATOM     81  C   UNL A   1      43.297  23.594  26.999  1.00  0.00    -0.014 A 
ATOM     82  C   UNL A   1      43.090  22.692  28.057  1.00  0.00     0.010 A 
ATOM     83  C   UNL A   1      43.094  23.153  25.677  1.00  0.00     0.010 A 
ATOM     84  C   UNL A   1      42.707  21.372  27.799  1.00  0.00     0.020 A 
ATOM     85  C   UNL A   1      42.679  21.844  25.418  1.00  0.00     0.020 A 
ATOM     86  C   UNL A   1      42.501  20.957  26.481  1.00  0.00     0.054 A 
BRANCH  86  87
ATOM     87  S   UNL A   1      41.954  19.254  26.175  1.00  0.00     0.124 S 
ATOM     88  O   UNL A   1      40.520  19.429  25.968  1.00  0.00    -0.237 OA
ATOM     89  O   UNL A   1      42.725  18.885  24.990  1.00  0.00    -0.237 OA
ATOM     90  O   UNL A   1      42.330  18.550  27.399  1.00  0.00    -0.744 OA
ENDBRANCH  86  87
ENDBRANCH  58  81
BRANCH  70  91
ATOM     91  C   UNL A   1      49.335  27.032  26.312  1.00  0.00    -0.014 A 
ATOM     92  C   UNL A   1      50.277  26.544  27.236  1.00  0.00     0.010 A 
ATOM     93  C   UNL A   1      49.668  27.063  24.946  1.00  0.00     0.010 A 
ATOM     94  C   UNL A   1      51.539  26.127  26.802  1.00  0.00     0.020 A 
ATOM     95  C   UNL A   1      50.917  26.619  24.505  1.00  0.00     0.020 A 
ATOM     96  C   UNL A   1      51.850  26.165  25.439  1.00  0.00     0.054 A 
BRANCH  96  97
ATOM     97  S   UNL A   1      53.479  25.577  24.899  1.00  0.00     0.124 S 
ATOM     98  O   UNL A   1      53.369  24.137  25.114  1.00  0.00    -0.237 OA
ATOM     99  O   UNL A   1      53.524  26.003  23.502  1.00  0.00    -0.237 OA
ATOM    100  O   UNL A   1      54.410  26.271  25.786  1.00  0.00    -0.744 OA
ENDBRANCH  96  97
ENDBRANCH  70  91
ENDBRANCH  44  45
ENDBRANCH  36  39
ENDBRANCH  34  35
ENDBRANCH  33  34
ENDBRANCH  32  33
ENDBRANCH   1  32
TORSDOF 19
ENDMDL
