MODEL 1
REMARK VINA RESULT:     -10.2      0.000      0.000
REMARK SMILES CCC[NH2+][C@@]1(C(=O)NCCCCNC(=O)c2ccc(-c3c4nc(c(-c5ccc(S(=O)(=O)[O-])cc5)c5ccc([nH]5)c(-c5ccc(S(=O)(=O)[O-])cc5)c5nc(c(-c6ccc(S(=O)(=O)[O-])cc6)c6ccc3[nH]6)C=C5)C=C4)cc2)CC[C@@H](Sc2ccc(OC)cc2)C1
REMARK SMILES IDX 10 1 9 2 8 3 6 4 7 5 5 7 76 8 88 9 77 10 78 11 4 12 3 15
REMARK SMILES IDX 2 16 1 17 79 18 80 19 81 20 87 21 82 22 86 23 83 24 84 25
REMARK SMILES IDX 85 26 11 27 12 28 13 29 14 30 15 32 16 33 17 34 75 35 18 36
REMARK SMILES IDX 74 37 19 38 20 39 21 40 68 41 22 42 73 43 67 44 69 45 23 46
REMARK SMILES IDX 72 47 66 48 65 49 24 51 54 52 35 53 53 54 36 55 39 56 52 57
REMARK SMILES IDX 70 58 37 59 38 60 51 62 71 63 40 64 25 65 26 66 34 67 27 68
REMARK SMILES IDX 33 69 28 70 29 71 30 72 31 73 32 74 55 75 56 76 64 77 57 78
REMARK SMILES IDX 63 79 58 80 59 81 60 82 61 83 62 84 41 85 42 86 50 87 43 88
REMARK SMILES IDX 49 89 44 90 45 91 46 92 47 93 48 94
REMARK H PARENT 8 6 4 13 4 14 13 31 69 50 39 61
REMARK Flexibility Score: inf
ROOT
ATOM      1  C   UNL A   1      34.621  23.367  26.435  1.00  0.00     0.023 C 
ENDROOT
BRANCH   1   2
ATOM      2  C   UNL A   1      33.353  24.197  26.241  1.00  0.00     0.116 C 
BRANCH   2   3
ATOM      3  N   UNL A   1      33.663  25.492  25.687  1.00  0.00    -0.351 N 
ATOM      4  C   UNL A   1      33.360  26.092  24.507  1.00  0.00     0.281 C 
ATOM      5  O   UNL A   1      33.988  27.140  24.302  1.00  0.00    -0.268 OA
ATOM      6  H   UNL A   1      34.204  26.055  26.287  1.00  0.00     0.163 HD
BRANCH   4   7
ATOM      7  C   UNL A   1      32.334  25.511  23.448  1.00  0.00     0.176 C 
ATOM      8  C   UNL A   1      30.962  25.088  24.005  1.00  0.00     0.080 C 
ATOM      9  C   UNL A   1      32.925  24.248  22.778  1.00  0.00     0.094 C 
ATOM     10  C   UNL A   1      30.815  23.576  23.831  1.00  0.00     0.022 C 
ATOM     11  C   UNL A   1      32.158  23.052  23.335  1.00  0.00     0.058 C 
BRANCH   7  12
ATOM     12  N   UNL A   1      32.149  26.525  22.362  1.00  0.00    -0.334 N 
ATOM     13  H   UNL A   1      32.887  27.224  22.452  1.00  0.00     0.347 HD
ATOM     14  H   UNL A   1      32.184  26.011  21.482  1.00  0.00     0.347 HD
BRANCH  12  15
ATOM     15  C   UNL A   1      30.858  27.222  22.380  1.00  0.00     0.261 C 
BRANCH  15  16
ATOM     16  C   UNL A   1      31.023  28.684  22.807  1.00  0.00     0.058 C 
ATOM     17  C   UNL A   1      30.158  29.655  22.015  1.00  0.00     0.010 C 
ENDBRANCH  15  16
ENDBRANCH  12  15
ENDBRANCH   7  12
BRANCH  11  18
ATOM     18  S   UNL A   1      32.104  21.591  22.220  1.00  0.00    -0.122 SA
BRANCH  18  19
ATOM     19  C   UNL A   1      32.339  20.247  23.362  1.00  0.00     0.008 A 
ATOM     20  C   UNL A   1      32.241  18.930  22.906  1.00  0.00     0.019 A 
ATOM     21  C   UNL A   1      32.645  20.484  24.702  1.00  0.00     0.019 A 
ATOM     22  C   UNL A   1      32.506  17.867  23.773  1.00  0.00     0.047 A 
ATOM     23  C   UNL A   1      32.915  19.421  25.568  1.00  0.00     0.047 A 
ATOM     24  C   UNL A   1      32.858  18.107  25.104  1.00  0.00     0.118 A 
BRANCH  24  25
ATOM     25  O   UNL A   1      33.112  16.985  25.842  1.00  0.00    -0.497 OA
ATOM     26  C   UNL A   1      33.725  15.899  25.160  1.00  0.00     0.278 C 
ENDBRANCH  24  25
ENDBRANCH  18  19
ENDBRANCH  11  18
ENDBRANCH   4   7
ENDBRANCH   2   3
ENDBRANCH   1   2
BRANCH   1  27
ATOM     27  C   UNL A   1      35.466  23.206  25.172  1.00  0.00     0.023 C 
BRANCH  27  28
ATOM     28  C   UNL A   1      36.873  23.781  25.275  1.00  0.00     0.116 C 
BRANCH  28  29
ATOM     29  N   UNL A   1      37.906  22.775  25.477  1.00  0.00    -0.352 N 
ATOM     30  C   UNL A   1      39.100  22.923  26.142  1.00  0.00     0.251 C 
ATOM     31  H   UNL A   1      37.728  21.885  25.095  1.00  0.00     0.163 HD
ATOM     32  O   UNL A   1      39.924  22.014  26.157  1.00  0.00    -0.269 OA
BRANCH  30  33
ATOM     33  C   UNL A   1      39.386  24.213  26.796  1.00  0.00     0.039 A 
ATOM     34  C   UNL A   1      38.941  24.422  28.102  1.00  0.00     0.014 A 
ATOM     35  C   UNL A   1      40.154  25.178  26.140  1.00  0.00     0.014 A 
ATOM     36  C   UNL A   1      39.313  25.587  28.772  1.00  0.00     0.010 A 
ATOM     37  C   UNL A   1      40.594  26.294  26.838  1.00  0.00     0.010 A 
ATOM     38  C   UNL A   1      40.164  26.519  28.154  1.00  0.00    -0.014 A 
BRANCH  38  39
ATOM     39  C   UNL A   1      40.580  27.757  28.857  1.00  0.00     0.031 A 
ATOM     40  C   UNL A   1      41.957  27.844  29.459  1.00  0.00     0.074 A 
ATOM     41  C   UNL A   1      39.710  28.776  28.993  1.00  0.00     0.049 A 
ATOM     42  N   UNL A   1      42.504  28.828  30.125  1.00  0.00    -0.248 NA
ATOM     43  C   UNL A   1      42.820  26.658  29.326  1.00  0.00     0.031 C 
ATOM     44  C   UNL A   1      38.329  28.787  28.507  1.00  0.00     0.029 A 
ATOM     45  N   UNL A   1      39.863  30.007  29.581  1.00  0.00    -0.354 N 
ATOM     46  C   UNL A   1      43.762  28.372  30.504  1.00  0.00     0.074 A 
ATOM     47  C   UNL A   1      43.872  27.003  30.050  1.00  0.00     0.031 C 
ATOM     48  C   UNL A   1      37.773  29.979  28.783  1.00  0.00     0.029 A 
ATOM     49  C   UNL A   1      38.749  30.806  29.487  1.00  0.00     0.049 A 
ATOM     50  H   UNL A   1      40.693  30.290  30.028  1.00  0.00     0.167 HD
ATOM     51  C   UNL A   1      44.750  29.038  31.145  1.00  0.00     0.031 A 
ATOM     52  C   UNL A   1      38.542  32.068  29.910  1.00  0.00     0.031 A 
ATOM     53  C   UNL A   1      44.646  30.407  31.569  1.00  0.00     0.049 A 
ATOM     54  C   UNL A   1      39.668  32.805  30.580  1.00  0.00     0.074 A 
ATOM     55  C   UNL A   1      45.607  31.198  32.177  1.00  0.00     0.029 A 
ATOM     56  N   UNL A   1      43.515  31.195  31.421  1.00  0.00    -0.354 N 
ATOM     57  N   UNL A   1      40.875  32.378  30.873  1.00  0.00    -0.248 NA
ATOM     58  C   UNL A   1      39.414  34.202  30.955  1.00  0.00     0.031 C 
ATOM     59  C   UNL A   1      45.042  32.454  32.427  1.00  0.00     0.029 A 
ATOM     60  C   UNL A   1      43.749  32.461  31.929  1.00  0.00     0.049 A 
ATOM     61  H   UNL A   1      42.669  30.897  31.014  1.00  0.00     0.167 HD
ATOM     62  C   UNL A   1      41.534  33.465  31.435  1.00  0.00     0.074 A 
ATOM     63  C   UNL A   1      40.596  34.570  31.429  1.00  0.00     0.031 C 
ATOM     64  C   UNL A   1      42.802  33.546  31.911  1.00  0.00     0.031 A 
BRANCH  51  65
ATOM     65  C   UNL A   1      46.027  28.289  31.415  1.00  0.00    -0.014 A 
ATOM     66  C   UNL A   1      46.178  27.510  32.578  1.00  0.00     0.010 A 
ATOM     67  C   UNL A   1      47.088  28.354  30.494  1.00  0.00     0.010 A 
ATOM     68  C   UNL A   1      47.382  26.851  32.839  1.00  0.00     0.020 A 
ATOM     69  C   UNL A   1      48.284  27.672  30.737  1.00  0.00     0.020 A 
ATOM     70  C   UNL A   1      48.431  26.942  31.919  1.00  0.00     0.054 A 
BRANCH  70  71
ATOM     71  S   UNL A   1      49.979  26.068  32.276  1.00  0.00     0.124 S 
ATOM     72  O   UNL A   1      49.901  24.933  31.360  1.00  0.00    -0.237 OA
ATOM     73  O   UNL A   1      50.994  27.068  31.954  1.00  0.00    -0.237 OA
ATOM     74  O   UNL A   1      49.867  25.733  33.695  1.00  0.00    -0.744 OA
ENDBRANCH  70  71
ENDBRANCH  51  65
BRANCH  52  75
ATOM     75  C   UNL A   1      37.232  32.730  29.665  1.00  0.00    -0.014 A 
ATOM     76  C   UNL A   1      36.257  32.775  30.679  1.00  0.00     0.010 A 
ATOM     77  C   UNL A   1      36.954  33.325  28.422  1.00  0.00     0.010 A 
ATOM     78  C   UNL A   1      35.020  33.383  30.446  1.00  0.00     0.020 A 
ATOM     79  C   UNL A   1      35.727  33.957  28.194  1.00  0.00     0.020 A 
ATOM     80  C   UNL A   1      34.763  33.970  29.204  1.00  0.00     0.054 A 
BRANCH  80  81
ATOM     81  S   UNL A   1      33.168  34.795  28.939  1.00  0.00     0.124 S 
ATOM     82  O   UNL A   1      32.615  34.828  30.290  1.00  0.00    -0.237 OA
ATOM     83  O   UNL A   1      33.568  36.087  28.386  1.00  0.00    -0.237 OA
ATOM     84  O   UNL A   1      32.479  33.912  28.000  1.00  0.00    -0.744 OA
ENDBRANCH  80  81
ENDBRANCH  52  75
BRANCH  64  85
ATOM     85  C   UNL A   1      43.259  34.885  32.422  1.00  0.00    -0.014 A 
ATOM     86  C   UNL A   1      43.113  35.243  33.773  1.00  0.00     0.010 A 
ATOM     87  C   UNL A   1      43.871  35.789  31.533  1.00  0.00     0.010 A 
ATOM     88  C   UNL A   1      43.526  36.502  34.217  1.00  0.00     0.020 A 
ATOM     89  C   UNL A   1      44.311  37.036  31.979  1.00  0.00     0.020 A 
ATOM     90  C   UNL A   1      44.117  37.393  33.314  1.00  0.00     0.054 A 
BRANCH  90  91
ATOM     91  S   UNL A   1      44.657  39.017  33.914  1.00  0.00     0.124 S 
ATOM     92  O   UNL A   1      46.111  38.905  33.819  1.00  0.00    -0.237 OA
ATOM     93  O   UNL A   1      44.034  39.935  32.964  1.00  0.00    -0.237 OA
ATOM     94  O   UNL A   1      44.123  39.079  35.273  1.00  0.00    -0.744 OA
ENDBRANCH  90  91
ENDBRANCH  64  85
ENDBRANCH  38  39
ENDBRANCH  30  33
ENDBRANCH  28  29
ENDBRANCH  27  28
ENDBRANCH   1  27
TORSDOF 20
ENDMDL
MODEL 2
REMARK VINA RESULT:      -9.9      3.352      8.968
REMARK SMILES CCC[NH2+][C@@]1(C(=O)NCCCCNC(=O)c2ccc(-c3c4nc(c(-c5ccc(S(=O)(=O)[O-])cc5)c5ccc([nH]5)c(-c5ccc(S(=O)(=O)[O-])cc5)c5nc(c(-c6ccc(S(=O)(=O)[O-])cc6)c6ccc3[nH]6)C=C5)C=C4)cc2)CC[C@@H](Sc2ccc(OC)cc2)C1
REMARK SMILES IDX 10 1 9 2 8 3 6 4 7 5 5 7 76 8 88 9 77 10 78 11 4 12 3 15
REMARK SMILES IDX 2 16 1 17 79 18 80 19 81 20 87 21 82 22 86 23 83 24 84 25
REMARK SMILES IDX 85 26 11 27 12 28 13 29 14 30 15 32 16 33 17 34 75 35 18 36
REMARK SMILES IDX 74 37 19 38 20 39 21 40 68 41 22 42 73 43 67 44 69 45 23 46
REMARK SMILES IDX 72 47 66 48 65 49 24 51 54 52 35 53 53 54 36 55 39 56 52 57
REMARK SMILES IDX 70 58 37 59 38 60 51 62 71 63 40 64 25 65 26 66 34 67 27 68
REMARK SMILES IDX 33 69 28 70 29 71 30 72 31 73 32 74 55 75 56 76 64 77 57 78
REMARK SMILES IDX 63 79 58 80 59 81 60 82 61 83 62 84 41 85 42 86 50 87 43 88
REMARK SMILES IDX 49 89 44 90 45 91 46 92 47 93 48 94
REMARK H PARENT 8 6 4 13 4 14 13 31 69 50 39 61
REMARK Flexibility Score: inf
ROOT
ATOM      1  C   UNL A   1      32.240  28.274  27.212  1.00  0.00     0.023 C 
ENDROOT
BRANCH   1   2
ATOM      2  C   UNL A   1      31.257  27.516  26.322  1.00  0.00     0.116 C 
BRANCH   2   3
ATOM      3  N   UNL A   1      31.426  27.882  24.937  1.00  0.00    -0.351 N 
ATOM      4  C   UNL A   1      31.942  27.233  23.862  1.00  0.00     0.281 C 
ATOM      5  O   UNL A   1      32.112  27.958  22.872  1.00  0.00    -0.268 OA
ATOM      6  H   UNL A   1      31.100  28.788  24.729  1.00  0.00     0.163 HD
BRANCH   4   7
ATOM      7  C   UNL A   1      32.341  25.699  23.854  1.00  0.00     0.176 C 
ATOM      8  C   UNL A   1      31.644  24.829  22.791  1.00  0.00     0.080 C 
ATOM      9  C   UNL A   1      31.994  25.056  25.218  1.00  0.00     0.094 C 
ATOM     10  C   UNL A   1      30.762  23.806  23.506  1.00  0.00     0.022 C 
ATOM     11  C   UNL A   1      30.780  24.160  24.989  1.00  0.00     0.058 C 
BRANCH   7  12
ATOM     12  N   UNL A   1      33.827  25.596  23.698  1.00  0.00    -0.334 N 
ATOM     13  H   UNL A   1      34.043  25.621  22.701  1.00  0.00     0.347 HD
ATOM     14  H   UNL A   1      34.223  26.379  24.217  1.00  0.00     0.347 HD
BRANCH  12  15
ATOM     15  C   UNL A   1      34.425  24.382  24.263  1.00  0.00     0.261 C 
BRANCH  15  16
ATOM     16  C   UNL A   1      34.917  23.440  23.160  1.00  0.00     0.058 C 
ATOM     17  C   UNL A   1      36.406  23.133  23.234  1.00  0.00     0.010 C 
ENDBRANCH  15  16
ENDBRANCH  12  15
ENDBRANCH   7  12
BRANCH  11  18
ATOM     18  S   UNL A   1      30.631  22.757  26.167  1.00  0.00    -0.122 SA
BRANCH  18  19
ATOM     19  C   UNL A   1      32.126  21.847  25.848  1.00  0.00     0.008 A 
ATOM     20  C   UNL A   1      32.196  21.001  24.739  1.00  0.00     0.019 A 
ATOM     21  C   UNL A   1      33.242  21.981  26.675  1.00  0.00     0.019 A 
ATOM     22  C   UNL A   1      33.391  20.347  24.431  1.00  0.00     0.047 A 
ATOM     23  C   UNL A   1      34.439  21.330  26.364  1.00  0.00     0.047 A 
ATOM     24  C   UNL A   1      34.522  20.518  25.233  1.00  0.00     0.118 A 
BRANCH  24  25
ATOM     25  O   UNL A   1      35.633  19.841  24.814  1.00  0.00    -0.497 OA
ATOM     26  C   UNL A   1      36.891  20.436  25.109  1.00  0.00     0.278 C 
ENDBRANCH  24  25
ENDBRANCH  18  19
ENDBRANCH  11  18
ENDBRANCH   4   7
ENDBRANCH   2   3
ENDBRANCH   1   2
BRANCH   1  27
ATOM     27  C   UNL A   1      33.709  28.060  26.850  1.00  0.00     0.023 C 
BRANCH  27  28
ATOM     28  C   UNL A   1      34.407  29.290  26.283  1.00  0.00     0.116 C 
BRANCH  28  29
ATOM     29  N   UNL A   1      33.961  30.544  26.874  1.00  0.00    -0.352 N 
ATOM     30  C   UNL A   1      34.554  31.246  27.897  1.00  0.00     0.251 C 
ATOM     31  H   UNL A   1      33.140  30.935  26.497  1.00  0.00     0.163 HD
ATOM     32  O   UNL A   1      34.017  32.245  28.362  1.00  0.00    -0.269 OA
BRANCH  30  33
ATOM     33  C   UNL A   1      35.825  30.743  28.450  1.00  0.00     0.039 A 
ATOM     34  C   UNL A   1      37.011  31.402  28.124  1.00  0.00     0.014 A 
ATOM     35  C   UNL A   1      35.827  29.670  29.344  1.00  0.00     0.014 A 
ATOM     36  C   UNL A   1      38.200  31.012  28.740  1.00  0.00     0.010 A 
ATOM     37  C   UNL A   1      36.994  29.342  30.019  1.00  0.00     0.010 A 
ATOM     38  C   UNL A   1      38.195  29.996  29.711  1.00  0.00    -0.014 A 
BRANCH  38  39
ATOM     39  C   UNL A   1      39.449  29.578  30.385  1.00  0.00     0.031 A 
ATOM     40  C   UNL A   1      39.881  30.273  31.649  1.00  0.00     0.074 A 
ATOM     41  C   UNL A   1      40.214  28.614  29.841  1.00  0.00     0.049 A 
ATOM     42  N   UNL A   1      40.948  30.068  32.379  1.00  0.00    -0.248 NA
ATOM     43  C   UNL A   1      39.022  31.364  32.139  1.00  0.00     0.031 C 
ATOM     44  C   UNL A   1      39.932  27.910  28.588  1.00  0.00     0.029 A 
ATOM     45  N   UNL A   1      41.390  28.056  30.276  1.00  0.00    -0.354 N 
ATOM     46  C   UNL A   1      40.895  31.013  33.396  1.00  0.00     0.074 A 
ATOM     47  C   UNL A   1      39.728  31.833  33.155  1.00  0.00     0.031 C 
ATOM     48  C   UNL A   1      40.888  26.989  28.375  1.00  0.00     0.029 A 
ATOM     49  C   UNL A   1      41.861  27.055  29.461  1.00  0.00     0.049 A 
ATOM     50  H   UNL A   1      41.853  28.347  31.095  1.00  0.00     0.167 HD
ATOM     51  C   UNL A   1      41.724  31.170  34.455  1.00  0.00     0.031 A 
ATOM     52  C   UNL A   1      42.949  26.269  29.583  1.00  0.00     0.031 A 
ATOM     53  C   UNL A   1      42.866  30.335  34.706  1.00  0.00     0.049 A 
ATOM     54  C   UNL A   1      43.832  26.431  30.790  1.00  0.00     0.074 A 
ATOM     55  C   UNL A   1      43.742  30.369  35.778  1.00  0.00     0.029 A 
ATOM     56  N   UNL A   1      43.288  29.306  33.877  1.00  0.00    -0.354 N 
ATOM     57  N   UNL A   1      43.729  27.289  31.778  1.00  0.00    -0.248 NA
ATOM     58  C   UNL A   1      44.962  25.501  30.912  1.00  0.00     0.031 C 
ATOM     59  C   UNL A   1      44.713  29.381  35.579  1.00  0.00     0.029 A 
ATOM     60  C   UNL A   1      44.413  28.700  34.410  1.00  0.00     0.049 A 
ATOM     61  H   UNL A   1      42.851  29.044  33.034  1.00  0.00     0.167 HD
ATOM     62  C   UNL A   1      44.762  26.980  32.655  1.00  0.00     0.074 A 
ATOM     63  C   UNL A   1      45.467  25.848  32.087  1.00  0.00     0.031 C 
ATOM     64  C   UNL A   1      45.097  27.574  33.828  1.00  0.00     0.031 A 
BRANCH  51  65
ATOM     65  C   UNL A   1      41.412  32.283  35.418  1.00  0.00    -0.014 A 
ATOM     66  C   UNL A   1      40.551  32.075  36.513  1.00  0.00     0.010 A 
ATOM     67  C   UNL A   1      41.992  33.552  35.237  1.00  0.00     0.010 A 
ATOM     68  C   UNL A   1      40.237  33.126  37.378  1.00  0.00     0.020 A 
ATOM     69  C   UNL A   1      41.704  34.599  36.119  1.00  0.00     0.020 A 
ATOM     70  C   UNL A   1      40.811  34.384  37.171  1.00  0.00     0.054 A 
BRANCH  70  71
ATOM     71  S   UNL A   1      40.395  35.728  38.315  1.00  0.00     0.124 S 
ATOM     72  O   UNL A   1      39.862  36.740  37.406  1.00  0.00    -0.237 OA
ATOM     73  O   UNL A   1      39.417  35.103  39.203  1.00  0.00    -0.237 OA
ATOM     74  O   UNL A   1      41.674  36.061  38.938  1.00  0.00    -0.744 OA
ENDBRANCH  70  71
ENDBRANCH  51  65
BRANCH  52  75
ATOM     75  C   UNL A   1      43.233  25.227  28.560  1.00  0.00    -0.014 A 
ATOM     76  C   UNL A   1      44.080  25.510  27.472  1.00  0.00     0.010 A 
ATOM     77  C   UNL A   1      42.668  23.944  28.671  1.00  0.00     0.010 A 
ATOM     78  C   UNL A   1      44.336  24.537  26.501  1.00  0.00     0.020 A 
ATOM     79  C   UNL A   1      42.943  22.961  27.715  1.00  0.00     0.020 A 
ATOM     80  C   UNL A   1      43.765  23.268  26.629  1.00  0.00     0.054 A 
BRANCH  80  81
ATOM     81  S   UNL A   1      44.149  22.006  25.383  1.00  0.00     0.124 S 
ATOM     82  O   UNL A   1      43.438  20.842  25.902  1.00  0.00    -0.237 OA
ATOM     83  O   UNL A   1      43.601  22.591  24.161  1.00  0.00    -0.237 OA
ATOM     84  O   UNL A   1      45.607  21.919  25.423  1.00  0.00    -0.744 OA
ENDBRANCH  80  81
ENDBRANCH  52  75
BRANCH  64  85
ATOM     85  C   UNL A   1      46.249  26.982  34.593  1.00  0.00    -0.014 A 
ATOM     86  C   UNL A   1      47.566  27.435  34.403  1.00  0.00     0.010 A 
ATOM     87  C   UNL A   1      45.999  25.970  35.539  1.00  0.00     0.010 A 
ATOM     88  C   UNL A   1      48.620  26.852  35.110  1.00  0.00     0.020 A 
ATOM     89  C   UNL A   1      47.048  25.406  36.269  1.00  0.00     0.020 A 
ATOM     90  C   UNL A   1      48.354  25.836  36.034  1.00  0.00     0.054 A 
BRANCH  90  91
ATOM     91  S   UNL A   1      49.736  25.102  36.951  1.00  0.00     0.124 S 
ATOM     92  O   UNL A   1      50.889  25.569  36.185  1.00  0.00    -0.237 OA
ATOM     93  O   UNL A   1      49.588  25.687  38.282  1.00  0.00    -0.237 OA
ATOM     94  O   UNL A   1      49.476  23.666  36.877  1.00  0.00    -0.744 OA
ENDBRANCH  90  91
ENDBRANCH  64  85
ENDBRANCH  38  39
ENDBRANCH  30  33
ENDBRANCH  28  29
ENDBRANCH  27  28
ENDBRANCH   1  27
TORSDOF 20
ENDMDL
MODEL 3
REMARK VINA RESULT:      -9.6      2.208      8.224
REMARK SMILES CCC[NH2+][C@@]1(C(=O)NCCCCNC(=O)c2ccc(-c3c4nc(c(-c5ccc(S(=O)(=O)[O-])cc5)c5ccc([nH]5)c(-c5ccc(S(=O)(=O)[O-])cc5)c5nc(c(-c6ccc(S(=O)(=O)[O-])cc6)c6ccc3[nH]6)C=C5)C=C4)cc2)CC[C@@H](Sc2ccc(OC)cc2)C1
REMARK SMILES IDX 10 1 9 2 8 3 6 4 7 5 5 7 76 8 88 9 77 10 78 11 4 12 3 15
REMARK SMILES IDX 2 16 1 17 79 18 80 19 81 20 87 21 82 22 86 23 83 24 84 25
REMARK SMILES IDX 85 26 11 27 12 28 13 29 14 30 15 32 16 33 17 34 75 35 18 36
REMARK SMILES IDX 74 37 19 38 20 39 21 40 68 41 22 42 73 43 67 44 69 45 23 46
REMARK SMILES IDX 72 47 66 48 65 49 24 51 54 52 35 53 53 54 36 55 39 56 52 57
REMARK SMILES IDX 70 58 37 59 38 60 51 62 71 63 40 64 25 65 26 66 34 67 27 68
REMARK SMILES IDX 33 69 28 70 29 71 30 72 31 73 32 74 55 75 56 76 64 77 57 78
REMARK SMILES IDX 63 79 58 80 59 81 60 82 61 83 62 84 41 85 42 86 50 87 43 88
REMARK SMILES IDX 49 89 44 90 45 91 46 92 47 93 48 94
REMARK H PARENT 8 6 4 13 4 14 13 31 69 50 39 61
REMARK Flexibility Score: inf
ROOT
ATOM      1  C   UNL A   1      34.488  22.919  26.660  1.00  0.00     0.023 C 
ENDROOT
BRANCH   1   2
ATOM      2  C   UNL A   1      33.237  23.757  26.402  1.00  0.00     0.116 C 
BRANCH   2   3
ATOM      3  N   UNL A   1      33.588  25.091  25.980  1.00  0.00    -0.351 N 
ATOM      4  C   UNL A   1      33.376  25.786  24.832  1.00  0.00     0.281 C 
ATOM      5  O   UNL A   1      34.017  26.844  24.762  1.00  0.00    -0.268 OA
ATOM      6  H   UNL A   1      34.080  25.602  26.663  1.00  0.00     0.163 HD
BRANCH   4   7
ATOM      7  C   UNL A   1      32.436  25.297  23.654  1.00  0.00     0.176 C 
ATOM      8  C   UNL A   1      30.985  24.965  24.046  1.00  0.00     0.080 C 
ATOM      9  C   UNL A   1      33.009  24.006  23.022  1.00  0.00     0.094 C 
ATOM     10  C   UNL A   1      30.753  23.470  23.822  1.00  0.00     0.022 C 
ATOM     11  C   UNL A   1      32.104  22.859  23.463  1.00  0.00     0.058 C 
BRANCH   7  12
ATOM     12  N   UNL A   1      32.444  26.339  22.578  1.00  0.00    -0.334 N 
ATOM     13  H   UNL A   1      33.114  27.062  22.842  1.00  0.00     0.347 HD
ATOM     14  H   UNL A   1      32.691  25.856  21.714  1.00  0.00     0.347 HD
BRANCH  12  15
ATOM     15  C   UNL A   1      31.150  26.985  22.333  1.00  0.00     0.261 C 
BRANCH  15  16
ATOM     16  C   UNL A   1      31.188  28.467  22.717  1.00  0.00     0.058 C 
ATOM     17  C   UNL A   1      29.810  29.106  22.830  1.00  0.00     0.010 C 
ENDBRANCH  15  16
ENDBRANCH  12  15
ENDBRANCH   7  12
BRANCH  11  18
ATOM     18  S   UNL A   1      32.073  21.424  22.315  1.00  0.00    -0.122 SA
BRANCH  18  19
ATOM     19  C   UNL A   1      32.367  20.060  23.420  1.00  0.00     0.008 A 
ATOM     20  C   UNL A   1      32.431  18.761  22.911  1.00  0.00     0.019 A 
ATOM     21  C   UNL A   1      32.559  20.268  24.786  1.00  0.00     0.019 A 
ATOM     22  C   UNL A   1      32.745  17.693  23.754  1.00  0.00     0.047 A 
ATOM     23  C   UNL A   1      32.878  19.200  25.629  1.00  0.00     0.047 A 
ATOM     24  C   UNL A   1      32.983  17.908  25.114  1.00  0.00     0.118 A 
BRANCH  24  25
ATOM     25  O   UNL A   1      33.301  16.786  25.827  1.00  0.00    -0.497 OA
ATOM     26  C   UNL A   1      32.509  15.630  25.580  1.00  0.00     0.278 C 
ENDBRANCH  24  25
ENDBRANCH  18  19
ENDBRANCH  11  18
ENDBRANCH   4   7
ENDBRANCH   2   3
ENDBRANCH   1   2
BRANCH   1  27
ATOM     27  C   UNL A   1      35.533  22.991  25.548  1.00  0.00     0.023 C 
BRANCH  27  28
ATOM     28  C   UNL A   1      36.937  23.346  26.021  1.00  0.00     0.116 C 
BRANCH  28  29
ATOM     29  N   UNL A   1      37.875  22.234  25.967  1.00  0.00    -0.352 N 
ATOM     30  C   UNL A   1      39.213  22.249  26.283  1.00  0.00     0.251 C 
ATOM     31  H   UNL A   1      37.508  21.369  25.671  1.00  0.00     0.163 HD
ATOM     32  O   UNL A   1      39.910  21.257  26.101  1.00  0.00    -0.269 OA
BRANCH  30  33
ATOM     33  C   UNL A   1      39.798  23.500  26.800  1.00  0.00     0.039 A 
ATOM     34  C   UNL A   1      40.478  23.474  28.019  1.00  0.00     0.014 A 
ATOM     35  C   UNL A   1      39.734  24.672  26.043  1.00  0.00     0.014 A 
ATOM     36  C   UNL A   1      41.142  24.621  28.455  1.00  0.00     0.010 A 
ATOM     37  C   UNL A   1      40.466  25.784  26.437  1.00  0.00     0.010 A 
ATOM     38  C   UNL A   1      41.161  25.776  27.654  1.00  0.00    -0.014 A 
BRANCH  38  39
ATOM     39  C   UNL A   1      41.873  27.000  28.097  1.00  0.00     0.031 A 
ATOM     40  C   UNL A   1      41.085  28.162  28.643  1.00  0.00     0.074 A 
ATOM     41  C   UNL A   1      43.210  27.083  27.967  1.00  0.00     0.049 A 
ATOM     42  N   UNL A   1      41.516  29.322  29.067  1.00  0.00    -0.248 NA
ATOM     43  C   UNL A   1      39.621  28.014  28.686  1.00  0.00     0.031 C 
ATOM     44  C   UNL A   1      44.076  26.048  27.396  1.00  0.00     0.029 A 
ATOM     45  N   UNL A   1      44.079  28.088  28.310  1.00  0.00    -0.354 N 
ATOM     46  C   UNL A   1      40.378  30.044  29.406  1.00  0.00     0.074 A 
ATOM     47  C   UNL A   1      39.237  29.217  29.080  1.00  0.00     0.031 C 
ATOM     48  C   UNL A   1      45.354  26.457  27.463  1.00  0.00     0.029 A 
ATOM     49  C   UNL A   1      45.396  27.790  28.056  1.00  0.00     0.049 A 
ATOM     50  H   UNL A   1      43.786  28.943  28.701  1.00  0.00     0.167 HD
ATOM     51  C   UNL A   1      40.287  31.272  29.967  1.00  0.00     0.031 A 
ATOM     52  C   UNL A   1      46.514  28.506  28.289  1.00  0.00     0.031 A 
ATOM     53  C   UNL A   1      41.424  32.079  30.316  1.00  0.00     0.049 A 
ATOM     54  C   UNL A   1      46.392  29.850  28.954  1.00  0.00     0.074 A 
ATOM     55  C   UNL A   1      41.448  33.314  30.940  1.00  0.00     0.029 A 
ATOM     56  N   UNL A   1      42.743  31.725  30.078  1.00  0.00    -0.354 N 
ATOM     57  N   UNL A   1      45.309  30.490  29.327  1.00  0.00    -0.248 NA
ATOM     58  C   UNL A   1      47.645  30.556  29.251  1.00  0.00     0.031 C 
ATOM     59  C   UNL A   1      42.783  33.722  31.049  1.00  0.00     0.029 A 
ATOM     60  C   UNL A   1      43.591  32.718  30.539  1.00  0.00     0.049 A 
ATOM     61  H   UNL A   1      43.035  30.889  29.646  1.00  0.00     0.167 HD
ATOM     62  C   UNL A   1      45.752  31.659  29.934  1.00  0.00     0.074 A 
ATOM     63  C   UNL A   1      47.201  31.629  29.889  1.00  0.00     0.031 C 
ATOM     64  C   UNL A   1      45.029  32.667  30.484  1.00  0.00     0.031 A 
BRANCH  51  65
ATOM     65  C   UNL A   1      38.906  31.807  30.241  1.00  0.00    -0.014 A 
ATOM     66  C   UNL A   1      38.195  31.420  31.392  1.00  0.00     0.010 A 
ATOM     67  C   UNL A   1      38.314  32.714  29.344  1.00  0.00     0.010 A 
ATOM     68  C   UNL A   1      36.898  31.890  31.616  1.00  0.00     0.020 A 
ATOM     69  C   UNL A   1      37.028  33.211  29.580  1.00  0.00     0.020 A 
ATOM     70  C   UNL A   1      36.321  32.779  30.705  1.00  0.00     0.054 A 
BRANCH  70  71
ATOM     71  S   UNL A   1      34.641  33.383  31.025  1.00  0.00     0.124 S 
ATOM     72  O   UNL A   1      34.194  32.479  32.082  1.00  0.00    -0.237 OA
ATOM     73  O   UNL A   1      34.869  34.766  31.435  1.00  0.00    -0.237 OA
ATOM     74  O   UNL A   1      33.965  33.221  29.739  1.00  0.00    -0.744 OA
ENDBRANCH  70  71
ENDBRANCH  51  65
BRANCH  52  75
ATOM     75  C   UNL A   1      47.845  27.943  27.936  1.00  0.00    -0.014 A 
ATOM     76  C   UNL A   1      48.397  28.167  26.662  1.00  0.00     0.010 A 
ATOM     77  C   UNL A   1      48.573  27.188  28.874  1.00  0.00     0.010 A 
ATOM     78  C   UNL A   1      49.642  27.627  26.323  1.00  0.00     0.020 A 
ATOM     79  C   UNL A   1      49.829  26.668  28.547  1.00  0.00     0.020 A 
ATOM     80  C   UNL A   1      50.349  26.880  27.268  1.00  0.00     0.054 A 
BRANCH  80  81
ATOM     81  S   UNL A   1      51.984  26.227  26.823  1.00  0.00     0.124 S 
ATOM     82  O   UNL A   1      52.740  26.439  28.054  1.00  0.00    -0.237 OA
ATOM     83  O   UNL A   1      51.688  24.835  26.492  1.00  0.00    -0.237 OA
ATOM     84  O   UNL A   1      52.385  27.056  25.689  1.00  0.00    -0.744 OA
ENDBRANCH  80  81
ENDBRANCH  52  75
BRANCH  64  85
ATOM     85  C   UNL A   1      45.795  33.795  31.119  1.00  0.00    -0.014 A 
ATOM     86  C   UNL A   1      46.165  34.935  30.384  1.00  0.00     0.010 A 
ATOM     87  C   UNL A   1      46.127  33.719  32.485  1.00  0.00     0.010 A 
ATOM     88  C   UNL A   1      46.896  35.958  30.993  1.00  0.00     0.020 A 
ATOM     89  C   UNL A   1      46.832  34.754  33.103  1.00  0.00     0.020 A 
ATOM     90  C   UNL A   1      47.231  35.857  32.347  1.00  0.00     0.054 A 
BRANCH  90  91
ATOM     91  S   UNL A   1      48.169  37.203  33.120  1.00  0.00     0.124 S 
ATOM     92  O   UNL A   1      48.363  38.119  31.999  1.00  0.00    -0.237 OA
ATOM     93  O   UNL A   1      47.260  37.672  34.164  1.00  0.00    -0.237 OA
ATOM     94  O   UNL A   1      49.380  36.545  33.606  1.00  0.00    -0.744 OA
ENDBRANCH  90  91
ENDBRANCH  64  85
ENDBRANCH  38  39
ENDBRANCH  30  33
ENDBRANCH  28  29
ENDBRANCH  27  28
ENDBRANCH   1  27
TORSDOF 20
ENDMDL
