MODEL 1
REMARK VINA RESULT:     -11.0      0.000      0.000
REMARK SMILES O=C(NCCCCNC(=O)[C@H](CO)NC(=O)[C@H](CS)NC(=O)c1ccc(F)cc1)c1ccc(-c2c3nc(c(-c4ccc(S(=O)(=O)[O-])cc4)c4ccc([nH]4)c(-c4ccc(S(=O)(=O)[O-])cc4)c4nc(c(-c5ccc(S(=O)(=O)[O-])cc5)c5ccc2[nH]5)C=C4)C=C3)cc1
REMARK SMILES IDX 6 1 5 2 4 3 3 4 1 5 2 6 30 8 31 9 89 10 32 11 88 12 33 13
REMARK SMILES IDX 34 14 35 15 82 16 36 17 87 18 81 19 83 20 37 21 86 22 80 23
REMARK SMILES IDX 79 24 38 26 68 27 49 28 67 29 50 30 53 31 66 32 84 33 51 34
REMARK SMILES IDX 52 35 65 37 85 38 54 39 39 40 40 41 48 42 41 43 47 44 42 45
REMARK SMILES IDX 43 46 44 47 45 48 46 49 69 50 70 51 78 52 71 53 77 54 72 55
REMARK SMILES IDX 73 56 74 57 75 58 76 59 55 60 56 61 64 62 57 63 63 64 58 65
REMARK SMILES IDX 59 66 60 67 61 68 62 69 7 70 8 71 9 72 10 74 11 75 14 76
REMARK SMILES IDX 15 77 16 79 17 80 20 81 21 82 22 84 23 85 24 86 29 87 25 88
REMARK SMILES IDX 28 89 26 90 27 91 18 92 19 93 12 95 13 96
REMARK H PARENT 3 7 83 25 53 36 8 73 14 78 20 83 19 94 13 97
REMARK Flexibility Score: inf
ROOT
ATOM      1  C   UNL A   1      37.751  23.733  26.065  1.00  0.00     0.023 C 
ENDROOT
BRANCH   1   2
ATOM      2  C   UNL A   1      38.940  22.908  26.563  1.00  0.00     0.023 C 
BRANCH   2   3
ATOM      3  C   UNL A   1      40.121  23.714  27.089  1.00  0.00     0.116 C 
BRANCH   3   4
ATOM      4  N   UNL A   1      40.864  24.387  26.034  1.00  0.00    -0.352 N 
ATOM      5  O   UNL A   1      41.777  26.131  24.936  1.00  0.00    -0.269 OA
ATOM      6  C   UNL A   1      41.273  25.698  25.968  1.00  0.00     0.251 C 
ATOM      7  H   UNL A   1      41.108  23.826  25.263  1.00  0.00     0.163 HD
BRANCH   6   8
ATOM      8  C   UNL A   1      41.077  26.590  27.133  1.00  0.00     0.039 A 
ATOM      9  C   UNL A   1      41.859  27.736  27.290  1.00  0.00     0.014 A 
ATOM     10  C   UNL A   1      40.097  26.273  28.077  1.00  0.00     0.014 A 
ATOM     11  C   UNL A   1      41.748  28.494  28.452  1.00  0.00     0.010 A 
ATOM     12  C   UNL A   1      39.936  27.077  29.209  1.00  0.00     0.010 A 
ATOM     13  C   UNL A   1      40.777  28.179  29.418  1.00  0.00    -0.014 A 
BRANCH  13  14
ATOM     14  C   UNL A   1      40.617  29.066  30.598  1.00  0.00     0.031 A 
ATOM     15  C   UNL A   1      39.523  30.095  30.662  1.00  0.00     0.074 A 
ATOM     16  C   UNL A   1      41.464  28.911  31.635  1.00  0.00     0.049 A 
ATOM     17  N   UNL A   1      39.233  30.921  31.635  1.00  0.00    -0.248 NA
ATOM     18  C   UNL A   1      38.645  30.221  29.488  1.00  0.00     0.031 C 
ATOM     19  C   UNL A   1      42.575  27.955  31.680  1.00  0.00     0.029 A 
ATOM     20  N   UNL A   1      41.514  29.533  32.855  1.00  0.00    -0.354 N 
ATOM     21  C   UNL A   1      38.156  31.678  31.187  1.00  0.00     0.074 A 
ATOM     22  C   UNL A   1      37.850  31.222  29.847  1.00  0.00     0.031 C 
ATOM     23  C   UNL A   1      43.167  28.024  32.882  1.00  0.00     0.029 A 
ATOM     24  C   UNL A   1      42.515  29.062  33.671  1.00  0.00     0.049 A 
ATOM     25  H   UNL A   1      40.893  30.250  33.121  1.00  0.00     0.167 HD
ATOM     26  C   UNL A   1      37.485  32.661  31.835  1.00  0.00     0.031 A 
ATOM     27  C   UNL A   1      42.881  29.430  34.912  1.00  0.00     0.031 A 
ATOM     28  C   UNL A   1      37.785  33.103  33.173  1.00  0.00     0.049 A 
ATOM     29  C   UNL A   1      42.121  30.524  35.603  1.00  0.00     0.074 A 
ATOM     30  C   UNL A   1      37.134  34.065  33.926  1.00  0.00     0.029 A 
ATOM     31  N   UNL A   1      38.820  32.616  33.956  1.00  0.00    -0.354 N 
ATOM     32  N   UNL A   1      41.083  31.200  35.172  1.00  0.00    -0.248 NA
ATOM     33  C   UNL A   1      42.581  30.904  36.945  1.00  0.00     0.031 C 
ATOM     34  C   UNL A   1      37.800  34.188  35.150  1.00  0.00     0.029 A 
ATOM     35  C   UNL A   1      38.840  33.274  35.174  1.00  0.00     0.049 A 
ATOM     36  H   UNL A   1      39.449  31.908  33.685  1.00  0.00     0.167 HD
ATOM     37  C   UNL A   1      40.764  32.086  36.192  1.00  0.00     0.074 A 
ATOM     38  C   UNL A   1      41.700  31.840  37.271  1.00  0.00     0.031 C 
ATOM     39  C   UNL A   1      39.786  33.023  36.231  1.00  0.00     0.031 A 
BRANCH  26  40
ATOM     40  C   UNL A   1      36.364  33.349  31.104  1.00  0.00    -0.014 A 
ATOM     41  C   UNL A   1      35.100  33.507  31.698  1.00  0.00     0.010 A 
ATOM     42  C   UNL A   1      36.604  33.920  29.841  1.00  0.00     0.010 A 
ATOM     43  C   UNL A   1      34.089  34.207  31.032  1.00  0.00     0.020 A 
ATOM     44  C   UNL A   1      35.602  34.636  29.180  1.00  0.00     0.020 A 
ATOM     45  C   UNL A   1      34.345  34.765  29.777  1.00  0.00     0.054 A 
BRANCH  45  46
ATOM     46  S   UNL A   1      33.031  35.708  28.954  1.00  0.00     0.124 S 
ATOM     47  O   UNL A   1      33.797  36.706  28.212  1.00  0.00    -0.237 OA
ATOM     48  O   UNL A   1      32.367  34.694  28.139  1.00  0.00    -0.237 OA
ATOM     49  O   UNL A   1      32.234  36.231  30.062  1.00  0.00    -0.744 OA
ENDBRANCH  45  46
ENDBRANCH  26  40
BRANCH  27  50
ATOM     50  C   UNL A   1      44.040  28.769  35.566  1.00  0.00    -0.014 A 
ATOM     51  C   UNL A   1      43.853  27.658  36.403  1.00  0.00     0.010 A 
ATOM     52  C   UNL A   1      45.344  29.240  35.330  1.00  0.00     0.010 A 
ATOM     53  C   UNL A   1      44.949  27.036  37.008  1.00  0.00     0.020 A 
ATOM     54  C   UNL A   1      46.444  28.607  35.910  1.00  0.00     0.020 A 
ATOM     55  C   UNL A   1      46.239  27.516  36.757  1.00  0.00     0.054 A 
BRANCH  55  56
ATOM     56  S   UNL A   1      47.657  26.667  37.503  1.00  0.00     0.124 S 
ATOM     57  O   UNL A   1      47.919  27.491  38.679  1.00  0.00    -0.237 OA
ATOM     58  O   UNL A   1      47.130  25.331  37.770  1.00  0.00    -0.237 OA
ATOM     59  O   UNL A   1      48.675  26.726  36.455  1.00  0.00    -0.744 OA
ENDBRANCH  55  56
ENDBRANCH  27  50
BRANCH  39  60
ATOM     60  C   UNL A   1      39.680  33.844  37.484  1.00  0.00    -0.014 A 
ATOM     61  C   UNL A   1      40.370  35.063  37.607  1.00  0.00     0.010 A 
ATOM     62  C   UNL A   1      38.860  33.406  38.538  1.00  0.00     0.010 A 
ATOM     63  C   UNL A   1      40.267  35.815  38.779  1.00  0.00     0.020 A 
ATOM     64  C   UNL A   1      38.739  34.165  39.704  1.00  0.00     0.020 A 
ATOM     65  C   UNL A   1      39.457  35.358  39.823  1.00  0.00     0.054 A 
BRANCH  65  66
ATOM     66  S   UNL A   1      39.313  36.363  41.326  1.00  0.00     0.124 S 
ATOM     67  O   UNL A   1      38.878  37.649  40.790  1.00  0.00    -0.237 OA
ATOM     68  O   UNL A   1      38.315  35.637  42.107  1.00  0.00    -0.237 OA
ATOM     69  O   UNL A   1      40.664  36.343  41.884  1.00  0.00    -0.744 OA
ENDBRANCH  65  66
ENDBRANCH  39  60
ENDBRANCH  13  14
ENDBRANCH   6   8
ENDBRANCH   3   4
ENDBRANCH   2   3
ENDBRANCH   1   2
BRANCH   1  70
ATOM     70  C   UNL A   1      37.100  23.220  24.784  1.00  0.00     0.116 C 
BRANCH  70  71
ATOM     71  N   UNL A   1      36.805  21.799  24.842  1.00  0.00    -0.354 N 
ATOM     72  C   UNL A   1      35.607  21.149  24.880  1.00  0.00     0.244 C 
ATOM     73  H   UNL A   1      37.596  21.213  24.857  1.00  0.00     0.163 HD
ATOM     74  O   UNL A   1      35.614  19.914  24.886  1.00  0.00    -0.273 OA
BRANCH  72  75
ATOM     75  C   UNL A   1      34.291  21.933  24.988  1.00  0.00     0.197 C 
BRANCH  75  76
ATOM     76  N   UNL A   1      33.362  21.403  23.980  1.00  0.00    -0.340 N 
ATOM     77  C   UNL A   1      32.498  21.981  23.110  1.00  0.00     0.244 C 
ATOM     78  H   UNL A   1      33.367  20.420  23.926  1.00  0.00     0.164 HD
ATOM     79  O   UNL A   1      31.912  21.214  22.333  1.00  0.00    -0.273 OA
BRANCH  77  80
ATOM     80  C   UNL A   1      32.284  23.506  22.948  1.00  0.00     0.181 C 
BRANCH  80  81
ATOM     81  N   UNL A   1      32.575  24.100  21.646  1.00  0.00    -0.339 N 
ATOM     82  C   UNL A   1      32.744  25.391  21.232  1.00  0.00     0.251 C 
ATOM     83  H   UNL A   1      32.669  23.439  20.923  1.00  0.00     0.164 HD
ATOM     84  O   UNL A   1      32.979  25.604  20.050  1.00  0.00    -0.269 OA
BRANCH  82  85
ATOM     85  C   UNL A   1      32.545  26.533  22.153  1.00  0.00     0.040 A 
ATOM     86  C   UNL A   1      31.338  27.235  22.250  1.00  0.00     0.017 A 
ATOM     87  C   UNL A   1      33.625  26.877  22.979  1.00  0.00     0.017 A 
ATOM     88  C   UNL A   1      31.242  28.320  23.126  1.00  0.00     0.040 A 
ATOM     89  C   UNL A   1      33.522  27.954  23.858  1.00  0.00     0.040 A 
ATOM     90  C   UNL A   1      32.333  28.672  23.916  1.00  0.00     0.123 A 
ATOM     91  F   UNL A   1      32.236  29.716  24.749  1.00  0.00    -0.207 F 
ENDBRANCH  82  85
ENDBRANCH  80  81
BRANCH  80  92
ATOM     92  C   UNL A   1      30.872  23.876  23.447  1.00  0.00     0.101 C 
BRANCH  92  93
ATOM     93  S   UNL A   1      30.839  24.668  25.094  1.00  0.00    -0.177 SA
ATOM     94  H   UNL A   1      30.725  26.015  24.947  1.00  0.00     0.102 HD
ENDBRANCH  92  93
ENDBRANCH  80  92
ENDBRANCH  77  80
ENDBRANCH  75  76
BRANCH  75  95
ATOM     95  C   UNL A   1      33.734  21.744  26.411  1.00  0.00     0.191 C 
BRANCH  95  96
ATOM     96  O   UNL A   1      34.782  21.435  27.331  1.00  0.00    -0.394 OA
ATOM     97  H   UNL A   1      35.091  20.529  27.177  1.00  0.00     0.210 HD
ENDBRANCH  95  96
ENDBRANCH  75  95
ENDBRANCH  72  75
ENDBRANCH  70  71
ENDBRANCH   1  70
TORSDOF 22
ENDMDL
MODEL 2
REMARK VINA RESULT:     -11.0      0.611      8.066
REMARK SMILES O=C(NCCCCNC(=O)[C@H](CO)NC(=O)[C@H](CS)NC(=O)c1ccc(F)cc1)c1ccc(-c2c3nc(c(-c4ccc(S(=O)(=O)[O-])cc4)c4ccc([nH]4)c(-c4ccc(S(=O)(=O)[O-])cc4)c4nc(c(-c5ccc(S(=O)(=O)[O-])cc5)c5ccc2[nH]5)C=C4)C=C3)cc1
REMARK SMILES IDX 6 1 5 2 4 3 3 4 1 5 2 6 30 8 31 9 89 10 32 11 88 12 33 13
REMARK SMILES IDX 34 14 35 15 82 16 36 17 87 18 81 19 83 20 37 21 86 22 80 23
REMARK SMILES IDX 79 24 38 26 68 27 49 28 67 29 50 30 53 31 66 32 84 33 51 34
REMARK SMILES IDX 52 35 65 37 85 38 54 39 39 40 40 41 48 42 41 43 47 44 42 45
REMARK SMILES IDX 43 46 44 47 45 48 46 49 69 50 70 51 78 52 71 53 77 54 72 55
REMARK SMILES IDX 73 56 74 57 75 58 76 59 55 60 56 61 64 62 57 63 63 64 58 65
REMARK SMILES IDX 59 66 60 67 61 68 62 69 7 70 8 71 9 72 10 74 11 75 14 76
REMARK SMILES IDX 15 77 16 79 17 80 20 81 21 82 22 84 23 85 24 86 29 87 25 88
REMARK SMILES IDX 28 89 26 90 27 91 18 92 19 93 12 95 13 96
REMARK H PARENT 3 7 83 25 53 36 8 73 14 78 20 83 19 94 13 97
REMARK Flexibility Score: inf
ROOT
ATOM      1  C   UNL A   1      38.189  23.829  26.377  1.00  0.00     0.023 C 
ENDROOT
BRANCH   1   2
ATOM      2  C   UNL A   1      39.236  22.727  26.546  1.00  0.00     0.023 C 
BRANCH   2   3
ATOM      3  C   UNL A   1      40.604  23.192  27.029  1.00  0.00     0.116 C 
BRANCH   3   4
ATOM      4  N   UNL A   1      41.361  23.892  26.002  1.00  0.00    -0.352 N 
ATOM      5  O   UNL A   1      42.311  25.660  24.976  1.00  0.00    -0.269 OA
ATOM      6  C   UNL A   1      41.799  25.196  25.990  1.00  0.00     0.251 C 
ATOM      7  H   UNL A   1      41.591  23.359  25.208  1.00  0.00     0.163 HD
BRANCH   6   8
ATOM      8  C   UNL A   1      41.624  26.042  27.191  1.00  0.00     0.039 A 
ATOM      9  C   UNL A   1      40.757  25.653  28.215  1.00  0.00     0.014 A 
ATOM     10  C   UNL A   1      42.338  27.239  27.293  1.00  0.00     0.014 A 
ATOM     11  C   UNL A   1      40.510  26.518  29.276  1.00  0.00     0.010 A 
ATOM     12  C   UNL A   1      42.144  28.074  28.397  1.00  0.00     0.010 A 
ATOM     13  C   UNL A   1      41.209  27.732  29.385  1.00  0.00    -0.014 A 
BRANCH  13  14
ATOM     14  C   UNL A   1      40.996  28.585  30.581  1.00  0.00     0.031 A 
ATOM     15  C   UNL A   1      41.874  28.466  31.795  1.00  0.00     0.074 A 
ATOM     16  C   UNL A   1      40.004  29.498  30.547  1.00  0.00     0.049 A 
ATOM     17  N   UNL A   1      41.836  29.161  32.904  1.00  0.00    -0.248 NA
ATOM     18  C   UNL A   1      42.926  27.438  31.769  1.00  0.00     0.031 C 
ATOM     19  C   UNL A   1      39.077  29.695  29.428  1.00  0.00     0.029 A 
ATOM     20  N   UNL A   1      39.623  30.445  31.462  1.00  0.00    -0.354 N 
ATOM     21  C   UNL A   1      42.839  28.644  33.714  1.00  0.00     0.074 A 
ATOM     22  C   UNL A   1      43.464  27.566  32.976  1.00  0.00     0.031 C 
ATOM     23  C   UNL A   1      38.265  30.726  29.705  1.00  0.00     0.029 A 
ATOM     24  C   UNL A   1      38.576  31.228  31.038  1.00  0.00     0.049 A 
ATOM     25  H   UNL A   1      40.057  30.552  32.340  1.00  0.00     0.167 HD
ATOM     26  C   UNL A   1      43.206  29.034  34.960  1.00  0.00     0.031 A 
ATOM     27  C   UNL A   1      37.927  32.232  31.654  1.00  0.00     0.031 A 
ATOM     28  C   UNL A   1      42.590  30.115  35.686  1.00  0.00     0.049 A 
ATOM     29  C   UNL A   1      38.354  32.640  33.034  1.00  0.00     0.074 A 
ATOM     30  C   UNL A   1      42.920  30.607  36.937  1.00  0.00     0.029 A 
ATOM     31  N   UNL A   1      41.519  30.868  35.231  1.00  0.00    -0.354 N 
ATOM     32  N   UNL A   1      39.329  32.159  33.766  1.00  0.00    -0.248 NA
ATOM     33  C   UNL A   1      37.592  33.722  33.669  1.00  0.00     0.031 C 
ATOM     34  C   UNL A   1      42.023  31.633  37.255  1.00  0.00     0.029 A 
ATOM     35  C   UNL A   1      41.161  31.806  36.185  1.00  0.00     0.049 A 
ATOM     36  H   UNL A   1      41.077  30.752  34.358  1.00  0.00     0.167 HD
ATOM     37  C   UNL A   1      39.300  32.883  34.950  1.00  0.00     0.074 A 
ATOM     38  C   UNL A   1      38.229  33.852  34.825  1.00  0.00     0.031 C 
ATOM     39  C   UNL A   1      40.086  32.754  36.047  1.00  0.00     0.031 A 
BRANCH  26  40
ATOM     40  C   UNL A   1      44.317  28.278  35.637  1.00  0.00    -0.014 A 
ATOM     41  C   UNL A   1      44.050  27.133  36.408  1.00  0.00     0.010 A 
ATOM     42  C   UNL A   1      45.651  28.669  35.428  1.00  0.00     0.010 A 
ATOM     43  C   UNL A   1      45.099  26.403  36.975  1.00  0.00     0.020 A 
ATOM     44  C   UNL A   1      46.704  27.932  35.979  1.00  0.00     0.020 A 
ATOM     45  C   UNL A   1      46.420  26.808  36.759  1.00  0.00     0.054 A 
BRANCH  45  46
ATOM     46  S   UNL A   1      47.765  25.818  37.468  1.00  0.00     0.124 S 
ATOM     47  O   UNL A   1      47.767  26.265  38.858  1.00  0.00    -0.237 OA
ATOM     48  O   UNL A   1      47.307  24.448  37.251  1.00  0.00    -0.237 OA
ATOM     49  O   UNL A   1      48.934  26.210  36.684  1.00  0.00    -0.744 OA
ENDBRANCH  45  46
ENDBRANCH  26  40
BRANCH  27  50
ATOM     50  C   UNL A   1      36.789  32.902  30.973  1.00  0.00    -0.014 A 
ATOM     51  C   UNL A   1      35.466  32.647  31.368  1.00  0.00     0.010 A 
ATOM     52  C   UNL A   1      37.032  33.823  29.937  1.00  0.00     0.010 A 
ATOM     53  C   UNL A   1      34.401  33.288  30.728  1.00  0.00     0.020 A 
ATOM     54  C   UNL A   1      35.974  34.485  29.313  1.00  0.00     0.020 A 
ATOM     55  C   UNL A   1      34.664  34.203  29.702  1.00  0.00     0.054 A 
BRANCH  55  56
ATOM     56  S   UNL A   1      33.278  35.071  28.917  1.00  0.00     0.124 S 
ATOM     57  O   UNL A   1      32.767  34.056  28.001  1.00  0.00    -0.237 OA
ATOM     58  O   UNL A   1      32.415  35.393  30.051  1.00  0.00    -0.237 OA
ATOM     59  O   UNL A   1      33.916  36.224  28.286  1.00  0.00    -0.744 OA
ENDBRANCH  55  56
ENDBRANCH  27  50
BRANCH  39  60
ATOM     60  C   UNL A   1      39.817  33.689  37.190  1.00  0.00    -0.014 A 
ATOM     61  C   UNL A   1      40.455  34.939  37.263  1.00  0.00     0.010 A 
ATOM     62  C   UNL A   1      38.896  33.325  38.188  1.00  0.00     0.010 A 
ATOM     63  C   UNL A   1      40.201  35.799  38.334  1.00  0.00     0.020 A 
ATOM     64  C   UNL A   1      38.624  34.190  39.250  1.00  0.00     0.020 A 
ATOM     65  C   UNL A   1      39.291  35.416  39.324  1.00  0.00     0.054 A 
BRANCH  65  66
ATOM     66  S   UNL A   1      38.951  36.557  40.692  1.00  0.00     0.124 S 
ATOM     67  O   UNL A   1      38.122  35.738  41.571  1.00  0.00    -0.237 OA
ATOM     68  O   UNL A   1      40.287  36.867  41.196  1.00  0.00    -0.237 OA
ATOM     69  O   UNL A   1      38.264  37.674  40.046  1.00  0.00    -0.744 OA
ENDBRANCH  65  66
ENDBRANCH  39  60
ENDBRANCH  13  14
ENDBRANCH   6   8
ENDBRANCH   3   4
ENDBRANCH   2   3
ENDBRANCH   1   2
BRANCH   1  70
ATOM     70  C   UNL A   1      37.037  23.488  25.436  1.00  0.00     0.116 C 
BRANCH  70  71
ATOM     71  N   UNL A   1      36.838  22.056  25.299  1.00  0.00    -0.354 N 
ATOM     72  C   UNL A   1      35.689  21.335  25.158  1.00  0.00     0.244 C 
ATOM     73  H   UNL A   1      37.664  21.521  25.313  1.00  0.00     0.163 HD
ATOM     74  O   UNL A   1      35.782  20.111  25.018  1.00  0.00    -0.273 OA
BRANCH  72  75
ATOM     75  C   UNL A   1      34.317  22.020  25.244  1.00  0.00     0.197 C 
BRANCH  75  76
ATOM     76  N   UNL A   1      33.460  21.456  24.192  1.00  0.00    -0.340 N 
ATOM     77  C   UNL A   1      32.622  22.001  23.277  1.00  0.00     0.244 C 
ATOM     78  H   UNL A   1      33.504  20.474  24.140  1.00  0.00     0.164 HD
ATOM     79  O   UNL A   1      32.104  21.214  22.473  1.00  0.00    -0.273 OA
BRANCH  77  80
ATOM     80  C   UNL A   1      32.362  23.518  23.100  1.00  0.00     0.181 C 
BRANCH  80  81
ATOM     81  N   UNL A   1      32.598  24.100  21.782  1.00  0.00    -0.339 N 
ATOM     82  C   UNL A   1      32.725  25.389  21.346  1.00  0.00     0.251 C 
ATOM     83  H   UNL A   1      32.683  23.431  21.065  1.00  0.00     0.164 HD
ATOM     84  O   UNL A   1      32.918  25.590  20.154  1.00  0.00    -0.269 OA
BRANCH  82  85
ATOM     85  C   UNL A   1      32.530  26.538  22.258  1.00  0.00     0.040 A 
ATOM     86  C   UNL A   1      31.309  27.209  22.391  1.00  0.00     0.017 A 
ATOM     87  C   UNL A   1      33.631  26.923  23.036  1.00  0.00     0.017 A 
ATOM     88  C   UNL A   1      31.216  28.305  23.255  1.00  0.00     0.040 A 
ATOM     89  C   UNL A   1      33.531  28.011  23.904  1.00  0.00     0.040 A 
ATOM     90  C   UNL A   1      32.327  28.697  23.997  1.00  0.00     0.123 A 
ATOM     91  F   UNL A   1      32.233  29.751  24.820  1.00  0.00    -0.207 F 
ENDBRANCH  82  85
ENDBRANCH  80  81
BRANCH  80  92
ATOM     92  C   UNL A   1      30.956  23.857  23.636  1.00  0.00     0.101 C 
BRANCH  92  93
ATOM     93  S   UNL A   1      30.678  23.378  25.377  1.00  0.00    -0.177 SA
ATOM     94  H   UNL A   1      29.865  22.288  25.422  1.00  0.00     0.102 HD
ENDBRANCH  92  93
ENDBRANCH  80  92
ENDBRANCH  77  80
ENDBRANCH  75  76
BRANCH  75  95
ATOM     95  C   UNL A   1      33.732  21.748  26.642  1.00  0.00     0.191 C 
BRANCH  95  96
ATOM     96  O   UNL A   1      34.772  21.571  27.604  1.00  0.00    -0.394 OA
ATOM     97  H   UNL A   1      34.900  22.395  28.098  1.00  0.00     0.210 HD
ENDBRANCH  95  96
ENDBRANCH  75  95
ENDBRANCH  72  75
ENDBRANCH  70  71
ENDBRANCH   1  70
TORSDOF 22
ENDMDL
MODEL 3
REMARK VINA RESULT:     -10.5      6.130     10.628
REMARK SMILES O=C(NCCCCNC(=O)[C@H](CO)NC(=O)[C@H](CS)NC(=O)c1ccc(F)cc1)c1ccc(-c2c3nc(c(-c4ccc(S(=O)(=O)[O-])cc4)c4ccc([nH]4)c(-c4ccc(S(=O)(=O)[O-])cc4)c4nc(c(-c5ccc(S(=O)(=O)[O-])cc5)c5ccc2[nH]5)C=C4)C=C3)cc1
REMARK SMILES IDX 6 1 5 2 4 3 3 4 1 5 2 6 30 8 31 9 89 10 32 11 88 12 33 13
REMARK SMILES IDX 34 14 35 15 82 16 36 17 87 18 81 19 83 20 37 21 86 22 80 23
REMARK SMILES IDX 79 24 38 26 68 27 49 28 67 29 50 30 53 31 66 32 84 33 51 34
REMARK SMILES IDX 52 35 65 37 85 38 54 39 39 40 40 41 48 42 41 43 47 44 42 45
REMARK SMILES IDX 43 46 44 47 45 48 46 49 69 50 70 51 78 52 71 53 77 54 72 55
REMARK SMILES IDX 73 56 74 57 75 58 76 59 55 60 56 61 64 62 57 63 63 64 58 65
REMARK SMILES IDX 59 66 60 67 61 68 62 69 7 70 8 71 9 72 10 74 11 75 14 76
REMARK SMILES IDX 15 77 16 79 17 80 20 81 21 82 22 84 23 85 24 86 29 87 25 88
REMARK SMILES IDX 28 89 26 90 27 91 18 92 19 93 12 95 13 96
REMARK H PARENT 3 7 83 25 53 36 8 73 14 78 20 83 19 94 13 97
REMARK Flexibility Score: inf
ROOT
ATOM      1  C   UNL A   1      39.203  22.707  26.492  1.00  0.00     0.023 C 
ENDROOT
BRANCH   1   2
ATOM      2  C   UNL A   1      39.393  21.339  25.833  1.00  0.00     0.023 C 
BRANCH   2   3
ATOM      3  C   UNL A   1      39.977  20.255  26.730  1.00  0.00     0.116 C 
BRANCH   3   4
ATOM      4  N   UNL A   1      41.044  19.502  26.090  1.00  0.00    -0.352 N 
ATOM      5  O   UNL A   1      43.022  19.188  25.055  1.00  0.00    -0.269 OA
ATOM      6  C   UNL A   1      42.294  19.930  25.707  1.00  0.00     0.251 C 
ATOM      7  H   UNL A   1      40.844  18.556  25.907  1.00  0.00     0.163 HD
BRANCH   6   8
ATOM      8  C   UNL A   1      42.744  21.295  26.059  1.00  0.00     0.039 A 
ATOM      9  C   UNL A   1      42.874  22.277  25.075  1.00  0.00     0.014 A 
ATOM     10  C   UNL A   1      43.037  21.594  27.393  1.00  0.00     0.014 A 
ATOM     11  C   UNL A   1      43.415  23.516  25.402  1.00  0.00     0.010 A 
ATOM     12  C   UNL A   1      43.513  22.864  27.732  1.00  0.00     0.010 A 
ATOM     13  C   UNL A   1      43.730  23.827  26.736  1.00  0.00    -0.014 A 
BRANCH  13  14
ATOM     14  C   UNL A   1      44.212  25.191  27.066  1.00  0.00     0.031 A 
ATOM     15  C   UNL A   1      45.628  25.612  26.784  1.00  0.00     0.074 A 
ATOM     16  C   UNL A   1      43.340  26.065  27.607  1.00  0.00     0.049 A 
ATOM     17  N   UNL A   1      46.191  26.777  26.984  1.00  0.00    -0.248 NA
ATOM     18  C   UNL A   1      46.530  24.602  26.208  1.00  0.00     0.031 C 
ATOM     19  C   UNL A   1      41.944  25.765  27.941  1.00  0.00     0.029 A 
ATOM     20  N   UNL A   1      43.485  27.384  27.950  1.00  0.00    -0.354 N 
ATOM     21  C   UNL A   1      47.513  26.637  26.582  1.00  0.00     0.074 A 
ATOM     22  C   UNL A   1      47.676  25.269  26.135  1.00  0.00     0.031 C 
ATOM     23  C   UNL A   1      41.351  26.878  28.398  1.00  0.00     0.029 A 
ATOM     24  C   UNL A   1      42.335  27.954  28.441  1.00  0.00     0.049 A 
ATOM     25  H   UNL A   1      44.333  27.876  27.856  1.00  0.00     0.167 HD
ATOM     26  C   UNL A   1      48.501  27.566  26.583  1.00  0.00     0.031 A 
ATOM     27  C   UNL A   1      42.095  29.199  28.889  1.00  0.00     0.031 A 
ATOM     28  C   UNL A   1      48.332  28.929  27.016  1.00  0.00     0.049 A 
ATOM     29  C   UNL A   1      43.209  30.205  28.881  1.00  0.00     0.074 A 
ATOM     30  C   UNL A   1      49.265  29.952  27.017  1.00  0.00     0.029 A 
ATOM     31  N   UNL A   1      47.158  29.460  27.527  1.00  0.00    -0.354 N 
ATOM     32  N   UNL A   1      44.442  30.058  28.462  1.00  0.00    -0.248 NA
ATOM     33  C   UNL A   1      42.898  31.540  29.407  1.00  0.00     0.031 C 
ATOM     34  C   UNL A   1      48.666  31.091  27.564  1.00  0.00     0.029 A 
ATOM     35  C   UNL A   1      47.348  30.788  27.867  1.00  0.00     0.049 A 
ATOM     36  H   UNL A   1      46.313  28.965  27.633  1.00  0.00     0.167 HD
ATOM     37  C   UNL A   1      45.057  31.286  28.672  1.00  0.00     0.074 A 
ATOM     38  C   UNL A   1      44.052  32.170  29.229  1.00  0.00     0.031 C 
ATOM     39  C   UNL A   1      46.340  31.648  28.430  1.00  0.00     0.031 A 
BRANCH  26  40
ATOM     40  C   UNL A   1      49.868  27.142  26.119  1.00  0.00    -0.014 A 
ATOM     41  C   UNL A   1      50.729  26.420  26.963  1.00  0.00     0.010 A 
ATOM     42  C   UNL A   1      50.262  27.395  24.793  1.00  0.00     0.010 A 
ATOM     43  C   UNL A   1      51.970  25.975  26.495  1.00  0.00     0.020 A 
ATOM     44  C   UNL A   1      51.493  26.937  24.315  1.00  0.00     0.020 A 
ATOM     45  C   UNL A   1      52.345  26.239  25.174  1.00  0.00     0.054 A 
BRANCH  45  46
ATOM     46  S   UNL A   1      53.940  25.611  24.577  1.00  0.00     0.124 S 
ATOM     47  O   UNL A   1      53.964  26.110  23.205  1.00  0.00    -0.237 OA
ATOM     48  O   UNL A   1      54.895  26.237  25.488  1.00  0.00    -0.237 OA
ATOM     49  O   UNL A   1      53.814  24.162  24.711  1.00  0.00    -0.744 OA
ENDBRANCH  45  46
ENDBRANCH  26  40
BRANCH  27  50
ATOM     50  C   UNL A   1      40.746  29.551  29.404  1.00  0.00    -0.014 A 
ATOM     51  C   UNL A   1      40.498  29.606  30.785  1.00  0.00     0.010 A 
ATOM     52  C   UNL A   1      39.708  29.858  28.506  1.00  0.00     0.010 A 
ATOM     53  C   UNL A   1      39.229  29.947  31.262  1.00  0.00     0.020 A 
ATOM     54  C   UNL A   1      38.446  30.224  28.977  1.00  0.00     0.020 A 
ATOM     55  C   UNL A   1      38.210  30.252  30.353  1.00  0.00     0.054 A 
BRANCH  55  56
ATOM     56  S   UNL A   1      36.583  30.747  30.983  1.00  0.00     0.124 S 
ATOM     57  O   UNL A   1      36.229  29.611  31.828  1.00  0.00    -0.237 OA
ATOM     58  O   UNL A   1      36.875  31.993  31.687  1.00  0.00    -0.237 OA
ATOM     59  O   UNL A   1      35.784  30.901  29.769  1.00  0.00    -0.744 OA
ENDBRANCH  55  56
ENDBRANCH  27  50
BRANCH  39  60
ATOM     60  C   UNL A   1      46.722  33.062  28.762  1.00  0.00    -0.014 A 
ATOM     61  C   UNL A   1      47.248  33.388  30.024  1.00  0.00     0.010 A 
ATOM     62  C   UNL A   1      46.578  34.070  27.792  1.00  0.00     0.010 A 
ATOM     63  C   UNL A   1      47.594  34.708  30.323  1.00  0.00     0.020 A 
ATOM     64  C   UNL A   1      46.942  35.387  28.081  1.00  0.00     0.020 A 
ATOM     65  C   UNL A   1      47.433  35.700  29.351  1.00  0.00     0.054 A 
BRANCH  65  66
ATOM     66  S   UNL A   1      47.916  37.403  29.747  1.00  0.00     0.124 S 
ATOM     67  O   UNL A   1      49.328  37.412  29.376  1.00  0.00    -0.237 OA
ATOM     68  O   UNL A   1      47.036  38.197  28.894  1.00  0.00    -0.237 OA
ATOM     69  O   UNL A   1      47.647  37.513  31.179  1.00  0.00    -0.744 OA
ENDBRANCH  65  66
ENDBRANCH  39  60
ENDBRANCH  13  14
ENDBRANCH   6   8
ENDBRANCH   3   4
ENDBRANCH   2   3
ENDBRANCH   1   2
BRANCH   1  70
ATOM     70  C   UNL A   1      37.955  23.468  26.054  1.00  0.00     0.116 C 
BRANCH  70  71
ATOM     71  N   UNL A   1      37.648  23.267  24.648  1.00  0.00    -0.354 N 
ATOM     72  C   UNL A   1      36.462  22.984  24.038  1.00  0.00     0.244 C 
ATOM     73  H   UNL A   1      38.418  23.347  24.041  1.00  0.00     0.163 HD
ATOM     74  O   UNL A   1      36.447  22.897  22.806  1.00  0.00    -0.273 OA
BRANCH  72  75
ATOM     75  C   UNL A   1      35.198  22.708  24.866  1.00  0.00     0.197 C 
BRANCH  75  76
ATOM     76  N   UNL A   1      34.152  22.225  23.953  1.00  0.00    -0.340 N 
ATOM     77  C   UNL A   1      33.024  22.781  23.447  1.00  0.00     0.244 C 
ATOM     78  H   UNL A   1      34.302  21.303  23.645  1.00  0.00     0.164 HD
ATOM     79  O   UNL A   1      32.400  22.095  22.625  1.00  0.00    -0.273 OA
BRANCH  77  80
ATOM     80  C   UNL A   1      32.537  24.223  23.732  1.00  0.00     0.181 C 
BRANCH  80  81
ATOM     81  N   UNL A   1      32.235  24.579  25.115  1.00  0.00    -0.339 N 
ATOM     82  C   UNL A   1      31.457  25.554  25.674  1.00  0.00     0.251 C 
ATOM     83  H   UNL A   1      32.680  24.001  25.777  1.00  0.00     0.164 HD
ATOM     84  O   UNL A   1      31.391  25.625  26.894  1.00  0.00    -0.269 OA
BRANCH  82  85
ATOM     85  C   UNL A   1      30.787  26.580  24.845  1.00  0.00     0.040 A 
ATOM     86  C   UNL A   1      29.560  26.367  24.208  1.00  0.00     0.017 A 
ATOM     87  C   UNL A   1      31.423  27.827  24.744  1.00  0.00     0.017 A 
ATOM     88  C   UNL A   1      29.008  27.381  23.418  1.00  0.00     0.040 A 
ATOM     89  C   UNL A   1      30.864  28.839  23.964  1.00  0.00     0.040 A 
ATOM     90  C   UNL A   1      29.667  28.602  23.300  1.00  0.00     0.123 A 
ATOM     91  F   UNL A   1      29.135  29.568  22.539  1.00  0.00    -0.207 F 
ENDBRANCH  82  85
ENDBRANCH  80  81
BRANCH  80  92
ATOM     92  C   UNL A   1      33.511  25.226  23.079  1.00  0.00     0.101 C 
BRANCH  92  93
ATOM     93  S   UNL A   1      32.850  26.056  21.590  1.00  0.00    -0.177 SA
ATOM     94  H   UNL A   1      31.515  26.266  21.744  1.00  0.00     0.102 HD
ENDBRANCH  92  93
ENDBRANCH  80  92
ENDBRANCH  77  80
ENDBRANCH  75  76
BRANCH  75  95
ATOM     95  C   UNL A   1      35.542  21.648  25.928  1.00  0.00     0.191 C 
BRANCH  95  96
ATOM     96  O   UNL A   1      36.026  20.452  25.315  1.00  0.00    -0.394 OA
ATOM     97  H   UNL A   1      36.693  20.042  25.888  1.00  0.00     0.210 HD
ENDBRANCH  95  96
ENDBRANCH  75  95
ENDBRANCH  72  75
ENDBRANCH  70  71
ENDBRANCH   1  70
TORSDOF 22
ENDMDL
