MODEL 1
REMARK VINA RESULT:     -15.0      0.000      0.000
REMARK SMILES COc1ccc(/C=C2/C(=O)N(c3ccccc3)C(=O)[NH+]=C2NCCCCNC(=O)c2ccc(-c3c4nc(c(-c5ccc(S(=O)(=O)[O-])cc5)c5ccc([nH]5)c(-c5ccc(S(=O)(=O)[O-])cc5)c5nc(c(-c6ccc(S(=O)(=O)[O-])cc6)c6ccc3[nH]6)C=C5)C=C4)cc2)cc1C(=O)[O-]
REMARK SMILES IDX 25 1 24 2 23 3 22 4 7 5 8 6 9 7 21 8 10 9 11 10 20 11 18 12
REMARK SMILES IDX 19 15 6 16 3 17 4 18 91 19 5 20 90 21 2 22 1 23 92 24 93 25
REMARK SMILES IDX 94 26 12 27 13 28 17 29 14 30 16 31 15 32 26 33 27 34 28 35
REMARK SMILES IDX 29 37 30 38 31 39 89 40 32 41 88 42 33 43 34 44 35 45 82 46
REMARK SMILES IDX 36 47 87 48 81 49 83 50 37 51 86 52 80 53 79 54 38 56 68 57
REMARK SMILES IDX 49 58 67 59 50 60 53 61 66 62 84 63 51 64 52 65 65 67 85 68
REMARK SMILES IDX 54 69 39 70 40 71 48 72 41 73 47 74 42 75 43 76 44 77 45 78
REMARK SMILES IDX 46 79 69 80 70 81 78 82 71 83 77 84 72 85 73 86 74 87 75 88
REMARK SMILES IDX 76 89 55 90 56 91 64 92 57 93 63 94 58 95 59 96 60 97 61 98
REMARK SMILES IDX 62 99
REMARK H PARENT 20 13 22 14 27 36 83 55 53 66
REMARK Flexibility Score: inf
ROOT
ATOM      1  C   UNL A   1      34.132  29.575  27.343  1.00  0.00     0.024 C 
ENDROOT
BRANCH   1   2
ATOM      2  C   UNL A   1      33.622  28.969  25.734  1.00  0.00     0.039 C 
BRANCH   2   3
ATOM      3  C   UNL A   1      32.569  27.185  24.989  1.00  0.00     0.194 C 
BRANCH   3   4
ATOM      4  N   UNL A   1      32.276  25.757  25.744  1.00  0.00    -0.305 N 
ATOM      5  C   UNL A   1      32.138  25.012  22.816  1.00  0.00     0.030 C 
ATOM      6  C   UNL A   1      32.517  24.178  23.790  1.00  0.00     0.129 C 
ATOM      7  C   UNL A   1      33.140  22.875  23.516  1.00  0.00     0.328 C 
ATOM      8  C   UNL A   1      32.243  24.480  25.212  1.00  0.00     0.236 C 
ATOM      9  O   UNL A   1      33.892  22.722  22.557  1.00  0.00    -0.249 OA
ATOM     10  N   UNL A   1      32.765  21.920  24.441  1.00  0.00    -0.155 N 
ATOM     11  N   UNL A   1      31.900  23.485  25.982  1.00  0.00    -0.209 N 
ATOM     12  C   UNL A   1      31.818  22.224  25.415  1.00  0.00     0.448 C 
ATOM     13  H   UNL A   1      31.705  23.626  26.938  1.00  0.00     0.270 HD
ATOM     14  H   UNL A   1      32.101  25.817  26.711  1.00  0.00     0.256 HD
ATOM     15  O   UNL A   1      30.934  21.434  25.743  1.00  0.00    -0.212 OA
BRANCH   5  16
ATOM     16  C   UNL A   1      31.765  26.352  23.243  1.00  0.00    -0.024 A 
ATOM     17  C   UNL A   1      29.943  29.430  22.824  1.00  0.00     0.127 A 
ATOM     18  C   UNL A   1      31.724  29.383  22.440  1.00  0.00     0.048 A 
ATOM     19  C   UNL A   1      29.095  27.946  23.320  1.00  0.00     0.040 A 
ATOM     20  C   UNL A   1      32.673  27.851  22.745  1.00  0.00     0.012 A 
ATOM     21  C   UNL A   1      30.002  26.442  23.583  1.00  0.00     0.022 A 
BRANCH  17  22
ATOM     22  O   UNL A   1      29.320  30.650  22.930  1.00  0.00    -0.496 OA
ATOM     23  C   UNL A   1      28.842  31.126  21.644  1.00  0.00     0.278 C 
ENDBRANCH  17  22
BRANCH  19  24
ATOM     24  C   UNL A   1      27.640  27.900  23.485  1.00  0.00     0.075 C 
ATOM     25  O   UNL A   1      26.859  28.756  23.127  1.00  0.00    -0.545 OA
ATOM     26  O   UNL A   1      27.269  26.790  24.138  1.00  0.00    -0.545 OA
ENDBRANCH  19  24
ENDBRANCH   5  16
BRANCH  10  27
ATOM     27  C   UNL A   1      33.116  20.577  24.178  1.00  0.00     0.111 A 
ATOM     28  C   UNL A   1      34.219  19.984  24.801  1.00  0.00     0.044 A 
ATOM     29  C   UNL A   1      32.267  19.811  23.373  1.00  0.00     0.044 A 
ATOM     30  C   UNL A   1      34.463  18.622  24.621  1.00  0.00     0.004 A 
ATOM     31  C   UNL A   1      32.517  18.451  23.194  1.00  0.00     0.004 A 
ATOM     32  C   UNL A   1      33.611  17.856  23.823  1.00  0.00     0.000 A 
ENDBRANCH  10  27
ENDBRANCH   3   4
ENDBRANCH   2   3
ENDBRANCH   1   2
BRANCH   1  33
ATOM     33  C   UNL A   1      35.552  29.699  27.988  1.00  0.00     0.116 C 
BRANCH  33  34
ATOM     34  N   UNL A   1      35.580  29.840  29.433  1.00  0.00    -0.352 N 
ATOM     35  C   UNL A   1      36.538  29.645  30.376  1.00  0.00     0.251 C 
ATOM     36  H   UNL A   1      34.721  30.140  29.810  1.00  0.00     0.163 HD
ATOM     37  O   UNL A   1      36.313  29.764  31.575  1.00  0.00    -0.269 OA
BRANCH  35  38
ATOM     38  C   UNL A   1      37.888  29.388  29.946  1.00  0.00     0.039 A 
ATOM     39  C   UNL A   1      38.229  29.633  28.619  1.00  0.00     0.014 A 
ATOM     40  C   UNL A   1      38.752  28.797  30.869  1.00  0.00     0.014 A 
ATOM     41  C   UNL A   1      39.503  29.307  28.206  1.00  0.00     0.010 A 
ATOM     42  C   UNL A   1      40.033  28.509  30.467  1.00  0.00     0.010 A 
ATOM     43  C   UNL A   1      40.398  28.761  29.138  1.00  0.00    -0.014 A 
BRANCH  43  44
ATOM     44  C   UNL A   1      41.766  28.438  28.740  1.00  0.00     0.031 A 
ATOM     45  C   UNL A   1      42.783  29.529  28.722  1.00  0.00     0.074 A 
ATOM     46  C   UNL A   1      41.997  27.185  28.318  1.00  0.00     0.049 A 
ATOM     47  N   UNL A   1      44.020  29.483  28.320  1.00  0.00    -0.248 NA
ATOM     48  C   UNL A   1      42.339  30.860  29.178  1.00  0.00     0.031 C 
ATOM     49  C   UNL A   1      40.996  26.110  28.277  1.00  0.00     0.029 A 
ATOM     50  N   UNL A   1      43.130  26.605  27.839  1.00  0.00    -0.354 N 
ATOM     51  C   UNL A   1      44.500  30.779  28.457  1.00  0.00     0.074 A 
ATOM     52  C   UNL A   1      43.408  31.599  28.927  1.00  0.00     0.031 C 
ATOM     53  C   UNL A   1      41.576  24.989  27.821  1.00  0.00     0.029 A 
ATOM     54  C   UNL A   1      42.968  25.283  27.510  1.00  0.00     0.049 A 
ATOM     55  H   UNL A   1      43.983  27.086  27.738  1.00  0.00     0.167 HD
ATOM     56  C   UNL A   1      45.754  31.222  28.219  1.00  0.00     0.031 A 
ATOM     57  C   UNL A   1      43.864  24.414  27.014  1.00  0.00     0.031 A 
ATOM     58  C   UNL A   1      46.798  30.353  27.749  1.00  0.00     0.049 A 
ATOM     59  C   UNL A   1      45.258  24.924  26.794  1.00  0.00     0.074 A 
ATOM     60  C   UNL A   1      48.126  30.643  27.503  1.00  0.00     0.029 A 
ATOM     61  N   UNL A   1      46.619  29.003  27.461  1.00  0.00    -0.354 N 
ATOM     62  N   UNL A   1      45.724  26.140  26.977  1.00  0.00    -0.248 NA
ATOM     63  C   UNL A   1      46.248  23.955  26.321  1.00  0.00     0.031 C 
ATOM     64  C   UNL A   1      48.738  29.476  27.030  1.00  0.00     0.029 A 
ATOM     65  C   UNL A   1      47.807  28.446  27.032  1.00  0.00     0.049 A 
ATOM     66  H   UNL A   1      45.767  28.517  27.551  1.00  0.00     0.167 HD
ATOM     67  C   UNL A   1      47.074  26.079  26.665  1.00  0.00     0.074 A 
ATOM     68  C   UNL A   1      47.345  24.699  26.298  1.00  0.00     0.031 C 
ATOM     69  C   UNL A   1      48.008  27.062  26.674  1.00  0.00     0.031 A 
BRANCH  56  70
ATOM     70  C   UNL A   1      46.031  32.684  28.454  1.00  0.00    -0.014 A 
ATOM     71  C   UNL A   1      46.453  33.151  29.714  1.00  0.00     0.010 A 
ATOM     72  C   UNL A   1      45.853  33.611  27.412  1.00  0.00     0.010 A 
ATOM     73  C   UNL A   1      46.641  34.516  29.941  1.00  0.00     0.020 A 
ATOM     74  C   UNL A   1      46.069  34.976  27.627  1.00  0.00     0.020 A 
ATOM     75  C   UNL A   1      46.443  35.422  28.896  1.00  0.00     0.054 A 
BRANCH  75  76
ATOM     76  S   UNL A   1      46.702  37.189  29.216  1.00  0.00     0.124 S 
ATOM     77  O   UNL A   1      45.382  37.609  29.681  1.00  0.00    -0.237 OA
ATOM     78  O   UNL A   1      47.750  37.180  30.233  1.00  0.00    -0.237 OA
ATOM     79  O   UNL A   1      47.104  37.722  27.917  1.00  0.00    -0.744 OA
ENDBRANCH  75  76
ENDBRANCH  56  70
BRANCH  57  80
ATOM     80  C   UNL A   1      43.470  23.004  26.765  1.00  0.00    -0.014 A 
ATOM     81  C   UNL A   1      43.818  22.375  25.558  1.00  0.00     0.010 A 
ATOM     82  C   UNL A   1      42.811  22.257  27.759  1.00  0.00     0.010 A 
ATOM     83  C   UNL A   1      43.494  21.032  25.339  1.00  0.00     0.020 A 
ATOM     84  C   UNL A   1      42.508  20.908  27.555  1.00  0.00     0.020 A 
ATOM     85  C   UNL A   1      42.843  20.307  26.339  1.00  0.00     0.054 A 
BRANCH  85  86
ATOM     86  S   UNL A   1      42.478  18.553  26.050  1.00  0.00     0.124 S 
ATOM     87  O   UNL A   1      41.045  18.582  25.779  1.00  0.00    -0.237 OA
ATOM     88  O   UNL A   1      43.333  18.238  24.908  1.00  0.00    -0.237 OA
ATOM     89  O   UNL A   1      42.867  17.912  27.304  1.00  0.00    -0.744 OA
ENDBRANCH  85  86
ENDBRANCH  57  80
BRANCH  69  90
ATOM     90  C   UNL A   1      49.402  26.657  26.299  1.00  0.00    -0.014 A 
ATOM     91  C   UNL A   1      50.191  25.893  27.176  1.00  0.00     0.010 A 
ATOM     92  C   UNL A   1      49.903  27.002  25.032  1.00  0.00     0.010 A 
ATOM     93  C   UNL A   1      51.478  25.508  26.802  1.00  0.00     0.020 A 
ATOM     94  C   UNL A   1      51.177  26.593  24.643  1.00  0.00     0.020 A 
ATOM     95  C   UNL A   1      51.961  25.861  25.537  1.00  0.00     0.054 A 
BRANCH  95  96
ATOM     96  S   UNL A   1      53.618  25.307  25.057  1.00  0.00     0.124 S 
ATOM     97  O   UNL A   1      53.531  25.324  23.599  1.00  0.00    -0.237 OA
ATOM     98  O   UNL A   1      54.481  26.327  25.648  1.00  0.00    -0.237 OA
ATOM     99  O   UNL A   1      53.727  23.981  25.660  1.00  0.00    -0.744 OA
ENDBRANCH  95  96
ENDBRANCH  69  90
ENDBRANCH  43  44
ENDBRANCH  35  38
ENDBRANCH  33  34
ENDBRANCH   1  33
TORSDOF 17
ENDMDL
MODEL 2
REMARK VINA RESULT:     -14.7      0.487      7.930
REMARK SMILES COc1ccc(/C=C2/C(=O)N(c3ccccc3)C(=O)[NH+]=C2NCCCCNC(=O)c2ccc(-c3c4nc(c(-c5ccc(S(=O)(=O)[O-])cc5)c5ccc([nH]5)c(-c5ccc(S(=O)(=O)[O-])cc5)c5nc(c(-c6ccc(S(=O)(=O)[O-])cc6)c6ccc3[nH]6)C=C5)C=C4)cc2)cc1C(=O)[O-]
REMARK SMILES IDX 25 1 24 2 23 3 22 4 7 5 8 6 9 7 21 8 10 9 11 10 20 11 18 12
REMARK SMILES IDX 19 15 6 16 3 17 4 18 91 19 5 20 90 21 2 22 1 23 92 24 93 25
REMARK SMILES IDX 94 26 12 27 13 28 17 29 14 30 16 31 15 32 26 33 27 34 28 35
REMARK SMILES IDX 29 37 30 38 31 39 89 40 32 41 88 42 33 43 34 44 35 45 82 46
REMARK SMILES IDX 36 47 87 48 81 49 83 50 37 51 86 52 80 53 79 54 38 56 68 57
REMARK SMILES IDX 49 58 67 59 50 60 53 61 66 62 84 63 51 64 52 65 65 67 85 68
REMARK SMILES IDX 54 69 39 70 40 71 48 72 41 73 47 74 42 75 43 76 44 77 45 78
REMARK SMILES IDX 46 79 69 80 70 81 78 82 71 83 77 84 72 85 73 86 74 87 75 88
REMARK SMILES IDX 76 89 55 90 56 91 64 92 57 93 63 94 58 95 59 96 60 97 61 98
REMARK SMILES IDX 62 99
REMARK H PARENT 20 13 22 14 27 36 83 55 53 66
REMARK Flexibility Score: inf
ROOT
ATOM      1  C   UNL A   1      34.086  29.429  27.333  1.00  0.00     0.024 C 
ENDROOT
BRANCH   1   2
ATOM      2  C   UNL A   1      33.507  28.888  25.725  1.00  0.00     0.039 C 
BRANCH   2   3
ATOM      3  C   UNL A   1      32.571  27.063  24.925  1.00  0.00     0.194 C 
BRANCH   3   4
ATOM      4  N   UNL A   1      32.276  25.630  25.670  1.00  0.00    -0.305 N 
ATOM      5  C   UNL A   1      32.060  24.920  22.738  1.00  0.00     0.030 C 
ATOM      6  C   UNL A   1      32.450  24.070  23.694  1.00  0.00     0.129 C 
ATOM      7  C   UNL A   1      33.048  22.762  23.392  1.00  0.00     0.328 C 
ATOM      8  C   UNL A   1      32.212  24.360  25.126  1.00  0.00     0.236 C 
ATOM      9  O   UNL A   1      33.775  22.609  22.414  1.00  0.00    -0.249 OA
ATOM     10  N   UNL A   1      32.681  21.801  24.314  1.00  0.00    -0.155 N 
ATOM     11  N   UNL A   1      31.873  23.361  25.893  1.00  0.00    -0.209 N 
ATOM     12  C   UNL A   1      31.760  22.108  25.313  1.00  0.00     0.448 C 
ATOM     13  H   UNL A   1      31.703  23.494  26.854  1.00  0.00     0.270 HD
ATOM     14  H   UNL A   1      32.123  25.682  26.642  1.00  0.00     0.256 HD
ATOM     15  O   UNL A   1      30.873  21.327  25.653  1.00  0.00    -0.212 OA
BRANCH   5  16
ATOM     16  C   UNL A   1      31.715  26.261  23.188  1.00  0.00    -0.024 A 
ATOM     17  C   UNL A   1      29.933  29.370  22.842  1.00  0.00     0.127 A 
ATOM     18  C   UNL A   1      31.705  29.301  22.422  1.00  0.00     0.048 A 
ATOM     19  C   UNL A   1      29.072  27.893  23.338  1.00  0.00     0.040 A 
ATOM     20  C   UNL A   1      32.636  27.751  22.689  1.00  0.00     0.012 A 
ATOM     21  C   UNL A   1      29.961  26.373  23.565  1.00  0.00     0.022 A 
BRANCH  17  22
ATOM     22  O   UNL A   1      29.331  30.597  22.975  1.00  0.00    -0.496 OA
ATOM     23  C   UNL A   1      28.817  31.088  21.708  1.00  0.00     0.278 C 
ENDBRANCH  17  22
BRANCH  19  24
ATOM     24  C   UNL A   1      27.620  27.866  23.532  1.00  0.00     0.075 C 
ATOM     25  O   UNL A   1      26.840  28.712  23.149  1.00  0.00    -0.545 OA
ATOM     26  O   UNL A   1      27.253  26.790  24.242  1.00  0.00    -0.545 OA
ENDBRANCH  19  24
ENDBRANCH   5  16
BRANCH  10  27
ATOM     27  C   UNL A   1      33.007  20.457  24.029  1.00  0.00     0.111 A 
ATOM     28  C   UNL A   1      34.018  19.795  24.732  1.00  0.00     0.044 A 
ATOM     29  C   UNL A   1      32.216  19.760  23.110  1.00  0.00     0.044 A 
ATOM     30  C   UNL A   1      34.228  18.432  24.518  1.00  0.00     0.004 A 
ATOM     31  C   UNL A   1      32.433  18.399  22.897  1.00  0.00     0.004 A 
ATOM     32  C   UNL A   1      33.434  17.734  23.606  1.00  0.00     0.000 A 
ENDBRANCH  10  27
ENDBRANCH   3   4
ENDBRANCH   2   3
ENDBRANCH   1   2
BRANCH   1  33
ATOM     33  C   UNL A   1      35.522  29.440  27.955  1.00  0.00     0.116 C 
BRANCH  33  34
ATOM     34  N   UNL A   1      35.590  29.687  29.384  1.00  0.00    -0.352 N 
ATOM     35  C   UNL A   1      36.573  29.559  30.312  1.00  0.00     0.251 C 
ATOM     36  H   UNL A   1      34.743  30.018  29.761  1.00  0.00     0.163 HD
ATOM     37  O   UNL A   1      36.382  29.768  31.505  1.00  0.00    -0.269 OA
BRANCH  35  38
ATOM     38  C   UNL A   1      37.910  29.264  29.866  1.00  0.00     0.039 A 
ATOM     39  C   UNL A   1      38.780  28.609  30.733  1.00  0.00     0.014 A 
ATOM     40  C   UNL A   1      38.290  29.756  28.616  1.00  0.00     0.014 A 
ATOM     41  C   UNL A   1      40.078  28.406  30.317  1.00  0.00     0.010 A 
ATOM     42  C   UNL A   1      39.573  29.518  28.187  1.00  0.00     0.010 A 
ATOM     43  C   UNL A   1      40.460  28.849  29.042  1.00  0.00    -0.014 A 
BRANCH  43  44
ATOM     44  C   UNL A   1      41.818  28.617  28.559  1.00  0.00     0.031 A 
ATOM     45  C   UNL A   1      42.188  27.248  28.095  1.00  0.00     0.074 A 
ATOM     46  C   UNL A   1      42.682  29.639  28.657  1.00  0.00     0.049 A 
ATOM     47  N   UNL A   1      43.351  26.804  27.714  1.00  0.00    -0.248 NA
ATOM     48  C   UNL A   1      41.118  26.233  28.097  1.00  0.00     0.031 C 
ATOM     49  C   UNL A   1      42.351  30.978  29.163  1.00  0.00     0.029 A 
ATOM     50  N   UNL A   1      44.005  29.715  28.351  1.00  0.00    -0.354 N 
ATOM     51  C   UNL A   1      43.161  25.455  27.448  1.00  0.00     0.074 A 
ATOM     52  C   UNL A   1      41.786  25.140  27.760  1.00  0.00     0.031 C 
ATOM     53  C   UNL A   1      43.445  31.752  29.102  1.00  0.00     0.029 A 
ATOM     54  C   UNL A   1      44.549  30.952  28.591  1.00  0.00     0.049 A 
ATOM     55  H   UNL A   1      44.522  28.957  27.992  1.00  0.00     0.167 HD
ATOM     56  C   UNL A   1      44.066  24.573  26.969  1.00  0.00     0.031 A 
ATOM     57  C   UNL A   1      45.810  31.375  28.407  1.00  0.00     0.031 A 
ATOM     58  C   UNL A   1      45.423  24.950  26.679  1.00  0.00     0.049 A 
ATOM     59  C   UNL A   1      46.785  30.386  27.840  1.00  0.00     0.074 A 
ATOM     60  C   UNL A   1      46.443  24.184  26.151  1.00  0.00     0.029 A 
ATOM     61  N   UNL A   1      45.941  26.224  26.893  1.00  0.00    -0.354 N 
ATOM     62  N   UNL A   1      46.588  29.122  27.536  1.00  0.00    -0.248 NA
ATOM     63  C   UNL A   1      48.140  30.874  27.574  1.00  0.00     0.031 C 
ATOM     64  C   UNL A   1      47.589  24.987  26.082  1.00  0.00     0.029 A 
ATOM     65  C   UNL A   1      47.269  26.266  26.516  1.00  0.00     0.049 A 
ATOM     66  H   UNL A   1      45.434  26.984  27.260  1.00  0.00     0.167 HD
ATOM     67  C   UNL A   1      47.790  28.665  27.017  1.00  0.00     0.074 A 
ATOM     68  C   UNL A   1      48.700  29.799  27.036  1.00  0.00     0.031 C 
ATOM     69  C   UNL A   1      48.122  27.429  26.567  1.00  0.00     0.031 A 
BRANCH  56  70
ATOM     70  C   UNL A   1      43.609  23.155  26.752  1.00  0.00    -0.014 A 
ATOM     71  C   UNL A   1      43.034  22.409  27.798  1.00  0.00     0.010 A 
ATOM     72  C   UNL A   1      43.768  22.548  25.494  1.00  0.00     0.010 A 
ATOM     73  C   UNL A   1      42.676  21.071  27.607  1.00  0.00     0.020 A 
ATOM     74  C   UNL A   1      43.384  21.219  25.289  1.00  0.00     0.020 A 
ATOM     75  C   UNL A   1      42.858  20.483  26.352  1.00  0.00     0.054 A 
BRANCH  75  76
ATOM     76  S   UNL A   1      42.377  18.748  26.129  1.00  0.00     0.124 S 
ATOM     77  O   UNL A   1      42.619  18.193  27.458  1.00  0.00    -0.237 OA
ATOM     78  O   UNL A   1      40.973  18.852  25.739  1.00  0.00    -0.237 OA
ATOM     79  O   UNL A   1      43.278  18.271  25.081  1.00  0.00    -0.744 OA
ENDBRANCH  75  76
ENDBRANCH  56  70
BRANCH  57  80
ATOM     80  C   UNL A   1      46.169  32.785  28.705  1.00  0.00    -0.014 A 
ATOM     81  C   UNL A   1      46.697  33.130  29.961  1.00  0.00     0.010 A 
ATOM     82  C   UNL A   1      46.056  33.779  27.716  1.00  0.00     0.010 A 
ATOM     83  C   UNL A   1      47.085  34.447  30.230  1.00  0.00     0.020 A 
ATOM     84  C   UNL A   1      46.466  35.091  27.972  1.00  0.00     0.020 A 
ATOM     85  C   UNL A   1      46.968  35.418  29.233  1.00  0.00     0.054 A 
BRANCH  85  86
ATOM     86  S   UNL A   1      47.523  37.108  29.591  1.00  0.00     0.124 S 
ATOM     87  O   UNL A   1      48.769  36.872  30.312  1.00  0.00    -0.237 OA
ATOM     88  O   UNL A   1      47.664  37.682  28.254  1.00  0.00    -0.237 OA
ATOM     89  O   UNL A   1      46.433  37.666  30.387  1.00  0.00    -0.744 OA
ENDBRANCH  85  86
ENDBRANCH  57  80
BRANCH  69  90
ATOM     90  C   UNL A   1      49.518  27.267  26.043  1.00  0.00    -0.014 A 
ATOM     91  C   UNL A   1      50.567  26.879  26.894  1.00  0.00     0.010 A 
ATOM     92  C   UNL A   1      49.765  27.456  24.672  1.00  0.00     0.010 A 
ATOM     93  C   UNL A   1      51.854  26.713  26.384  1.00  0.00     0.020 A 
ATOM     94  C   UNL A   1      51.045  27.262  24.155  1.00  0.00     0.020 A 
ATOM     95  C   UNL A   1      52.083  26.906  25.018  1.00  0.00     0.054 A 
BRANCH  95  96
ATOM     96  S   UNL A   1      53.755  26.638  24.373  1.00  0.00     0.124 S 
ATOM     97  O   UNL A   1      54.163  27.995  24.019  1.00  0.00    -0.237 OA
ATOM     98  O   UNL A   1      54.449  26.049  25.515  1.00  0.00    -0.237 OA
ATOM     99  O   UNL A   1      53.549  25.734  23.243  1.00  0.00    -0.744 OA
ENDBRANCH  95  96
ENDBRANCH  69  90
ENDBRANCH  43  44
ENDBRANCH  35  38
ENDBRANCH  33  34
ENDBRANCH   1  33
TORSDOF 17
ENDMDL
MODEL 3
REMARK VINA RESULT:     -14.3      5.730      7.442
REMARK SMILES COc1ccc(/C=C2/C(=O)N(c3ccccc3)C(=O)[NH+]=C2NCCCCNC(=O)c2ccc(-c3c4nc(c(-c5ccc(S(=O)(=O)[O-])cc5)c5ccc([nH]5)c(-c5ccc(S(=O)(=O)[O-])cc5)c5nc(c(-c6ccc(S(=O)(=O)[O-])cc6)c6ccc3[nH]6)C=C5)C=C4)cc2)cc1C(=O)[O-]
REMARK SMILES IDX 25 1 24 2 23 3 22 4 7 5 8 6 9 7 21 8 10 9 11 10 20 11 18 12
REMARK SMILES IDX 19 15 6 16 3 17 4 18 91 19 5 20 90 21 2 22 1 23 92 24 93 25
REMARK SMILES IDX 94 26 12 27 13 28 17 29 14 30 16 31 15 32 26 33 27 34 28 35
REMARK SMILES IDX 29 37 30 38 31 39 89 40 32 41 88 42 33 43 34 44 35 45 82 46
REMARK SMILES IDX 36 47 87 48 81 49 83 50 37 51 86 52 80 53 79 54 38 56 68 57
REMARK SMILES IDX 49 58 67 59 50 60 53 61 66 62 84 63 51 64 52 65 65 67 85 68
REMARK SMILES IDX 54 69 39 70 40 71 48 72 41 73 47 74 42 75 43 76 44 77 45 78
REMARK SMILES IDX 46 79 69 80 70 81 78 82 71 83 77 84 72 85 73 86 74 87 75 88
REMARK SMILES IDX 76 89 55 90 56 91 64 92 57 93 63 94 58 95 59 96 60 97 61 98
REMARK SMILES IDX 62 99
REMARK H PARENT 20 13 22 14 27 36 83 55 53 66
REMARK Flexibility Score: inf
ROOT
ATOM      1  C   UNL A   1      32.562  30.533  27.119  1.00  0.00     0.024 C 
ENDROOT
BRANCH   1   2
ATOM      2  C   UNL A   1      32.015  29.614  25.680  1.00  0.00     0.039 C 
BRANCH   2   3
ATOM      3  C   UNL A   1      32.259  27.552  24.948  1.00  0.00     0.194 C 
BRANCH   3   4
ATOM      4  N   UNL A   1      32.018  26.131  25.735  1.00  0.00    -0.305 N 
ATOM      5  C   UNL A   1      31.982  25.304  22.826  1.00  0.00     0.030 C 
ATOM      6  C   UNL A   1      32.379  24.516  23.830  1.00  0.00     0.129 C 
ATOM      7  C   UNL A   1      33.070  23.238  23.606  1.00  0.00     0.328 C 
ATOM      8  C   UNL A   1      32.058  24.841  25.238  1.00  0.00     0.236 C 
ATOM      9  O   UNL A   1      33.850  23.096  22.667  1.00  0.00    -0.249 OA
ATOM     10  N   UNL A   1      32.721  22.290  24.547  1.00  0.00    -0.155 N 
ATOM     11  N   UNL A   1      31.746  23.851  26.027  1.00  0.00    -0.209 N 
ATOM     12  C   UNL A   1      31.738  22.573  25.493  1.00  0.00     0.448 C 
ATOM     13  H   UNL A   1      31.524  24.008  26.974  1.00  0.00     0.270 HD
ATOM     14  H   UNL A   1      31.818  26.208  26.696  1.00  0.00     0.256 HD
ATOM     15  O   UNL A   1      30.886  21.750  25.823  1.00  0.00    -0.212 OA
BRANCH   5  16
ATOM     16  C   UNL A   1      31.535  26.636  23.208  1.00  0.00    -0.024 A 
ATOM     17  C   UNL A   1      29.495  29.563  22.729  1.00  0.00     0.127 A 
ATOM     18  C   UNL A   1      31.259  29.616  22.274  1.00  0.00     0.048 A 
ATOM     19  C   UNL A   1      28.768  28.051  23.324  1.00  0.00     0.040 A 
ATOM     20  C   UNL A   1      32.320  28.166  22.607  1.00  0.00     0.012 A 
ATOM     21  C   UNL A   1      29.784  26.625  23.616  1.00  0.00     0.022 A 
BRANCH  17  22
ATOM     22  O   UNL A   1      28.795  30.743  22.806  1.00  0.00    -0.496 OA
ATOM     23  C   UNL A   1      28.305  31.167  21.506  1.00  0.00     0.278 C 
ENDBRANCH  17  22
BRANCH  19  24
ATOM     24  C   UNL A   1      27.327  27.917  23.551  1.00  0.00     0.075 C 
ATOM     25  O   UNL A   1      26.484  28.734  23.247  1.00  0.00    -0.545 OA
ATOM     26  O   UNL A   1      27.049  26.774  24.192  1.00  0.00    -0.545 OA
ENDBRANCH  19  24
ENDBRANCH   5  16
BRANCH  10  27
ATOM     27  C   UNL A   1      33.142  20.960  24.330  1.00  0.00     0.111 A 
ATOM     28  C   UNL A   1      34.301  20.461  24.932  1.00  0.00     0.044 A 
ATOM     29  C   UNL A   1      32.311  20.110  23.593  1.00  0.00     0.044 A 
ATOM     30  C   UNL A   1      34.620  19.109  24.802  1.00  0.00     0.004 A 
ATOM     31  C   UNL A   1      32.635  18.759  23.463  1.00  0.00     0.004 A 
ATOM     32  C   UNL A   1      33.786  18.259  24.073  1.00  0.00     0.000 A 
ENDBRANCH  10  27
ENDBRANCH   3   4
ENDBRANCH   2   3
ENDBRANCH   1   2
BRANCH   1  33
ATOM     33  C   UNL A   1      33.782  31.494  27.319  1.00  0.00     0.116 C 
BRANCH  33  34
ATOM     34  N   UNL A   1      33.471  32.808  27.853  1.00  0.00    -0.352 N 
ATOM     35  C   UNL A   1      33.963  33.541  28.886  1.00  0.00     0.251 C 
ATOM     36  H   UNL A   1      32.750  33.265  27.363  1.00  0.00     0.163 HD
ATOM     37  O   UNL A   1      33.491  34.626  29.203  1.00  0.00    -0.269 OA
BRANCH  35  38
ATOM     38  C   UNL A   1      35.142  33.071  29.566  1.00  0.00     0.039 A 
ATOM     39  C   UNL A   1      34.999  32.158  30.606  1.00  0.00     0.014 A 
ATOM     40  C   UNL A   1      36.360  33.651  29.208  1.00  0.00     0.014 A 
ATOM     41  C   UNL A   1      36.130  31.780  31.297  1.00  0.00     0.010 A 
ATOM     42  C   UNL A   1      37.492  33.244  29.870  1.00  0.00     0.010 A 
ATOM     43  C   UNL A   1      37.369  32.315  30.913  1.00  0.00    -0.014 A 
BRANCH  43  44
ATOM     44  C   UNL A   1      38.591  31.907  31.602  1.00  0.00     0.031 A 
ATOM     45  C   UNL A   1      38.916  32.534  32.916  1.00  0.00     0.074 A 
ATOM     46  C   UNL A   1      39.399  31.055  30.952  1.00  0.00     0.049 A 
ATOM     47  N   UNL A   1      39.981  32.385  33.648  1.00  0.00    -0.248 NA
ATOM     48  C   UNL A   1      37.929  33.486  33.461  1.00  0.00     0.031 C 
ATOM     49  C   UNL A   1      39.124  30.469  29.634  1.00  0.00     0.029 A 
ATOM     50  N   UNL A   1      40.611  30.543  31.299  1.00  0.00    -0.354 N 
ATOM     51  C   UNL A   1      39.806  33.236  34.731  1.00  0.00     0.074 A 
ATOM     52  C   UNL A   1      38.558  33.937  34.535  1.00  0.00     0.031 C 
ATOM     53  C   UNL A   1      40.133  29.652  29.299  1.00  0.00     0.029 A 
ATOM     54  C   UNL A   1      41.130  29.689  30.359  1.00  0.00     0.049 A 
ATOM     55  H   UNL A   1      41.070  30.763  32.142  1.00  0.00     0.167 HD
ATOM     56  C   UNL A   1      40.622  33.393  35.797  1.00  0.00     0.031 A 
ATOM     57  C   UNL A   1      42.291  29.014  30.373  1.00  0.00     0.031 A 
ATOM     58  C   UNL A   1      41.854  32.664  35.932  1.00  0.00     0.049 A 
ATOM     59  C   UNL A   1      43.161  29.179  31.585  1.00  0.00     0.074 A 
ATOM     60  C   UNL A   1      42.765  32.682  36.970  1.00  0.00     0.029 A 
ATOM     61  N   UNL A   1      42.340  31.772  34.982  1.00  0.00    -0.354 N 
ATOM     62  N   UNL A   1      42.965  29.944  32.636  1.00  0.00    -0.248 NA
ATOM     63  C   UNL A   1      44.390  28.386  31.627  1.00  0.00     0.031 C 
ATOM     64  C   UNL A   1      43.820  31.828  36.629  1.00  0.00     0.029 A 
ATOM     65  C   UNL A   1      43.542  31.237  35.403  1.00  0.00     0.049 A 
ATOM     66  H   UNL A   1      41.892  31.553  34.133  1.00  0.00     0.167 HD
ATOM     67  C   UNL A   1      44.038  29.707  33.482  1.00  0.00     0.074 A 
ATOM     68  C   UNL A   1      44.867  28.713  32.820  1.00  0.00     0.031 C 
ATOM     69  C   UNL A   1      44.322  30.254  34.690  1.00  0.00     0.031 A 
BRANCH  56  70
ATOM     70  C   UNL A   1      40.202  34.378  36.855  1.00  0.00    -0.014 A 
ATOM     71  C   UNL A   1      40.638  35.716  36.817  1.00  0.00     0.010 A 
ATOM     72  C   UNL A   1      39.374  33.965  37.914  1.00  0.00     0.010 A 
ATOM     73  C   UNL A   1      40.299  36.606  37.840  1.00  0.00     0.020 A 
ATOM     74  C   UNL A   1      39.008  34.859  38.925  1.00  0.00     0.020 A 
ATOM     75  C   UNL A   1      39.489  36.169  38.892  1.00  0.00     0.054 A 
BRANCH  75  76
ATOM     76  S   UNL A   1      39.058  37.347  40.203  1.00  0.00     0.124 S 
ATOM     77  O   UNL A   1      38.381  36.488  41.171  1.00  0.00    -0.237 OA
ATOM     78  O   UNL A   1      40.363  37.854  40.620  1.00  0.00    -0.237 OA
ATOM     79  O   UNL A   1      38.202  38.320  39.527  1.00  0.00    -0.744 OA
ENDBRANCH  75  76
ENDBRANCH  56  70
BRANCH  57  80
ATOM     80  C   UNL A   1      42.635  28.107  29.248  1.00  0.00    -0.014 A 
ATOM     81  C   UNL A   1      42.144  26.791  29.225  1.00  0.00     0.010 A 
ATOM     82  C   UNL A   1      43.393  28.573  28.158  1.00  0.00     0.010 A 
ATOM     83  C   UNL A   1      42.423  25.949  28.144  1.00  0.00     0.020 A 
ATOM     84  C   UNL A   1      43.652  27.743  27.063  1.00  0.00     0.020 A 
ATOM     85  C   UNL A   1      43.174  26.430  27.069  1.00  0.00     0.054 A 
BRANCH  85  86
ATOM     86  S   UNL A   1      43.480  25.335  25.656  1.00  0.00     0.124 S 
ATOM     87  O   UNL A   1      42.452  25.762  24.713  1.00  0.00    -0.237 OA
ATOM     88  O   UNL A   1      44.855  25.671  25.290  1.00  0.00    -0.237 OA
ATOM     89  O   UNL A   1      43.303  23.997  26.215  1.00  0.00    -0.744 OA
ENDBRANCH  85  86
ENDBRANCH  57  80
BRANCH  69  90
ATOM     90  C   UNL A   1      45.566  29.759  35.366  1.00  0.00    -0.014 A 
ATOM     91  C   UNL A   1      46.790  30.432  35.205  1.00  0.00     0.010 A 
ATOM     92  C   UNL A   1      45.493  28.639  36.212  1.00  0.00     0.010 A 
ATOM     93  C   UNL A   1      47.932  29.970  35.857  1.00  0.00     0.020 A 
ATOM     94  C   UNL A   1      46.626  28.193  36.889  1.00  0.00     0.020 A 
ATOM     95  C   UNL A   1      47.841  28.853  36.695  1.00  0.00     0.054 A 
BRANCH  95  96
ATOM     96  S   UNL A   1      49.330  28.301  37.568  1.00  0.00     0.124 S 
ATOM     97  O   UNL A   1      49.591  27.012  36.935  1.00  0.00    -0.237 OA
ATOM     98  O   UNL A   1      50.291  29.358  37.263  1.00  0.00    -0.237 OA
ATOM     99  O   UNL A   1      48.906  28.236  38.965  1.00  0.00    -0.744 OA
ENDBRANCH  95  96
ENDBRANCH  69  90
ENDBRANCH  43  44
ENDBRANCH  35  38
ENDBRANCH  33  34
ENDBRANCH   1  33
TORSDOF 17
ENDMDL
