MODEL 1
REMARK VINA RESULT:     -16.8      0.000      0.000
REMARK SMILES Cc1ccc(C2=NN(C(=O)CCC(=O)NCCCCNC(=O)c3ccc(-c4c5nc(c(-c6ccc(S(=O)(=O)[O-])cc6)c6ccc([nH]6)c(-c6ccc(S(=O)(=O)[O-])cc6)c6nc(c(-c7ccc(S(=O)(=O)[O-])cc7)c7ccc4[nH]7)C=C6)C=C5)cc3)[C@H](C[C@@H]3C=c4cccc(C)c4=NC3=O)C2)cc1
REMARK SMILES IDX 16 1 15 2 13 3 14 4 12 6 11 7 9 8 10 9 8 10 6 11 7 12 97 13
REMARK SMILES IDX 83 14 5 15 1 16 2 17 3 18 99 19 4 20 98 21 84 22 85 23 86 24
REMARK SMILES IDX 95 25 87 26 94 27 96 28 88 29 93 30 89 31 91 32 90 33 92 34
REMARK SMILES IDX 17 35 18 36 19 37 20 38 21 39 22 41 23 42 24 43 82 44 25 45
REMARK SMILES IDX 81 46 26 47 27 48 28 49 75 50 29 51 80 52 74 53 76 54 30 55
REMARK SMILES IDX 79 56 73 57 72 58 31 60 61 61 42 62 60 63 43 64 46 65 59 66
REMARK SMILES IDX 77 67 44 68 45 69 58 71 78 72 47 73 32 74 33 75 41 76 34 77
REMARK SMILES IDX 40 78 35 79 36 80 37 81 38 82 39 83 62 84 63 85 71 86 64 87
REMARK SMILES IDX 70 88 65 89 66 90 67 91 68 92 69 93 48 94 49 95 57 96 50 97
REMARK SMILES IDX 56 98 51 99 52 100 53 101 54 102 55 103
REMARK H PARENT 15 5 20 40 76 59 46 70
REMARK Flexibility Score: inf
ROOT
ATOM      1  C   UNL A   1      35.804  20.904  25.150  1.00  0.00     0.116 C 
ENDROOT
BRANCH   1   2
ATOM      2  N   UNL A   1      34.951  21.253  26.444  1.00  0.00    -0.356 N 
ATOM      3  C   UNL A   1      34.084  22.228  26.845  1.00  0.00     0.220 C 
ATOM      4  O   UNL A   1      33.609  22.106  27.982  1.00  0.00    -0.275 OA
ATOM      5  H   UNL A   1      35.085  20.582  27.152  1.00  0.00     0.163 HD
BRANCH   3   6
ATOM      6  C   UNL A   1      33.687  23.441  26.017  1.00  0.00     0.110 C 
BRANCH   6   7
ATOM      7  C   UNL A   1      32.283  23.466  25.462  1.00  0.00     0.112 C 
BRANCH   7   8
ATOM      8  C   UNL A   1      31.383  24.235  26.397  1.00  0.00     0.243 C 
ATOM      9  O   UNL A   1      30.912  23.722  27.404  1.00  0.00    -0.273 OA
BRANCH   8  10
ATOM     10  N   UNL A   1      31.157  25.507  25.923  1.00  0.00    -0.230 N 
ATOM     11  C   UNL A   1      30.009  27.313  23.880  1.00  0.00     0.070 C 
ATOM     12  N   UNL A   1      29.779  25.838  24.578  1.00  0.00    -0.174 NA
ATOM     13  C   UNL A   1      31.640  28.174  24.469  1.00  0.00     0.086 C 
ATOM     14  C   UNL A   1      32.332  27.086  25.891  1.00  0.00     0.118 C 
BRANCH  11  15
ATOM     15  C   UNL A   1      29.254  28.323  23.053  1.00  0.00    -0.002 A 
ATOM     16  C   UNL A   1      28.176  32.256  21.996  1.00  0.00     0.044 C 
ATOM     17  C   UNL A   1      28.377  30.771  22.083  1.00  0.00    -0.051 A 
ATOM     18  C   UNL A   1      29.600  30.261  21.653  1.00  0.00     0.004 A 
ATOM     19  C   UNL A   1      27.489  29.939  22.786  1.00  0.00     0.004 A 
ATOM     20  C   UNL A   1      30.032  29.034  22.131  1.00  0.00     0.010 A 
ATOM     21  C   UNL A   1      27.915  28.683  23.253  1.00  0.00     0.010 A 
ENDBRANCH  11  15
BRANCH  14  22
ATOM     22  C   UNL A   1      32.578  28.137  27.028  1.00  0.00     0.045 C 
BRANCH  22  23
ATOM     23  C   UNL A   1      33.490  29.257  26.580  1.00  0.00     0.106 C 
ATOM     24  C   UNL A   1      34.865  28.907  27.008  1.00  0.00    -0.003 C 
ATOM     25  C   UNL A   1      32.994  30.618  27.083  1.00  0.00     0.253 C 
ATOM     26  C   UNL A   1      35.684  29.773  27.583  1.00  0.00    -0.003 A 
ATOM     27  N   UNL A   1      33.894  31.488  27.655  1.00  0.00    -0.212 NA
ATOM     28  O   UNL A   1      31.818  30.940  26.916  1.00  0.00    -0.272 OA
ATOM     29  C   UNL A   1      37.051  29.442  27.860  1.00  0.00     0.010 A 
ATOM     30  C   UNL A   1      35.109  31.110  27.889  1.00  0.00     0.077 A 
ATOM     31  C   UNL A   1      37.858  30.364  28.388  1.00  0.00     0.001 A 
ATOM     32  C   UNL A   1      36.071  32.045  28.558  1.00  0.00    -0.025 A 
ATOM     33  C   UNL A   1      37.347  31.664  28.758  1.00  0.00     0.005 A 
ATOM     34  C   UNL A   1      35.511  33.349  29.023  1.00  0.00     0.047 C 
ENDBRANCH  22  23
ENDBRANCH  14  22
ENDBRANCH   8  10
ENDBRANCH   7   8
ENDBRANCH   6   7
ENDBRANCH   3   6
ENDBRANCH   1   2
BRANCH   1  35
ATOM     35  C   UNL A   1      37.544  19.516  24.709  1.00  0.00     0.023 C 
BRANCH  35  36
ATOM     36  C   UNL A   1      39.205  19.288  25.697  1.00  0.00     0.023 C 
BRANCH  36  37
ATOM     37  C   UNL A   1      40.795  20.229  26.092  1.00  0.00     0.116 C 
BRANCH  37  38
ATOM     38  N   UNL A   1      41.664  21.885  25.987  1.00  0.00    -0.352 N 
ATOM     39  C   UNL A   1      41.769  23.585  26.296  1.00  0.00     0.251 C 
ATOM     40  H   UNL A   1      42.498  21.682  25.503  1.00  0.00     0.163 HD
ATOM     41  O   UNL A   1      42.981  23.915  26.352  1.00  0.00    -0.269 OA
BRANCH  39  42
ATOM     42  C   UNL A   1      40.662  25.048  26.689  1.00  0.00     0.039 A 
ATOM     43  C   UNL A   1      40.807  26.345  26.156  1.00  0.00     0.014 A 
ATOM     44  C   UNL A   1      39.925  25.345  27.902  1.00  0.00     0.014 A 
ATOM     45  C   UNL A   1      40.720  27.579  27.060  1.00  0.00     0.010 A 
ATOM     46  C   UNL A   1      39.561  26.467  28.700  1.00  0.00     0.010 A 
ATOM     47  C   UNL A   1      40.351  27.529  28.442  1.00  0.00    -0.014 A 
BRANCH  47  48
ATOM     48  C   UNL A   1      41.007  28.155  29.682  1.00  0.00     0.031 A 
ATOM     49  C   UNL A   1      40.168  28.977  30.560  1.00  0.00     0.074 A 
ATOM     50  C   UNL A   1      42.247  27.934  30.241  1.00  0.00     0.049 A 
ATOM     51  N   UNL A   1      40.296  30.251  30.697  1.00  0.00    -0.248 NA
ATOM     52  C   UNL A   1      39.144  28.380  31.414  1.00  0.00     0.031 C 
ATOM     53  C   UNL A   1      42.961  28.630  31.336  1.00  0.00     0.029 A 
ATOM     54  N   UNL A   1      43.264  27.120  29.794  1.00  0.00    -0.354 N 
ATOM     55  C   UNL A   1      39.611  30.569  31.851  1.00  0.00     0.074 A 
ATOM     56  C   UNL A   1      38.731  29.447  32.108  1.00  0.00     0.031 C 
ATOM     57  C   UNL A   1      44.299  28.531  31.134  1.00  0.00     0.029 A 
ATOM     58  C   UNL A   1      44.515  27.739  29.939  1.00  0.00     0.049 A 
ATOM     59  H   UNL A   1      43.130  26.219  29.419  1.00  0.00     0.167 HD
ATOM     60  C   UNL A   1      40.051  31.566  32.674  1.00  0.00     0.031 A 
ATOM     61  C   UNL A   1      45.216  28.068  28.803  1.00  0.00     0.031 A 
ATOM     62  C   UNL A   1      41.426  31.961  32.327  1.00  0.00     0.049 A 
ATOM     63  C   UNL A   1      45.037  29.578  28.522  1.00  0.00     0.074 A 
ATOM     64  C   UNL A   1      42.638  31.759  32.971  1.00  0.00     0.029 A 
ATOM     65  N   UNL A   1      41.742  32.345  31.028  1.00  0.00    -0.354 N 
ATOM     66  N   UNL A   1      44.327  30.365  29.289  1.00  0.00    -0.248 NA
ATOM     67  C   UNL A   1      45.624  30.336  27.412  1.00  0.00     0.031 C 
ATOM     68  C   UNL A   1      43.681  31.938  32.019  1.00  0.00     0.029 A 
ATOM     69  C   UNL A   1      43.108  32.281  30.808  1.00  0.00     0.049 A 
ATOM     70  H   UNL A   1      41.081  32.625  30.354  1.00  0.00     0.167 HD
ATOM     71  C   UNL A   1      44.336  31.657  28.838  1.00  0.00     0.074 A 
ATOM     72  C   UNL A   1      45.183  31.589  27.659  1.00  0.00     0.031 C 
ATOM     73  C   UNL A   1      43.656  32.649  29.500  1.00  0.00     0.031 A 
BRANCH  60  74
ATOM     74  C   UNL A   1      39.386  31.954  33.982  1.00  0.00    -0.014 A 
ATOM     75  C   UNL A   1      39.426  31.073  35.082  1.00  0.00     0.010 A 
ATOM     76  C   UNL A   1      38.776  33.204  34.219  1.00  0.00     0.010 A 
ATOM     77  C   UNL A   1      38.840  31.389  36.318  1.00  0.00     0.020 A 
ATOM     78  C   UNL A   1      38.151  33.521  35.436  1.00  0.00     0.020 A 
ATOM     79  C   UNL A   1      38.191  32.609  36.484  1.00  0.00     0.054 A 
BRANCH  79  80
ATOM     80  S   UNL A   1      37.462  33.011  38.094  1.00  0.00     0.124 S 
ATOM     81  O   UNL A   1      38.258  34.158  38.523  1.00  0.00    -0.237 OA
ATOM     82  O   UNL A   1      36.074  33.300  37.746  1.00  0.00    -0.237 OA
ATOM     83  O   UNL A   1      37.662  31.793  38.879  1.00  0.00    -0.744 OA
ENDBRANCH  79  80
ENDBRANCH  60  74
BRANCH  61  84
ATOM     84  C   UNL A   1      45.152  26.910  27.780  1.00  0.00    -0.014 A 
ATOM     85  C   UNL A   1      44.454  27.148  26.571  1.00  0.00     0.010 A 
ATOM     86  C   UNL A   1      46.350  26.287  27.580  1.00  0.00     0.010 A 
ATOM     87  C   UNL A   1      45.116  27.254  25.276  1.00  0.00     0.020 A 
ATOM     88  C   UNL A   1      46.987  26.639  26.345  1.00  0.00     0.020 A 
ATOM     89  C   UNL A   1      46.506  27.071  25.106  1.00  0.00     0.054 A 
BRANCH  89  90
ATOM     90  S   UNL A   1      47.940  27.389  23.401  1.00  0.00     0.124 S 
ATOM     91  O   UNL A   1      48.287  26.141  22.702  1.00  0.00    -0.237 OA
ATOM     92  O   UNL A   1      47.614  28.237  22.278  1.00  0.00    -0.237 OA
ATOM     93  O   UNL A   1      48.934  27.927  24.310  1.00  0.00    -0.744 OA
ENDBRANCH  89  90
ENDBRANCH  61  84
BRANCH  73  94
ATOM     94  C   UNL A   1      43.485  34.100  29.083  1.00  0.00    -0.014 A 
ATOM     95  C   UNL A   1      43.450  35.193  29.954  1.00  0.00     0.010 A 
ATOM     96  C   UNL A   1      43.416  34.403  27.694  1.00  0.00     0.010 A 
ATOM     97  C   UNL A   1      43.293  36.505  29.472  1.00  0.00     0.020 A 
ATOM     98  C   UNL A   1      43.322  35.704  27.198  1.00  0.00     0.020 A 
ATOM     99  C   UNL A   1      43.230  36.751  28.098  1.00  0.00     0.054 A 
BRANCH  99 100
ATOM    100  S   UNL A   1      43.050  38.449  27.505  1.00  0.00     0.124 S 
ATOM    101  O   UNL A   1      42.952  39.194  28.757  1.00  0.00    -0.237 OA
ATOM    102  O   UNL A   1      44.283  38.654  26.749  1.00  0.00    -0.237 OA
ATOM    103  O   UNL A   1      41.832  38.413  26.702  1.00  0.00    -0.744 OA
ENDBRANCH  99 100
ENDBRANCH  73  94
ENDBRANCH  47  48
ENDBRANCH  39  42
ENDBRANCH  37  38
ENDBRANCH  36  37
ENDBRANCH  35  36
ENDBRANCH   1  35
TORSDOF 20
ENDMDL
MODEL 2
REMARK VINA RESULT:     -15.8      3.622      9.523
REMARK SMILES Cc1ccc(C2=NN(C(=O)CCC(=O)NCCCCNC(=O)c3ccc(-c4c5nc(c(-c6ccc(S(=O)(=O)[O-])cc6)c6ccc([nH]6)c(-c6ccc(S(=O)(=O)[O-])cc6)c6nc(c(-c7ccc(S(=O)(=O)[O-])cc7)c7ccc4[nH]7)C=C6)C=C5)cc3)[C@H](C[C@@H]3C=c4cccc(C)c4=NC3=O)C2)cc1
REMARK SMILES IDX 16 1 15 2 13 3 14 4 12 6 11 7 9 8 10 9 8 10 6 11 7 12 97 13
REMARK SMILES IDX 83 14 5 15 1 16 2 17 3 18 99 19 4 20 98 21 84 22 85 23 86 24
REMARK SMILES IDX 95 25 87 26 94 27 96 28 88 29 93 30 89 31 91 32 90 33 92 34
REMARK SMILES IDX 17 35 18 36 19 37 20 38 21 39 22 41 23 42 24 43 82 44 25 45
REMARK SMILES IDX 81 46 26 47 27 48 28 49 75 50 29 51 80 52 74 53 76 54 30 55
REMARK SMILES IDX 79 56 73 57 72 58 31 60 61 61 42 62 60 63 43 64 46 65 59 66
REMARK SMILES IDX 77 67 44 68 45 69 58 71 78 72 47 73 32 74 33 75 41 76 34 77
REMARK SMILES IDX 40 78 35 79 36 80 37 81 38 82 39 83 62 84 63 85 71 86 64 87
REMARK SMILES IDX 70 88 65 89 66 90 67 91 68 92 69 93 48 94 49 95 57 96 50 97
REMARK SMILES IDX 56 98 51 99 52 100 53 101 54 102 55 103
REMARK H PARENT 15 5 20 40 76 59 46 70
REMARK Flexibility Score: inf
ROOT
ATOM      1  C   UNL A   1      33.219  21.504  26.961  1.00  0.00     0.116 C 
ENDROOT
BRANCH   1   2
ATOM      2  N   UNL A   1      31.884  22.282  27.331  1.00  0.00    -0.356 N 
ATOM      3  C   UNL A   1      31.047  23.182  26.737  1.00  0.00     0.220 C 
ATOM      4  O   UNL A   1      30.063  23.536  27.401  1.00  0.00    -0.275 OA
ATOM      5  H   UNL A   1      31.577  22.053  28.237  1.00  0.00     0.163 HD
BRANCH   3   6
ATOM      6  C   UNL A   1      31.247  23.784  25.355  1.00  0.00     0.110 C 
BRANCH   6   7
ATOM      7  C   UNL A   1      32.599  24.387  25.055  1.00  0.00     0.112 C 
BRANCH   7   8
ATOM      8  C   UNL A   1      32.530  25.169  23.767  1.00  0.00     0.243 C 
ATOM      9  O   UNL A   1      32.938  24.706  22.710  1.00  0.00    -0.273 OA
BRANCH   8  10
ATOM     10  N   UNL A   1      32.013  26.425  23.986  1.00  0.00    -0.230 N 
ATOM     11  C   UNL A   1      30.298  28.675  23.119  1.00  0.00     0.070 C 
ATOM     12  N   UNL A   1      30.437  27.036  23.005  1.00  0.00    -0.174 NA
ATOM     13  C   UNL A   1      31.801  29.494  24.024  1.00  0.00     0.086 C 
ATOM     14  C   UNL A   1      32.859  28.047  24.712  1.00  0.00     0.118 C 
BRANCH  11  15
ATOM     15  C   UNL A   1      29.268  29.757  22.911  1.00  0.00    -0.002 A 
ATOM     16  C   UNL A   1      27.761  33.179  20.969  1.00  0.00     0.044 C 
ATOM     17  C   UNL A   1      27.982  31.961  21.820  1.00  0.00    -0.051 A 
ATOM     18  C   UNL A   1      27.851  30.716  21.206  1.00  0.00     0.004 A 
ATOM     19  C   UNL A   1      28.536  32.042  23.108  1.00  0.00     0.004 A 
ATOM     20  C   UNL A   1      28.486  29.616  21.758  1.00  0.00     0.010 A 
ATOM     21  C   UNL A   1      29.160  30.922  23.683  1.00  0.00     0.010 A 
ENDBRANCH  11  15
BRANCH  14  22
ATOM     22  C   UNL A   1      33.048  28.456  26.214  1.00  0.00     0.045 C 
BRANCH  22  23
ATOM     23  C   UNL A   1      33.986  29.630  26.371  1.00  0.00     0.106 C 
ATOM     24  C   UNL A   1      35.273  29.104  26.884  1.00  0.00    -0.003 C 
ATOM     25  C   UNL A   1      33.361  30.735  27.232  1.00  0.00     0.253 C 
ATOM     26  C   UNL A   1      35.945  29.678  27.869  1.00  0.00    -0.003 A 
ATOM     27  N   UNL A   1      34.113  31.310  28.230  1.00  0.00    -0.212 NA
ATOM     28  O   UNL A   1      32.224  31.134  26.984  1.00  0.00    -0.272 OA
ATOM     29  C   UNL A   1      37.251  29.224  28.250  1.00  0.00     0.010 A 
ATOM     30  C   UNL A   1      35.279  30.833  28.527  1.00  0.00     0.077 A 
ATOM     31  C   UNL A   1      37.918  29.867  29.210  1.00  0.00     0.001 A 
ATOM     32  C   UNL A   1      36.073  31.432  29.650  1.00  0.00    -0.025 A 
ATOM     33  C   UNL A   1      37.304  30.962  29.925  1.00  0.00     0.005 A 
ATOM     34  C   UNL A   1      35.393  32.499  30.443  1.00  0.00     0.047 C 
ENDBRANCH  22  23
ENDBRANCH  14  22
ENDBRANCH   8  10
ENDBRANCH   7   8
ENDBRANCH   6   7
ENDBRANCH   3   6
ENDBRANCH   1   2
BRANCH   1  35
ATOM     35  C   UNL A   1      34.702  21.597  25.246  1.00  0.00     0.023 C 
BRANCH  35  36
ATOM     36  C   UNL A   1      36.398  20.664  25.046  1.00  0.00     0.023 C 
BRANCH  36  37
ATOM     37  C   UNL A   1      38.253  20.988  25.189  1.00  0.00     0.116 C 
BRANCH  37  38
ATOM     38  N   UNL A   1      39.601  21.760  26.237  1.00  0.00    -0.352 N 
ATOM     39  C   UNL A   1      40.264  23.060  27.168  1.00  0.00     0.251 C 
ATOM     40  H   UNL A   1      40.292  21.060  26.283  1.00  0.00     0.163 HD
ATOM     41  O   UNL A   1      41.052  22.586  28.025  1.00  0.00    -0.269 OA
BRANCH  39  42
ATOM     42  C   UNL A   1      40.090  24.916  27.379  1.00  0.00     0.039 A 
ATOM     43  C   UNL A   1      40.447  25.882  26.418  1.00  0.00     0.014 A 
ATOM     44  C   UNL A   1      40.152  25.715  28.588  1.00  0.00     0.014 A 
ATOM     45  C   UNL A   1      41.245  27.128  26.816  1.00  0.00     0.010 A 
ATOM     46  C   UNL A   1      40.636  26.980  29.024  1.00  0.00     0.010 A 
ATOM     47  C   UNL A   1      41.554  27.476  28.169  1.00  0.00    -0.014 A 
BRANCH  47  48
ATOM     48  C   UNL A   1      42.880  27.891  28.825  1.00  0.00     0.031 A 
ATOM     49  C   UNL A   1      44.109  27.240  28.359  1.00  0.00     0.074 A 
ATOM     50  C   UNL A   1      43.162  28.931  29.683  1.00  0.00     0.049 A 
ATOM     51  N   UNL A   1      44.806  26.422  29.068  1.00  0.00    -0.248 NA
ATOM     52  C   UNL A   1      44.676  27.534  27.045  1.00  0.00     0.031 C 
ATOM     53  C   UNL A   1      44.388  29.260  30.448  1.00  0.00     0.029 A 
ATOM     54  N   UNL A   1      42.302  29.856  30.232  1.00  0.00    -0.354 N 
ATOM     55  C   UNL A   1      46.032  26.343  28.440  1.00  0.00     0.074 A 
ATOM     56  C   UNL A   1      45.819  26.838  27.095  1.00  0.00     0.031 C 
ATOM     57  C   UNL A   1      44.045  29.927  31.579  1.00  0.00     0.029 A 
ATOM     58  C   UNL A   1      42.606  30.100  31.580  1.00  0.00     0.049 A 
ATOM     59  H   UNL A   1      41.566  30.291  29.741  1.00  0.00     0.167 HD
ATOM     60  C   UNL A   1      47.180  26.189  29.163  1.00  0.00     0.031 A 
ATOM     61  C   UNL A   1      41.694  29.716  32.535  1.00  0.00     0.031 A 
ATOM     62  C   UNL A   1      46.936  26.446  30.592  1.00  0.00     0.049 A 
ATOM     63  C   UNL A   1      42.158  28.383  33.167  1.00  0.00     0.074 A 
ATOM     64  C   UNL A   1      47.304  27.496  31.421  1.00  0.00     0.029 A 
ATOM     65  N   UNL A   1      45.939  25.754  31.271  1.00  0.00    -0.354 N 
ATOM     66  N   UNL A   1      43.261  27.775  32.813  1.00  0.00    -0.248 NA
ATOM     67  C   UNL A   1      41.477  27.635  34.228  1.00  0.00     0.031 C 
ATOM     68  C   UNL A   1      46.455  27.477  32.563  1.00  0.00     0.029 A 
ATOM     69  C   UNL A   1      45.595  26.401  32.446  1.00  0.00     0.049 A 
ATOM     70  H   UNL A   1      45.531  24.914  30.957  1.00  0.00     0.167 HD
ATOM     71  C   UNL A   1      43.460  26.626  33.528  1.00  0.00     0.074 A 
ATOM     72  C   UNL A   1      42.314  26.591  34.420  1.00  0.00     0.031 C 
ATOM     73  C   UNL A   1      44.562  25.835  33.318  1.00  0.00     0.031 A 
BRANCH  60  74
ATOM     74  C   UNL A   1      48.572  26.137  28.561  1.00  0.00    -0.014 A 
ATOM     75  C   UNL A   1      49.060  24.933  28.013  1.00  0.00     0.010 A 
ATOM     76  C   UNL A   1      49.419  27.259  28.430  1.00  0.00     0.010 A 
ATOM     77  C   UNL A   1      50.334  24.835  27.431  1.00  0.00     0.020 A 
ATOM     78  C   UNL A   1      50.711  27.170  27.887  1.00  0.00     0.020 A 
ATOM     79  C   UNL A   1      51.160  25.954  27.384  1.00  0.00     0.054 A 
BRANCH  79  80
ATOM     80  S   UNL A   1      52.792  25.815  26.607  1.00  0.00     0.124 S 
ATOM     81  O   UNL A   1      52.704  24.531  25.916  1.00  0.00    -0.237 OA
ATOM     82  O   UNL A   1      52.831  26.994  25.747  1.00  0.00    -0.237 OA
ATOM     83  O   UNL A   1      53.719  25.844  27.739  1.00  0.00    -0.744 OA
ENDBRANCH  79  80
ENDBRANCH  60  74
BRANCH  61  84
ATOM     84  C   UNL A   1      40.261  30.092  32.088  1.00  0.00    -0.014 A 
ATOM     85  C   UNL A   1      39.185  29.444  32.742  1.00  0.00     0.010 A 
ATOM     86  C   UNL A   1      40.063  31.436  31.957  1.00  0.00     0.010 A 
ATOM     87  C   UNL A   1      38.273  30.131  33.649  1.00  0.00     0.020 A 
ATOM     88  C   UNL A   1      39.312  32.018  33.030  1.00  0.00     0.020 A 
ATOM     89  C   UNL A   1      38.348  31.516  33.911  1.00  0.00     0.054 A 
BRANCH  89  90
ATOM     90  S   UNL A   1      37.356  32.899  35.384  1.00  0.00     0.124 S 
ATOM     91  O   UNL A   1      38.068  34.177  35.541  1.00  0.00    -0.237 OA
ATOM     92  O   UNL A   1      36.005  33.373  35.193  1.00  0.00    -0.237 OA
ATOM     93  O   UNL A   1      37.522  31.922  36.443  1.00  0.00    -0.744 OA
ENDBRANCH  89  90
ENDBRANCH  61  84
BRANCH  73  94
ATOM     94  C   UNL A   1      44.880  24.490  33.951  1.00  0.00    -0.014 A 
ATOM     95  C   UNL A   1      43.986  23.422  34.073  1.00  0.00     0.010 A 
ATOM     96  C   UNL A   1      46.208  24.252  34.406  1.00  0.00     0.010 A 
ATOM     97  C   UNL A   1      44.376  22.210  34.669  1.00  0.00     0.020 A 
ATOM     98  C   UNL A   1      46.625  23.034  34.944  1.00  0.00     0.020 A 
ATOM     99  C   UNL A   1      45.692  22.024  35.101  1.00  0.00     0.054 A 
BRANCH  99 100
ATOM    100  S   UNL A   1      46.171  20.449  35.845  1.00  0.00     0.124 S 
ATOM    101  O   UNL A   1      45.441  19.492  35.017  1.00  0.00    -0.237 OA
ATOM    102  O   UNL A   1      47.622  20.445  35.676  1.00  0.00    -0.237 OA
ATOM    103  O   UNL A   1      45.711  20.558  37.227  1.00  0.00    -0.744 OA
ENDBRANCH  99 100
ENDBRANCH  73  94
ENDBRANCH  47  48
ENDBRANCH  39  42
ENDBRANCH  37  38
ENDBRANCH  36  37
ENDBRANCH  35  36
ENDBRANCH   1  35
TORSDOF 20
ENDMDL
MODEL 3
REMARK VINA RESULT:     -15.8      4.104      7.926
REMARK SMILES Cc1ccc(C2=NN(C(=O)CCC(=O)NCCCCNC(=O)c3ccc(-c4c5nc(c(-c6ccc(S(=O)(=O)[O-])cc6)c6ccc([nH]6)c(-c6ccc(S(=O)(=O)[O-])cc6)c6nc(c(-c7ccc(S(=O)(=O)[O-])cc7)c7ccc4[nH]7)C=C6)C=C5)cc3)[C@H](C[C@@H]3C=c4cccc(C)c4=NC3=O)C2)cc1
REMARK SMILES IDX 16 1 15 2 13 3 14 4 12 6 11 7 9 8 10 9 8 10 6 11 7 12 97 13
REMARK SMILES IDX 83 14 5 15 1 16 2 17 3 18 99 19 4 20 98 21 84 22 85 23 86 24
REMARK SMILES IDX 95 25 87 26 94 27 96 28 88 29 93 30 89 31 91 32 90 33 92 34
REMARK SMILES IDX 17 35 18 36 19 37 20 38 21 39 22 41 23 42 24 43 82 44 25 45
REMARK SMILES IDX 81 46 26 47 27 48 28 49 75 50 29 51 80 52 74 53 76 54 30 55
REMARK SMILES IDX 79 56 73 57 72 58 31 60 61 61 42 62 60 63 43 64 46 65 59 66
REMARK SMILES IDX 77 67 44 68 45 69 58 71 78 72 47 73 32 74 33 75 41 76 34 77
REMARK SMILES IDX 40 78 35 79 36 80 37 81 38 82 39 83 62 84 63 85 71 86 64 87
REMARK SMILES IDX 70 88 65 89 66 90 67 91 68 92 69 93 48 94 49 95 57 96 50 97
REMARK SMILES IDX 56 98 51 99 52 100 53 101 54 102 55 103
REMARK H PARENT 15 5 20 40 76 59 46 70
REMARK Flexibility Score: inf
ROOT
ATOM      1  C   UNL A   1      33.583  21.842  27.226  1.00  0.00     0.116 C 
ENDROOT
BRANCH   1   2
ATOM      2  N   UNL A   1      32.045  22.202  27.397  1.00  0.00    -0.356 N 
ATOM      3  C   UNL A   1      31.171  23.138  26.922  1.00  0.00     0.220 C 
ATOM      4  O   UNL A   1      30.001  23.043  27.315  1.00  0.00    -0.275 OA
ATOM      5  H   UNL A   1      31.599  21.579  28.015  1.00  0.00     0.163 HD
BRANCH   3   6
ATOM      6  C   UNL A   1      31.534  24.276  25.982  1.00  0.00     0.110 C 
BRANCH   6   7
ATOM      7  C   UNL A   1      32.806  25.036  26.278  1.00  0.00     0.112 C 
BRANCH   7   8
ATOM      8  C   UNL A   1      33.195  25.859  25.076  1.00  0.00     0.243 C 
ATOM      9  O   UNL A   1      34.028  25.466  24.268  1.00  0.00    -0.273 OA
BRANCH   8  10
ATOM     10  N   UNL A   1      32.536  27.066  25.076  1.00  0.00    -0.230 N 
ATOM     11  C   UNL A   1      30.660  28.960  23.791  1.00  0.00     0.070 C 
ATOM     12  N   UNL A   1      30.977  27.348  23.931  1.00  0.00    -0.174 NA
ATOM     13  C   UNL A   1      32.001  30.065  24.644  1.00  0.00     0.086 C 
ATOM     14  C   UNL A   1      33.153  28.860  25.597  1.00  0.00     0.118 C 
BRANCH  11  15
ATOM     15  C   UNL A   1      29.540  29.877  23.368  1.00  0.00    -0.002 A 
ATOM     16  C   UNL A   1      27.796  32.742  20.818  1.00  0.00     0.044 C 
ATOM     17  C   UNL A   1      28.096  31.717  21.873  1.00  0.00    -0.051 A 
ATOM     18  C   UNL A   1      28.116  30.379  21.482  1.00  0.00     0.004 A 
ATOM     19  C   UNL A   1      28.578  32.073  23.143  1.00  0.00     0.004 A 
ATOM     20  C   UNL A   1      28.830  29.461  22.235  1.00  0.00     0.010 A 
ATOM     21  C   UNL A   1      29.282  31.138  23.922  1.00  0.00     0.010 A 
ENDBRANCH  11  15
BRANCH  14  22
ATOM     22  C   UNL A   1      33.192  29.498  27.029  1.00  0.00     0.045 C 
BRANCH  22  23
ATOM     23  C   UNL A   1      34.421  30.351  27.240  1.00  0.00     0.106 C 
ATOM     24  C   UNL A   1      35.442  29.504  27.902  1.00  0.00    -0.003 C 
ATOM     25  C   UNL A   1      34.084  31.644  27.992  1.00  0.00     0.253 C 
ATOM     26  C   UNL A   1      36.165  29.917  28.930  1.00  0.00    -0.003 A 
ATOM     27  N   UNL A   1      34.882  32.036  29.041  1.00  0.00    -0.212 NA
ATOM     28  O   UNL A   1      33.144  32.344  27.613  1.00  0.00    -0.272 OA
ATOM     29  C   UNL A   1      37.236  29.124  29.460  1.00  0.00     0.010 A 
ATOM     30  C   UNL A   1      35.821  31.257  29.474  1.00  0.00     0.077 A 
ATOM     31  C   UNL A   1      37.978  29.603  30.461  1.00  0.00     0.001 A 
ATOM     32  C   UNL A   1      36.655  31.667  30.650  1.00  0.00    -0.025 A 
ATOM     33  C   UNL A   1      37.660  30.875  31.068  1.00  0.00     0.005 A 
ATOM     34  C   UNL A   1      36.260  32.937  31.330  1.00  0.00     0.047 C 
ENDBRANCH  22  23
ENDBRANCH  14  22
ENDBRANCH   8  10
ENDBRANCH   7   8
ENDBRANCH   6   7
ENDBRANCH   3   6
ENDBRANCH   1   2
BRANCH   1  35
ATOM     35  C   UNL A   1      35.056  21.896  25.500  1.00  0.00     0.023 C 
BRANCH  35  36
ATOM     36  C   UNL A   1      37.000  21.955  25.556  1.00  0.00     0.023 C 
BRANCH  36  37
ATOM     37  C   UNL A   1      38.397  23.073  26.162  1.00  0.00     0.116 C 
BRANCH  37  38
ATOM     38  N   UNL A   1      38.959  24.223  27.530  1.00  0.00    -0.352 N 
ATOM     39  C   UNL A   1      39.461  25.770  28.124  1.00  0.00     0.251 C 
ATOM     40  H   UNL A   1      38.978  23.647  28.328  1.00  0.00     0.163 HD
ATOM     41  O   UNL A   1      39.158  25.856  29.341  1.00  0.00    -0.269 OA
BRANCH  39  42
ATOM     42  C   UNL A   1      40.194  27.382  27.504  1.00  0.00     0.039 A 
ATOM     43  C   UNL A   1      40.875  27.551  26.282  1.00  0.00     0.014 A 
ATOM     44  C   UNL A   1      40.731  28.498  28.258  1.00  0.00     0.014 A 
ATOM     45  C   UNL A   1      42.194  28.326  26.219  1.00  0.00     0.010 A 
ATOM     46  C   UNL A   1      41.787  29.449  28.179  1.00  0.00     0.010 A 
ATOM     47  C   UNL A   1      42.750  29.043  27.325  1.00  0.00    -0.014 A 
BRANCH  47  48
ATOM     48  C   UNL A   1      44.169  29.044  27.914  1.00  0.00     0.031 A 
ATOM     49  C   UNL A   1      45.006  30.226  27.686  1.00  0.00     0.074 A 
ATOM     50  C   UNL A   1      44.765  28.176  28.804  1.00  0.00     0.049 A 
ATOM     51  N   UNL A   1      46.055  30.236  26.940  1.00  0.00    -0.248 NA
ATOM     52  C   UNL A   1      44.734  31.494  28.361  1.00  0.00     0.031 C 
ATOM     53  C   UNL A   1      46.168  28.064  29.265  1.00  0.00     0.029 A 
ATOM     54  N   UNL A   1      44.252  27.028  29.365  1.00  0.00    -0.354 N 
ATOM     55  C   UNL A   1      46.743  31.381  27.288  1.00  0.00     0.074 A 
ATOM     56  C   UNL A   1      45.784  32.226  27.968  1.00  0.00     0.031 C 
ATOM     57  C   UNL A   1      46.430  26.773  29.594  1.00  0.00     0.029 A 
ATOM     58  C   UNL A   1      45.214  26.007  29.407  1.00  0.00     0.049 A 
ATOM     59  H   UNL A   1      43.328  26.935  29.695  1.00  0.00     0.167 HD
ATOM     60  C   UNL A   1      48.109  31.406  27.280  1.00  0.00     0.031 A 
ATOM     61  C   UNL A   1      45.012  24.888  28.633  1.00  0.00     0.031 A 
ATOM     62  C   UNL A   1      48.655  30.042  27.185  1.00  0.00     0.049 A 
ATOM     63  C   UNL A   1      45.878  24.996  27.357  1.00  0.00     0.074 A 
ATOM     64  C   UNL A   1      49.306  29.238  28.109  1.00  0.00     0.029 A 
ATOM     65  N   UNL A   1      48.265  29.197  26.151  1.00  0.00    -0.354 N 
ATOM     66  N   UNL A   1      46.667  26.012  27.118  1.00  0.00    -0.248 NA
ATOM     67  C   UNL A   1      45.964  24.013  26.273  1.00  0.00     0.031 C 
ATOM     68  C   UNL A   1      49.221  27.890  27.662  1.00  0.00     0.029 A 
ATOM     69  C   UNL A   1      48.551  27.876  26.452  1.00  0.00     0.049 A 
ATOM     70  H   UNL A   1      47.840  29.499  25.316  1.00  0.00     0.167 HD
ATOM     71  C   UNL A   1      47.338  25.866  25.934  1.00  0.00     0.074 A 
ATOM     72  C   UNL A   1      46.872  24.579  25.447  1.00  0.00     0.031 C 
ATOM     73  C   UNL A   1      48.223  26.819  25.493  1.00  0.00     0.031 A 
BRANCH  60  74
ATOM     74  C   UNL A   1      48.946  32.604  27.687  1.00  0.00    -0.014 A 
ATOM     75  C   UNL A   1      49.912  33.125  26.801  1.00  0.00     0.010 A 
ATOM     76  C   UNL A   1      48.775  33.313  28.895  1.00  0.00     0.010 A 
ATOM     77  C   UNL A   1      50.702  34.239  27.124  1.00  0.00     0.020 A 
ATOM     78  C   UNL A   1      49.584  34.406  29.250  1.00  0.00     0.020 A 
ATOM     79  C   UNL A   1      50.543  34.867  28.356  1.00  0.00     0.054 A 
BRANCH  79  80
ATOM     80  S   UNL A   1      51.555  36.319  28.745  1.00  0.00     0.124 S 
ATOM     81  O   UNL A   1      52.905  35.852  28.445  1.00  0.00    -0.237 OA
ATOM     82  O   UNL A   1      51.019  37.327  27.835  1.00  0.00    -0.237 OA
ATOM     83  O   UNL A   1      51.286  36.560  30.163  1.00  0.00    -0.744 OA
ENDBRANCH  79  80
ENDBRANCH  60  74
BRANCH  61  84
ATOM     84  C   UNL A   1      43.537  24.430  28.729  1.00  0.00    -0.014 A 
ATOM     85  C   UNL A   1      42.752  24.517  27.554  1.00  0.00     0.010 A 
ATOM     86  C   UNL A   1      43.373  23.243  29.382  1.00  0.00     0.010 A 
ATOM     87  C   UNL A   1      42.281  23.348  26.820  1.00  0.00     0.020 A 
ATOM     88  C   UNL A   1      43.108  22.135  28.513  1.00  0.00     0.020 A 
ATOM     89  C   UNL A   1      42.519  22.025  27.250  1.00  0.00     0.054 A 
BRANCH  89  90
ATOM     90  S   UNL A   1      42.220  19.992  26.331  1.00  0.00     0.124 S 
ATOM     91  O   UNL A   1      42.420  18.893  27.290  1.00  0.00    -0.237 OA
ATOM     92  O   UNL A   1      40.961  19.599  25.741  1.00  0.00    -0.237 OA
ATOM     93  O   UNL A   1      43.292  20.238  25.386  1.00  0.00    -0.744 OA
ENDBRANCH  89  90
ENDBRANCH  61  84
BRANCH  73  94
ATOM     94  C   UNL A   1      48.968  26.857  24.169  1.00  0.00    -0.014 A 
ATOM     95  C   UNL A   1      48.374  26.818  22.904  1.00  0.00     0.010 A 
ATOM     96  C   UNL A   1      50.384  27.010  24.192  1.00  0.00     0.010 A 
ATOM     97  C   UNL A   1      49.150  26.866  21.733  1.00  0.00     0.020 A 
ATOM     98  C   UNL A   1      51.160  27.121  23.038  1.00  0.00     0.020 A 
ATOM     99  C   UNL A   1      50.537  27.017  21.807  1.00  0.00     0.054 A 
BRANCH  99 100
ATOM    100  S   UNL A   1      51.507  27.097  20.285  1.00  0.00     0.124 S 
ATOM    101  O   UNL A   1      51.966  28.484  20.294  1.00  0.00    -0.237 OA
ATOM    102  O   UNL A   1      52.543  26.093  20.514  1.00  0.00    -0.237 OA
ATOM    103  O   UNL A   1      50.546  26.764  19.237  1.00  0.00    -0.744 OA
ENDBRANCH  99 100
ENDBRANCH  73  94
ENDBRANCH  47  48
ENDBRANCH  39  42
ENDBRANCH  37  38
ENDBRANCH  36  37
ENDBRANCH  35  36
ENDBRANCH   1  35
TORSDOF 20
ENDMDL
