MODEL 1
REMARK VINA RESULT:     -10.1      0.000      0.000
REMARK SMILES O=C(CCNC(=O)N[C@@H]1CCOC1)NCCCCNC(=O)c1ccc(-c2c3nc(c(-c4ccc(S(=O)(=O)[O-])cc4)c4ccc([nH]4)c(-c4ccc(S(=O)(=O)[O-])cc4)c4nc(c(-c5ccc(S(=O)(=O)[O-])cc5)c5ccc2[nH]5)C=C4)C=C3)cc1
REMARK SMILES IDX 16 1 15 2 14 3 1 4 2 5 3 7 4 8 5 9 6 10 7 12 8 13 9 15 10 16
REMARK SMILES IDX 13 17 11 18 12 19 17 20 18 21 19 22 20 23 21 25 22 26 23 27
REMARK SMILES IDX 81 28 24 29 80 30 25 31 26 32 27 33 74 34 28 35 79 36 73 37
REMARK SMILES IDX 75 38 29 39 78 40 72 41 71 42 30 44 60 45 41 46 59 47 42 48
REMARK SMILES IDX 45 49 58 50 76 51 43 52 44 53 57 55 77 56 46 57 31 58 32 59
REMARK SMILES IDX 40 60 33 61 39 62 34 63 35 64 36 65 37 66 38 67 61 68 62 69
REMARK SMILES IDX 70 70 63 71 69 72 64 73 65 74 66 75 67 76 68 77 47 78 48 79
REMARK SMILES IDX 56 80 49 81 55 82 50 83 51 84 52 85 53 86 54 87
REMARK H PARENT 14 6 5 11 8 14 19 24 75 43 45 54
REMARK Flexibility Score: inf
ROOT
ATOM      1  C   UNL A   1      33.251  34.621  28.810  1.00  0.00     0.023 C 
ENDROOT
BRANCH   1   2
ATOM      2  C   UNL A   1      32.979  36.110  29.008  1.00  0.00     0.116 C 
BRANCH   2   3
ATOM      3  N   UNL A   1      33.642  36.612  30.193  1.00  0.00    -0.356 N 
ATOM      4  O   UNL A   1      31.786  36.632  31.551  1.00  0.00    -0.275 OA
ATOM      5  C   UNL A   1      32.981  36.842  31.374  1.00  0.00     0.221 C 
ATOM      6  H   UNL A   1      34.608  36.796  30.150  1.00  0.00     0.163 HD
BRANCH   5   7
ATOM      7  C   UNL A   1      33.874  37.359  32.475  1.00  0.00     0.121 C 
BRANCH   7   8
ATOM      8  C   UNL A   1      34.660  36.218  33.104  1.00  0.00     0.127 C 
BRANCH   8   9
ATOM      9  N   UNL A   1      33.875  34.996  33.228  1.00  0.00    -0.338 N 
ATOM     10  C   UNL A   1      34.131  33.702  33.455  1.00  0.00     0.315 C 
ATOM     11  H   UNL A   1      32.912  35.166  33.117  1.00  0.00     0.165 HD
ATOM     12  O   UNL A   1      33.197  32.912  33.315  1.00  0.00    -0.249 OA
ATOM     13  N   UNL A   1      35.323  33.226  33.833  1.00  0.00    -0.333 N 
ATOM     14  H   UNL A   1      35.360  32.243  33.883  1.00  0.00     0.165 HD
BRANCH  13  15
ATOM     15  C   UNL A   1      36.577  33.876  34.183  1.00  0.00     0.112 C 
ATOM     16  C   UNL A   1      37.534  33.848  33.012  1.00  0.00     0.056 C 
ATOM     17  C   UNL A   1      37.363  33.144  35.267  1.00  0.00     0.185 C 
ATOM     18  C   UNL A   1      38.287  32.550  33.218  1.00  0.00     0.162 C 
ATOM     19  O   UNL A   1      38.320  32.292  34.625  1.00  0.00    -0.379 OA
ENDBRANCH  13  15
ENDBRANCH   8   9
ENDBRANCH   7   8
ENDBRANCH   5   7
ENDBRANCH   2   3
ENDBRANCH   1   2
BRANCH   1  20
ATOM     20  C   UNL A   1      34.702  34.278  28.456  1.00  0.00     0.023 C 
BRANCH  20  21
ATOM     21  C   UNL A   1      35.183  32.915  28.940  1.00  0.00     0.116 C 
BRANCH  21  22
ATOM     22  N   UNL A   1      34.313  31.834  28.504  1.00  0.00    -0.352 N 
ATOM     23  C   UNL A   1      34.631  30.537  28.176  1.00  0.00     0.251 C 
ATOM     24  H   UNL A   1      33.359  32.064  28.434  1.00  0.00     0.163 HD
ATOM     25  O   UNL A   1      33.788  29.818  27.653  1.00  0.00    -0.269 OA
BRANCH  23  26
ATOM     26  C   UNL A   1      35.995  30.021  28.431  1.00  0.00     0.039 A 
ATOM     27  C   UNL A   1      36.943  30.086  27.406  1.00  0.00     0.014 A 
ATOM     28  C   UNL A   1      36.341  29.474  29.670  1.00  0.00     0.014 A 
ATOM     29  C   UNL A   1      38.254  29.663  27.646  1.00  0.00     0.010 A 
ATOM     30  C   UNL A   1      37.665  29.126  29.929  1.00  0.00     0.010 A 
ATOM     31  C   UNL A   1      38.636  29.214  28.921  1.00  0.00    -0.014 A 
BRANCH  31  32
ATOM     32  C   UNL A   1      40.046  28.848  29.219  1.00  0.00     0.031 A 
ATOM     33  C   UNL A   1      40.972  29.844  29.865  1.00  0.00     0.074 A 
ATOM     34  C   UNL A   1      40.510  27.636  28.854  1.00  0.00     0.049 A 
ATOM     35  N   UNL A   1      42.241  29.718  30.159  1.00  0.00    -0.248 NA
ATOM     36  C   UNL A   1      40.405  31.158  30.206  1.00  0.00     0.031 C 
ATOM     37  C   UNL A   1      39.725  26.592  28.190  1.00  0.00     0.029 A 
ATOM     38  N   UNL A   1      41.757  27.075  28.986  1.00  0.00    -0.354 N 
ATOM     39  C   UNL A   1      42.627  30.939  30.702  1.00  0.00     0.074 A 
ATOM     40  C   UNL A   1      41.471  31.806  30.653  1.00  0.00     0.031 C 
ATOM     41  C   UNL A   1      40.498  25.510  28.004  1.00  0.00     0.029 A 
ATOM     42  C   UNL A   1      41.845  25.796  28.488  1.00  0.00     0.049 A 
ATOM     43  H   UNL A   1      42.517  27.545  29.398  1.00  0.00     0.167 HD
ATOM     44  C   UNL A   1      43.830  31.300  31.209  1.00  0.00     0.031 A 
ATOM     45  C   UNL A   1      42.891  24.949  28.420  1.00  0.00     0.031 A 
ATOM     46  C   UNL A   1      44.978  30.432  31.260  1.00  0.00     0.049 A 
ATOM     47  C   UNL A   1      44.224  25.383  28.967  1.00  0.00     0.074 A 
ATOM     48  C   UNL A   1      46.224  30.687  31.808  1.00  0.00     0.029 A 
ATOM     49  N   UNL A   1      45.026  29.148  30.739  1.00  0.00    -0.354 N 
ATOM     50  N   UNL A   1      44.549  26.517  29.539  1.00  0.00    -0.248 NA
ATOM     51  C   UNL A   1      45.327  24.418  28.867  1.00  0.00     0.031 C 
ATOM     52  C   UNL A   1      47.044  29.582  31.559  1.00  0.00     0.029 A 
ATOM     53  C   UNL A   1      46.290  28.610  30.923  1.00  0.00     0.049 A 
ATOM     54  H   UNL A   1      44.275  28.686  30.303  1.00  0.00     0.167 HD
ATOM     55  C   UNL A   1      45.887  26.390  29.897  1.00  0.00     0.074 A 
ATOM     56  C   UNL A   1      46.304  25.064  29.489  1.00  0.00     0.031 C 
ATOM     57  C   UNL A   1      46.695  27.289  30.511  1.00  0.00     0.031 A 
BRANCH  44  58
ATOM     58  C   UNL A   1      43.975  32.704  31.740  1.00  0.00    -0.014 A 
ATOM     59  C   UNL A   1      43.706  33.008  33.087  1.00  0.00     0.010 A 
ATOM     60  C   UNL A   1      44.436  33.727  30.890  1.00  0.00     0.010 A 
ATOM     61  C   UNL A   1      43.856  34.313  33.563  1.00  0.00     0.020 A 
ATOM     62  C   UNL A   1      44.617  35.027  31.369  1.00  0.00     0.020 A 
ATOM     63  C   UNL A   1      44.311  35.315  32.701  1.00  0.00     0.054 A 
BRANCH  63  64
ATOM     64  S   UNL A   1      44.522  36.993  33.355  1.00  0.00     0.124 S 
ATOM     65  O   UNL A   1      45.795  37.392  32.758  1.00  0.00    -0.237 OA
ATOM     66  O   UNL A   1      43.344  37.687  32.841  1.00  0.00    -0.237 OA
ATOM     67  O   UNL A   1      44.546  36.803  34.803  1.00  0.00    -0.744 OA
ENDBRANCH  63  64
ENDBRANCH  44  58
BRANCH  45  68
ATOM     68  C   UNL A   1      42.715  23.596  27.823  1.00  0.00    -0.014 A 
ATOM     69  C   UNL A   1      42.251  22.524  28.607  1.00  0.00     0.010 A 
ATOM     70  C   UNL A   1      43.001  23.372  26.464  1.00  0.00     0.010 A 
ATOM     71  C   UNL A   1      42.094  21.252  28.049  1.00  0.00     0.020 A 
ATOM     72  C   UNL A   1      42.814  22.108  25.894  1.00  0.00     0.020 A 
ATOM     73  C   UNL A   1      42.373  21.054  26.694  1.00  0.00     0.054 A 
BRANCH  73  74
ATOM     74  S   UNL A   1      42.110  19.406  25.980  1.00  0.00     0.124 S 
ATOM     75  O   UNL A   1      40.669  19.399  25.753  1.00  0.00    -0.237 OA
ATOM     76  O   UNL A   1      42.941  19.448  24.779  1.00  0.00    -0.237 OA
ATOM     77  O   UNL A   1      42.585  18.501  27.025  1.00  0.00    -0.744 OA
ENDBRANCH  73  74
ENDBRANCH  45  68
BRANCH  57  78
ATOM     78  C   UNL A   1      48.107  26.860  30.820  1.00  0.00    -0.014 A 
ATOM     79  C   UNL A   1      49.185  27.235  29.998  1.00  0.00     0.010 A 
ATOM     80  C   UNL A   1      48.363  26.115  31.987  1.00  0.00     0.010 A 
ATOM     81  C   UNL A   1      50.487  26.844  30.319  1.00  0.00     0.020 A 
ATOM     82  C   UNL A   1      49.668  25.753  32.329  1.00  0.00     0.020 A 
ATOM     83  C   UNL A   1      50.722  26.107  31.484  1.00  0.00     0.054 A 
BRANCH  83  84
ATOM     84  S   UNL A   1      52.427  25.653  31.902  1.00  0.00     0.124 S 
ATOM     85  O   UNL A   1      52.731  26.583  32.986  1.00  0.00    -0.237 OA
ATOM     86  O   UNL A   1      52.298  24.251  32.294  1.00  0.00    -0.237 OA
ATOM     87  O   UNL A   1      53.162  25.883  30.661  1.00  0.00    -0.744 OA
ENDBRANCH  83  84
ENDBRANCH  57  78
ENDBRANCH  31  32
ENDBRANCH  23  26
ENDBRANCH  21  22
ENDBRANCH  20  21
ENDBRANCH   1  20
TORSDOF 17
ENDMDL
MODEL 2
REMARK VINA RESULT:      -9.7      4.494     12.683
REMARK SMILES O=C(CCNC(=O)N[C@@H]1CCOC1)NCCCCNC(=O)c1ccc(-c2c3nc(c(-c4ccc(S(=O)(=O)[O-])cc4)c4ccc([nH]4)c(-c4ccc(S(=O)(=O)[O-])cc4)c4nc(c(-c5ccc(S(=O)(=O)[O-])cc5)c5ccc2[nH]5)C=C4)C=C3)cc1
REMARK SMILES IDX 16 1 15 2 14 3 1 4 2 5 3 7 4 8 5 9 6 10 7 12 8 13 9 15 10 16
REMARK SMILES IDX 13 17 11 18 12 19 17 20 18 21 19 22 20 23 21 25 22 26 23 27
REMARK SMILES IDX 81 28 24 29 80 30 25 31 26 32 27 33 74 34 28 35 79 36 73 37
REMARK SMILES IDX 75 38 29 39 78 40 72 41 71 42 30 44 60 45 41 46 59 47 42 48
REMARK SMILES IDX 45 49 58 50 76 51 43 52 44 53 57 55 77 56 46 57 31 58 32 59
REMARK SMILES IDX 40 60 33 61 39 62 34 63 35 64 36 65 37 66 38 67 61 68 62 69
REMARK SMILES IDX 70 70 63 71 69 72 64 73 65 74 66 75 67 76 68 77 47 78 48 79
REMARK SMILES IDX 56 80 49 81 55 82 50 83 51 84 52 85 53 86 54 87
REMARK H PARENT 14 6 5 11 8 14 19 24 75 43 45 54
REMARK Flexibility Score: inf
ROOT
ATOM      1  C   UNL A   1      41.459  20.412  27.516  1.00  0.00     0.023 C 
ENDROOT
BRANCH   1   2
ATOM      2  C   UNL A   1      42.031  19.736  26.272  1.00  0.00     0.116 C 
BRANCH   2   3
ATOM      3  N   UNL A   1      43.433  20.050  26.102  1.00  0.00    -0.356 N 
ATOM      4  O   UNL A   1      43.132  21.996  24.912  1.00  0.00    -0.275 OA
ATOM      5  C   UNL A   1      43.870  21.160  25.421  1.00  0.00     0.221 C 
ATOM      6  H   UNL A   1      44.102  19.442  26.490  1.00  0.00     0.163 HD
BRANCH   5   7
ATOM      7  C   UNL A   1      45.373  21.286  25.374  1.00  0.00     0.121 C 
BRANCH   7   8
ATOM      8  C   UNL A   1      45.821  22.568  26.060  1.00  0.00     0.127 C 
BRANCH   8   9
ATOM      9  N   UNL A   1      44.944  22.954  27.159  1.00  0.00    -0.338 N 
ATOM     10  C   UNL A   1      44.685  24.077  27.840  1.00  0.00     0.315 C 
ATOM     11  H   UNL A   1      44.406  22.196  27.482  1.00  0.00     0.165 HD
ATOM     12  O   UNL A   1      43.985  23.973  28.847  1.00  0.00    -0.249 OA
ATOM     13  N   UNL A   1      45.126  25.290  27.487  1.00  0.00    -0.333 N 
ATOM     14  H   UNL A   1      44.908  25.997  28.137  1.00  0.00     0.165 HD
BRANCH  13  15
ATOM     15  C   UNL A   1      45.866  25.770  26.329  1.00  0.00     0.112 C 
ATOM     16  C   UNL A   1      46.598  27.051  26.661  1.00  0.00     0.056 C 
ATOM     17  C   UNL A   1      44.972  26.194  25.167  1.00  0.00     0.185 C 
ATOM     18  C   UNL A   1      45.587  28.123  26.311  1.00  0.00     0.162 C 
ATOM     19  O   UNL A   1      44.766  27.610  25.258  1.00  0.00    -0.379 OA
ENDBRANCH  13  15
ENDBRANCH   8   9
ENDBRANCH   7   8
ENDBRANCH   5   7
ENDBRANCH   2   3
ENDBRANCH   1   2
BRANCH   1  20
ATOM     20  C   UNL A   1      40.467  21.544  27.229  1.00  0.00     0.023 C 
BRANCH  20  21
ATOM     21  C   UNL A   1      40.970  22.946  27.556  1.00  0.00     0.116 C 
BRANCH  21  22
ATOM     22  N   UNL A   1      41.185  23.750  26.364  1.00  0.00    -0.352 N 
ATOM     23  C   UNL A   1      41.172  25.117  26.220  1.00  0.00     0.251 C 
ATOM     24  H   UNL A   1      41.368  23.241  25.542  1.00  0.00     0.163 HD
ATOM     25  O   UNL A   1      41.193  25.610  25.099  1.00  0.00    -0.269 OA
BRANCH  23  26
ATOM     26  C   UNL A   1      41.106  25.988  27.416  1.00  0.00     0.039 A 
ATOM     27  C   UNL A   1      42.105  26.947  27.607  1.00  0.00     0.014 A 
ATOM     28  C   UNL A   1      40.069  25.863  28.344  1.00  0.00     0.014 A 
ATOM     29  C   UNL A   1      42.027  27.821  28.695  1.00  0.00     0.010 A 
ATOM     30  C   UNL A   1      39.952  26.786  29.382  1.00  0.00     0.010 A 
ATOM     31  C   UNL A   1      40.930  27.774  29.571  1.00  0.00    -0.014 A 
BRANCH  31  32
ATOM     32  C   UNL A   1      40.783  28.755  30.678  1.00  0.00     0.031 A 
ATOM     33  C   UNL A   1      41.654  28.660  31.901  1.00  0.00     0.074 A 
ATOM     34  C   UNL A   1      39.824  29.700  30.607  1.00  0.00     0.049 A 
ATOM     35  N   UNL A   1      41.640  29.398  32.983  1.00  0.00    -0.248 NA
ATOM     36  C   UNL A   1      42.658  27.584  31.924  1.00  0.00     0.031 C 
ATOM     37  C   UNL A   1      38.891  29.879  29.491  1.00  0.00     0.029 A 
ATOM     38  N   UNL A   1      39.470  30.688  31.493  1.00  0.00    -0.354 N 
ATOM     39  C   UNL A   1      42.616  28.865  33.818  1.00  0.00     0.074 A 
ATOM     40  C   UNL A   1      43.171  27.715  33.139  1.00  0.00     0.031 C 
ATOM     41  C   UNL A   1      38.096  30.931  29.745  1.00  0.00     0.029 A 
ATOM     42  C   UNL A   1      38.426  31.472  31.060  1.00  0.00     0.049 A 
ATOM     43  H   UNL A   1      39.920  30.822  32.358  1.00  0.00     0.167 HD
ATOM     44  C   UNL A   1      43.025  29.303  35.033  1.00  0.00     0.031 A 
ATOM     45  C   UNL A   1      37.797  32.506  31.655  1.00  0.00     0.031 A 
ATOM     46  C   UNL A   1      42.474  30.452  35.704  1.00  0.00     0.049 A 
ATOM     47  C   UNL A   1      38.253  32.957  33.016  1.00  0.00     0.074 A 
ATOM     48  C   UNL A   1      42.861  31.009  36.911  1.00  0.00     0.029 A 
ATOM     49  N   UNL A   1      41.414  31.213  35.235  1.00  0.00    -0.354 N 
ATOM     50  N   UNL A   1      39.225  32.484  33.758  1.00  0.00    -0.248 NA
ATOM     51  C   UNL A   1      37.532  34.089  33.614  1.00  0.00     0.031 C 
ATOM     52  C   UNL A   1      41.993  32.066  37.202  1.00  0.00     0.029 A 
ATOM     53  C   UNL A   1      41.112  32.215  36.143  1.00  0.00     0.049 A 
ATOM     54  H   UNL A   1      40.945  31.064  34.382  1.00  0.00     0.167 HD
ATOM     55  C   UNL A   1      39.254  33.281  34.897  1.00  0.00     0.074 A 
ATOM     56  C   UNL A   1      38.211  34.274  34.738  1.00  0.00     0.031 C 
ATOM     57  C   UNL A   1      40.071  33.198  35.975  1.00  0.00     0.031 A 
BRANCH  44  58
ATOM     58  C   UNL A   1      44.117  28.528  35.728  1.00  0.00    -0.014 A 
ATOM     59  C   UNL A   1      45.474  28.846  35.536  1.00  0.00     0.010 A 
ATOM     60  C   UNL A   1      43.778  27.498  36.624  1.00  0.00     0.010 A 
ATOM     61  C   UNL A   1      46.471  28.124  36.196  1.00  0.00     0.020 A 
ATOM     62  C   UNL A   1      44.771  26.794  37.311  1.00  0.00     0.020 A 
ATOM     63  C   UNL A   1      46.113  27.101  37.081  1.00  0.00     0.054 A 
BRANCH  63  64
ATOM     64  S   UNL A   1      47.428  26.199  37.944  1.00  0.00     0.124 S 
ATOM     65  O   UNL A   1      48.286  27.287  38.408  1.00  0.00    -0.237 OA
ATOM     66  O   UNL A   1      46.696  25.489  38.989  1.00  0.00    -0.237 OA
ATOM     67  O   UNL A   1      48.008  25.350  36.906  1.00  0.00    -0.744 OA
ENDBRANCH  63  64
ENDBRANCH  44  58
BRANCH  45  68
ATOM     68  C   UNL A   1      36.677  33.196  30.956  1.00  0.00    -0.014 A 
ATOM     69  C   UNL A   1      35.394  33.237  31.530  1.00  0.00     0.010 A 
ATOM     70  C   UNL A   1      36.889  33.826  29.716  1.00  0.00     0.010 A 
ATOM     71  C   UNL A   1      34.342  33.878  30.871  1.00  0.00     0.020 A 
ATOM     72  C   UNL A   1      35.847  34.496  29.068  1.00  0.00     0.020 A 
ATOM     73  C   UNL A   1      34.576  34.507  29.645  1.00  0.00     0.054 A 
BRANCH  73  74
ATOM     74  S   UNL A   1      33.206  35.378  28.834  1.00  0.00     0.124 S 
ATOM     75  O   UNL A   1      32.440  35.870  29.974  1.00  0.00    -0.237 OA
ATOM     76  O   UNL A   1      33.902  36.398  28.051  1.00  0.00    -0.237 OA
ATOM     77  O   UNL A   1      32.556  34.334  28.044  1.00  0.00    -0.744 OA
ENDBRANCH  73  74
ENDBRANCH  45  68
BRANCH  57  78
ATOM     78  C   UNL A   1      39.904  34.235  37.057  1.00  0.00    -0.014 A 
ATOM     79  C   UNL A   1      40.570  35.472  36.998  1.00  0.00     0.010 A 
ATOM     80  C   UNL A   1      39.020  33.984  38.124  1.00  0.00     0.010 A 
ATOM     81  C   UNL A   1      40.380  36.425  38.002  1.00  0.00     0.020 A 
ATOM     82  C   UNL A   1      38.802  34.948  39.111  1.00  0.00     0.020 A 
ATOM     83  C   UNL A   1      39.495  36.158  39.052  1.00  0.00     0.054 A 
BRANCH  83  84
ATOM     84  S   UNL A   1      39.231  37.431  40.317  1.00  0.00     0.124 S 
ATOM     85  O   UNL A   1      40.585  37.940  40.522  1.00  0.00    -0.237 OA
ATOM     86  O   UNL A   1      38.307  38.350  39.658  1.00  0.00    -0.237 OA
ATOM     87  O   UNL A   1      38.669  36.689  41.444  1.00  0.00    -0.744 OA
ENDBRANCH  83  84
ENDBRANCH  57  78
ENDBRANCH  31  32
ENDBRANCH  23  26
ENDBRANCH  21  22
ENDBRANCH  20  21
ENDBRANCH   1  20
TORSDOF 17
ENDMDL
MODEL 3
REMARK VINA RESULT:      -9.5      4.693     11.518
REMARK SMILES O=C(CCNC(=O)N[C@@H]1CCOC1)NCCCCNC(=O)c1ccc(-c2c3nc(c(-c4ccc(S(=O)(=O)[O-])cc4)c4ccc([nH]4)c(-c4ccc(S(=O)(=O)[O-])cc4)c4nc(c(-c5ccc(S(=O)(=O)[O-])cc5)c5ccc2[nH]5)C=C4)C=C3)cc1
REMARK SMILES IDX 16 1 15 2 14 3 1 4 2 5 3 7 4 8 5 9 6 10 7 12 8 13 9 15 10 16
REMARK SMILES IDX 13 17 11 18 12 19 17 20 18 21 19 22 20 23 21 25 22 26 23 27
REMARK SMILES IDX 81 28 24 29 80 30 25 31 26 32 27 33 74 34 28 35 79 36 73 37
REMARK SMILES IDX 75 38 29 39 78 40 72 41 71 42 30 44 60 45 41 46 59 47 42 48
REMARK SMILES IDX 45 49 58 50 76 51 43 52 44 53 57 55 77 56 46 57 31 58 32 59
REMARK SMILES IDX 40 60 33 61 39 62 34 63 35 64 36 65 37 66 38 67 61 68 62 69
REMARK SMILES IDX 70 70 63 71 69 72 64 73 65 74 66 75 67 76 68 77 47 78 48 79
REMARK SMILES IDX 56 80 49 81 55 82 50 83 51 84 52 85 53 86 54 87
REMARK H PARENT 14 6 5 11 8 14 19 24 75 43 45 54
REMARK Flexibility Score: inf
ROOT
ATOM      1  C   UNL A   1      35.399  22.682  23.687  1.00  0.00     0.023 C 
ENDROOT
BRANCH   1   2
ATOM      2  C   UNL A   1      34.262  23.189  22.805  1.00  0.00     0.116 C 
BRANCH   2   3
ATOM      3  N   UNL A   1      32.972  22.918  23.403  1.00  0.00    -0.356 N 
ATOM      4  O   UNL A   1      32.965  24.706  24.849  1.00  0.00    -0.275 OA
ATOM      5  C   UNL A   1      32.431  23.702  24.392  1.00  0.00     0.221 C 
ATOM      6  H   UNL A   1      32.462  22.138  23.088  1.00  0.00     0.163 HD
BRANCH   5   7
ATOM      7  C   UNL A   1      31.077  23.231  24.862  1.00  0.00     0.121 C 
BRANCH   7   8
ATOM      8  C   UNL A   1      31.225  22.088  25.855  1.00  0.00     0.127 C 
BRANCH   8   9
ATOM      9  N   UNL A   1      32.519  22.092  26.528  1.00  0.00    -0.338 N 
ATOM     10  C   UNL A   1      33.453  21.183  26.830  1.00  0.00     0.315 C 
ATOM     11  H   UNL A   1      32.767  22.993  26.840  1.00  0.00     0.165 HD
ATOM     12  O   UNL A   1      34.362  21.540  27.581  1.00  0.00    -0.249 OA
ATOM     13  N   UNL A   1      33.465  19.930  26.359  1.00  0.00    -0.333 N 
ATOM     14  H   UNL A   1      34.180  19.370  26.739  1.00  0.00     0.165 HD
BRANCH  13  15
ATOM     15  C   UNL A   1      32.626  19.233  25.396  1.00  0.00     0.112 C 
ATOM     16  C   UNL A   1      32.594  17.751  25.696  1.00  0.00     0.056 C 
ATOM     17  C   UNL A   1      33.174  19.268  23.972  1.00  0.00     0.185 C 
ATOM     18  C   UNL A   1      33.759  17.214  24.891  1.00  0.00     0.162 C 
ATOM     19  O   UNL A   1      33.922  18.066  23.754  1.00  0.00    -0.379 OA
ENDBRANCH  13  15
ENDBRANCH   8   9
ENDBRANCH   7   8
ENDBRANCH   5   7
ENDBRANCH   2   3
ENDBRANCH   1   2
BRANCH   1  20
ATOM     20  C   UNL A   1      36.211  23.783  24.378  1.00  0.00     0.023 C 
BRANCH  20  21
ATOM     21  C   UNL A   1      36.611  23.486  25.820  1.00  0.00     0.116 C 
BRANCH  21  22
ATOM     22  N   UNL A   1      37.759  22.599  25.905  1.00  0.00    -0.352 N 
ATOM     23  C   UNL A   1      39.045  22.872  26.309  1.00  0.00     0.251 C 
ATOM     24  H   UNL A   1      37.591  21.667  25.636  1.00  0.00     0.163 HD
ATOM     25  O   UNL A   1      39.925  22.037  26.139  1.00  0.00    -0.269 OA
BRANCH  23  26
ATOM     26  C   UNL A   1      39.368  24.181  26.921  1.00  0.00     0.039 A 
ATOM     27  C   UNL A   1      38.984  24.419  28.244  1.00  0.00     0.014 A 
ATOM     28  C   UNL A   1      40.041  25.170  26.199  1.00  0.00     0.014 A 
ATOM     29  C   UNL A   1      39.335  25.623  28.861  1.00  0.00     0.010 A 
ATOM     30  C   UNL A   1      40.457  26.336  26.840  1.00  0.00     0.010 A 
ATOM     31  C   UNL A   1      40.107  26.577  28.177  1.00  0.00    -0.014 A 
BRANCH  31  32
ATOM     32  C   UNL A   1      40.567  27.821  28.848  1.00  0.00     0.031 A 
ATOM     33  C   UNL A   1      41.947  27.900  29.444  1.00  0.00     0.074 A 
ATOM     34  C   UNL A   1      39.720  28.863  28.971  1.00  0.00     0.049 A 
ATOM     35  N   UNL A   1      42.505  28.884  30.104  1.00  0.00    -0.248 NA
ATOM     36  C   UNL A   1      42.805  26.713  29.301  1.00  0.00     0.031 C 
ATOM     37  C   UNL A   1      38.345  28.902  28.467  1.00  0.00     0.029 A 
ATOM     38  N   UNL A   1      39.889  30.092  29.562  1.00  0.00    -0.354 N 
ATOM     39  C   UNL A   1      43.768  28.429  30.468  1.00  0.00     0.074 A 
ATOM     40  C   UNL A   1      43.876  27.066  29.996  1.00  0.00     0.031 C 
ATOM     41  C   UNL A   1      37.809  30.102  28.740  1.00  0.00     0.029 A 
ATOM     42  C   UNL A   1      38.780  30.902  29.481  1.00  0.00     0.049 A 
ATOM     43  H   UNL A   1      40.725  30.366  30.003  1.00  0.00     0.167 HD
ATOM     44  C   UNL A   1      44.753  29.091  31.121  1.00  0.00     0.031 A 
ATOM     45  C   UNL A   1      38.563  32.144  29.956  1.00  0.00     0.031 A 
ATOM     46  C   UNL A   1      44.643  30.449  31.584  1.00  0.00     0.049 A 
ATOM     47  C   UNL A   1      39.664  32.849  30.700  1.00  0.00     0.074 A 
ATOM     48  C   UNL A   1      45.606  31.226  32.204  1.00  0.00     0.029 A 
ATOM     49  N   UNL A   1      43.501  31.231  31.489  1.00  0.00    -0.354 N 
ATOM     50  N   UNL A   1      40.875  32.426  30.972  1.00  0.00    -0.248 NA
ATOM     51  C   UNL A   1      39.371  34.201  31.193  1.00  0.00     0.031 C 
ATOM     52  C   UNL A   1      45.027  32.453  32.542  1.00  0.00     0.029 A 
ATOM     53  C   UNL A   1      43.725  32.469  32.067  1.00  0.00     0.049 A 
ATOM     54  H   UNL A   1      42.656  30.948  31.071  1.00  0.00     0.167 HD
ATOM     55  C   UNL A   1      41.501  33.474  31.640  1.00  0.00     0.074 A 
ATOM     56  C   UNL A   1      40.538  34.554  31.717  1.00  0.00     0.031 C 
ATOM     57  C   UNL A   1      42.759  33.537  32.140  1.00  0.00     0.031 A 
BRANCH  44  58
ATOM     58  C   UNL A   1      46.039  28.349  31.387  1.00  0.00    -0.014 A 
ATOM     59  C   UNL A   1      47.144  28.469  30.525  1.00  0.00     0.010 A 
ATOM     60  C   UNL A   1      46.160  27.559  32.546  1.00  0.00     0.010 A 
ATOM     61  C   UNL A   1      48.331  27.782  30.794  1.00  0.00     0.020 A 
ATOM     62  C   UNL A   1      47.356  26.896  32.836  1.00  0.00     0.020 A 
ATOM     63  C   UNL A   1      48.430  26.999  31.949  1.00  0.00     0.054 A 
BRANCH  63  64
ATOM     64  S   UNL A   1      49.992  26.142  32.286  1.00  0.00     0.124 S 
ATOM     65  O   UNL A   1      49.537  24.782  32.562  1.00  0.00    -0.237 OA
ATOM     66  O   UNL A   1      50.728  26.317  31.037  1.00  0.00    -0.237 OA
ATOM     67  O   UNL A   1      50.541  26.859  33.435  1.00  0.00    -0.744 OA
ENDBRANCH  63  64
ENDBRANCH  44  58
BRANCH  45  68
ATOM     68  C   UNL A   1      37.250  32.809  29.726  1.00  0.00    -0.014 A 
ATOM     69  C   UNL A   1      36.298  32.888  30.758  1.00  0.00     0.010 A 
ATOM     70  C   UNL A   1      36.946  33.376  28.474  1.00  0.00     0.010 A 
ATOM     71  C   UNL A   1      35.063  33.505  30.539  1.00  0.00     0.020 A 
ATOM     72  C   UNL A   1      35.725  34.023  28.261  1.00  0.00     0.020 A 
ATOM     73  C   UNL A   1      34.786  34.072  29.293  1.00  0.00     0.054 A 
BRANCH  73  74
ATOM     74  S   UNL A   1      33.197  34.914  29.049  1.00  0.00     0.124 S 
ATOM     75  O   UNL A   1      33.619  36.240  28.610  1.00  0.00    -0.237 OA
ATOM     76  O   UNL A   1      32.555  34.084  28.032  1.00  0.00    -0.237 OA
ATOM     77  O   UNL A   1      32.574  34.859  30.370  1.00  0.00    -0.744 OA
ENDBRANCH  73  74
ENDBRANCH  45  68
BRANCH  57  78
ATOM     78  C   UNL A   1      43.190  34.830  32.783  1.00  0.00    -0.014 A 
ATOM     79  C   UNL A   1      43.135  35.012  34.177  1.00  0.00     0.010 A 
ATOM     80  C   UNL A   1      43.711  35.862  31.979  1.00  0.00     0.010 A 
ATOM     81  C   UNL A   1      43.563  36.212  34.750  1.00  0.00     0.020 A 
ATOM     82  C   UNL A   1      44.171  37.050  32.553  1.00  0.00     0.020 A 
ATOM     83  C   UNL A   1      44.080  37.224  33.935  1.00  0.00     0.054 A 
BRANCH  83  84
ATOM     84  S   UNL A   1      44.671  38.753  34.709  1.00  0.00     0.124 S 
ATOM     85  O   UNL A   1      44.074  39.776  33.855  1.00  0.00    -0.237 OA
ATOM     86  O   UNL A   1      44.121  38.662  36.059  1.00  0.00    -0.237 OA
ATOM     87  O   UNL A   1      46.126  38.645  34.625  1.00  0.00    -0.744 OA
ENDBRANCH  83  84
ENDBRANCH  57  78
ENDBRANCH  31  32
ENDBRANCH  23  26
ENDBRANCH  21  22
ENDBRANCH  20  21
ENDBRANCH   1  20
TORSDOF 17
ENDMDL
