MODEL 1
REMARK VINA RESULT:     -11.1      0.000      0.000
REMARK SMILES O=C(CNc1nc(-c2ccccc2)c(-c2ccccc2)s1)NCCCCNC(=O)c1ccc(-c2c3nc(c(-c4ccc(S(=O)(=O)[O-])cc4)c4ccc([nH]4)c(-c4ccc(S(=O)(=O)[O-])cc4)c4nc(c(-c5ccc(S(=O)(=O)[O-])cc5)c5ccc2[nH]5)C=C4)C=C3)cc1
REMARK SMILES IDX 24 1 23 2 22 3 1 4 2 5 3 7 4 8 5 10 6 11 21 12 7 13 14 14
REMARK SMILES IDX 8 15 9 16 13 17 10 18 12 19 11 20 15 21 16 22 20 23 17 24
REMARK SMILES IDX 19 25 18 26 25 27 26 28 27 29 28 30 29 32 30 33 31 34 89 35
REMARK SMILES IDX 32 36 88 37 33 38 34 39 35 40 82 41 36 42 87 43 81 44 83 45
REMARK SMILES IDX 37 46 86 47 80 48 79 49 38 51 68 52 49 53 67 54 50 55 53 56
REMARK SMILES IDX 66 57 84 58 51 59 52 60 65 62 85 63 54 64 39 65 40 66 48 67
REMARK SMILES IDX 41 68 47 69 42 70 43 71 44 72 45 73 46 74 69 75 70 76 78 77
REMARK SMILES IDX 71 78 77 79 72 80 73 81 74 82 75 83 76 84 55 85 56 86 64 87
REMARK SMILES IDX 57 88 63 89 58 90 59 91 60 92 61 93 62 94
REMARK H PARENT 22 6 4 9 27 31 83 50 53 61
REMARK Flexibility Score: inf
ROOT
ATOM      1  C   UNL A   1      35.387  21.835  26.168  1.00  0.00     0.023 C 
ENDROOT
BRANCH   1   2
ATOM      2  C   UNL A   1      34.243  21.165  25.408  1.00  0.00     0.116 C 
BRANCH   2   3
ATOM      3  N   UNL A   1      34.003  21.773  24.116  1.00  0.00    -0.355 N 
ATOM      4  O   UNL A   1      31.861  22.515  24.533  1.00  0.00    -0.273 OA
ATOM      5  C   UNL A   1      32.829  22.428  23.785  1.00  0.00     0.239 C 
ATOM      6  H   UNL A   1      34.713  21.718  23.437  1.00  0.00     0.163 HD
BRANCH   5   7
ATOM      7  C   UNL A   1      32.849  23.025  22.368  1.00  0.00     0.215 C 
BRANCH   7   8
ATOM      8  N   UNL A   1      33.489  24.333  22.409  1.00  0.00    -0.352 N 
ATOM      9  H   UNL A   1      34.435  24.411  22.148  1.00  0.00     0.163 HD
BRANCH   8  10
ATOM     10  C   UNL A   1      32.824  25.436  22.791  1.00  0.00     0.184 A 
ATOM     11  N   UNL A   1      33.011  26.095  23.909  1.00  0.00    -0.220 NA
ATOM     12  S   UNL A   1      31.581  26.049  21.775  1.00  0.00    -0.096 S 
ATOM     13  C   UNL A   1      32.093  27.133  24.005  1.00  0.00     0.091 A 
ATOM     14  C   UNL A   1      31.191  27.229  22.956  1.00  0.00     0.064 A 
BRANCH  13  15
ATOM     15  C   UNL A   1      32.109  28.053  25.131  1.00  0.00     0.002 A 
ATOM     16  C   UNL A   1      32.761  29.290  25.039  1.00  0.00     0.010 A 
ATOM     17  C   UNL A   1      31.530  27.669  26.346  1.00  0.00     0.010 A 
ATOM     18  C   UNL A   1      32.860  30.116  26.160  1.00  0.00     0.001 A 
ATOM     19  C   UNL A   1      31.636  28.495  27.468  1.00  0.00     0.001 A 
ATOM     20  C   UNL A   1      32.306  29.714  27.376  1.00  0.00     0.000 A 
ENDBRANCH  13  15
BRANCH  14  21
ATOM     21  C   UNL A   1      30.074  28.145  22.727  1.00  0.00    -0.006 A 
ATOM     22  C   UNL A   1      28.787  27.818  23.179  1.00  0.00     0.009 A 
ATOM     23  C   UNL A   1      30.281  29.380  22.100  1.00  0.00     0.009 A 
ATOM     24  C   UNL A   1      27.728  28.710  23.008  1.00  0.00     0.001 A 
ATOM     25  C   UNL A   1      29.221  30.272  21.930  1.00  0.00     0.001 A 
ATOM     26  C   UNL A   1      27.946  29.937  22.384  1.00  0.00     0.000 A 
ENDBRANCH  14  21
ENDBRANCH   8  10
ENDBRANCH   7   8
ENDBRANCH   5   7
ENDBRANCH   2   3
ENDBRANCH   1   2
BRANCH   1  27
ATOM     27  C   UNL A   1      35.557  23.333  25.905  1.00  0.00     0.023 C 
BRANCH  27  28
ATOM     28  C   UNL A   1      36.907  23.758  25.335  1.00  0.00     0.116 C 
BRANCH  28  29
ATOM     29  N   UNL A   1      37.973  22.811  25.622  1.00  0.00    -0.352 N 
ATOM     30  C   UNL A   1      39.182  23.015  26.246  1.00  0.00     0.251 C 
ATOM     31  H   UNL A   1      37.805  21.888  25.326  1.00  0.00     0.163 HD
ATOM     32  O   UNL A   1      40.011  22.107  26.275  1.00  0.00    -0.269 OA
BRANCH  30  33
ATOM     33  C   UNL A   1      39.506  24.328  26.852  1.00  0.00     0.039 A 
ATOM     34  C   UNL A   1      39.076  24.593  28.156  1.00  0.00     0.014 A 
ATOM     35  C   UNL A   1      40.223  25.297  26.147  1.00  0.00     0.014 A 
ATOM     36  C   UNL A   1      39.431  25.795  28.776  1.00  0.00     0.010 A 
ATOM     37  C   UNL A   1      40.641  26.461  26.792  1.00  0.00     0.010 A 
ATOM     38  C   UNL A   1      40.253  26.723  28.115  1.00  0.00    -0.014 A 
BRANCH  38  39
ATOM     39  C   UNL A   1      40.730  27.958  28.797  1.00  0.00     0.031 A 
ATOM     40  C   UNL A   1      42.116  28.021  29.381  1.00  0.00     0.074 A 
ATOM     41  C   UNL A   1      39.891  29.003  28.949  1.00  0.00     0.049 A 
ATOM     42  N   UNL A   1      42.680  28.985  30.064  1.00  0.00    -0.248 NA
ATOM     43  C   UNL A   1      42.973  26.839  29.194  1.00  0.00     0.031 C 
ATOM     44  C   UNL A   1      38.509  29.058  28.465  1.00  0.00     0.029 A 
ATOM     45  N   UNL A   1      40.074  30.220  29.561  1.00  0.00    -0.354 N 
ATOM     46  C   UNL A   1      43.950  28.525  30.395  1.00  0.00     0.074 A 
ATOM     47  C   UNL A   1      44.051  27.173  29.887  1.00  0.00     0.031 C 
ATOM     48  C   UNL A   1      37.980  30.252  28.776  1.00  0.00     0.029 A 
ATOM     49  C   UNL A   1      38.965  31.032  29.521  1.00  0.00     0.049 A 
ATOM     50  H   UNL A   1      40.921  30.485  29.989  1.00  0.00     0.167 HD
ATOM     51  C   UNL A   1      44.948  29.172  31.044  1.00  0.00     0.031 A 
ATOM     52  C   UNL A   1      38.754  32.261  30.033  1.00  0.00     0.031 A 
ATOM     53  C   UNL A   1      44.846  30.516  31.548  1.00  0.00     0.049 A 
ATOM     54  C   UNL A   1      39.868  32.950  30.773  1.00  0.00     0.074 A 
ATOM     55  C   UNL A   1      45.817  31.273  32.180  1.00  0.00     0.029 A 
ATOM     56  N   UNL A   1      43.707  31.306  31.482  1.00  0.00    -0.354 N 
ATOM     57  N   UNL A   1      41.082  32.518  31.024  1.00  0.00    -0.248 NA
ATOM     58  C   UNL A   1      39.589  34.298  31.289  1.00  0.00     0.031 C 
ATOM     59  C   UNL A   1      45.249  32.496  32.550  1.00  0.00     0.029 A 
ATOM     60  C   UNL A   1      43.943  32.529  32.086  1.00  0.00     0.049 A 
ATOM     61  H   UNL A   1      42.857  31.035  31.066  1.00  0.00     0.167 HD
ATOM     62  C   UNL A   1      41.719  33.553  31.701  1.00  0.00     0.074 A 
ATOM     63  C   UNL A   1      40.763  34.636  31.806  1.00  0.00     0.031 C 
ATOM     64  C   UNL A   1      42.984  33.600  32.188  1.00  0.00     0.031 A 
BRANCH  51  65
ATOM     65  C   UNL A   1      46.241  28.425  31.254  1.00  0.00    -0.014 A 
ATOM     66  C   UNL A   1      47.295  28.518  30.326  1.00  0.00     0.010 A 
ATOM     67  C   UNL A   1      46.423  27.652  32.416  1.00  0.00     0.010 A 
ATOM     68  C   UNL A   1      48.485  27.817  30.531  1.00  0.00     0.020 A 
ATOM     69  C   UNL A   1      47.624  26.974  32.641  1.00  0.00     0.020 A 
ATOM     70  C   UNL A   1      48.642  27.046  31.687  1.00  0.00     0.054 A 
BRANCH  70  71
ATOM     71  S   UNL A   1      50.204  26.160  31.934  1.00  0.00     0.124 S 
ATOM     72  O   UNL A   1      49.921  24.870  31.307  1.00  0.00    -0.237 OA
ATOM     73  O   UNL A   1      51.165  27.003  31.228  1.00  0.00    -0.237 OA
ATOM     74  O   UNL A   1      50.358  26.124  33.386  1.00  0.00    -0.744 OA
ENDBRANCH  70  71
ENDBRANCH  51  65
BRANCH  52  75
ATOM     75  C   UNL A   1      37.429  32.920  29.860  1.00  0.00    -0.014 A 
ATOM     76  C   UNL A   1      37.128  33.627  28.683  1.00  0.00     0.010 A 
ATOM     77  C   UNL A   1      36.455  32.831  30.871  1.00  0.00     0.010 A 
ATOM     78  C   UNL A   1      35.886  34.248  28.527  1.00  0.00     0.020 A 
ATOM     79  C   UNL A   1      35.200  33.424  30.705  1.00  0.00     0.020 A 
ATOM     80  C   UNL A   1      34.927  34.140  29.538  1.00  0.00     0.054 A 
BRANCH  80  81
ATOM     81  S   UNL A   1      33.302  34.909  29.291  1.00  0.00     0.124 S 
ATOM     82  O   UNL A   1      32.692  34.021  28.308  1.00  0.00    -0.237 OA
ATOM     83  O   UNL A   1      32.726  34.863  30.632  1.00  0.00    -0.237 OA
ATOM     84  O   UNL A   1      33.629  36.249  28.808  1.00  0.00    -0.744 OA
ENDBRANCH  80  81
ENDBRANCH  52  75
BRANCH  64  85
ATOM     85  C   UNL A   1      43.426  34.879  32.853  1.00  0.00    -0.014 A 
ATOM     86  C   UNL A   1      43.281  35.074  34.238  1.00  0.00     0.010 A 
ATOM     87  C   UNL A   1      44.048  35.880  32.082  1.00  0.00     0.010 A 
ATOM     88  C   UNL A   1      43.722  36.259  34.835  1.00  0.00     0.020 A 
ATOM     89  C   UNL A   1      44.518  37.052  32.680  1.00  0.00     0.020 A 
ATOM     90  C   UNL A   1      44.338  37.240  34.052  1.00  0.00     0.054 A 
BRANCH  90  91
ATOM     91  S   UNL A   1      44.942  38.749  34.858  1.00  0.00     0.124 S 
ATOM     92  O   UNL A   1      46.088  39.101  34.025  1.00  0.00    -0.237 OA
ATOM     93  O   UNL A   1      43.793  39.646  34.756  1.00  0.00    -0.237 OA
ATOM     94  O   UNL A   1      45.265  38.313  36.214  1.00  0.00    -0.744 OA
ENDBRANCH  90  91
ENDBRANCH  64  85
ENDBRANCH  38  39
ENDBRANCH  30  33
ENDBRANCH  28  29
ENDBRANCH  27  28
ENDBRANCH   1  27
TORSDOF 18
ENDMDL
MODEL 2
REMARK VINA RESULT:     -10.3      3.437      4.339
REMARK SMILES O=C(CNc1nc(-c2ccccc2)c(-c2ccccc2)s1)NCCCCNC(=O)c1ccc(-c2c3nc(c(-c4ccc(S(=O)(=O)[O-])cc4)c4ccc([nH]4)c(-c4ccc(S(=O)(=O)[O-])cc4)c4nc(c(-c5ccc(S(=O)(=O)[O-])cc5)c5ccc2[nH]5)C=C4)C=C3)cc1
REMARK SMILES IDX 24 1 23 2 22 3 1 4 2 5 3 7 4 8 5 10 6 11 21 12 7 13 14 14
REMARK SMILES IDX 8 15 9 16 13 17 10 18 12 19 11 20 15 21 16 22 20 23 17 24
REMARK SMILES IDX 19 25 18 26 25 27 26 28 27 29 28 30 29 32 30 33 31 34 89 35
REMARK SMILES IDX 32 36 88 37 33 38 34 39 35 40 82 41 36 42 87 43 81 44 83 45
REMARK SMILES IDX 37 46 86 47 80 48 79 49 38 51 68 52 49 53 67 54 50 55 53 56
REMARK SMILES IDX 66 57 84 58 51 59 52 60 65 62 85 63 54 64 39 65 40 66 48 67
REMARK SMILES IDX 41 68 47 69 42 70 43 71 44 72 45 73 46 74 69 75 70 76 78 77
REMARK SMILES IDX 71 78 77 79 72 80 73 81 74 82 75 83 76 84 55 85 56 86 64 87
REMARK SMILES IDX 57 88 63 89 58 90 59 91 60 92 61 93 62 94
REMARK H PARENT 22 6 4 9 27 31 83 50 53 61
REMARK Flexibility Score: inf
ROOT
ATOM      1  C   UNL A   1      39.652  21.159  26.579  1.00  0.00     0.023 C 
ENDROOT
BRANCH   1   2
ATOM      2  C   UNL A   1      38.786  22.110  25.755  1.00  0.00     0.116 C 
BRANCH   2   3
ATOM      3  N   UNL A   1      37.394  22.079  26.153  1.00  0.00    -0.355 N 
ATOM      4  O   UNL A   1      36.582  23.454  24.491  1.00  0.00    -0.273 OA
ATOM      5  C   UNL A   1      36.387  22.739  25.469  1.00  0.00     0.239 C 
ATOM      6  H   UNL A   1      37.151  21.560  26.953  1.00  0.00     0.163 HD
BRANCH   5   7
ATOM      7  C   UNL A   1      34.992  22.505  26.071  1.00  0.00     0.215 C 
BRANCH   7   8
ATOM      8  N   UNL A   1      33.981  22.806  25.067  1.00  0.00    -0.352 N 
ATOM      9  H   UNL A   1      33.753  22.121  24.398  1.00  0.00     0.163 HD
BRANCH   8  10
ATOM     10  C   UNL A   1      33.350  23.992  25.030  1.00  0.00     0.184 A 
ATOM     11  N   UNL A   1      33.619  25.027  25.789  1.00  0.00    -0.220 NA
ATOM     12  S   UNL A   1      32.044  24.203  23.933  1.00  0.00    -0.096 S 
ATOM     13  C   UNL A   1      32.715  26.049  25.531  1.00  0.00     0.091 A 
ATOM     14  C   UNL A   1      31.744  25.761  24.584  1.00  0.00     0.064 A 
BRANCH  13  15
ATOM     15  C   UNL A   1      32.815  27.333  26.206  1.00  0.00     0.002 A 
ATOM     16  C   UNL A   1      31.734  27.850  26.932  1.00  0.00     0.010 A 
ATOM     17  C   UNL A   1      33.979  28.098  26.067  1.00  0.00     0.010 A 
ATOM     18  C   UNL A   1      31.807  29.130  27.484  1.00  0.00     0.001 A 
ATOM     19  C   UNL A   1      34.047  29.382  26.616  1.00  0.00     0.001 A 
ATOM     20  C   UNL A   1      32.959  29.898  27.318  1.00  0.00     0.000 A 
ENDBRANCH  13  15
BRANCH  14  21
ATOM     21  C   UNL A   1      30.618  26.552  24.086  1.00  0.00    -0.006 A 
ATOM     22  C   UNL A   1      30.846  27.676  23.280  1.00  0.00     0.009 A 
ATOM     23  C   UNL A   1      29.300  26.171  24.367  1.00  0.00     0.009 A 
ATOM     24  C   UNL A   1      29.775  28.404  22.762  1.00  0.00     0.001 A 
ATOM     25  C   UNL A   1      28.229  26.900  23.847  1.00  0.00     0.001 A 
ATOM     26  C   UNL A   1      28.466  28.015  23.045  1.00  0.00     0.000 A 
ENDBRANCH  14  21
ENDBRANCH   8  10
ENDBRANCH   7   8
ENDBRANCH   5   7
ENDBRANCH   2   3
ENDBRANCH   1   2
BRANCH   1  27
ATOM     27  C   UNL A   1      41.068  21.659  26.880  1.00  0.00     0.023 C 
BRANCH  27  28
ATOM     28  C   UNL A   1      41.184  23.131  27.264  1.00  0.00     0.116 C 
BRANCH  28  29
ATOM     29  N   UNL A   1      41.508  23.992  26.137  1.00  0.00    -0.352 N 
ATOM     30  C   UNL A   1      41.615  25.363  26.084  1.00  0.00     0.251 C 
ATOM     31  H   UNL A   1      41.676  23.526  25.287  1.00  0.00     0.163 HD
ATOM     32  O   UNL A   1      41.768  25.918  24.997  1.00  0.00    -0.269 OA
BRANCH  30  33
ATOM     33  C   UNL A   1      41.513  26.175  27.319  1.00  0.00     0.039 A 
ATOM     34  C   UNL A   1      42.528  27.092  27.610  1.00  0.00     0.014 A 
ATOM     35  C   UNL A   1      40.429  26.039  28.191  1.00  0.00     0.014 A 
ATOM     36  C   UNL A   1      42.419  27.921  28.730  1.00  0.00     0.010 A 
ATOM     37  C   UNL A   1      40.285  26.919  29.264  1.00  0.00     0.010 A 
ATOM     38  C   UNL A   1      41.275  27.872  29.545  1.00  0.00    -0.014 A 
BRANCH  38  39
ATOM     39  C   UNL A   1      41.092  28.820  30.678  1.00  0.00     0.031 A 
ATOM     40  C   UNL A   1      41.931  28.696  31.922  1.00  0.00     0.074 A 
ATOM     41  C   UNL A   1      40.124  29.757  30.615  1.00  0.00     0.049 A 
ATOM     42  N   UNL A   1      41.869  29.389  33.031  1.00  0.00    -0.248 NA
ATOM     43  C   UNL A   1      42.957  27.642  31.931  1.00  0.00     0.031 C 
ATOM     44  C   UNL A   1      39.214  29.961  29.484  1.00  0.00     0.029 A 
ATOM     45  N   UNL A   1      39.735  30.710  31.526  1.00  0.00    -0.354 N 
ATOM     46  C   UNL A   1      42.838  28.850  33.870  1.00  0.00     0.074 A 
ATOM     47  C   UNL A   1      43.433  27.737  33.163  1.00  0.00     0.031 C 
ATOM     48  C   UNL A   1      38.394  30.988  29.758  1.00  0.00     0.029 A 
ATOM     49  C   UNL A   1      38.684  31.487  31.099  1.00  0.00     0.049 A 
ATOM     50  H   UNL A   1      40.169  30.825  32.402  1.00  0.00     0.167 HD
ATOM     51  C   UNL A   1      43.213  29.255  35.108  1.00  0.00     0.031 A 
ATOM     52  C   UNL A   1      38.017  32.483  31.717  1.00  0.00     0.031 A 
ATOM     53  C   UNL A   1      42.621  30.363  35.810  1.00  0.00     0.049 A 
ATOM     54  C   UNL A   1      38.434  32.899  33.101  1.00  0.00     0.074 A 
ATOM     55  C   UNL A   1      42.963  30.878  37.049  1.00  0.00     0.029 A 
ATOM     56  N   UNL A   1      41.562  31.128  35.340  1.00  0.00    -0.354 N 
ATOM     57  N   UNL A   1      39.393  32.414  33.854  1.00  0.00    -0.248 NA
ATOM     58  C   UNL A   1      37.687  34.006  33.716  1.00  0.00     0.031 C 
ATOM     59  C   UNL A   1      42.073  31.913  37.354  1.00  0.00     0.029 A 
ATOM     60  C   UNL A   1      41.221  32.090  36.276  1.00  0.00     0.049 A 
ATOM     61  H   UNL A   1      41.120  31.004  34.470  1.00  0.00     0.167 HD
ATOM     62  C   UNL A   1      39.382  33.175  35.018  1.00  0.00     0.074 A 
ATOM     63  C   UNL A   1      38.334  34.162  34.863  1.00  0.00     0.031 C 
ATOM     64  C   UNL A   1      40.173  33.067  36.114  1.00  0.00     0.031 A 
BRANCH  51  65
ATOM     65  C   UNL A   1      44.317  28.485  35.788  1.00  0.00    -0.014 A 
ATOM     66  C   UNL A   1      44.030  27.401  36.639  1.00  0.00     0.010 A 
ATOM     67  C   UNL A   1      45.661  28.820  35.541  1.00  0.00     0.010 A 
ATOM     68  C   UNL A   1      45.063  26.699  37.266  1.00  0.00     0.020 A 
ATOM     69  C   UNL A   1      46.698  28.100  36.141  1.00  0.00     0.020 A 
ATOM     70  C   UNL A   1      46.392  27.055  37.015  1.00  0.00     0.054 A 
BRANCH  70  71
ATOM     71  S   UNL A   1      47.711  26.116  37.830  1.00  0.00     0.124 S 
ATOM     72  O   UNL A   1      48.907  26.828  37.384  1.00  0.00    -0.237 OA
ATOM     73  O   UNL A   1      47.382  26.265  39.245  1.00  0.00    -0.237 OA
ATOM     74  O   UNL A   1      47.557  24.765  37.296  1.00  0.00    -0.744 OA
ENDBRANCH  70  71
ENDBRANCH  51  65
BRANCH  52  75
ATOM     75  C   UNL A   1      36.884  33.158  31.025  1.00  0.00    -0.014 A 
ATOM     76  C   UNL A   1      35.554  32.887  31.394  1.00  0.00     0.010 A 
ATOM     77  C   UNL A   1      37.131  34.088  29.998  1.00  0.00     0.010 A 
ATOM     78  C   UNL A   1      34.493  33.519  30.738  1.00  0.00     0.020 A 
ATOM     79  C   UNL A   1      36.074  34.745  29.362  1.00  0.00     0.020 A 
ATOM     80  C   UNL A   1      34.760  34.448  29.728  1.00  0.00     0.054 A 
BRANCH  80  81
ATOM     81  S   UNL A   1      33.369  35.295  28.927  1.00  0.00     0.124 S 
ATOM     82  O   UNL A   1      34.053  36.196  28.006  1.00  0.00    -0.237 OA
ATOM     83  O   UNL A   1      32.641  34.190  28.311  1.00  0.00    -0.237 OA
ATOM     84  O   UNL A   1      32.678  35.943  30.041  1.00  0.00    -0.744 OA
ENDBRANCH  80  81
ENDBRANCH  52  75
BRANCH  64  85
ATOM     85  C   UNL A   1      39.962  34.062  37.226  1.00  0.00    -0.014 A 
ATOM     86  C   UNL A   1      40.671  35.276  37.269  1.00  0.00     0.010 A 
ATOM     87  C   UNL A   1      38.996  33.799  38.216  1.00  0.00     0.010 A 
ATOM     88  C   UNL A   1      40.439  36.194  38.297  1.00  0.00     0.020 A 
ATOM     89  C   UNL A   1      38.739  34.727  39.228  1.00  0.00     0.020 A 
ATOM     90  C   UNL A   1      39.474  35.914  39.269  1.00  0.00     0.054 A 
BRANCH  90  91
ATOM     91  S   UNL A   1      39.161  37.142  40.568  1.00  0.00     0.124 S 
ATOM     92  O   UNL A   1      40.495  37.689  40.796  1.00  0.00    -0.237 OA
ATOM     93  O   UNL A   1      38.212  38.049  39.926  1.00  0.00    -0.237 OA
ATOM     94  O   UNL A   1      38.613  36.353  41.667  1.00  0.00    -0.744 OA
ENDBRANCH  90  91
ENDBRANCH  64  85
ENDBRANCH  38  39
ENDBRANCH  30  33
ENDBRANCH  28  29
ENDBRANCH  27  28
ENDBRANCH   1  27
TORSDOF 18
ENDMDL
MODEL 3
REMARK VINA RESULT:     -10.2      2.317      8.204
REMARK SMILES O=C(CNc1nc(-c2ccccc2)c(-c2ccccc2)s1)NCCCCNC(=O)c1ccc(-c2c3nc(c(-c4ccc(S(=O)(=O)[O-])cc4)c4ccc([nH]4)c(-c4ccc(S(=O)(=O)[O-])cc4)c4nc(c(-c5ccc(S(=O)(=O)[O-])cc5)c5ccc2[nH]5)C=C4)C=C3)cc1
REMARK SMILES IDX 24 1 23 2 22 3 1 4 2 5 3 7 4 8 5 10 6 11 21 12 7 13 14 14
REMARK SMILES IDX 8 15 9 16 13 17 10 18 12 19 11 20 15 21 16 22 20 23 17 24
REMARK SMILES IDX 19 25 18 26 25 27 26 28 27 29 28 30 29 32 30 33 31 34 89 35
REMARK SMILES IDX 32 36 88 37 33 38 34 39 35 40 82 41 36 42 87 43 81 44 83 45
REMARK SMILES IDX 37 46 86 47 80 48 79 49 38 51 68 52 49 53 67 54 50 55 53 56
REMARK SMILES IDX 66 57 84 58 51 59 52 60 65 62 85 63 54 64 39 65 40 66 48 67
REMARK SMILES IDX 41 68 47 69 42 70 43 71 44 72 45 73 46 74 69 75 70 76 78 77
REMARK SMILES IDX 71 78 77 79 72 80 73 81 74 82 75 83 76 84 55 85 56 86 64 87
REMARK SMILES IDX 57 88 63 89 58 90 59 91 60 92 61 93 62 94
REMARK H PARENT 22 6 4 9 27 31 83 50 53 61
REMARK Flexibility Score: inf
ROOT
ATOM      1  C   UNL A   1      35.639  21.485  24.623  1.00  0.00     0.023 C 
ENDROOT
BRANCH   1   2
ATOM      2  C   UNL A   1      34.610  20.548  25.253  1.00  0.00     0.116 C 
BRANCH   2   3
ATOM      3  N   UNL A   1      33.409  21.242  25.669  1.00  0.00    -0.355 N 
ATOM      4  O   UNL A   1      32.155  20.815  23.783  1.00  0.00    -0.273 OA
ATOM      5  C   UNL A   1      32.256  21.301  24.905  1.00  0.00     0.239 C 
ATOM      6  H   UNL A   1      33.412  21.696  26.542  1.00  0.00     0.163 HD
BRANCH   5   7
ATOM      7  C   UNL A   1      31.109  22.057  25.596  1.00  0.00     0.215 C 
BRANCH   7   8
ATOM      8  N   UNL A   1      31.666  23.139  26.397  1.00  0.00    -0.352 N 
ATOM      9  H   UNL A   1      32.048  22.933  27.280  1.00  0.00     0.163 HD
BRANCH   8  10
ATOM     10  C   UNL A   1      31.674  24.411  25.962  1.00  0.00     0.184 A 
ATOM     11  N   UNL A   1      32.279  25.417  26.547  1.00  0.00    -0.220 NA
ATOM     12  S   UNL A   1      30.796  24.807  24.539  1.00  0.00    -0.096 S 
ATOM     13  C   UNL A   1      32.007  26.594  25.862  1.00  0.00     0.091 A 
ATOM     14  C   UNL A   1      31.165  26.466  24.767  1.00  0.00     0.064 A 
BRANCH  13  15
ATOM     15  C   UNL A   1      32.593  27.859  26.274  1.00  0.00     0.002 A 
ATOM     16  C   UNL A   1      33.983  28.031  26.311  1.00  0.00     0.010 A 
ATOM     17  C   UNL A   1      31.760  28.896  26.710  1.00  0.00     0.010 A 
ATOM     18  C   UNL A   1      34.531  29.213  26.809  1.00  0.00     0.001 A 
ATOM     19  C   UNL A   1      32.312  30.077  27.215  1.00  0.00     0.001 A 
ATOM     20  C   UNL A   1      33.697  30.231  27.270  1.00  0.00     0.000 A 
ENDBRANCH  13  15
BRANCH  14  21
ATOM     21  C   UNL A   1      30.626  27.464  23.844  1.00  0.00    -0.006 A 
ATOM     22  C   UNL A   1      29.241  27.643  23.726  1.00  0.00     0.009 A 
ATOM     23  C   UNL A   1      31.485  28.286  23.103  1.00  0.00     0.009 A 
ATOM     24  C   UNL A   1      28.724  28.628  22.884  1.00  0.00     0.001 A 
ATOM     25  C   UNL A   1      30.966  29.272  22.261  1.00  0.00     0.001 A 
ATOM     26  C   UNL A   1      29.587  29.443  22.152  1.00  0.00     0.000 A 
ENDBRANCH  14  21
ENDBRANCH   8  10
ENDBRANCH   7   8
ENDBRANCH   5   7
ENDBRANCH   2   3
ENDBRANCH   1   2
BRANCH   1  27
ATOM     27  C   UNL A   1      35.610  22.928  25.135  1.00  0.00     0.023 C 
BRANCH  27  28
ATOM     28  C   UNL A   1      36.818  23.364  25.958  1.00  0.00     0.116 C 
BRANCH  28  29
ATOM     29  N   UNL A   1      37.875  22.365  25.997  1.00  0.00    -0.352 N 
ATOM     30  C   UNL A   1      39.208  22.511  26.307  1.00  0.00     0.251 C 
ATOM     31  H   UNL A   1      37.596  21.450  25.768  1.00  0.00     0.163 HD
ATOM     32  O   UNL A   1      39.974  21.562  26.152  1.00  0.00    -0.269 OA
BRANCH  30  33
ATOM     33  C   UNL A   1      39.731  23.809  26.792  1.00  0.00     0.039 A 
ATOM     34  C   UNL A   1      40.003  23.961  28.155  1.00  0.00     0.014 A 
ATOM     35  C   UNL A   1      39.952  24.877  25.918  1.00  0.00     0.014 A 
ATOM     36  C   UNL A   1      40.566  25.151  28.626  1.00  0.00     0.010 A 
ATOM     37  C   UNL A   1      40.583  26.033  26.376  1.00  0.00     0.010 A 
ATOM     38  C   UNL A   1      40.901  26.183  27.734  1.00  0.00    -0.014 A 
BRANCH  38  39
ATOM     39  C   UNL A   1      41.598  27.413  28.201  1.00  0.00     0.031 A 
ATOM     40  C   UNL A   1      40.813  28.574  28.752  1.00  0.00     0.074 A 
ATOM     41  C   UNL A   1      42.937  27.512  28.071  1.00  0.00     0.049 A 
ATOM     42  N   UNL A   1      41.243  29.746  29.147  1.00  0.00    -0.248 NA
ATOM     43  C   UNL A   1      39.355  28.405  28.851  1.00  0.00     0.031 C 
ATOM     44  C   UNL A   1      43.814  26.476  27.518  1.00  0.00     0.029 A 
ATOM     45  N   UNL A   1      43.797  28.536  28.386  1.00  0.00    -0.354 N 
ATOM     46  C   UNL A   1      40.111  30.456  29.531  1.00  0.00     0.074 A 
ATOM     47  C   UNL A   1      38.971  29.603  29.267  1.00  0.00     0.031 C 
ATOM     48  C   UNL A   1      45.084  26.907  27.556  1.00  0.00     0.029 A 
ATOM     49  C   UNL A   1      45.113  28.265  28.092  1.00  0.00     0.049 A 
ATOM     50  H   UNL A   1      43.498  29.385  28.786  1.00  0.00     0.167 HD
ATOM     51  C   UNL A   1      40.026  31.696  30.071  1.00  0.00     0.031 A 
ATOM     52  C   UNL A   1      46.220  29.023  28.225  1.00  0.00     0.031 A 
ATOM     53  C   UNL A   1      41.159  32.543  30.333  1.00  0.00     0.049 A 
ATOM     54  C   UNL A   1      46.098  30.407  28.803  1.00  0.00     0.074 A 
ATOM     55  C   UNL A   1      41.178  33.798  30.918  1.00  0.00     0.029 A 
ATOM     56  N   UNL A   1      42.475  32.228  30.024  1.00  0.00    -0.354 N 
ATOM     57  N   UNL A   1      45.023  31.036  29.214  1.00  0.00    -0.248 NA
ATOM     58  C   UNL A   1      47.341  31.178  28.947  1.00  0.00     0.031 C 
ATOM     59  C   UNL A   1      42.496  34.266  30.909  1.00  0.00     0.029 A 
ATOM     60  C   UNL A   1      43.309  33.275  30.382  1.00  0.00     0.049 A 
ATOM     61  H   UNL A   1      42.771  31.385  29.613  1.00  0.00     0.167 HD
ATOM     62  C   UNL A   1      45.464  32.266  29.692  1.00  0.00     0.074 A 
ATOM     63  C   UNL A   1      46.904  32.284  29.533  1.00  0.00     0.031 C 
ATOM     64  C   UNL A   1      44.740  33.285  30.217  1.00  0.00     0.031 A 
BRANCH  51  65
ATOM     65  C   UNL A   1      38.650  32.216  30.408  1.00  0.00    -0.014 A 
ATOM     66  C   UNL A   1      38.032  31.896  31.632  1.00  0.00     0.010 A 
ATOM     67  C   UNL A   1      37.984  33.069  29.511  1.00  0.00     0.010 A 
ATOM     68  C   UNL A   1      36.756  32.380  31.929  1.00  0.00     0.020 A 
ATOM     69  C   UNL A   1      36.720  33.583  29.818  1.00  0.00     0.020 A 
ATOM     70  C   UNL A   1      36.106  33.219  31.018  1.00  0.00     0.054 A 
BRANCH  70  71
ATOM     71  S   UNL A   1      34.458  33.845  31.439  1.00  0.00     0.124 S 
ATOM     72  O   UNL A   1      33.931  32.769  32.275  1.00  0.00    -0.237 OA
ATOM     73  O   UNL A   1      34.758  35.092  32.137  1.00  0.00    -0.237 OA
ATOM     74  O   UNL A   1      33.804  34.002  30.142  1.00  0.00    -0.744 OA
ENDBRANCH  70  71
ENDBRANCH  51  65
BRANCH  52  75
ATOM     75  C   UNL A   1      47.543  28.484  27.803  1.00  0.00    -0.014 A 
ATOM     76  C   UNL A   1      48.341  27.756  28.703  1.00  0.00     0.010 A 
ATOM     77  C   UNL A   1      48.006  28.687  26.490  1.00  0.00     0.010 A 
ATOM     78  C   UNL A   1      49.585  27.257  28.304  1.00  0.00     0.020 A 
ATOM     79  C   UNL A   1      49.235  28.163  26.079  1.00  0.00     0.020 A 
ATOM     80  C   UNL A   1      50.023  27.460  26.992  1.00  0.00     0.054 A 
BRANCH  80  81
ATOM     81  S   UNL A   1      51.616  26.758  26.481  1.00  0.00     0.124 S 
ATOM     82  O   UNL A   1      52.483  27.930  26.494  1.00  0.00    -0.237 OA
ATOM     83  O   UNL A   1      51.871  25.768  27.524  1.00  0.00    -0.237 OA
ATOM     84  O   UNL A   1      51.335  26.200  25.160  1.00  0.00    -0.744 OA
ENDBRANCH  80  81
ENDBRANCH  52  75
BRANCH  64  85
ATOM     85  C   UNL A   1      45.494  34.501  30.694  1.00  0.00    -0.014 A 
ATOM     86  C   UNL A   1      46.002  34.582  32.002  1.00  0.00     0.010 A 
ATOM     87  C   UNL A   1      45.744  35.556  29.796  1.00  0.00     0.010 A 
ATOM     88  C   UNL A   1      46.720  35.710  32.413  1.00  0.00     0.020 A 
ATOM     89  C   UNL A   1      46.486  36.671  30.193  1.00  0.00     0.020 A 
ATOM     90  C   UNL A   1      46.958  36.746  31.506  1.00  0.00     0.054 A 
BRANCH  90  91
ATOM     91  S   UNL A   1      47.930  38.178  32.051  1.00  0.00     0.124 S 
ATOM     92  O   UNL A   1      47.744  38.137  33.498  1.00  0.00    -0.237 OA
ATOM     93  O   UNL A   1      49.273  37.849  31.580  1.00  0.00    -0.237 OA
ATOM     94  O   UNL A   1      47.297  39.306  31.372  1.00  0.00    -0.744 OA
ENDBRANCH  90  91
ENDBRANCH  64  85
ENDBRANCH  38  39
ENDBRANCH  30  33
ENDBRANCH  28  29
ENDBRANCH  27  28
ENDBRANCH   1  27
TORSDOF 18
ENDMDL
