MODEL 1
REMARK VINA RESULT:     -11.1      0.000      0.000
REMARK SMILES CC[C@H](Oc1ccccc1/C=C1\SC(N)=[NH+]C1=O)C(=O)NCCCCNC(=O)c1ccc(-c2c3nc(c(-c4ccc(S(=O)(=O)[O-])cc4)c4ccc([nH]4)c(-c4ccc(S(=O)(=O)[O-])cc4)c4nc(c(-c5ccc(S(=O)(=O)[O-])cc5)c5ccc2[nH]5)C=C4)C=C3)cc1
REMARK SMILES IDX 23 1 22 2 21 3 19 4 20 5 3 7 2 8 1 9 4 10 5 11 6 12 10 13
REMARK SMILES IDX 7 14 9 15 8 16 11 17 12 18 13 19 17 20 14 21 16 22 18 23
REMARK SMILES IDX 15 24 24 28 25 29 26 30 27 31 28 33 29 34 30 35 88 36 31 37
REMARK SMILES IDX 87 38 32 39 33 40 34 41 81 42 35 43 86 44 80 45 82 46 36 47
REMARK SMILES IDX 85 48 79 49 78 50 37 52 67 53 48 54 66 55 49 56 52 57 65 58
REMARK SMILES IDX 83 59 50 60 51 61 64 63 84 64 53 65 38 66 39 67 47 68 40 69
REMARK SMILES IDX 46 70 41 71 42 72 43 73 44 74 45 75 68 76 69 77 77 78 70 79
REMARK SMILES IDX 76 80 71 81 72 82 73 83 74 84 75 85 54 86 55 87 63 88 56 89
REMARK SMILES IDX 62 90 57 91 58 92 59 93 60 94 61 95
REMARK H PARENT 21 6 16 25 15 26 15 27 26 32 82 51 52 62
REMARK Flexibility Score: inf
ROOT
ATOM      1  C   UNL A   1      31.641  27.510  26.117  1.00  0.00     0.023 C 
ENDROOT
BRANCH   1   2
ATOM      2  C   UNL A   1      30.655  26.608  25.386  1.00  0.00     0.116 C 
BRANCH   2   3
ATOM      3  N   UNL A   1      30.020  25.634  26.233  1.00  0.00    -0.353 N 
ATOM      4  C   UNL A   1      30.323  24.324  26.443  1.00  0.00     0.261 C 
ATOM      5  O   UNL A   1      29.625  23.739  27.284  1.00  0.00    -0.271 OA
ATOM      6  H   UNL A   1      29.245  25.967  26.741  1.00  0.00     0.163 HD
BRANCH   4   7
ATOM      7  C   UNL A   1      31.517  23.570  25.757  1.00  0.00     0.261 C 
BRANCH   7   8
ATOM      8  C   UNL A   1      31.219  23.117  24.308  1.00  0.00     0.052 C 
ATOM      9  C   UNL A   1      31.909  23.868  23.176  1.00  0.00     0.008 C 
ENDBRANCH   7   8
BRANCH   7  10
ATOM     10  O   UNL A   1      32.531  22.817  26.436  1.00  0.00    -0.480 OA
BRANCH  10  11
ATOM     11  C   UNL A   1      33.824  22.845  26.014  1.00  0.00     0.127 A 
ATOM     12  C   UNL A   1      34.588  24.016  26.073  1.00  0.00     0.047 A 
ATOM     13  C   UNL A   1      34.438  21.644  25.612  1.00  0.00     0.018 A 
ATOM     14  C   UNL A   1      35.883  24.050  25.550  1.00  0.00     0.004 A 
ATOM     15  C   UNL A   1      35.746  21.686  25.098  1.00  0.00     0.012 A 
ATOM     16  C   UNL A   1      36.450  22.890  25.034  1.00  0.00     0.001 A 
BRANCH  13  17
ATOM     17  C   UNL A   1      33.820  20.323  25.816  1.00  0.00     0.036 C 
ATOM     18  C   UNL A   1      33.234  19.528  24.912  1.00  0.00     0.110 C 
ATOM     19  S   UNL A   1      33.029  19.797  23.239  1.00  0.00     0.006 SA
ATOM     20  C   UNL A   1      32.648  18.194  25.256  1.00  0.00     0.346 C 
ATOM     21  C   UNL A   1      32.221  18.275  23.083  1.00  0.00     0.314 C 
ATOM     22  N   UNL A   1      32.098  17.571  24.152  1.00  0.00    -0.200 N 
ATOM     23  O   UNL A   1      32.674  17.723  26.386  1.00  0.00    -0.240 OA
ATOM     24  N   UNL A   1      31.790  17.952  21.849  1.00  0.00    -0.281 N 
ATOM     25  H   UNL A   1      31.661  16.689  24.182  1.00  0.00     0.316 HD
ATOM     26  H   UNL A   1      31.939  18.568  21.097  1.00  0.00     0.302 HD
ATOM     27  H   UNL A   1      31.326  17.096  21.699  1.00  0.00     0.302 HD
ENDBRANCH  13  17
ENDBRANCH  10  11
ENDBRANCH   7  10
ENDBRANCH   4   7
ENDBRANCH   2   3
ENDBRANCH   1   2
BRANCH   1  28
ATOM     28  C   UNL A   1      33.083  27.327  25.672  1.00  0.00     0.023 C 
BRANCH  28  29
ATOM     29  C   UNL A   1      34.080  28.020  26.584  1.00  0.00     0.116 C 
BRANCH  29  30
ATOM     30  N   UNL A   1      33.697  29.396  26.883  1.00  0.00    -0.352 N 
ATOM     31  C   UNL A   1      34.367  30.323  27.640  1.00  0.00     0.251 C 
ATOM     32  H   UNL A   1      32.846  29.699  26.490  1.00  0.00     0.163 HD
ATOM     33  O   UNL A   1      33.827  31.373  27.968  1.00  0.00    -0.269 OA
BRANCH  31  34
ATOM     34  C   UNL A   1      35.744  30.010  28.060  1.00  0.00     0.039 A 
ATOM     35  C   UNL A   1      35.972  29.462  29.321  1.00  0.00     0.014 A 
ATOM     36  C   UNL A   1      36.796  30.203  27.161  1.00  0.00     0.014 A 
ATOM     37  C   UNL A   1      37.265  29.073  29.664  1.00  0.00     0.010 A 
ATOM     38  C   UNL A   1      38.049  29.695  27.455  1.00  0.00     0.010 A 
ATOM     39  C   UNL A   1      38.308  29.166  28.726  1.00  0.00    -0.014 A 
BRANCH  39  40
ATOM     40  C   UNL A   1      39.698  28.795  29.079  1.00  0.00     0.031 A 
ATOM     41  C   UNL A   1      40.555  29.778  29.836  1.00  0.00     0.074 A 
ATOM     42  C   UNL A   1      40.196  27.603  28.694  1.00  0.00     0.049 A 
ATOM     43  N   UNL A   1      41.791  29.652  30.241  1.00  0.00    -0.248 NA
ATOM     44  C   UNL A   1      39.957  31.089  30.148  1.00  0.00     0.031 C 
ATOM     45  C   UNL A   1      39.478  26.592  27.913  1.00  0.00     0.029 A 
ATOM     46  N   UNL A   1      41.424  27.037  28.919  1.00  0.00    -0.354 N 
ATOM     47  C   UNL A   1      42.119  30.868  30.827  1.00  0.00     0.074 A 
ATOM     48  C   UNL A   1      40.985  31.745  30.661  1.00  0.00     0.031 C 
ATOM     49  C   UNL A   1      40.259  25.510  27.773  1.00  0.00     0.029 A 
ATOM     50  C   UNL A   1      41.544  25.764  28.417  1.00  0.00     0.049 A 
ATOM     51  H   UNL A   1      42.150  27.499  29.396  1.00  0.00     0.167 HD
ATOM     52  C   UNL A   1      43.253  31.217  31.480  1.00  0.00     0.031 A 
ATOM     53  C   UNL A   1      42.572  24.895  28.479  1.00  0.00     0.031 A 
ATOM     54  C   UNL A   1      44.367  30.330  31.666  1.00  0.00     0.049 A 
ATOM     55  C   UNL A   1      43.819  25.301  29.220  1.00  0.00     0.074 A 
ATOM     56  C   UNL A   1      45.538  30.555  32.366  1.00  0.00     0.029 A 
ATOM     57  N   UNL A   1      44.446  29.046  31.147  1.00  0.00    -0.354 N 
ATOM     58  N   UNL A   1      44.084  26.430  29.835  1.00  0.00    -0.248 NA
ATOM     59  C   UNL A   1      44.895  24.306  29.294  1.00  0.00     0.031 C 
ATOM     60  C   UNL A   1      46.354  29.428  32.218  1.00  0.00     0.029 A 
ATOM     61  C   UNL A   1      45.657  28.473  31.493  1.00  0.00     0.049 A 
ATOM     62  H   UNL A   1      43.745  28.607  30.613  1.00  0.00     0.167 HD
ATOM     63  C   UNL A   1      45.341  26.262  30.407  1.00  0.00     0.074 A 
ATOM     64  C   UNL A   1      45.774  24.921  30.071  1.00  0.00     0.031 C 
ATOM     65  C   UNL A   1      46.068  27.135  31.150  1.00  0.00     0.031 A 
BRANCH  52  66
ATOM     66  C   UNL A   1      43.339  32.618  32.028  1.00  0.00    -0.014 A 
ATOM     67  C   UNL A   1      42.903  32.925  33.332  1.00  0.00     0.010 A 
ATOM     68  C   UNL A   1      43.884  33.643  31.234  1.00  0.00     0.010 A 
ATOM     69  C   UNL A   1      42.965  34.236  33.810  1.00  0.00     0.020 A 
ATOM     70  C   UNL A   1      43.982  34.949  31.722  1.00  0.00     0.020 A 
ATOM     71  C   UNL A   1      43.504  35.241  33.000  1.00  0.00     0.054 A 
BRANCH  71  72
ATOM     72  S   UNL A   1      43.593  36.929  33.655  1.00  0.00     0.124 S 
ATOM     73  O   UNL A   1      43.666  37.723  32.431  1.00  0.00    -0.237 OA
ATOM     74  O   UNL A   1      42.346  37.046  34.407  1.00  0.00    -0.237 OA
ATOM     75  O   UNL A   1      44.808  36.923  34.465  1.00  0.00    -0.744 OA
ENDBRANCH  71  72
ENDBRANCH  52  66
BRANCH  53  76
ATOM     76  C   UNL A   1      42.449  23.544  27.867  1.00  0.00    -0.014 A 
ATOM     77  C   UNL A   1      41.649  22.556  28.471  1.00  0.00     0.010 A 
ATOM     78  C   UNL A   1      43.127  23.236  26.675  1.00  0.00     0.010 A 
ATOM     79  C   UNL A   1      41.552  21.279  27.910  1.00  0.00     0.020 A 
ATOM     80  C   UNL A   1      43.008  21.971  26.092  1.00  0.00     0.020 A 
ATOM     81  C   UNL A   1      42.231  20.996  26.721  1.00  0.00     0.054 A 
BRANCH  81  82
ATOM     82  S   UNL A   1      42.057  19.344  25.989  1.00  0.00     0.124 S 
ATOM     83  O   UNL A   1      42.860  19.463  24.776  1.00  0.00    -0.237 OA
ATOM     84  O   UNL A   1      42.604  18.480  27.031  1.00  0.00    -0.237 OA
ATOM     85  O   UNL A   1      40.617  19.216  25.777  1.00  0.00    -0.744 OA
ENDBRANCH  81  82
ENDBRANCH  53  76
BRANCH  65  86
ATOM     86  C   UNL A   1      47.378  26.643  31.707  1.00  0.00    -0.014 A 
ATOM     87  C   UNL A   1      47.470  26.063  32.984  1.00  0.00     0.010 A 
ATOM     88  C   UNL A   1      48.535  26.734  30.910  1.00  0.00     0.010 A 
ATOM     89  C   UNL A   1      48.707  25.636  33.476  1.00  0.00     0.020 A 
ATOM     90  C   UNL A   1      49.765  26.273  31.383  1.00  0.00     0.020 A 
ATOM     91  C   UNL A   1      49.846  25.747  32.673  1.00  0.00     0.054 A 
BRANCH  91  92
ATOM     92  S   UNL A   1      51.436  25.172  33.329  1.00  0.00     0.124 S 
ATOM     93  O   UNL A   1      52.332  25.407  32.199  1.00  0.00    -0.237 OA
ATOM     94  O   UNL A   1      51.639  26.042  34.484  1.00  0.00    -0.237 OA
ATOM     95  O   UNL A   1      51.192  23.767  33.648  1.00  0.00    -0.744 OA
ENDBRANCH  91  92
ENDBRANCH  65  86
ENDBRANCH  39  40
ENDBRANCH  31  34
ENDBRANCH  29  30
ENDBRANCH  28  29
ENDBRANCH   1  28
TORSDOF 18
ENDMDL
MODEL 2
REMARK VINA RESULT:     -10.5      4.026      9.698
REMARK SMILES CC[C@H](Oc1ccccc1/C=C1\SC(N)=[NH+]C1=O)C(=O)NCCCCNC(=O)c1ccc(-c2c3nc(c(-c4ccc(S(=O)(=O)[O-])cc4)c4ccc([nH]4)c(-c4ccc(S(=O)(=O)[O-])cc4)c4nc(c(-c5ccc(S(=O)(=O)[O-])cc5)c5ccc2[nH]5)C=C4)C=C3)cc1
REMARK SMILES IDX 23 1 22 2 21 3 19 4 20 5 3 7 2 8 1 9 4 10 5 11 6 12 10 13
REMARK SMILES IDX 7 14 9 15 8 16 11 17 12 18 13 19 17 20 14 21 16 22 18 23
REMARK SMILES IDX 15 24 24 28 25 29 26 30 27 31 28 33 29 34 30 35 88 36 31 37
REMARK SMILES IDX 87 38 32 39 33 40 34 41 81 42 35 43 86 44 80 45 82 46 36 47
REMARK SMILES IDX 85 48 79 49 78 50 37 52 67 53 48 54 66 55 49 56 52 57 65 58
REMARK SMILES IDX 83 59 50 60 51 61 64 63 84 64 53 65 38 66 39 67 47 68 40 69
REMARK SMILES IDX 46 70 41 71 42 72 43 73 44 74 45 75 68 76 69 77 77 78 70 79
REMARK SMILES IDX 76 80 71 81 72 82 73 83 74 84 75 85 54 86 55 87 63 88 56 89
REMARK SMILES IDX 62 90 57 91 58 92 59 93 60 94 61 95
REMARK H PARENT 21 6 16 25 15 26 15 27 26 32 82 51 52 62
REMARK Flexibility Score: inf
ROOT
ATOM      1  C   UNL A   1      39.365  22.589  26.515  1.00  0.00     0.023 C 
ENDROOT
BRANCH   1   2
ATOM      2  C   UNL A   1      38.060  23.247  26.085  1.00  0.00     0.116 C 
BRANCH   2   3
ATOM      3  N   UNL A   1      37.795  23.148  24.675  1.00  0.00    -0.353 N 
ATOM      4  C   UNL A   1      36.621  22.952  24.015  1.00  0.00     0.261 C 
ATOM      5  O   UNL A   1      36.691  22.968  22.778  1.00  0.00    -0.271 OA
ATOM      6  H   UNL A   1      38.586  23.237  24.096  1.00  0.00     0.163 HD
BRANCH   4   7
ATOM      7  C   UNL A   1      35.226  22.792  24.718  1.00  0.00     0.261 C 
BRANCH   7   8
ATOM      8  C   UNL A   1      34.432  21.548  24.252  1.00  0.00     0.052 C 
ATOM      9  C   UNL A   1      34.631  20.252  25.026  1.00  0.00     0.008 C 
ENDBRANCH   7   8
BRANCH   7  10
ATOM     10  O   UNL A   1      34.431  23.859  25.251  1.00  0.00    -0.480 OA
BRANCH  10  11
ATOM     11  C   UNL A   1      33.111  23.677  25.528  1.00  0.00     0.127 A 
ATOM     12  C   UNL A   1      32.675  23.313  26.807  1.00  0.00     0.047 A 
ATOM     13  C   UNL A   1      32.158  23.968  24.535  1.00  0.00     0.018 A 
ATOM     14  C   UNL A   1      31.327  23.041  27.050  1.00  0.00     0.004 A 
ATOM     15  C   UNL A   1      30.802  23.702  24.792  1.00  0.00     0.012 A 
ATOM     16  C   UNL A   1      30.394  23.205  26.032  1.00  0.00     0.001 A 
BRANCH  13  17
ATOM     17  C   UNL A   1      32.498  24.654  23.276  1.00  0.00     0.036 C 
ATOM     18  C   UNL A   1      32.870  25.927  23.095  1.00  0.00     0.110 C 
ATOM     19  S   UNL A   1      33.074  27.149  24.269  1.00  0.00     0.006 SA
ATOM     20  C   UNL A   1      33.198  26.498  21.750  1.00  0.00     0.346 C 
ATOM     21  C   UNL A   1      33.520  28.277  23.034  1.00  0.00     0.314 C 
ATOM     22  N   UNL A   1      33.548  27.833  21.826  1.00  0.00    -0.200 N 
ATOM     23  O   UNL A   1      33.164  25.841  20.718  1.00  0.00    -0.240 OA
ATOM     24  N   UNL A   1      33.804  29.528  23.441  1.00  0.00    -0.281 N 
ATOM     25  H   UNL A   1      33.791  28.381  21.046  1.00  0.00     0.316 HD
ATOM     26  H   UNL A   1      33.750  29.759  24.396  1.00  0.00     0.302 HD
ATOM     27  H   UNL A   1      34.066  30.211  22.782  1.00  0.00     0.302 HD
ENDBRANCH  13  17
ENDBRANCH  10  11
ENDBRANCH   7  10
ENDBRANCH   4   7
ENDBRANCH   2   3
ENDBRANCH   1   2
BRANCH   1  28
ATOM     28  C   UNL A   1      39.589  21.216  25.902  1.00  0.00     0.023 C 
BRANCH  28  29
ATOM     29  C   UNL A   1      40.248  20.238  26.858  1.00  0.00     0.116 C 
BRANCH  29  30
ATOM     30  N   UNL A   1      41.238  19.394  26.197  1.00  0.00    -0.352 N 
ATOM     31  C   UNL A   1      42.462  19.751  25.691  1.00  0.00     0.251 C 
ATOM     32  H   UNL A   1      40.996  18.445  26.100  1.00  0.00     0.163 HD
ATOM     33  O   UNL A   1      43.099  18.978  24.986  1.00  0.00    -0.269 OA
BRANCH  31  34
ATOM     34  C   UNL A   1      42.977  21.095  26.009  1.00  0.00     0.039 A 
ATOM     35  C   UNL A   1      43.128  22.033  24.989  1.00  0.00     0.014 A 
ATOM     36  C   UNL A   1      43.242  21.432  27.338  1.00  0.00     0.014 A 
ATOM     37  C   UNL A   1      43.515  23.331  25.316  1.00  0.00     0.010 A 
ATOM     38  C   UNL A   1      43.496  22.751  27.672  1.00  0.00     0.010 A 
ATOM     39  C   UNL A   1      43.680  23.705  26.663  1.00  0.00    -0.014 A 
BRANCH  39  40
ATOM     40  C   UNL A   1      44.128  25.067  27.034  1.00  0.00     0.031 A 
ATOM     41  C   UNL A   1      45.577  25.441  26.859  1.00  0.00     0.074 A 
ATOM     42  C   UNL A   1      43.249  25.946  27.556  1.00  0.00     0.049 A 
ATOM     43  N   UNL A   1      46.174  26.573  27.122  1.00  0.00    -0.248 NA
ATOM     44  C   UNL A   1      46.485  24.393  26.357  1.00  0.00     0.031 C 
ATOM     45  C   UNL A   1      41.833  25.680  27.820  1.00  0.00     0.029 A 
ATOM     46  N   UNL A   1      43.420  27.249  27.947  1.00  0.00    -0.354 N 
ATOM     47  C   UNL A   1      47.519  26.364  26.841  1.00  0.00     0.074 A 
ATOM     48  C   UNL A   1      47.667  24.980  26.461  1.00  0.00     0.031 C 
ATOM     49  C   UNL A   1      41.253  26.800  28.277  1.00  0.00     0.029 A 
ATOM     50  C   UNL A   1      42.262  27.851  28.377  1.00  0.00     0.049 A 
ATOM     51  H   UNL A   1      44.290  27.708  27.923  1.00  0.00     0.167 HD
ATOM     52  C   UNL A   1      48.539  27.254  26.863  1.00  0.00     0.031 A 
ATOM     53  C   UNL A   1      42.039  29.112  28.794  1.00  0.00     0.031 A 
ATOM     54  C   UNL A   1      48.378  28.636  27.215  1.00  0.00     0.049 A 
ATOM     55  C   UNL A   1      43.186  30.087  28.799  1.00  0.00     0.074 A 
ATOM     56  C   UNL A   1      49.328  29.641  27.208  1.00  0.00     0.029 A 
ATOM     57  N   UNL A   1      47.187  29.209  27.638  1.00  0.00    -0.354 N 
ATOM     58  N   UNL A   1      44.439  29.892  28.458  1.00  0.00    -0.248 NA
ATOM     59  C   UNL A   1      42.883  31.459  29.224  1.00  0.00     0.031 C 
ATOM     60  C   UNL A   1      48.726  30.810  27.688  1.00  0.00     0.029 A 
ATOM     61  C   UNL A   1      47.383  30.550  27.917  1.00  0.00     0.049 A 
ATOM     62  H   UNL A   1      46.331  28.732  27.726  1.00  0.00     0.167 HD
ATOM     63  C   UNL A   1      45.063  31.129  28.584  1.00  0.00     0.074 A 
ATOM     64  C   UNL A   1      44.046  32.063  29.023  1.00  0.00     0.031 C 
ATOM     65  C   UNL A   1      46.356  31.464  28.350  1.00  0.00     0.031 A 
BRANCH  52  66
ATOM     66  C   UNL A   1      49.912  26.749  26.503  1.00  0.00    -0.014 A 
ATOM     67  C   UNL A   1      50.387  26.791  25.178  1.00  0.00     0.010 A 
ATOM     68  C   UNL A   1      50.752  26.241  27.511  1.00  0.00     0.010 A 
ATOM     69  C   UNL A   1      51.652  26.291  24.862  1.00  0.00     0.020 A 
ATOM     70  C   UNL A   1      52.032  25.774  27.205  1.00  0.00     0.020 A 
ATOM     71  C   UNL A   1      52.467  25.784  25.878  1.00  0.00     0.054 A 
BRANCH  71  72
ATOM     72  S   UNL A   1      54.114  25.163  25.443  1.00  0.00     0.124 S 
ATOM     73  O   UNL A   1      53.791  23.935  24.720  1.00  0.00    -0.237 OA
ATOM     74  O   UNL A   1      54.658  26.246  24.627  1.00  0.00    -0.237 OA
ATOM     75  O   UNL A   1      54.766  24.971  26.735  1.00  0.00    -0.744 OA
ENDBRANCH  71  72
ENDBRANCH  52  66
BRANCH  53  76
ATOM     76  C   UNL A   1      40.669  29.537  29.193  1.00  0.00    -0.014 A 
ATOM     77  C   UNL A   1      39.686  29.789  28.217  1.00  0.00     0.010 A 
ATOM     78  C   UNL A   1      40.336  29.691  30.550  1.00  0.00     0.010 A 
ATOM     79  C   UNL A   1      38.406  30.211  28.590  1.00  0.00     0.020 A 
ATOM     80  C   UNL A   1      39.048  30.082  30.929  1.00  0.00     0.020 A 
ATOM     81  C   UNL A   1      38.096  30.352  29.945  1.00  0.00     0.054 A 
BRANCH  81  82
ATOM     82  S   UNL A   1      36.415  30.862  30.407  1.00  0.00     0.124 S 
ATOM     83  O   UNL A   1      36.105  29.938  31.493  1.00  0.00    -0.237 OA
ATOM     84  O   UNL A   1      36.606  32.257  30.794  1.00  0.00    -0.237 OA
ATOM     85  O   UNL A   1      35.650  30.663  29.178  1.00  0.00    -0.744 OA
ENDBRANCH  81  82
ENDBRANCH  53  76
BRANCH  65  86
ATOM     86  C   UNL A   1      46.732  32.915  28.501  1.00  0.00    -0.014 A 
ATOM     87  C   UNL A   1      46.611  33.826  27.438  1.00  0.00     0.010 A 
ATOM     88  C   UNL A   1      47.182  33.377  29.753  1.00  0.00     0.010 A 
ATOM     89  C   UNL A   1      46.988  35.161  27.608  1.00  0.00     0.020 A 
ATOM     90  C   UNL A   1      47.522  34.718  29.937  1.00  0.00     0.020 A 
ATOM     91  C   UNL A   1      47.444  35.597  28.856  1.00  0.00     0.054 A 
BRANCH  91  92
ATOM     92  S   UNL A   1      47.913  37.337  29.055  1.00  0.00     0.124 S 
ATOM     93  O   UNL A   1      46.994  38.006  28.138  1.00  0.00    -0.237 OA
ATOM     94  O   UNL A   1      47.667  37.574  30.476  1.00  0.00    -0.237 OA
ATOM     95  O   UNL A   1      49.319  37.364  28.658  1.00  0.00    -0.744 OA
ENDBRANCH  91  92
ENDBRANCH  65  86
ENDBRANCH  39  40
ENDBRANCH  31  34
ENDBRANCH  29  30
ENDBRANCH  28  29
ENDBRANCH   1  28
TORSDOF 18
ENDMDL
MODEL 3
REMARK VINA RESULT:     -10.5      2.127      2.688
REMARK SMILES CC[C@H](Oc1ccccc1/C=C1\SC(N)=[NH+]C1=O)C(=O)NCCCCNC(=O)c1ccc(-c2c3nc(c(-c4ccc(S(=O)(=O)[O-])cc4)c4ccc([nH]4)c(-c4ccc(S(=O)(=O)[O-])cc4)c4nc(c(-c5ccc(S(=O)(=O)[O-])cc5)c5ccc2[nH]5)C=C4)C=C3)cc1
REMARK SMILES IDX 23 1 22 2 21 3 19 4 20 5 3 7 2 8 1 9 4 10 5 11 6 12 10 13
REMARK SMILES IDX 7 14 9 15 8 16 11 17 12 18 13 19 17 20 14 21 16 22 18 23
REMARK SMILES IDX 15 24 24 28 25 29 26 30 27 31 28 33 29 34 30 35 88 36 31 37
REMARK SMILES IDX 87 38 32 39 33 40 34 41 81 42 35 43 86 44 80 45 82 46 36 47
REMARK SMILES IDX 85 48 79 49 78 50 37 52 67 53 48 54 66 55 49 56 52 57 65 58
REMARK SMILES IDX 83 59 50 60 51 61 64 63 84 64 53 65 38 66 39 67 47 68 40 69
REMARK SMILES IDX 46 70 41 71 42 72 43 73 44 74 45 75 68 76 69 77 77 78 70 79
REMARK SMILES IDX 76 80 71 81 72 82 73 83 74 84 75 85 54 86 55 87 63 88 56 89
REMARK SMILES IDX 62 90 57 91 58 92 59 93 60 94 61 95
REMARK H PARENT 21 6 16 25 15 26 15 27 26 32 82 51 52 62
REMARK Flexibility Score: inf
ROOT
ATOM      1  C   UNL A   1      31.657  27.543  26.413  1.00  0.00     0.023 C 
ENDROOT
BRANCH   1   2
ATOM      2  C   UNL A   1      30.591  26.741  25.677  1.00  0.00     0.116 C 
BRANCH   2   3
ATOM      3  N   UNL A   1      30.021  25.676  26.457  1.00  0.00    -0.353 N 
ATOM      4  C   UNL A   1      30.231  24.333  26.393  1.00  0.00     0.261 C 
ATOM      5  O   UNL A   1      29.635  23.655  27.243  1.00  0.00    -0.271 OA
ATOM      6  H   UNL A   1      29.379  25.963  27.146  1.00  0.00     0.163 HD
BRANCH   4   7
ATOM      7  C   UNL A   1      31.214  23.637  25.386  1.00  0.00     0.261 C 
BRANCH   7   8
ATOM      8  C   UNL A   1      30.770  23.742  23.907  1.00  0.00     0.052 C 
ATOM      9  C   UNL A   1      31.615  24.601  22.975  1.00  0.00     0.008 C 
ENDBRANCH   7   8
BRANCH   7  10
ATOM     10  O   UNL A   1      32.075  22.532  25.688  1.00  0.00    -0.480 OA
BRANCH  10  11
ATOM     11  C   UNL A   1      33.426  22.691  25.737  1.00  0.00     0.127 A 
ATOM     12  C   UNL A   1      34.009  23.951  25.909  1.00  0.00     0.047 A 
ATOM     13  C   UNL A   1      34.249  21.549  25.726  1.00  0.00     0.018 A 
ATOM     14  C   UNL A   1      35.397  24.107  25.865  1.00  0.00     0.004 A 
ATOM     15  C   UNL A   1      35.645  21.715  25.693  1.00  0.00     0.012 A 
ATOM     16  C   UNL A   1      36.213  22.990  25.725  1.00  0.00     0.001 A 
BRANCH  13  17
ATOM     17  C   UNL A   1      33.721  20.181  25.868  1.00  0.00     0.036 C 
ATOM     18  C   UNL A   1      33.171  19.399  24.932  1.00  0.00     0.110 C 
ATOM     19  S   UNL A   1      32.918  19.741  23.279  1.00  0.00     0.006 SA
ATOM     20  C   UNL A   1      32.679  18.013  25.214  1.00  0.00     0.346 C 
ATOM     21  C   UNL A   1      32.207  18.179  23.054  1.00  0.00     0.314 C 
ATOM     22  N   UNL A   1      32.149  17.413  24.086  1.00  0.00    -0.200 N 
ATOM     23  O   UNL A   1      32.756  17.486  26.316  1.00  0.00    -0.240 OA
ATOM     24  N   UNL A   1      31.775  17.893  21.812  1.00  0.00    -0.281 N 
ATOM     25  H   UNL A   1      31.771  16.505  24.075  1.00  0.00     0.316 HD
ATOM     26  H   UNL A   1      31.870  18.557  21.092  1.00  0.00     0.302 HD
ATOM     27  H   UNL A   1      31.364  17.018  21.624  1.00  0.00     0.302 HD
ENDBRANCH  13  17
ENDBRANCH  10  11
ENDBRANCH   7  10
ENDBRANCH   4   7
ENDBRANCH   2   3
ENDBRANCH   1   2
BRANCH   1  28
ATOM     28  C   UNL A   1      32.991  27.599  25.685  1.00  0.00     0.023 C 
BRANCH  28  29
ATOM     29  C   UNL A   1      34.080  28.285  26.491  1.00  0.00     0.116 C 
BRANCH  29  30
ATOM     30  N   UNL A   1      33.823  29.710  26.673  1.00  0.00    -0.352 N 
ATOM     31  C   UNL A   1      34.497  30.605  27.465  1.00  0.00     0.251 C 
ATOM     32  H   UNL A   1      33.066  30.078  26.162  1.00  0.00     0.163 HD
ATOM     33  O   UNL A   1      34.045  31.724  27.671  1.00  0.00    -0.269 OA
BRANCH  31  34
ATOM     34  C   UNL A   1      35.769  30.172  28.070  1.00  0.00     0.039 A 
ATOM     35  C   UNL A   1      36.962  30.359  27.374  1.00  0.00     0.014 A 
ATOM     36  C   UNL A   1      35.768  29.642  29.363  1.00  0.00     0.014 A 
ATOM     37  C   UNL A   1      38.166  30.043  28.001  1.00  0.00     0.010 A 
ATOM     38  C   UNL A   1      36.968  29.455  30.026  1.00  0.00     0.010 A 
ATOM     39  C   UNL A   1      38.178  29.609  29.339  1.00  0.00    -0.014 A 
BRANCH  39  40
ATOM     40  C   UNL A   1      39.442  29.231  30.014  1.00  0.00     0.031 A 
ATOM     41  C   UNL A   1      39.843  29.944  31.280  1.00  0.00     0.074 A 
ATOM     42  C   UNL A   1      40.235  28.284  29.477  1.00  0.00     0.049 A 
ATOM     43  N   UNL A   1      40.903  29.768  32.024  1.00  0.00    -0.248 NA
ATOM     44  C   UNL A   1      38.955  31.022  31.755  1.00  0.00     0.031 C 
ATOM     45  C   UNL A   1      39.976  27.563  28.228  1.00  0.00     0.029 A 
ATOM     46  N   UNL A   1      41.420  27.758  29.924  1.00  0.00    -0.354 N 
ATOM     47  C   UNL A   1      40.819  30.723  33.030  1.00  0.00     0.074 A 
ATOM     48  C   UNL A   1      39.649  31.524  32.763  1.00  0.00     0.031 C 
ATOM     49  C   UNL A   1      40.943  26.651  28.038  1.00  0.00     0.029 A 
ATOM     50  C   UNL A   1      41.910  26.750  29.128  1.00  0.00     0.049 A 
ATOM     51  H   UNL A   1      41.876  28.072  30.737  1.00  0.00     0.167 HD
ATOM     52  C   UNL A   1      41.624  30.897  34.104  1.00  0.00     0.031 A 
ATOM     53  C   UNL A   1      43.010  25.985  29.269  1.00  0.00     0.031 A 
ATOM     54  C   UNL A   1      42.771  30.077  34.378  1.00  0.00     0.049 A 
ATOM     55  C   UNL A   1      43.885  26.190  30.477  1.00  0.00     0.074 A 
ATOM     56  C   UNL A   1      43.619  30.122  35.469  1.00  0.00     0.029 A 
ATOM     57  N   UNL A   1      43.229  29.062  33.551  1.00  0.00    -0.354 N 
ATOM     58  N   UNL A   1      43.748  27.049  31.460  1.00  0.00    -0.248 NA
ATOM     59  C   UNL A   1      45.049  25.305  30.606  1.00  0.00     0.031 C 
ATOM     60  C   UNL A   1      44.629  29.174  35.271  1.00  0.00     0.029 A 
ATOM     61  C   UNL A   1      44.363  28.487  34.097  1.00  0.00     0.049 A 
ATOM     62  H   UNL A   1      42.810  28.791  32.703  1.00  0.00     0.167 HD
ATOM     63  C   UNL A   1      44.785  26.777  32.347  1.00  0.00     0.074 A 
ATOM     64  C   UNL A   1      45.530  25.669  31.785  1.00  0.00     0.031 C 
ATOM     65  C   UNL A   1      45.089  27.382  33.523  1.00  0.00     0.031 A 
BRANCH  52  66
ATOM     66  C   UNL A   1      41.291  32.022  35.050  1.00  0.00    -0.014 A 
ATOM     67  C   UNL A   1      41.710  33.342  34.799  1.00  0.00     0.010 A 
ATOM     68  C   UNL A   1      40.527  31.758  36.201  1.00  0.00     0.010 A 
ATOM     69  C   UNL A   1      41.414  34.365  35.703  1.00  0.00     0.020 A 
ATOM     70  C   UNL A   1      40.197  32.785  37.090  1.00  0.00     0.020 A 
ATOM     71  C   UNL A   1      40.660  34.079  36.845  1.00  0.00     0.054 A 
BRANCH  71  72
ATOM     72  S   UNL A   1      40.271  35.430  37.990  1.00  0.00     0.124 S 
ATOM     73  O   UNL A   1      40.424  36.604  37.133  1.00  0.00    -0.237 OA
ATOM     74  O   UNL A   1      38.902  35.121  38.395  1.00  0.00    -0.237 OA
ATOM     75  O   UNL A   1      41.276  35.293  39.042  1.00  0.00    -0.744 OA
ENDBRANCH  71  72
ENDBRANCH  52  66
BRANCH  53  76
ATOM     76  C   UNL A   1      43.318  24.926  28.269  1.00  0.00    -0.014 A 
ATOM     77  C   UNL A   1      42.831  23.617  28.440  1.00  0.00     0.010 A 
ATOM     78  C   UNL A   1      44.098  25.220  27.136  1.00  0.00     0.010 A 
ATOM     79  C   UNL A   1      43.140  22.617  27.514  1.00  0.00     0.020 A 
ATOM     80  C   UNL A   1      44.383  24.230  26.190  1.00  0.00     0.020 A 
ATOM     81  C   UNL A   1      43.913  22.932  26.392  1.00  0.00     0.054 A 
BRANCH  81  82
ATOM     82  S   UNL A   1      44.267  21.626  25.182  1.00  0.00     0.124 S 
ATOM     83  O   UNL A   1      45.604  21.198  25.578  1.00  0.00    -0.237 OA
ATOM     84  O   UNL A   1      43.193  20.668  25.432  1.00  0.00    -0.237 OA
ATOM     85  O   UNL A   1      44.185  22.321  23.899  1.00  0.00    -0.744 OA
ENDBRANCH  81  82
ENDBRANCH  53  76
BRANCH  65  86
ATOM     86  C   UNL A   1      46.238  26.816  34.314  1.00  0.00    -0.014 A 
ATOM     87  C   UNL A   1      46.058  25.777  35.243  1.00  0.00     0.010 A 
ATOM     88  C   UNL A   1      47.534  27.318  34.090  1.00  0.00     0.010 A 
ATOM     89  C   UNL A   1      47.145  25.289  35.975  1.00  0.00     0.020 A 
ATOM     90  C   UNL A   1      48.628  26.807  34.790  1.00  0.00     0.020 A 
ATOM     91  C   UNL A   1      48.422  25.810  35.745  1.00  0.00     0.054 A 
BRANCH  91  92
ATOM     92  S   UNL A   1      49.818  25.151  36.696  1.00  0.00     0.124 S 
ATOM     93  O   UNL A   1      49.395  23.775  36.941  1.00  0.00    -0.237 OA
ATOM     94  O   UNL A   1      50.938  25.310  35.772  1.00  0.00    -0.237 OA
ATOM     95  O   UNL A   1      49.866  26.008  37.879  1.00  0.00    -0.744 OA
ENDBRANCH  91  92
ENDBRANCH  65  86
ENDBRANCH  39  40
ENDBRANCH  31  34
ENDBRANCH  29  30
ENDBRANCH  28  29
ENDBRANCH   1  28
TORSDOF 18
ENDMDL
