MODEL 1
REMARK VINA RESULT:     -10.0      0.000      0.000
REMARK SMILES C=CCCC[C@@]1(C(=O)NCCCCNC(=O)c2ccc(-c3c4nc(c(-c5ccc(S(=O)(=O)[O-])cc5)c5ccc([nH]5)c(-c5ccc(S(=O)(=O)[O-])cc5)c5nc(c(-c6ccc(S(=O)(=O)[O-])cc6)c6ccc3[nH]6)C=C5)C=C4)cc2)CCCN(C(=O)OC(C)(C)C)C1
REMARK SMILES IDX 11 1 10 2 9 3 7 4 8 5 6 7 77 8 88 9 78 10 80 11 79 12 5 13
REMARK SMILES IDX 4 14 3 15 2 16 1 17 81 18 82 19 83 20 84 21 85 22 86 23
REMARK SMILES IDX 87 24 12 25 13 26 14 27 15 28 16 30 17 31 18 32 76 33 19 34
REMARK SMILES IDX 75 35 20 36 21 37 22 38 69 39 23 40 74 41 68 42 70 43 24 44
REMARK SMILES IDX 73 45 67 46 66 47 25 49 55 50 36 51 54 52 37 53 40 54 53 55
REMARK SMILES IDX 71 56 38 57 39 58 52 60 72 61 41 62 26 63 27 64 35 65 28 66
REMARK SMILES IDX 34 67 29 68 30 69 31 70 32 71 33 72 56 73 57 74 65 75 58 76
REMARK SMILES IDX 64 77 59 78 60 79 61 80 62 81 63 82 42 83 43 84 51 85 44 86
REMARK SMILES IDX 50 87 45 88 46 89 47 90 48 91 49 92
REMARK H PARENT 9 6 14 29 70 48 40 59
REMARK Flexibility Score: inf
ROOT
ATOM      1  C   UNL A   1      33.337  29.516  26.810  1.00  0.00     0.023 C 
ENDROOT
BRANCH   1   2
ATOM      2  C   UNL A   1      32.494  28.503  26.049  1.00  0.00     0.116 C 
BRANCH   2   3
ATOM      3  N   UNL A   1      33.014  28.254  24.725  1.00  0.00    -0.356 N 
ATOM      4  C   UNL A   1      32.507  27.742  23.581  1.00  0.00     0.228 C 
ATOM      5  O   UNL A   1      33.296  27.776  22.624  1.00  0.00    -0.274 OA
ATOM      6  H   UNL A   1      33.959  28.518  24.633  1.00  0.00     0.163 HD
BRANCH   4   7
ATOM      7  C   UNL A   1      31.111  27.080  23.392  1.00  0.00     0.067 C 
ATOM      8  C   UNL A   1      30.256  26.789  24.649  1.00  0.00     0.020 C 
ATOM      9  C   UNL A   1      31.347  25.763  22.646  1.00  0.00     0.140 C 
ATOM     10  C   UNL A   1      30.371  25.397  25.309  1.00  0.00     0.023 C 
ATOM     11  N   UNL A   1      31.973  24.760  23.481  1.00  0.00    -0.307 N 
ATOM     12  C   UNL A   1      31.197  24.304  24.616  1.00  0.00     0.123 C 
BRANCH   7  13
ATOM     13  C   UNL A   1      30.292  28.131  22.525  1.00  0.00     0.019 C 
BRANCH  13  14
ATOM     14  C   UNL A   1      28.893  28.581  22.999  1.00  0.00     0.005 C 
BRANCH  14  15
ATOM     15  C   UNL A   1      28.259  29.813  22.326  1.00  0.00     0.027 C 
BRANCH  15  16
ATOM     16  C   UNL A   1      27.899  30.949  23.245  1.00  0.00    -0.035 C 
ATOM     17  C   UNL A   1      28.793  31.769  23.809  1.00  0.00     0.004 C 
ENDBRANCH  15  16
ENDBRANCH  14  15
ENDBRANCH  13  14
ENDBRANCH   7  13
BRANCH  11  18
ATOM     18  C   UNL A   1      33.160  24.182  23.044  1.00  0.00     0.410 C 
ATOM     19  O   UNL A   1      33.745  24.552  22.033  1.00  0.00    -0.224 OA
BRANCH  18  20
ATOM     20  O   UNL A   1      33.631  23.213  23.876  1.00  0.00    -0.444 OA
BRANCH  20  21
ATOM     21  C   UNL A   1      34.860  23.442  24.627  1.00  0.00     0.106 C 
ATOM     22  C   UNL A   1      36.093  23.206  23.750  1.00  0.00     0.056 C 
ATOM     23  C   UNL A   1      34.907  24.834  25.282  1.00  0.00     0.056 C 
ATOM     24  C   UNL A   1      34.847  22.393  25.751  1.00  0.00     0.056 C 
ENDBRANCH  20  21
ENDBRANCH  18  20
ENDBRANCH  11  18
ENDBRANCH   4   7
ENDBRANCH   2   3
ENDBRANCH   1   2
BRANCH   1  25
ATOM     25  C   UNL A   1      32.671  30.865  27.016  1.00  0.00     0.023 C 
BRANCH  25  26
ATOM     26  C   UNL A   1      33.579  31.914  27.617  1.00  0.00     0.116 C 
BRANCH  26  27
ATOM     27  N   UNL A   1      32.985  33.246  27.661  1.00  0.00    -0.352 N 
ATOM     28  C   UNL A   1      33.292  34.270  28.530  1.00  0.00     0.251 C 
ATOM     29  H   UNL A   1      32.287  33.434  26.994  1.00  0.00     0.163 HD
ATOM     30  O   UNL A   1      32.650  35.313  28.533  1.00  0.00    -0.269 OA
BRANCH  28  31
ATOM     31  C   UNL A   1      34.387  34.041  29.494  1.00  0.00     0.039 A 
ATOM     32  C   UNL A   1      34.125  33.334  30.667  1.00  0.00     0.014 A 
ATOM     33  C   UNL A   1      35.694  34.368  29.129  1.00  0.00     0.014 A 
ATOM     34  C   UNL A   1      35.195  32.873  31.433  1.00  0.00     0.010 A 
ATOM     35  C   UNL A   1      36.750  33.789  29.817  1.00  0.00     0.010 A 
ATOM     36  C   UNL A   1      36.517  33.049  30.985  1.00  0.00    -0.014 A 
BRANCH  36  37
ATOM     37  C   UNL A   1      37.678  32.498  31.729  1.00  0.00     0.031 A 
ATOM     38  C   UNL A   1      38.449  31.346  31.139  1.00  0.00     0.074 A 
ATOM     39  C   UNL A   1      37.991  32.970  32.954  1.00  0.00     0.049 A 
ATOM     40  N   UNL A   1      39.430  30.656  31.661  1.00  0.00    -0.248 NA
ATOM     41  C   UNL A   1      38.036  30.877  29.803  1.00  0.00     0.031 C 
ATOM     42  C   UNL A   1      37.283  34.041  33.663  1.00  0.00     0.029 A 
ATOM     43  N   UNL A   1      38.985  32.603  33.827  1.00  0.00    -0.354 N 
ATOM     44  C   UNL A   1      39.722  29.660  30.736  1.00  0.00     0.074 A 
ATOM     45  C   UNL A   1      38.775  29.789  29.653  1.00  0.00     0.031 C 
ATOM     46  C   UNL A   1      37.887  34.266  34.842  1.00  0.00     0.029 A 
ATOM     47  C   UNL A   1      38.994  33.327  34.997  1.00  0.00     0.049 A 
ATOM     48  H   UNL A   1      39.632  31.887  33.634  1.00  0.00     0.167 HD
ATOM     49  C   UNL A   1      40.712  28.739  30.767  1.00  0.00     0.031 A 
ATOM     50  C   UNL A   1      39.798  33.241  36.076  1.00  0.00     0.031 A 
ATOM     51  C   UNL A   1      41.679  28.644  31.823  1.00  0.00     0.049 A 
ATOM     52  C   UNL A   1      40.904  32.219  36.078  1.00  0.00     0.074 A 
ATOM     53  C   UNL A   1      42.772  27.800  31.912  1.00  0.00     0.029 A 
ATOM     54  N   UNL A   1      41.674  29.420  32.971  1.00  0.00    -0.354 N 
ATOM     55  N   UNL A   1      41.216  31.341  35.153  1.00  0.00    -0.248 NA
ATOM     56  C   UNL A   1      41.775  32.183  37.261  1.00  0.00     0.031 C 
ATOM     57  C   UNL A   1      43.394  28.027  33.142  1.00  0.00     0.029 A 
ATOM     58  C   UNL A   1      42.729  29.057  33.787  1.00  0.00     0.049 A 
ATOM     59  H   UNL A   1      41.017  30.124  33.175  1.00  0.00     0.167 HD
ATOM     60  C   UNL A   1      42.337  30.670  35.632  1.00  0.00     0.074 A 
ATOM     61  C   UNL A   1      42.658  31.255  36.916  1.00  0.00     0.031 C 
ATOM     62  C   UNL A   1      43.037  29.660  35.059  1.00  0.00     0.031 A 
BRANCH  49  63
ATOM     63  C   UNL A   1      40.802  27.768  29.620  1.00  0.00    -0.014 A 
ATOM     64  C   UNL A   1      41.817  27.874  28.652  1.00  0.00     0.010 A 
ATOM     65  C   UNL A   1      39.888  26.702  29.538  1.00  0.00     0.010 A 
ATOM     66  C   UNL A   1      41.897  26.954  27.605  1.00  0.00     0.020 A 
ATOM     67  C   UNL A   1      39.984  25.759  28.511  1.00  0.00     0.020 A 
ATOM     68  C   UNL A   1      40.981  25.898  27.544  1.00  0.00     0.054 A 
BRANCH  68  69
ATOM     69  S   UNL A   1      41.142  24.688  26.202  1.00  0.00     0.124 S 
ATOM     70  O   UNL A   1      41.395  25.550  25.050  1.00  0.00    -0.237 OA
ATOM     71  O   UNL A   1      42.274  23.877  26.640  1.00  0.00    -0.237 OA
ATOM     72  O   UNL A   1      39.852  24.004  26.195  1.00  0.00    -0.744 OA
ENDBRANCH  68  69
ENDBRANCH  49  63
BRANCH  50  73
ATOM     73  C   UNL A   1      39.595  34.149  37.241  1.00  0.00    -0.014 A 
ATOM     74  C   UNL A   1      40.124  35.452  37.238  1.00  0.00     0.010 A 
ATOM     75  C   UNL A   1      38.879  33.708  38.370  1.00  0.00     0.010 A 
ATOM     76  C   UNL A   1      39.967  36.286  38.350  1.00  0.00     0.020 A 
ATOM     77  C   UNL A   1      38.692  34.550  39.470  1.00  0.00     0.020 A 
ATOM     78  C   UNL A   1      39.251  35.829  39.460  1.00  0.00     0.054 A 
BRANCH  78  79
ATOM     79  S   UNL A   1      39.033  36.940  40.879  1.00  0.00     0.124 S 
ATOM     80  O   UNL A   1      40.406  37.113  41.341  1.00  0.00    -0.237 OA
ATOM     81  O   UNL A   1      38.416  38.113  40.267  1.00  0.00    -0.237 OA
ATOM     82  O   UNL A   1      38.160  36.182  41.774  1.00  0.00    -0.744 OA
ENDBRANCH  78  79
ENDBRANCH  50  73
BRANCH  62  83
ATOM     83  C   UNL A   1      44.248  29.148  35.792  1.00  0.00    -0.014 A 
ATOM     84  C   UNL A   1      44.161  28.062  36.678  1.00  0.00     0.010 A 
ATOM     85  C   UNL A   1      45.507  29.720  35.526  1.00  0.00     0.010 A 
ATOM     86  C   UNL A   1      45.308  27.573  37.308  1.00  0.00     0.020 A 
ATOM     87  C   UNL A   1      46.660  29.213  36.129  1.00  0.00     0.020 A 
ATOM     88  C   UNL A   1      46.551  28.150  37.027  1.00  0.00     0.054 A 
BRANCH  88  89
ATOM     89  S   UNL A   1      48.031  27.461  37.815  1.00  0.00     0.124 S 
ATOM     90  O   UNL A   1      48.048  26.098  37.290  1.00  0.00    -0.237 OA
ATOM     91  O   UNL A   1      49.092  28.337  37.325  1.00  0.00    -0.237 OA
ATOM     92  O   UNL A   1      47.748  27.574  39.244  1.00  0.00    -0.744 OA
ENDBRANCH  88  89
ENDBRANCH  62  83
ENDBRANCH  36  37
ENDBRANCH  28  31
ENDBRANCH  26  27
ENDBRANCH  25  26
ENDBRANCH   1  25
TORSDOF 21
ENDMDL
MODEL 2
REMARK VINA RESULT:      -9.9      6.009     11.625
REMARK SMILES C=CCCC[C@@]1(C(=O)NCCCCNC(=O)c2ccc(-c3c4nc(c(-c5ccc(S(=O)(=O)[O-])cc5)c5ccc([nH]5)c(-c5ccc(S(=O)(=O)[O-])cc5)c5nc(c(-c6ccc(S(=O)(=O)[O-])cc6)c6ccc3[nH]6)C=C5)C=C4)cc2)CCCN(C(=O)OC(C)(C)C)C1
REMARK SMILES IDX 11 1 10 2 9 3 7 4 8 5 6 7 77 8 88 9 78 10 80 11 79 12 5 13
REMARK SMILES IDX 4 14 3 15 2 16 1 17 81 18 82 19 83 20 84 21 85 22 86 23
REMARK SMILES IDX 87 24 12 25 13 26 14 27 15 28 16 30 17 31 18 32 76 33 19 34
REMARK SMILES IDX 75 35 20 36 21 37 22 38 69 39 23 40 74 41 68 42 70 43 24 44
REMARK SMILES IDX 73 45 67 46 66 47 25 49 55 50 36 51 54 52 37 53 40 54 53 55
REMARK SMILES IDX 71 56 38 57 39 58 52 60 72 61 41 62 26 63 27 64 35 65 28 66
REMARK SMILES IDX 34 67 29 68 30 69 31 70 32 71 33 72 56 73 57 74 65 75 58 76
REMARK SMILES IDX 64 77 59 78 60 79 61 80 62 81 63 82 42 83 43 84 51 85 44 86
REMARK SMILES IDX 50 87 45 88 46 89 47 90 48 91 49 92
REMARK H PARENT 9 6 14 29 70 48 40 59
REMARK Flexibility Score: inf
ROOT
ATOM      1  C   UNL A   1      37.172  23.497  25.186  1.00  0.00     0.023 C 
ENDROOT
BRANCH   1   2
ATOM      2  C   UNL A   1      35.690  23.620  24.861  1.00  0.00     0.116 C 
BRANCH   2   3
ATOM      3  N   UNL A   1      34.859  23.163  25.951  1.00  0.00    -0.356 N 
ATOM      4  C   UNL A   1      33.652  22.562  26.043  1.00  0.00     0.228 C 
ATOM      5  O   UNL A   1      33.328  22.265  27.204  1.00  0.00    -0.274 OA
ATOM      6  H   UNL A   1      35.266  23.329  26.832  1.00  0.00     0.163 HD
BRANCH   4   7
ATOM      7  C   UNL A   1      32.652  22.291  24.881  1.00  0.00     0.067 C 
ATOM      8  C   UNL A   1      33.117  22.559  23.430  1.00  0.00     0.020 C 
ATOM      9  C   UNL A   1      31.410  23.143  25.162  1.00  0.00     0.140 C 
ATOM     10  C   UNL A   1      32.826  23.943  22.809  1.00  0.00     0.023 C 
ATOM     11  N   UNL A   1      31.649  24.554  24.943  1.00  0.00    -0.307 N 
ATOM     12  C   UNL A   1      31.955  24.943  23.582  1.00  0.00     0.123 C 
BRANCH   7  13
ATOM     13  C   UNL A   1      32.353  20.732  24.977  1.00  0.00     0.019 C 
BRANCH  13  14
ATOM     14  C   UNL A   1      32.723  19.814  23.792  1.00  0.00     0.005 C 
BRANCH  14  15
ATOM     15  C   UNL A   1      32.328  18.327  23.874  1.00  0.00     0.027 C 
BRANCH  15  16
ATOM     16  C   UNL A   1      33.214  17.371  23.121  1.00  0.00    -0.035 C 
ATOM     17  C   UNL A   1      34.362  16.878  23.599  1.00  0.00     0.004 C 
ENDBRANCH  15  16
ENDBRANCH  14  15
ENDBRANCH  13  14
ENDBRANCH   7  13
BRANCH  11  18
ATOM     18  C   UNL A   1      31.390  25.438  25.986  1.00  0.00     0.410 C 
ATOM     19  O   UNL A   1      31.410  25.099  27.163  1.00  0.00    -0.224 OA
BRANCH  18  20
ATOM     20  O   UNL A   1      31.172  26.716  25.572  1.00  0.00    -0.444 OA
BRANCH  20  21
ATOM     21  C   UNL A   1      32.000  27.795  26.096  1.00  0.00     0.106 C 
ATOM     22  C   UNL A   1      31.601  28.149  27.531  1.00  0.00     0.056 C 
ATOM     23  C   UNL A   1      33.506  27.490  26.001  1.00  0.00     0.056 C 
ATOM     24  C   UNL A   1      31.708  29.004  25.192  1.00  0.00     0.056 C 
ENDBRANCH  20  21
ENDBRANCH  18  20
ENDBRANCH  11  18
ENDBRANCH   4   7
ENDBRANCH   2   3
ENDBRANCH   1   2
BRANCH   1  25
ATOM     25  C   UNL A   1      37.578  22.165  25.788  1.00  0.00     0.023 C 
BRANCH  25  26
ATOM     26  C   UNL A   1      39.045  22.071  26.141  1.00  0.00     0.116 C 
BRANCH  26  27
ATOM     27  N   UNL A   1      39.580  20.716  26.061  1.00  0.00    -0.352 N 
ATOM     28  C   UNL A   1      40.899  20.330  26.164  1.00  0.00     0.251 C 
ATOM     29  H   UNL A   1      38.926  19.996  25.916  1.00  0.00     0.163 HD
ATOM     30  O   UNL A   1      41.237  19.168  25.978  1.00  0.00    -0.269 OA
BRANCH  28  31
ATOM     31  C   UNL A   1      41.896  21.381  26.454  1.00  0.00     0.039 A 
ATOM     32  C   UNL A   1      42.284  22.251  25.436  1.00  0.00     0.014 A 
ATOM     33  C   UNL A   1      42.286  21.603  27.776  1.00  0.00     0.014 A 
ATOM     34  C   UNL A   1      42.996  23.404  25.766  1.00  0.00     0.010 A 
ATOM     35  C   UNL A   1      42.868  22.816  28.113  1.00  0.00     0.010 A 
ATOM     36  C   UNL A   1      43.245  23.724  27.112  1.00  0.00    -0.014 A 
BRANCH  36  37
ATOM     37  C   UNL A   1      43.924  24.985  27.508  1.00  0.00     0.031 A 
ATOM     38  C   UNL A   1      43.128  26.062  28.198  1.00  0.00     0.074 A 
ATOM     39  C   UNL A   1      45.216  25.196  27.182  1.00  0.00     0.049 A 
ATOM     40  N   UNL A   1      43.498  27.269  28.541  1.00  0.00    -0.248 NA
ATOM     41  C   UNL A   1      41.717  25.761  28.504  1.00  0.00     0.031 C 
ATOM     42  C   UNL A   1      46.079  24.256  26.458  1.00  0.00     0.029 A 
ATOM     43  N   UNL A   1      46.032  26.276  27.413  1.00  0.00    -0.354 N 
ATOM     44  C   UNL A   1      42.362  27.873  29.067  1.00  0.00     0.074 A 
ATOM     45  C   UNL A   1      41.276  26.931  28.939  1.00  0.00     0.031 C 
ATOM     46  C   UNL A   1      47.308  24.787  26.337  1.00  0.00     0.029 A 
ATOM     47  C   UNL A   1      47.311  26.120  26.930  1.00  0.00     0.049 A 
ATOM     48  H   UNL A   1      45.729  27.088  27.879  1.00  0.00     0.167 HD
ATOM     49  C   UNL A   1      42.239  29.093  29.639  1.00  0.00     0.031 A 
ATOM     50  C   UNL A   1      48.366  26.959  26.956  1.00  0.00     0.031 A 
ATOM     51  C   UNL A   1      43.332  30.008  29.806  1.00  0.00     0.049 A 
ATOM     52  C   UNL A   1      48.208  28.305  27.614  1.00  0.00     0.074 A 
ATOM     53  C   UNL A   1      43.333  31.235  30.445  1.00  0.00     0.029 A 
ATOM     54  N   UNL A   1      44.619  29.796  29.337  1.00  0.00    -0.354 N 
ATOM     55  N   UNL A   1      47.145  28.824  28.183  1.00  0.00    -0.248 NA
ATOM     56  C   UNL A   1      49.394  29.173  27.647  1.00  0.00     0.031 C 
ATOM     57  C   UNL A   1      44.608  31.792  30.311  1.00  0.00     0.029 A 
ATOM     58  C   UNL A   1      45.417  30.882  29.648  1.00  0.00     0.049 A 
ATOM     59  H   UNL A   1      44.920  28.993  28.853  1.00  0.00     0.167 HD
ATOM     60  C   UNL A   1      47.545  30.066  28.667  1.00  0.00     0.074 A 
ATOM     61  C   UNL A   1      48.947  30.212  28.340  1.00  0.00     0.031 C 
ATOM     62  C   UNL A   1      46.815  31.002  29.322  1.00  0.00     0.031 A 
BRANCH  49  63
ATOM     63  C   UNL A   1      40.877  29.502  30.133  1.00  0.00    -0.014 A 
ATOM     64  C   UNL A   1      40.404  29.092  31.393  1.00  0.00     0.010 A 
ATOM     65  C   UNL A   1      40.079  30.352  29.346  1.00  0.00     0.010 A 
ATOM     66  C   UNL A   1      39.146  29.496  31.843  1.00  0.00     0.020 A 
ATOM     67  C   UNL A   1      38.833  30.786  29.807  1.00  0.00     0.020 A 
ATOM     68  C   UNL A   1      38.369  30.345  31.048  1.00  0.00     0.054 A 
BRANCH  68  69
ATOM     69  S   UNL A   1      36.762  30.895  31.682  1.00  0.00     0.124 S 
ATOM     70  O   UNL A   1      37.128  32.100  32.422  1.00  0.00    -0.237 OA
ATOM     71  O   UNL A   1      35.996  31.118  30.459  1.00  0.00    -0.237 OA
ATOM     72  O   UNL A   1      36.310  29.775  32.503  1.00  0.00    -0.744 OA
ENDBRANCH  68  69
ENDBRANCH  49  63
BRANCH  50  73
ATOM     73  C   UNL A   1      49.666  26.555  26.347  1.00  0.00    -0.014 A 
ATOM     74  C   UNL A   1      50.526  25.665  27.015  1.00  0.00     0.010 A 
ATOM     75  C   UNL A   1      50.056  27.069  25.097  1.00  0.00     0.010 A 
ATOM     76  C   UNL A   1      51.763  25.321  26.460  1.00  0.00     0.020 A 
ATOM     77  C   UNL A   1      51.277  26.701  24.523  1.00  0.00     0.020 A 
ATOM     78  C   UNL A   1      52.130  25.841  25.216  1.00  0.00     0.054 A 
BRANCH  78  79
ATOM     79  S   UNL A   1      53.726  25.355  24.500  1.00  0.00     0.124 S 
ATOM     80  O   UNL A   1      53.796  23.941  24.850  1.00  0.00    -0.237 OA
ATOM     81  O   UNL A   1      53.538  25.650  23.082  1.00  0.00    -0.237 OA
ATOM     82  O   UNL A   1      54.685  26.220  25.186  1.00  0.00    -0.744 OA
ENDBRANCH  78  79
ENDBRANCH  50  73
BRANCH  62  83
ATOM     83  C   UNL A   1      47.524  32.251  29.772  1.00  0.00    -0.014 A 
ATOM     84  C   UNL A   1      47.562  33.401  28.966  1.00  0.00     0.010 A 
ATOM     85  C   UNL A   1      48.097  32.293  31.057  1.00  0.00     0.010 A 
ATOM     86  C   UNL A   1      48.184  34.564  29.426  1.00  0.00     0.020 A 
ATOM     87  C   UNL A   1      48.690  33.463  31.534  1.00  0.00     0.020 A 
ATOM     88  C   UNL A   1      48.742  34.588  30.709  1.00  0.00     0.054 A 
BRANCH  88  89
ATOM     89  S   UNL A   1      49.494  36.127  31.303  1.00  0.00     0.124 S 
ATOM     90  O   UNL A   1      48.461  36.645  32.195  1.00  0.00    -0.237 OA
ATOM     91  O   UNL A   1      50.711  35.656  31.959  1.00  0.00    -0.237 OA
ATOM     92  O   UNL A   1      49.709  36.902  30.084  1.00  0.00    -0.744 OA
ENDBRANCH  88  89
ENDBRANCH  62  83
ENDBRANCH  36  37
ENDBRANCH  28  31
ENDBRANCH  26  27
ENDBRANCH  25  26
ENDBRANCH   1  25
TORSDOF 21
ENDMDL
MODEL 3
REMARK VINA RESULT:      -9.6      6.074      9.747
REMARK SMILES C=CCCC[C@@]1(C(=O)NCCCCNC(=O)c2ccc(-c3c4nc(c(-c5ccc(S(=O)(=O)[O-])cc5)c5ccc([nH]5)c(-c5ccc(S(=O)(=O)[O-])cc5)c5nc(c(-c6ccc(S(=O)(=O)[O-])cc6)c6ccc3[nH]6)C=C5)C=C4)cc2)CCCN(C(=O)OC(C)(C)C)C1
REMARK SMILES IDX 11 1 10 2 9 3 7 4 8 5 6 7 77 8 88 9 78 10 80 11 79 12 5 13
REMARK SMILES IDX 4 14 3 15 2 16 1 17 81 18 82 19 83 20 84 21 85 22 86 23
REMARK SMILES IDX 87 24 12 25 13 26 14 27 15 28 16 30 17 31 18 32 76 33 19 34
REMARK SMILES IDX 75 35 20 36 21 37 22 38 69 39 23 40 74 41 68 42 70 43 24 44
REMARK SMILES IDX 73 45 67 46 66 47 25 49 55 50 36 51 54 52 37 53 40 54 53 55
REMARK SMILES IDX 71 56 38 57 39 58 52 60 72 61 41 62 26 63 27 64 35 65 28 66
REMARK SMILES IDX 34 67 29 68 30 69 31 70 32 71 33 72 56 73 57 74 65 75 58 76
REMARK SMILES IDX 64 77 59 78 60 79 61 80 62 81 63 82 42 83 43 84 51 85 44 86
REMARK SMILES IDX 50 87 45 88 46 89 47 90 48 91 49 92
REMARK H PARENT 9 6 14 29 70 48 40 59
REMARK Flexibility Score: inf
ROOT
ATOM      1  C   UNL A   1      37.268  22.141  24.250  1.00  0.00     0.023 C 
ENDROOT
BRANCH   1   2
ATOM      2  C   UNL A   1      35.749  22.064  24.193  1.00  0.00     0.116 C 
BRANCH   2   3
ATOM      3  N   UNL A   1      35.170  21.846  25.499  1.00  0.00    -0.356 N 
ATOM      4  C   UNL A   1      34.015  21.310  25.953  1.00  0.00     0.228 C 
ATOM      5  O   UNL A   1      33.945  21.247  27.191  1.00  0.00    -0.274 OA
ATOM      6  H   UNL A   1      35.752  22.161  26.228  1.00  0.00     0.163 HD
BRANCH   4   7
ATOM      7  C   UNL A   1      32.795  20.857  25.098  1.00  0.00     0.067 C 
ATOM      8  C   UNL A   1      32.865  21.032  23.562  1.00  0.00     0.020 C 
ATOM      9  C   UNL A   1      31.579  21.626  25.624  1.00  0.00     0.140 C 
ATOM     10  C   UNL A   1      32.293  22.328  22.944  1.00  0.00     0.023 C 
ATOM     11  N   UNL A   1      31.614  23.027  25.261  1.00  0.00    -0.307 N 
ATOM     12  C   UNL A   1      31.539  23.318  23.843  1.00  0.00     0.123 C 
BRANCH   7  13
ATOM     13  C   UNL A   1      32.687  19.294  25.368  1.00  0.00     0.019 C 
BRANCH  13  14
ATOM     14  C   UNL A   1      33.695  18.336  24.696  1.00  0.00     0.005 C 
BRANCH  14  15
ATOM     15  C   UNL A   1      33.268  16.873  24.469  1.00  0.00     0.027 C 
BRANCH  15  16
ATOM     16  C   UNL A   1      34.060  15.835  25.216  1.00  0.00    -0.035 C 
ATOM     17  C   UNL A   1      35.391  15.862  25.352  1.00  0.00     0.004 C 
ENDBRANCH  15  16
ENDBRANCH  14  15
ENDBRANCH  13  14
ENDBRANCH   7  13
BRANCH  11  18
ATOM     18  C   UNL A   1      31.528  23.976  26.274  1.00  0.00     0.410 C 
ATOM     19  O   UNL A   1      31.012  23.741  27.361  1.00  0.00    -0.224 OA
BRANCH  18  20
ATOM     20  O   UNL A   1      32.121  25.160  25.960  1.00  0.00    -0.444 OA
BRANCH  20  21
ATOM     21  C   UNL A   1      31.294  26.320  25.646  1.00  0.00     0.106 C 
ATOM     22  C   UNL A   1      31.802  27.034  24.390  1.00  0.00     0.056 C 
ATOM     23  C   UNL A   1      29.801  25.969  25.515  1.00  0.00     0.056 C 
ATOM     24  C   UNL A   1      31.451  27.265  26.848  1.00  0.00     0.056 C 
ENDBRANCH  20  21
ENDBRANCH  18  20
ENDBRANCH  11  18
ENDBRANCH   4   7
ENDBRANCH   2   3
ENDBRANCH   1   2
BRANCH   1  25
ATOM     25  C   UNL A   1      37.926  21.045  25.068  1.00  0.00     0.023 C 
BRANCH  25  26
ATOM     26  C   UNL A   1      38.894  21.554  26.112  1.00  0.00     0.116 C 
BRANCH  26  27
ATOM     27  N   UNL A   1      40.071  20.708  26.280  1.00  0.00    -0.352 N 
ATOM     28  C   UNL A   1      41.325  21.093  26.705  1.00  0.00     0.251 C 
ATOM     29  H   UNL A   1      39.957  19.755  26.066  1.00  0.00     0.163 HD
ATOM     30  O   UNL A   1      42.262  20.306  26.708  1.00  0.00    -0.269 OA
BRANCH  28  31
ATOM     31  C   UNL A   1      41.506  22.504  27.102  1.00  0.00     0.039 A 
ATOM     32  C   UNL A   1      42.009  22.795  28.369  1.00  0.00     0.014 A 
ATOM     33  C   UNL A   1      41.351  23.506  26.143  1.00  0.00     0.014 A 
ATOM     34  C   UNL A   1      42.444  24.092  28.643  1.00  0.00     0.010 A 
ATOM     35  C   UNL A   1      41.913  24.753  26.374  1.00  0.00     0.010 A 
ATOM     36  C   UNL A   1      42.452  25.067  27.630  1.00  0.00    -0.014 A 
BRANCH  36  37
ATOM     37  C   UNL A   1      42.988  26.433  27.859  1.00  0.00     0.031 A 
ATOM     38  C   UNL A   1      44.438  26.713  27.562  1.00  0.00     0.074 A 
ATOM     39  C   UNL A   1      42.207  27.391  28.401  1.00  0.00     0.049 A 
ATOM     40  N   UNL A   1      45.129  27.802  27.777  1.00  0.00    -0.248 NA
ATOM     41  C   UNL A   1      45.229  25.609  26.986  1.00  0.00     0.031 C 
ATOM     42  C   UNL A   1      40.803  27.228  28.792  1.00  0.00     0.029 A 
ATOM     43  N   UNL A   1      42.487  28.696  28.725  1.00  0.00    -0.354 N 
ATOM     44  C   UNL A   1      46.432  27.500  27.398  1.00  0.00     0.074 A 
ATOM     45  C   UNL A   1      46.453  26.112  27.002  1.00  0.00     0.031 C 
ATOM     46  C   UNL A   1      40.338  28.396  29.268  1.00  0.00     0.029 A 
ATOM     47  C   UNL A   1      41.418  29.377  29.262  1.00  0.00     0.049 A 
ATOM     48  H   UNL A   1      43.370  29.106  28.587  1.00  0.00     0.167 HD
ATOM     49  C   UNL A   1      47.510  28.316  27.349  1.00  0.00     0.031 A 
ATOM     50  C   UNL A   1      41.321  30.647  29.705  1.00  0.00     0.031 A 
ATOM     51  C   UNL A   1      47.474  29.707  27.700  1.00  0.00     0.049 A 
ATOM     52  C   UNL A   1      42.532  31.539  29.624  1.00  0.00     0.074 A 
ATOM     53  C   UNL A   1      48.490  30.641  27.609  1.00  0.00     0.029 A 
ATOM     54  N   UNL A   1      46.363  30.366  28.203  1.00  0.00    -0.354 N 
ATOM     55  N   UNL A   1      43.735  31.257  29.181  1.00  0.00    -0.248 NA
ATOM     56  C   UNL A   1      42.370  32.924  30.089  1.00  0.00     0.031 C 
ATOM     57  C   UNL A   1      48.010  31.853  28.113  1.00  0.00     0.029 A 
ATOM     58  C   UNL A   1      46.676  31.689  28.453  1.00  0.00     0.049 A 
ATOM     59  H   UNL A   1      45.483  29.954  28.360  1.00  0.00     0.167 HD
ATOM     60  C   UNL A   1      44.462  32.438  29.287  1.00  0.00     0.074 A 
ATOM     61  C   UNL A   1      43.562  33.439  29.818  1.00  0.00     0.031 C 
ATOM     62  C   UNL A   1      45.761  32.673  28.973  1.00  0.00     0.031 A 
BRANCH  49  63
ATOM     63  C   UNL A   1      48.817  27.724  26.893  1.00  0.00    -0.014 A 
ATOM     64  C   UNL A   1      49.769  27.257  27.817  1.00  0.00     0.010 A 
ATOM     65  C   UNL A   1      49.074  27.586  25.516  1.00  0.00     0.010 A 
ATOM     66  C   UNL A   1      50.968  26.695  27.375  1.00  0.00     0.020 A 
ATOM     67  C   UNL A   1      50.259  26.993  25.069  1.00  0.00     0.020 A 
ATOM     68  C   UNL A   1      51.204  26.563  26.003  1.00  0.00     0.054 A 
BRANCH  68  69
ATOM     69  S   UNL A   1      52.747  25.780  25.460  1.00  0.00     0.124 S 
ATOM     70  O   UNL A   1      52.791  26.150  24.048  1.00  0.00    -0.237 OA
ATOM     71  O   UNL A   1      53.746  26.423  26.309  1.00  0.00    -0.237 OA
ATOM     72  O   UNL A   1      52.528  24.360  25.724  1.00  0.00    -0.744 OA
ENDBRANCH  68  69
ENDBRANCH  49  63
BRANCH  50  73
ATOM     73  C   UNL A   1      40.034  31.155  30.260  1.00  0.00    -0.014 A 
ATOM     74  C   UNL A   1      39.787  31.127  31.645  1.00  0.00     0.010 A 
ATOM     75  C   UNL A   1      39.039  31.660  29.402  1.00  0.00     0.010 A 
ATOM     76  C   UNL A   1      38.562  31.566  32.158  1.00  0.00     0.020 A 
ATOM     77  C   UNL A   1      37.826  32.130  29.914  1.00  0.00     0.020 A 
ATOM     78  C   UNL A   1      37.589  32.066  31.287  1.00  0.00     0.054 A 
BRANCH  78  79
ATOM     79  S   UNL A   1      36.019  32.660  31.979  1.00  0.00     0.124 S 
ATOM     80  O   UNL A   1      35.828  31.762  33.112  1.00  0.00    -0.237 OA
ATOM     81  O   UNL A   1      36.328  34.048  32.313  1.00  0.00    -0.237 OA
ATOM     82  O   UNL A   1      35.075  32.489  30.876  1.00  0.00    -0.744 OA
ENDBRANCH  78  79
ENDBRANCH  50  73
BRANCH  62  83
ATOM     83  C   UNL A   1      46.279  34.074  29.152  1.00  0.00    -0.014 A 
ATOM     84  C   UNL A   1      46.216  35.015  28.111  1.00  0.00     0.010 A 
ATOM     85  C   UNL A   1      46.768  34.472  30.411  1.00  0.00     0.010 A 
ATOM     86  C   UNL A   1      46.659  36.324  28.317  1.00  0.00     0.020 A 
ATOM     87  C   UNL A   1      47.181  35.788  30.630  1.00  0.00     0.020 A 
ATOM     88  C   UNL A   1      47.136  36.703  29.576  1.00  0.00     0.054 A 
BRANCH  88  89
ATOM     89  S   UNL A   1      47.652  38.422  29.832  1.00  0.00     0.124 S 
ATOM     90  O   UNL A   1      48.168  38.783  28.515  1.00  0.00    -0.237 OA
ATOM     91  O   UNL A   1      46.404  39.076  30.219  1.00  0.00    -0.237 OA
ATOM     92  O   UNL A   1      48.655  38.330  30.890  1.00  0.00    -0.744 OA
ENDBRANCH  88  89
ENDBRANCH  62  83
ENDBRANCH  36  37
ENDBRANCH  28  31
ENDBRANCH  26  27
ENDBRANCH  25  26
ENDBRANCH   1  25
TORSDOF 21
ENDMDL
