MODEL 1
REMARK VINA RESULT:     -11.7      0.000      0.000
REMARK SMILES Cc1c[nH]c(C[N@H+]2C[C@@H]3CN(S(C)(=O)=O)C[C@]3(C(=O)NCCCCNC(=O)c3ccc(-c4c5nc(c(-c6ccc(S(=O)(=O)[O-])cc6)c6ccc([nH]6)c(-c6ccc(S(=O)(=O)[O-])cc6)c6nc(c(-c7ccc(S(=O)(=O)[O-])cc7)c7ccc4[nH]7)C=C6)C=C5)cc3)C2)n1
REMARK SMILES IDX 23 1 22 2 21 3 20 4 18 5 19 6 17 8 7 9 8 10 88 11 9 13 10 14
REMARK SMILES IDX 16 15 11 16 6 17 5 18 1 19 2 20 3 21 89 22 4 23 12 25 13 26
REMARK SMILES IDX 14 27 15 28 24 29 25 30 26 31 27 33 28 34 29 35 87 36 30 37
REMARK SMILES IDX 86 38 31 39 32 40 33 41 80 42 34 43 85 44 79 45 81 46 35 47
REMARK SMILES IDX 84 48 78 49 77 50 36 52 66 53 47 54 65 55 48 56 51 57 64 58
REMARK SMILES IDX 82 59 49 60 50 61 63 63 83 64 52 65 37 66 38 67 46 68 39 69
REMARK SMILES IDX 45 70 40 71 41 72 42 73 43 74 44 75 67 76 68 77 76 78 69 79
REMARK SMILES IDX 75 80 70 81 71 82 72 83 73 84 74 85 53 86 54 87 62 88 55 89
REMARK SMILES IDX 61 90 56 91 57 92 58 93 59 94 60 95
REMARK H PARENT 20 7 7 12 4 24 25 32 81 51 51 62
REMARK Flexibility Score: inf
ROOT
ATOM      1  C   UNL A   1      32.953  28.042  27.471  1.00  0.00     0.023 C 
ENDROOT
BRANCH   1   2
ATOM      2  C   UNL A   1      31.566  27.869  26.885  1.00  0.00     0.023 C 
BRANCH   2   3
ATOM      3  C   UNL A   1      31.466  26.792  25.795  1.00  0.00     0.116 C 
BRANCH   3   4
ATOM      4  N   UNL A   1      31.111  25.517  26.393  1.00  0.00    -0.355 N 
ATOM      5  C   UNL A   1      31.221  24.276  25.800  1.00  0.00     0.233 C 
ATOM      6  O   UNL A   1      30.395  23.418  26.109  1.00  0.00    -0.274 OA
ATOM      7  H   UNL A   1      30.759  25.542  27.311  1.00  0.00     0.163 HD
BRANCH   5   8
ATOM      8  C   UNL A   1      32.426  24.057  24.796  1.00  0.00     0.121 C 
ATOM      9  N   UNL A   1      34.435  22.756  25.645  1.00  0.00    -0.327 N 
ATOM     10  C   UNL A   1      34.468  22.727  24.206  1.00  0.00     0.268 C 
ATOM     11  C   UNL A   1      33.063  23.194  25.991  1.00  0.00     0.281 C 
ATOM     12  H   UNL A   1      35.140  23.396  26.011  1.00  0.00     0.348 HD
ATOM     13  C   UNL A   1      33.013  22.914  23.825  1.00  0.00     0.082 C 
ATOM     14  C   UNL A   1      32.963  23.327  22.356  1.00  0.00     0.113 C 
ATOM     15  C   UNL A   1      31.347  24.307  23.675  1.00  0.00     0.125 C 
ATOM     16  N   UNL A   1      32.081  24.470  22.398  1.00  0.00    -0.200 NA
BRANCH   9  17
ATOM     17  C   UNL A   1      34.806  21.470  26.278  1.00  0.00     0.338 C 
BRANCH  17  18
ATOM     18  C   UNL A   1      34.155  20.248  25.685  1.00  0.00     0.161 A 
ATOM     19  C   UNL A   1      34.076  17.341  23.640  1.00  0.00     0.068 C 
ATOM     20  C   UNL A   1      33.784  18.416  24.612  1.00  0.00     0.056 A 
ATOM     21  C   UNL A   1      32.778  18.514  25.546  1.00  0.00     0.107 A 
ATOM     22  N   UNL A   1      34.607  19.509  24.693  1.00  0.00    -0.233 NA
ATOM     23  N   UNL A   1      33.004  19.695  26.199  1.00  0.00    -0.344 N 
ATOM     24  H   UNL A   1      32.443  20.081  26.909  1.00  0.00     0.167 HD
ENDBRANCH  17  18
ENDBRANCH   9  17
BRANCH  16  25
ATOM     25  S   UNL A   1      32.678  25.967  21.904  1.00  0.00     0.211 S 
ATOM     26  C   UNL A   1      31.269  27.071  21.964  1.00  0.00     0.176 C 
ATOM     27  O   UNL A   1      33.603  26.417  22.918  1.00  0.00    -0.213 OA
ATOM     28  O   UNL A   1      33.088  25.851  20.520  1.00  0.00    -0.213 OA
ENDBRANCH  16  25
ENDBRANCH   5   8
ENDBRANCH   3   4
ENDBRANCH   2   3
ENDBRANCH   1   2
BRANCH   1  29
ATOM     29  C   UNL A   1      33.726  29.201  26.871  1.00  0.00     0.116 C 
BRANCH  29  30
ATOM     30  N   UNL A   1      33.666  30.436  27.649  1.00  0.00    -0.352 N 
ATOM     31  C   UNL A   1      34.663  30.952  28.448  1.00  0.00     0.251 C 
ATOM     32  H   UNL A   1      32.829  30.952  27.598  1.00  0.00     0.163 HD
ATOM     33  O   UNL A   1      34.509  31.970  29.109  1.00  0.00    -0.269 OA
BRANCH  31  34
ATOM     34  C   UNL A   1      35.919  30.185  28.505  1.00  0.00     0.039 A 
ATOM     35  C   UNL A   1      36.814  30.274  27.438  1.00  0.00     0.014 A 
ATOM     36  C   UNL A   1      36.290  29.607  29.721  1.00  0.00     0.014 A 
ATOM     37  C   UNL A   1      38.128  29.845  27.621  1.00  0.00     0.010 A 
ATOM     38  C   UNL A   1      37.622  29.294  29.932  1.00  0.00     0.010 A 
ATOM     39  C   UNL A   1      38.553  29.401  28.884  1.00  0.00    -0.014 A 
BRANCH  39  40
ATOM     40  C   UNL A   1      39.956  28.996  29.150  1.00  0.00     0.031 A 
ATOM     41  C   UNL A   1      40.908  30.022  29.703  1.00  0.00     0.074 A 
ATOM     42  C   UNL A   1      40.394  27.767  28.812  1.00  0.00     0.049 A 
ATOM     43  N   UNL A   1      42.202  29.950  29.856  1.00  0.00    -0.248 NA
ATOM     44  C   UNL A   1      40.327  31.321  30.093  1.00  0.00     0.031 C 
ATOM     45  C   UNL A   1      39.576  26.693  28.244  1.00  0.00     0.029 A 
ATOM     46  N   UNL A   1      41.651  27.218  28.886  1.00  0.00    -0.354 N 
ATOM     47  C   UNL A   1      42.592  31.200  30.322  1.00  0.00     0.074 A 
ATOM     48  C   UNL A   1      41.411  32.030  30.365  1.00  0.00     0.031 C 
ATOM     49  C   UNL A   1      40.346  25.610  28.046  1.00  0.00     0.029 A 
ATOM     50  C   UNL A   1      41.722  25.926  28.418  1.00  0.00     0.049 A 
ATOM     51  H   UNL A   1      42.430  27.705  29.242  1.00  0.00     0.167 HD
ATOM     52  C   UNL A   1      43.820  31.614  30.706  1.00  0.00     0.031 A 
ATOM     53  C   UNL A   1      42.779  25.098  28.288  1.00  0.00     0.031 A 
ATOM     54  C   UNL A   1      44.985  30.773  30.687  1.00  0.00     0.049 A 
ATOM     55  C   UNL A   1      44.142  25.585  28.706  1.00  0.00     0.074 A 
ATOM     56  C   UNL A   1      46.266  31.075  31.107  1.00  0.00     0.029 A 
ATOM     57  N   UNL A   1      45.005  29.465  30.229  1.00  0.00    -0.354 N 
ATOM     58  N   UNL A   1      44.485  26.756  29.191  1.00  0.00    -0.248 NA
ATOM     59  C   UNL A   1      45.259  24.640  28.569  1.00  0.00     0.031 C 
ATOM     60  C   UNL A   1      47.078  29.967  30.847  1.00  0.00     0.029 A 
ATOM     61  C   UNL A   1      46.285  28.951  30.337  1.00  0.00     0.049 A 
ATOM     62  H   UNL A   1      44.227  28.974  29.879  1.00  0.00     0.167 HD
ATOM     63  C   UNL A   1      45.847  26.671  29.459  1.00  0.00     0.074 A 
ATOM     64  C   UNL A   1      46.265  25.336  29.082  1.00  0.00     0.031 C 
ATOM     65  C   UNL A   1      46.676  27.610  29.978  1.00  0.00     0.031 A 
BRANCH  52  66
ATOM     66  C   UNL A   1      43.962  33.038  31.172  1.00  0.00    -0.014 A 
ATOM     67  C   UNL A   1      44.183  34.086  30.259  1.00  0.00     0.010 A 
ATOM     68  C   UNL A   1      43.848  33.337  32.542  1.00  0.00     0.010 A 
ATOM     69  C   UNL A   1      44.331  35.399  30.711  1.00  0.00     0.020 A 
ATOM     70  C   UNL A   1      43.959  34.654  32.994  1.00  0.00     0.020 A 
ATOM     71  C   UNL A   1      44.217  35.675  32.077  1.00  0.00     0.054 A 
BRANCH  71  72
ATOM     72  S   UNL A   1      44.386  37.392  32.632  1.00  0.00     0.124 S 
ATOM     73  O   UNL A   1      44.061  38.133  31.416  1.00  0.00    -0.237 OA
ATOM     74  O   UNL A   1      43.397  37.479  33.703  1.00  0.00    -0.237 OA
ATOM     75  O   UNL A   1      45.778  37.483  33.063  1.00  0.00    -0.744 OA
ENDBRANCH  71  72
ENDBRANCH  52  66
BRANCH  53  76
ATOM     76  C   UNL A   1      42.591  23.721  27.749  1.00  0.00    -0.014 A 
ATOM     77  C   UNL A   1      42.665  23.479  26.366  1.00  0.00     0.010 A 
ATOM     78  C   UNL A   1      42.339  22.641  28.616  1.00  0.00     0.010 A 
ATOM     79  C   UNL A   1      42.468  22.191  25.858  1.00  0.00     0.020 A 
ATOM     80  C   UNL A   1      42.174  21.346  28.115  1.00  0.00     0.020 A 
ATOM     81  C   UNL A   1      42.228  21.132  26.737  1.00  0.00     0.054 A 
BRANCH  81  82
ATOM     82  S   UNL A   1      42.019  19.461  26.057  1.00  0.00     0.124 S 
ATOM     83  O   UNL A   1      40.577  19.398  25.843  1.00  0.00    -0.237 OA
ATOM     84  O   UNL A   1      42.837  19.511  24.847  1.00  0.00    -0.237 OA
ATOM     85  O   UNL A   1      42.534  18.594  27.114  1.00  0.00    -0.744 OA
ENDBRANCH  81  82
ENDBRANCH  53  76
BRANCH  65  86
ATOM     86  C   UNL A   1      48.105  27.223  30.244  1.00  0.00    -0.014 A 
ATOM     87  C   UNL A   1      49.143  27.587  29.370  1.00  0.00     0.010 A 
ATOM     88  C   UNL A   1      48.421  26.578  31.457  1.00  0.00     0.010 A 
ATOM     89  C   UNL A   1      50.472  27.303  29.700  1.00  0.00     0.020 A 
ATOM     90  C   UNL A   1      49.749  26.322  31.802  1.00  0.00     0.020 A 
ATOM     91  C   UNL A   1      50.767  26.681  30.918  1.00  0.00     0.054 A 
BRANCH  91  92
ATOM     92  S   UNL A   1      52.503  26.405  31.359  1.00  0.00     0.124 S 
ATOM     93  O   UNL A   1      52.874  27.685  31.957  1.00  0.00    -0.237 OA
ATOM     94  O   UNL A   1      52.420  25.279  32.286  1.00  0.00    -0.237 OA
ATOM     95  O   UNL A   1      53.144  26.106  30.081  1.00  0.00    -0.744 OA
ENDBRANCH  91  92
ENDBRANCH  65  86
ENDBRANCH  39  40
ENDBRANCH  31  34
ENDBRANCH  29  30
ENDBRANCH   1  29
TORSDOF 17
ENDMDL
MODEL 2
REMARK VINA RESULT:     -11.3      2.807      3.574
REMARK SMILES Cc1c[nH]c(C[N@H+]2C[C@@H]3CN(S(C)(=O)=O)C[C@]3(C(=O)NCCCCNC(=O)c3ccc(-c4c5nc(c(-c6ccc(S(=O)(=O)[O-])cc6)c6ccc([nH]6)c(-c6ccc(S(=O)(=O)[O-])cc6)c6nc(c(-c7ccc(S(=O)(=O)[O-])cc7)c7ccc4[nH]7)C=C6)C=C5)cc3)C2)n1
REMARK SMILES IDX 23 1 22 2 21 3 20 4 18 5 19 6 17 8 7 9 8 10 88 11 9 13 10 14
REMARK SMILES IDX 16 15 11 16 6 17 5 18 1 19 2 20 3 21 89 22 4 23 12 25 13 26
REMARK SMILES IDX 14 27 15 28 24 29 25 30 26 31 27 33 28 34 29 35 87 36 30 37
REMARK SMILES IDX 86 38 31 39 32 40 33 41 80 42 34 43 85 44 79 45 81 46 35 47
REMARK SMILES IDX 84 48 78 49 77 50 36 52 66 53 47 54 65 55 48 56 51 57 64 58
REMARK SMILES IDX 82 59 49 60 50 61 63 63 83 64 52 65 37 66 38 67 46 68 39 69
REMARK SMILES IDX 45 70 40 71 41 72 42 73 43 74 44 75 67 76 68 77 76 78 69 79
REMARK SMILES IDX 75 80 70 81 71 82 72 83 73 84 74 85 53 86 54 87 62 88 55 89
REMARK SMILES IDX 61 90 56 91 57 92 58 93 59 94 60 95
REMARK H PARENT 20 7 7 12 4 24 25 32 81 51 51 62
REMARK Flexibility Score: inf
ROOT
ATOM      1  C   UNL A   1      33.827  29.574  27.103  1.00  0.00     0.023 C 
ENDROOT
BRANCH   1   2
ATOM      2  C   UNL A   1      33.275  28.171  27.267  1.00  0.00     0.023 C 
BRANCH   2   3
ATOM      3  C   UNL A   1      31.776  28.037  26.961  1.00  0.00     0.116 C 
BRANCH   3   4
ATOM      4  N   UNL A   1      31.398  26.635  26.958  1.00  0.00    -0.355 N 
ATOM      5  C   UNL A   1      30.982  25.902  25.865  1.00  0.00     0.233 C 
ATOM      6  O   UNL A   1      30.166  25.001  26.057  1.00  0.00    -0.274 OA
ATOM      7  H   UNL A   1      31.444  26.162  27.819  1.00  0.00     0.163 HD
BRANCH   5   8
ATOM      8  C   UNL A   1      31.618  26.268  24.462  1.00  0.00     0.121 C 
ATOM      9  N   UNL A   1      33.701  24.995  23.756  1.00  0.00    -0.327 N 
ATOM     10  C   UNL A   1      33.109  25.564  22.573  1.00  0.00     0.268 C 
ATOM     11  C   UNL A   1      32.645  25.077  24.792  1.00  0.00     0.281 C 
ATOM     12  H   UNL A   1      34.538  25.511  24.027  1.00  0.00     0.348 HD
ATOM     13  C   UNL A   1      31.649  25.707  22.953  1.00  0.00     0.082 C 
ATOM     14  C   UNL A   1      31.001  26.677  21.967  1.00  0.00     0.113 C 
ATOM     15  C   UNL A   1      30.183  26.818  24.117  1.00  0.00     0.125 C 
ATOM     16  N   UNL A   1      30.307  27.582  22.853  1.00  0.00    -0.200 NA
BRANCH   9  17
ATOM     17  C   UNL A   1      34.216  23.621  23.566  1.00  0.00     0.338 C 
BRANCH  17  18
ATOM     18  C   UNL A   1      35.573  23.352  24.162  1.00  0.00     0.161 A 
ATOM     19  C   UNL A   1      38.186  23.856  26.520  1.00  0.00     0.068 C 
ATOM     20  C   UNL A   1      37.310  23.358  25.438  1.00  0.00     0.056 A 
ATOM     21  C   UNL A   1      37.398  22.207  24.689  1.00  0.00     0.107 A 
ATOM     22  N   UNL A   1      36.193  24.067  25.079  1.00  0.00    -0.233 NA
ATOM     23  N   UNL A   1      36.309  22.230  23.860  1.00  0.00    -0.344 N 
ATOM     24  H   UNL A   1      36.092  21.563  23.170  1.00  0.00     0.167 HD
ENDBRANCH  17  18
ENDBRANCH   9  17
BRANCH  16  25
ATOM     25  S   UNL A   1      30.736  29.211  22.840  1.00  0.00     0.211 S 
ATOM     26  C   UNL A   1      29.571  29.990  21.725  1.00  0.00     0.176 C 
ATOM     27  O   UNL A   1      30.466  29.738  24.158  1.00  0.00    -0.213 OA
ATOM     28  O   UNL A   1      32.053  29.323  22.249  1.00  0.00    -0.213 OA
ENDBRANCH  16  25
ENDBRANCH   5   8
ENDBRANCH   3   4
ENDBRANCH   2   3
ENDBRANCH   1   2
BRANCH   1  29
ATOM     29  C   UNL A   1      35.241  29.736  27.626  1.00  0.00     0.116 C 
BRANCH  29  30
ATOM     30  N   UNL A   1      35.339  30.458  28.892  1.00  0.00    -0.352 N 
ATOM     31  C   UNL A   1      36.422  30.476  29.745  1.00  0.00     0.251 C 
ATOM     32  H   UNL A   1      34.553  30.984  29.165  1.00  0.00     0.163 HD
ATOM     33  O   UNL A   1      36.399  31.068  30.815  1.00  0.00    -0.269 OA
BRANCH  31  34
ATOM     34  C   UNL A   1      37.601  29.702  29.323  1.00  0.00     0.039 A 
ATOM     35  C   UNL A   1      38.066  29.838  28.014  1.00  0.00     0.014 A 
ATOM     36  C   UNL A   1      38.362  29.063  30.304  1.00  0.00     0.014 A 
ATOM     37  C   UNL A   1      39.351  29.395  27.704  1.00  0.00     0.010 A 
ATOM     38  C   UNL A   1      39.676  28.734  30.018  1.00  0.00     0.010 A 
ATOM     39  C   UNL A   1      40.183  28.888  28.716  1.00  0.00    -0.014 A 
BRANCH  39  40
ATOM     40  C   UNL A   1      41.581  28.464  28.454  1.00  0.00     0.031 A 
ATOM     41  C   UNL A   1      42.659  29.514  28.436  1.00  0.00     0.074 A 
ATOM     42  C   UNL A   1      41.865  27.184  28.141  1.00  0.00     0.049 A 
ATOM     43  N   UNL A   1      43.907  29.408  28.068  1.00  0.00    -0.248 NA
ATOM     44  C   UNL A   1      42.264  30.875  28.843  1.00  0.00     0.031 C 
ATOM     45  C   UNL A   1      40.904  26.079  28.098  1.00  0.00     0.029 A 
ATOM     46  N   UNL A   1      43.055  26.599  27.781  1.00  0.00    -0.354 N 
ATOM     47  C   UNL A   1      44.432  30.692  28.165  1.00  0.00     0.074 A 
ATOM     48  C   UNL A   1      43.355  31.568  28.562  1.00  0.00     0.031 C 
ATOM     49  C   UNL A   1      41.546  24.949  27.759  1.00  0.00     0.029 A 
ATOM     50  C   UNL A   1      42.951  25.254  27.505  1.00  0.00     0.049 A 
ATOM     51  H   UNL A   1      43.903  27.095  27.727  1.00  0.00     0.167 HD
ATOM     52  C   UNL A   1      45.706  31.101  27.968  1.00  0.00     0.031 A 
ATOM     53  C   UNL A   1      43.879  24.374  27.079  1.00  0.00     0.031 A 
ATOM     54  C   UNL A   1      46.778  30.218  27.602  1.00  0.00     0.049 A 
ATOM     55  C   UNL A   1      45.289  24.855  26.848  1.00  0.00     0.074 A 
ATOM     56  C   UNL A   1      48.115  30.519  27.431  1.00  0.00     0.029 A 
ATOM     57  N   UNL A   1      46.632  28.861  27.356  1.00  0.00    -0.354 N 
ATOM     58  N   UNL A   1      45.780  26.064  26.992  1.00  0.00    -0.248 NA
ATOM     59  C   UNL A   1      46.271  23.855  26.408  1.00  0.00     0.031 C 
ATOM     60  C   UNL A   1      48.771  29.355  27.022  1.00  0.00     0.029 A 
ATOM     61  C   UNL A   1      47.855  28.314  27.014  1.00  0.00     0.049 A 
ATOM     62  H   UNL A   1      45.786  28.361  27.416  1.00  0.00     0.167 HD
ATOM     63  C   UNL A   1      47.137  25.958  26.703  1.00  0.00     0.074 A 
ATOM     64  C   UNL A   1      47.388  24.570  26.377  1.00  0.00     0.031 C 
ATOM     65  C   UNL A   1      48.090  26.923  26.716  1.00  0.00     0.031 A 
BRANCH  52  66
ATOM     66  C   UNL A   1      46.001  32.567  28.139  1.00  0.00    -0.014 A 
ATOM     67  C   UNL A   1      46.486  33.077  29.358  1.00  0.00     0.010 A 
ATOM     68  C   UNL A   1      45.815  33.446  27.056  1.00  0.00     0.010 A 
ATOM     69  C   UNL A   1      46.736  34.443  29.504  1.00  0.00     0.020 A 
ATOM     70  C   UNL A   1      46.100  34.807  27.188  1.00  0.00     0.020 A 
ATOM     71  C   UNL A   1      46.542  35.300  28.417  1.00  0.00     0.054 A 
BRANCH  71  72
ATOM     72  S   UNL A   1      46.902  37.064  28.628  1.00  0.00     0.124 S 
ATOM     73  O   UNL A   1      48.218  37.178  28.005  1.00  0.00    -0.237 OA
ATOM     74  O   UNL A   1      45.806  37.701  27.901  1.00  0.00    -0.237 OA
ATOM     75  O   UNL A   1      46.879  37.253  30.076  1.00  0.00    -0.744 OA
ENDBRANCH  71  72
ENDBRANCH  52  66
BRANCH  53  76
ATOM     76  C   UNL A   1      43.512  22.947  26.853  1.00  0.00    -0.014 A 
ATOM     77  C   UNL A   1      43.895  22.289  25.671  1.00  0.00     0.010 A 
ATOM     78  C   UNL A   1      42.778  22.235  27.821  1.00  0.00     0.010 A 
ATOM     79  C   UNL A   1      43.533  20.956  25.449  1.00  0.00     0.020 A 
ATOM     80  C   UNL A   1      42.442  20.893  27.617  1.00  0.00     0.020 A 
ATOM     81  C   UNL A   1      42.812  20.265  26.426  1.00  0.00     0.054 A 
BRANCH  81  82
ATOM     82  S   UNL A   1      42.391  18.523  26.135  1.00  0.00     0.124 S 
ATOM     83  O   UNL A   1      42.658  17.924  27.438  1.00  0.00    -0.237 OA
ATOM     84  O   UNL A   1      40.983  18.602  25.751  1.00  0.00    -0.237 OA
ATOM     85  O   UNL A   1      43.300  18.126  25.064  1.00  0.00    -0.744 OA
ENDBRANCH  81  82
ENDBRANCH  53  76
BRANCH  65  86
ATOM     86  C   UNL A   1      49.512  26.516  26.441  1.00  0.00    -0.014 A 
ATOM     87  C   UNL A   1      50.072  26.615  25.156  1.00  0.00     0.010 A 
ATOM     88  C   UNL A   1      50.331  26.132  27.521  1.00  0.00     0.010 A 
ATOM     89  C   UNL A   1      51.426  26.328  24.956  1.00  0.00     0.020 A 
ATOM     90  C   UNL A   1      51.690  25.875  27.329  1.00  0.00     0.020 A 
ATOM     91  C   UNL A   1      52.228  25.970  26.046  1.00  0.00     0.054 A 
BRANCH  91  92
ATOM     92  S   UNL A   1      53.998  25.689  25.771  1.00  0.00     0.124 S 
ATOM     93  O   UNL A   1      54.440  25.222  27.082  1.00  0.00    -0.237 OA
ATOM     94  O   UNL A   1      54.000  24.684  24.711  1.00  0.00    -0.237 OA
ATOM     95  O   UNL A   1      54.502  27.003  25.376  1.00  0.00    -0.744 OA
ENDBRANCH  91  92
ENDBRANCH  65  86
ENDBRANCH  39  40
ENDBRANCH  31  34
ENDBRANCH  29  30
ENDBRANCH   1  29
TORSDOF 17
ENDMDL
MODEL 3
REMARK VINA RESULT:     -11.2      3.436      5.386
REMARK SMILES Cc1c[nH]c(C[N@H+]2C[C@@H]3CN(S(C)(=O)=O)C[C@]3(C(=O)NCCCCNC(=O)c3ccc(-c4c5nc(c(-c6ccc(S(=O)(=O)[O-])cc6)c6ccc([nH]6)c(-c6ccc(S(=O)(=O)[O-])cc6)c6nc(c(-c7ccc(S(=O)(=O)[O-])cc7)c7ccc4[nH]7)C=C6)C=C5)cc3)C2)n1
REMARK SMILES IDX 23 1 22 2 21 3 20 4 18 5 19 6 17 8 7 9 8 10 88 11 9 13 10 14
REMARK SMILES IDX 16 15 11 16 6 17 5 18 1 19 2 20 3 21 89 22 4 23 12 25 13 26
REMARK SMILES IDX 14 27 15 28 24 29 25 30 26 31 27 33 28 34 29 35 87 36 30 37
REMARK SMILES IDX 86 38 31 39 32 40 33 41 80 42 34 43 85 44 79 45 81 46 35 47
REMARK SMILES IDX 84 48 78 49 77 50 36 52 66 53 47 54 65 55 48 56 51 57 64 58
REMARK SMILES IDX 82 59 49 60 50 61 63 63 83 64 52 65 37 66 38 67 46 68 39 69
REMARK SMILES IDX 45 70 40 71 41 72 42 73 43 74 44 75 67 76 68 77 76 78 69 79
REMARK SMILES IDX 75 80 70 81 71 82 72 83 73 84 74 85 53 86 54 87 62 88 55 89
REMARK SMILES IDX 61 90 56 91 57 92 58 93 59 94 60 95
REMARK H PARENT 20 7 7 12 4 24 25 32 81 51 51 62
REMARK Flexibility Score: inf
ROOT
ATOM      1  C   UNL A   1      32.738  29.209  25.379  1.00  0.00     0.023 C 
ENDROOT
BRANCH   1   2
ATOM      2  C   UNL A   1      33.180  29.344  23.935  1.00  0.00     0.023 C 
BRANCH   2   3
ATOM      3  C   UNL A   1      34.044  28.183  23.422  1.00  0.00     0.116 C 
BRANCH   3   4
ATOM      4  N   UNL A   1      33.522  27.702  22.156  1.00  0.00    -0.355 N 
ATOM      5  C   UNL A   1      32.857  26.512  21.944  1.00  0.00     0.233 C 
ATOM      6  O   UNL A   1      33.001  25.961  20.853  1.00  0.00    -0.274 OA
ATOM      7  H   UNL A   1      33.654  28.283  21.373  1.00  0.00     0.163 HD
BRANCH   5   8
ATOM      8  C   UNL A   1      31.939  25.976  23.118  1.00  0.00     0.121 C 
ATOM      9  N   UNL A   1      29.843  27.303  23.663  1.00  0.00    -0.327 N 
ATOM     10  C   UNL A   1      29.675  25.976  24.196  1.00  0.00     0.268 C 
ATOM     11  C   UNL A   1      30.977  27.198  22.716  1.00  0.00     0.281 C 
ATOM     12  H   UNL A   1      30.034  27.972  24.409  1.00  0.00     0.348 HD
ATOM     13  C   UNL A   1      30.579  25.136  23.317  1.00  0.00     0.082 C 
ATOM     14  C   UNL A   1      30.823  23.808  24.031  1.00  0.00     0.113 C 
ATOM     15  C   UNL A   1      32.629  24.589  22.829  1.00  0.00     0.125 C 
ATOM     16  N   UNL A   1      32.260  23.683  23.943  1.00  0.00    -0.200 NA
BRANCH   9  17
ATOM     17  C   UNL A   1      28.620  27.857  23.039  1.00  0.00     0.338 C 
BRANCH  17  18
ATOM     18  C   UNL A   1      28.711  29.298  22.608  1.00  0.00     0.161 A 
ATOM     19  C   UNL A   1      27.983  32.049  20.478  1.00  0.00     0.068 C 
ATOM     20  C   UNL A   1      28.432  31.170  21.579  1.00  0.00     0.056 A 
ATOM     21  C   UNL A   1      28.960  31.492  22.809  1.00  0.00     0.107 A 
ATOM     22  N   UNL A   1      28.314  29.810  21.461  1.00  0.00    -0.233 NA
ATOM     23  N   UNL A   1      29.163  30.295  23.440  1.00  0.00    -0.344 N 
ATOM     24  H   UNL A   1      29.562  30.171  24.331  1.00  0.00     0.167 HD
ENDBRANCH  17  18
ENDBRANCH   9  17
BRANCH  16  25
ATOM     25  S   UNL A   1      33.153  23.626  25.371  1.00  0.00     0.211 S 
ATOM     26  C   UNL A   1      34.689  24.465  24.992  1.00  0.00     0.176 C 
ATOM     27  O   UNL A   1      32.462  24.442  26.344  1.00  0.00    -0.213 OA
ATOM     28  O   UNL A   1      33.464  22.240  25.650  1.00  0.00    -0.213 OA
ENDBRANCH  16  25
ENDBRANCH   5   8
ENDBRANCH   3   4
ENDBRANCH   2   3
ENDBRANCH   1   2
BRANCH   1  29
ATOM     29  C   UNL A   1      33.801  29.614  26.381  1.00  0.00     0.116 C 
BRANCH  29  30
ATOM     30  N   UNL A   1      33.531  30.870  27.076  1.00  0.00    -0.352 N 
ATOM     31  C   UNL A   1      34.341  31.484  28.006  1.00  0.00     0.251 C 
ATOM     32  H   UNL A   1      32.685  31.324  26.857  1.00  0.00     0.163 HD
ATOM     33  O   UNL A   1      34.011  32.514  28.580  1.00  0.00    -0.269 OA
BRANCH  31  34
ATOM     34  C   UNL A   1      35.613  30.809  28.315  1.00  0.00     0.039 A 
ATOM     35  C   UNL A   1      36.811  31.472  28.048  1.00  0.00     0.014 A 
ATOM     36  C   UNL A   1      35.579  29.650  29.093  1.00  0.00     0.014 A 
ATOM     37  C   UNL A   1      37.986  31.008  28.639  1.00  0.00     0.010 A 
ATOM     38  C   UNL A   1      36.725  29.266  29.768  1.00  0.00     0.010 A 
ATOM     39  C   UNL A   1      37.941  29.934  29.543  1.00  0.00    -0.014 A 
BRANCH  39  40
ATOM     40  C   UNL A   1      39.150  29.442  30.249  1.00  0.00     0.031 A 
ATOM     41  C   UNL A   1      39.582  30.144  31.509  1.00  0.00     0.074 A 
ATOM     42  C   UNL A   1      39.902  28.455  29.724  1.00  0.00     0.049 A 
ATOM     43  N   UNL A   1      40.684  30.004  32.195  1.00  0.00    -0.248 NA
ATOM     44  C   UNL A   1      38.670  31.176  32.037  1.00  0.00     0.031 C 
ATOM     45  C   UNL A   1      39.604  27.714  28.495  1.00  0.00     0.029 A 
ATOM     46  N   UNL A   1      41.088  27.912  30.154  1.00  0.00    -0.354 N 
ATOM     47  C   UNL A   1      40.612  30.951  33.210  1.00  0.00     0.074 A 
ATOM     48  C   UNL A   1      39.394  31.702  33.012  1.00  0.00     0.031 C 
ATOM     49  C   UNL A   1      40.565  26.800  28.287  1.00  0.00     0.029 A 
ATOM     50  C   UNL A   1      41.578  26.923  29.332  1.00  0.00     0.049 A 
ATOM     51  H   UNL A   1      41.545  28.203  30.977  1.00  0.00     0.167 HD
ATOM     52  C   UNL A   1      41.470  31.160  34.234  1.00  0.00     0.031 A 
ATOM     53  C   UNL A   1      42.721  26.211  29.404  1.00  0.00     0.031 A 
ATOM     54  C   UNL A   1      42.665  30.389  34.440  1.00  0.00     0.049 A 
ATOM     55  C   UNL A   1      43.671  26.472  30.543  1.00  0.00     0.074 A 
ATOM     56  C   UNL A   1      43.575  30.481  35.476  1.00  0.00     0.029 A 
ATOM     57  N   UNL A   1      43.109  29.382  33.597  1.00  0.00    -0.354 N 
ATOM     58  N   UNL A   1      43.565  27.339  31.523  1.00  0.00    -0.248 NA
ATOM     59  C   UNL A   1      44.892  25.655  30.594  1.00  0.00     0.031 C 
ATOM     60  C   UNL A   1      44.604  29.569  35.227  1.00  0.00     0.029 A 
ATOM     61  C   UNL A   1      44.294  28.857  34.079  1.00  0.00     0.049 A 
ATOM     62  H   UNL A   1      42.650  29.084  32.778  1.00  0.00     0.167 HD
ATOM     63  C   UNL A   1      44.680  27.139  32.330  1.00  0.00     0.074 A 
ATOM     64  C   UNL A   1      45.448  26.071  31.724  1.00  0.00     0.031 C 
ATOM     65  C   UNL A   1      45.032  27.776  33.474  1.00  0.00     0.031 A 
BRANCH  52  66
ATOM     66  C   UNL A   1      41.147  32.268  35.199  1.00  0.00    -0.014 A 
ATOM     67  C   UNL A   1      41.523  33.599  34.937  1.00  0.00     0.010 A 
ATOM     68  C   UNL A   1      40.432  31.980  36.377  1.00  0.00     0.010 A 
ATOM     69  C   UNL A   1      41.232  34.612  35.853  1.00  0.00     0.020 A 
ATOM     70  C   UNL A   1      40.106  32.996  37.278  1.00  0.00     0.020 A 
ATOM     71  C   UNL A   1      40.524  34.303  37.019  1.00  0.00     0.054 A 
BRANCH  71  72
ATOM     72  S   UNL A   1      40.135  35.642  38.177  1.00  0.00     0.124 S 
ATOM     73  O   UNL A   1      38.935  35.132  38.834  1.00  0.00    -0.237 OA
ATOM     74  O   UNL A   1      41.333  35.699  39.011  1.00  0.00    -0.237 OA
ATOM     75  O   UNL A   1      39.926  36.800  37.311  1.00  0.00    -0.744 OA
ENDBRANCH  71  72
ENDBRANCH  52  66
BRANCH  53  76
ATOM     76  C   UNL A   1      43.025  25.176  28.375  1.00  0.00    -0.014 A 
ATOM     77  C   UNL A   1      43.660  25.530  27.171  1.00  0.00     0.010 A 
ATOM     78  C   UNL A   1      42.685  23.827  28.594  1.00  0.00     0.010 A 
ATOM     79  C   UNL A   1      43.927  24.563  26.197  1.00  0.00     0.020 A 
ATOM     80  C   UNL A   1      42.980  22.852  27.636  1.00  0.00     0.020 A 
ATOM     81  C   UNL A   1      43.589  23.229  26.438  1.00  0.00     0.054 A 
BRANCH  81  82
ATOM     82  S   UNL A   1      43.985  21.984  25.177  1.00  0.00     0.124 S 
ATOM     83  O   UNL A   1      45.340  21.592  25.553  1.00  0.00    -0.237 OA
ATOM     84  O   UNL A   1      42.950  20.976  25.396  1.00  0.00    -0.237 OA
ATOM     85  O   UNL A   1      43.872  22.721  23.921  1.00  0.00    -0.744 OA
ENDBRANCH  81  82
ENDBRANCH  53  76
BRANCH  65  86
ATOM     86  C   UNL A   1      46.262  27.301  34.199  1.00  0.00    -0.014 A 
ATOM     87  C   UNL A   1      47.518  27.892  33.986  1.00  0.00     0.010 A 
ATOM     88  C   UNL A   1      46.125  26.315  35.196  1.00  0.00     0.010 A 
ATOM     89  C   UNL A   1      48.619  27.498  34.752  1.00  0.00     0.020 A 
ATOM     90  C   UNL A   1      47.216  25.942  35.983  1.00  0.00     0.020 A 
ATOM     91  C   UNL A   1      48.458  26.533  35.753  1.00  0.00     0.054 A 
BRANCH  91  92
ATOM     92  S   UNL A   1      49.883  26.105  36.789  1.00  0.00     0.124 S 
ATOM     93  O   UNL A   1      49.704  26.991  37.935  1.00  0.00    -0.237 OA
ATOM     94  O   UNL A   1      49.668  24.684  37.053  1.00  0.00    -0.237 OA
ATOM     95  O   UNL A   1      51.034  26.407  35.942  1.00  0.00    -0.744 OA
ENDBRANCH  91  92
ENDBRANCH  65  86
ENDBRANCH  39  40
ENDBRANCH  31  34
ENDBRANCH  29  30
ENDBRANCH   1  29
TORSDOF 17
ENDMDL
