MODEL 1
REMARK VINA RESULT:     -11.1      0.000      0.000
REMARK SMILES CCC[C@@](C)(Nc1cc(C)cc(C)c1)C(=O)NCCCCNC(=O)c1ccc(-c2c3nc(c(-c4ccc(S(=O)(=O)[O-])cc4)c4ccc([nH]4)c(-c4ccc(S(=O)(=O)[O-])cc4)c4nc(c(-c5ccc(S(=O)(=O)[O-])cc5)c5ccc2[nH]5)C=C4)C=C3)cc1
REMARK SMILES IDX 20 1 19 2 18 3 17 4 15 5 16 6 4 8 5 9 3 10 2 11 1 12 6 13
REMARK SMILES IDX 7 15 8 16 14 17 9 18 12 19 10 20 11 21 13 22 21 23 22 24
REMARK SMILES IDX 23 25 24 27 25 28 26 29 84 30 27 31 83 32 28 33 29 34 30 35
REMARK SMILES IDX 77 36 31 37 82 38 76 39 78 40 32 41 81 42 75 43 74 44 33 46
REMARK SMILES IDX 63 47 44 48 62 49 45 50 48 51 61 52 79 53 46 54 47 55 60 57
REMARK SMILES IDX 80 58 49 59 34 60 35 61 43 62 36 63 42 64 37 65 38 66 39 67
REMARK SMILES IDX 40 68 41 69 64 70 65 71 73 72 66 73 72 74 67 75 68 76 69 77
REMARK SMILES IDX 70 78 71 79 50 80 51 81 59 82 52 83 58 84 53 85 54 86 55 87
REMARK SMILES IDX 56 88 57 89
REMARK H PARENT 17 7 6 14 22 26 78 45 48 56
REMARK Flexibility Score: inf
ROOT
ATOM      1  C   UNL A   1      33.879  28.809  27.359  1.00  0.00     0.023 C 
ENDROOT
BRANCH   1   2
ATOM      2  C   UNL A   1      32.787  29.795  26.954  1.00  0.00     0.023 C 
BRANCH   2   3
ATOM      3  C   UNL A   1      32.113  29.513  25.610  1.00  0.00     0.116 C 
BRANCH   3   4
ATOM      4  N   UNL A   1      32.997  29.597  24.463  1.00  0.00    -0.354 N 
ATOM      5  C   UNL A   1      33.246  28.753  23.421  1.00  0.00     0.245 C 
ATOM      6  O   UNL A   1      34.193  29.088  22.700  1.00  0.00    -0.272 OA
ATOM      7  H   UNL A   1      33.523  30.429  24.430  1.00  0.00     0.163 HD
BRANCH   5   8
ATOM      8  C   UNL A   1      32.433  27.453  23.160  1.00  0.00     0.114 C 
ATOM      9  C   UNL A   1      33.331  26.417  22.443  1.00  0.00     0.045 C 
BRANCH   8  10
ATOM     10  C   UNL A   1      31.918  26.806  24.493  1.00  0.00     0.038 C 
BRANCH  10  11
ATOM     11  C   UNL A   1      31.792  25.271  24.574  1.00  0.00    -0.000 C 
ATOM     12  C   UNL A   1      30.520  24.695  23.976  1.00  0.00     0.004 C 
ENDBRANCH  10  11
ENDBRANCH   8  10
BRANCH   8  13
ATOM     13  N   UNL A   1      31.228  27.663  22.307  1.00  0.00    -0.371 N 
ATOM     14  H   UNL A   1      31.208  27.138  21.475  1.00  0.00     0.161 HD
BRANCH  13  15
ATOM     15  C   UNL A   1      30.128  28.487  22.509  1.00  0.00     0.035 A 
ATOM     16  C   UNL A   1      30.053  29.837  22.150  1.00  0.00     0.029 A 
ATOM     17  C   UNL A   1      28.953  27.915  23.027  1.00  0.00     0.029 A 
ATOM     18  C   UNL A   1      28.846  30.558  22.178  1.00  0.00    -0.049 A 
ATOM     19  C   UNL A   1      27.755  28.640  23.157  1.00  0.00    -0.049 A 
ATOM     20  C   UNL A   1      28.757  31.930  21.571  1.00  0.00     0.044 C 
ATOM     21  C   UNL A   1      27.700  29.951  22.685  1.00  0.00     0.007 A 
ATOM     22  C   UNL A   1      26.525  28.013  23.741  1.00  0.00     0.044 C 
ENDBRANCH  13  15
ENDBRANCH   8  13
ENDBRANCH   5   8
ENDBRANCH   3   4
ENDBRANCH   2   3
ENDBRANCH   1   2
BRANCH   1  23
ATOM     23  C   UNL A   1      35.239  29.441  27.607  1.00  0.00     0.116 C 
BRANCH  23  24
ATOM     24  N   UNL A   1      35.257  30.237  28.822  1.00  0.00    -0.352 N 
ATOM     25  C   UNL A   1      36.266  30.401  29.740  1.00  0.00     0.251 C 
ATOM     26  H   UNL A   1      34.427  30.730  29.015  1.00  0.00     0.163 HD
ATOM     27  O   UNL A   1      36.027  30.929  30.822  1.00  0.00    -0.269 OA
BRANCH  25  28
ATOM     28  C   UNL A   1      37.634  29.927  29.429  1.00  0.00     0.039 A 
ATOM     29  C   UNL A   1      38.048  29.861  28.096  1.00  0.00     0.014 A 
ATOM     30  C   UNL A   1      38.503  29.535  30.449  1.00  0.00     0.014 A 
ATOM     31  C   UNL A   1      39.352  29.456  27.793  1.00  0.00     0.010 A 
ATOM     32  C   UNL A   1      39.827  29.228  30.154  1.00  0.00     0.010 A 
ATOM     33  C   UNL A   1      40.261  29.164  28.822  1.00  0.00    -0.014 A 
BRANCH  33  34
ATOM     34  C   UNL A   1      41.658  28.741  28.544  1.00  0.00     0.031 A 
ATOM     35  C   UNL A   1      42.757  29.772  28.544  1.00  0.00     0.074 A 
ATOM     36  C   UNL A   1      41.928  27.463  28.213  1.00  0.00     0.049 A 
ATOM     37  N   UNL A   1      44.010  29.645  28.193  1.00  0.00    -0.248 NA
ATOM     38  C   UNL A   1      42.387  31.137  28.960  1.00  0.00     0.031 C 
ATOM     39  C   UNL A   1      40.949  26.376  28.144  1.00  0.00     0.029 A 
ATOM     40  N   UNL A   1      43.112  26.865  27.855  1.00  0.00    -0.354 N 
ATOM     41  C   UNL A   1      44.564  30.916  28.308  1.00  0.00     0.074 A 
ATOM     42  C   UNL A   1      43.502  31.808  28.716  1.00  0.00     0.031 C 
ATOM     43  C   UNL A   1      41.575  25.241  27.789  1.00  0.00     0.029 A 
ATOM     44  C   UNL A   1      42.988  25.528  27.559  1.00  0.00     0.049 A 
ATOM     45  H   UNL A   1      43.968  27.349  27.814  1.00  0.00     0.167 HD
ATOM     46  C   UNL A   1      45.848  31.304  28.113  1.00  0.00     0.031 A 
ATOM     47  C   UNL A   1      43.906  24.635  27.138  1.00  0.00     0.031 A 
ATOM     48  C   UNL A   1      46.908  30.407  27.744  1.00  0.00     0.049 A 
ATOM     49  C   UNL A   1      45.327  25.085  26.936  1.00  0.00     0.074 A 
ATOM     50  C   UNL A   1      48.254  30.686  27.585  1.00  0.00     0.029 A 
ATOM     51  N   UNL A   1      46.744  29.055  27.485  1.00  0.00    -0.354 N 
ATOM     52  N   UNL A   1      45.843  26.281  27.099  1.00  0.00    -0.248 NA
ATOM     53  C   UNL A   1      46.292  24.067  26.502  1.00  0.00     0.031 C 
ATOM     54  C   UNL A   1      48.897  29.509  27.188  1.00  0.00     0.029 A 
ATOM     55  C   UNL A   1      47.962  28.487  27.152  1.00  0.00     0.049 A 
ATOM     56  H   UNL A   1      45.889  28.570  27.531  1.00  0.00     0.167 HD
ATOM     57  C   UNL A   1      47.197  26.152  26.814  1.00  0.00     0.074 A 
ATOM     58  C   UNL A   1      47.423  24.760  26.479  1.00  0.00     0.031 C 
ATOM     59  C   UNL A   1      48.167  27.098  26.831  1.00  0.00     0.031 A 
BRANCH  46  60
ATOM     60  C   UNL A   1      46.170  32.763  28.297  1.00  0.00    -0.014 A 
ATOM     61  C   UNL A   1      46.590  33.265  29.541  1.00  0.00     0.010 A 
ATOM     62  C   UNL A   1      46.079  33.642  27.202  1.00  0.00     0.010 A 
ATOM     63  C   UNL A   1      46.867  34.625  29.701  1.00  0.00     0.020 A 
ATOM     64  C   UNL A   1      46.384  34.998  27.349  1.00  0.00     0.020 A 
ATOM     65  C   UNL A   1      46.757  35.484  28.604  1.00  0.00     0.054 A 
BRANCH  65  66
ATOM     66  S   UNL A   1      47.140  37.243  28.835  1.00  0.00     0.124 S 
ATOM     67  O   UNL A   1      46.242  37.604  29.929  1.00  0.00    -0.237 OA
ATOM     68  O   UNL A   1      48.561  37.221  29.172  1.00  0.00    -0.237 OA
ATOM     69  O   UNL A   1      46.818  37.841  27.541  1.00  0.00    -0.744 OA
ENDBRANCH  65  66
ENDBRANCH  46  60
BRANCH  47  70
ATOM     70  C   UNL A   1      43.509  23.222  26.892  1.00  0.00    -0.014 A 
ATOM     71  C   UNL A   1      43.091  22.405  27.958  1.00  0.00     0.010 A 
ATOM     72  C   UNL A   1      43.530  22.688  25.591  1.00  0.00     0.010 A 
ATOM     73  C   UNL A   1      42.717  21.078  27.731  1.00  0.00     0.020 A 
ATOM     74  C   UNL A   1      43.131  21.369  25.356  1.00  0.00     0.020 A 
ATOM     75  C   UNL A   1      42.737  20.568  26.430  1.00  0.00     0.054 A 
BRANCH  75  76
ATOM     76  S   UNL A   1      42.195  18.860  26.150  1.00  0.00     0.124 S 
ATOM     77  O   UNL A   1      40.811  19.046  25.727  1.00  0.00    -0.237 OA
ATOM     78  O   UNL A   1      43.117  18.400  25.114  1.00  0.00    -0.237 OA
ATOM     79  O   UNL A   1      42.373  18.226  27.455  1.00  0.00    -0.744 OA
ENDBRANCH  75  76
ENDBRANCH  47  70
BRANCH  59  80
ATOM     80  C   UNL A   1      49.572  26.661  26.517  1.00  0.00    -0.014 A 
ATOM     81  C   UNL A   1      50.407  26.122  27.510  1.00  0.00     0.010 A 
ATOM     82  C   UNL A   1      50.030  26.716  25.187  1.00  0.00     0.010 A 
ATOM     83  C   UNL A   1      51.686  25.663  27.183  1.00  0.00     0.020 A 
ATOM     84  C   UNL A   1      51.297  26.234  24.851  1.00  0.00     0.020 A 
ATOM     85  C   UNL A   1      52.121  25.719  25.854  1.00  0.00     0.054 A 
BRANCH  85  86
ATOM     86  S   UNL A   1      53.758  25.056  25.444  1.00  0.00     0.124 S 
ATOM     87  O   UNL A   1      54.528  25.381  26.642  1.00  0.00    -0.237 OA
ATOM     88  O   UNL A   1      53.488  23.635  25.238  1.00  0.00    -0.237 OA
ATOM     89  O   UNL A   1      54.139  25.792  24.241  1.00  0.00    -0.744 OA
ENDBRANCH  85  86
ENDBRANCH  59  80
ENDBRANCH  33  34
ENDBRANCH  25  28
ENDBRANCH  23  24
ENDBRANCH   1  23
TORSDOF 18
ENDMDL
MODEL 2
REMARK VINA RESULT:     -11.0      3.103      4.933
REMARK SMILES CCC[C@@](C)(Nc1cc(C)cc(C)c1)C(=O)NCCCCNC(=O)c1ccc(-c2c3nc(c(-c4ccc(S(=O)(=O)[O-])cc4)c4ccc([nH]4)c(-c4ccc(S(=O)(=O)[O-])cc4)c4nc(c(-c5ccc(S(=O)(=O)[O-])cc5)c5ccc2[nH]5)C=C4)C=C3)cc1
REMARK SMILES IDX 20 1 19 2 18 3 17 4 15 5 16 6 4 8 5 9 3 10 2 11 1 12 6 13
REMARK SMILES IDX 7 15 8 16 14 17 9 18 12 19 10 20 11 21 13 22 21 23 22 24
REMARK SMILES IDX 23 25 24 27 25 28 26 29 84 30 27 31 83 32 28 33 29 34 30 35
REMARK SMILES IDX 77 36 31 37 82 38 76 39 78 40 32 41 81 42 75 43 74 44 33 46
REMARK SMILES IDX 63 47 44 48 62 49 45 50 48 51 61 52 79 53 46 54 47 55 60 57
REMARK SMILES IDX 80 58 49 59 34 60 35 61 43 62 36 63 42 64 37 65 38 66 39 67
REMARK SMILES IDX 40 68 41 69 64 70 65 71 73 72 66 73 72 74 67 75 68 76 69 77
REMARK SMILES IDX 70 78 71 79 50 80 51 81 59 82 52 83 58 84 53 85 54 86 55 87
REMARK SMILES IDX 56 88 57 89
REMARK H PARENT 17 7 6 14 22 26 78 45 48 56
REMARK Flexibility Score: inf
ROOT
ATOM      1  C   UNL A   1      32.784  27.724  26.101  1.00  0.00     0.023 C 
ENDROOT
BRANCH   1   2
ATOM      2  C   UNL A   1      32.335  28.361  24.789  1.00  0.00     0.023 C 
BRANCH   2   3
ATOM      3  C   UNL A   1      31.570  27.439  23.838  1.00  0.00     0.116 C 
BRANCH   3   4
ATOM      4  N   UNL A   1      32.364  26.908  22.746  1.00  0.00    -0.354 N 
ATOM      5  C   UNL A   1      33.095  25.765  22.602  1.00  0.00     0.245 C 
ATOM      6  O   UNL A   1      33.778  25.716  21.573  1.00  0.00    -0.272 OA
ATOM      7  H   UNL A   1      32.379  27.487  21.950  1.00  0.00     0.163 HD
BRANCH   5   8
ATOM      8  C   UNL A   1      33.103  24.616  23.651  1.00  0.00     0.114 C 
ATOM      9  C   UNL A   1      33.913  25.057  24.893  1.00  0.00     0.045 C 
BRANCH   8  10
ATOM     10  C   UNL A   1      31.655  24.244  24.124  1.00  0.00     0.038 C 
BRANCH  10  11
ATOM     11  C   UNL A   1      31.355  24.205  25.637  1.00  0.00    -0.000 C 
ATOM     12  C   UNL A   1      30.838  22.875  26.159  1.00  0.00     0.004 C 
ENDBRANCH  10  11
ENDBRANCH   8  10
BRANCH   8  13
ATOM     13  N   UNL A   1      33.714  23.352  23.146  1.00  0.00    -0.371 N 
ATOM     14  H   UNL A   1      33.776  23.280  22.167  1.00  0.00     0.161 HD
BRANCH  13  15
ATOM     15  C   UNL A   1      34.209  22.261  23.849  1.00  0.00     0.035 A 
ATOM     16  C   UNL A   1      33.462  21.144  24.236  1.00  0.00     0.029 A 
ATOM     17  C   UNL A   1      35.588  22.212  24.119  1.00  0.00     0.029 A 
ATOM     18  C   UNL A   1      34.060  19.978  24.748  1.00  0.00    -0.049 A 
ATOM     19  C   UNL A   1      36.199  21.097  24.720  1.00  0.00    -0.049 A 
ATOM     20  C   UNL A   1      33.257  18.721  24.935  1.00  0.00     0.044 C 
ATOM     21  C   UNL A   1      35.432  19.964  24.988  1.00  0.00     0.007 A 
ATOM     22  C   UNL A   1      37.667  21.084  25.024  1.00  0.00     0.044 C 
ENDBRANCH  13  15
ENDBRANCH   8  13
ENDBRANCH   5   8
ENDBRANCH   3   4
ENDBRANCH   2   3
ENDBRANCH   1   2
BRANCH   1  23
ATOM     23  C   UNL A   1      33.995  28.382  26.740  1.00  0.00     0.116 C 
BRANCH  23  24
ATOM     24  N   UNL A   1      33.714  29.740  27.171  1.00  0.00    -0.352 N 
ATOM     25  C   UNL A   1      34.462  30.573  27.969  1.00  0.00     0.251 C 
ATOM     26  H   UNL A   1      32.866  30.119  26.846  1.00  0.00     0.163 HD
ATOM     27  O   UNL A   1      33.964  31.601  28.415  1.00  0.00    -0.269 OA
BRANCH  25  28
ATOM     28  C   UNL A   1      35.861  30.217  28.302  1.00  0.00     0.039 A 
ATOM     29  C   UNL A   1      36.150  29.683  29.561  1.00  0.00     0.014 A 
ATOM     30  C   UNL A   1      36.889  30.422  27.379  1.00  0.00     0.014 A 
ATOM     31  C   UNL A   1      37.460  29.304  29.870  1.00  0.00     0.010 A 
ATOM     32  C   UNL A   1      38.170  29.954  27.651  1.00  0.00     0.010 A 
ATOM     33  C   UNL A   1      38.475  29.409  28.907  1.00  0.00    -0.014 A 
BRANCH  33  34
ATOM     34  C   UNL A   1      39.877  29.007  29.190  1.00  0.00     0.031 A 
ATOM     35  C   UNL A   1      40.833  30.015  29.774  1.00  0.00     0.074 A 
ATOM     36  C   UNL A   1      40.313  27.777  28.850  1.00  0.00     0.049 A 
ATOM     37  N   UNL A   1      42.123  29.917  29.966  1.00  0.00    -0.248 NA
ATOM     38  C   UNL A   1      40.268  31.320  30.158  1.00  0.00     0.031 C 
ATOM     39  C   UNL A   1      39.497  26.721  28.248  1.00  0.00     0.029 A 
ATOM     40  N   UNL A   1      41.562  27.214  28.951  1.00  0.00    -0.354 N 
ATOM     41  C   UNL A   1      42.526  31.155  30.454  1.00  0.00     0.074 A 
ATOM     42  C   UNL A   1      41.355  32.002  30.486  1.00  0.00     0.031 C 
ATOM     43  C   UNL A   1      40.260  25.632  28.053  1.00  0.00     0.029 A 
ATOM     44  C   UNL A   1      41.627  25.927  28.472  1.00  0.00     0.049 A 
ATOM     45  H   UNL A   1      42.337  27.688  29.330  1.00  0.00     0.167 HD
ATOM     46  C   UNL A   1      43.757  31.547  30.862  1.00  0.00     0.031 A 
ATOM     47  C   UNL A   1      42.673  25.083  28.367  1.00  0.00     0.031 A 
ATOM     48  C   UNL A   1      44.911  30.690  30.864  1.00  0.00     0.049 A 
ATOM     49  C   UNL A   1      44.029  25.536  28.834  1.00  0.00     0.074 A 
ATOM     50  C   UNL A   1      46.188  30.970  31.317  1.00  0.00     0.029 A 
ATOM     51  N   UNL A   1      44.925  29.384  30.399  1.00  0.00    -0.354 N 
ATOM     52  N   UNL A   1      44.381  26.695  29.341  1.00  0.00    -0.248 NA
ATOM     53  C   UNL A   1      45.128  24.568  28.723  1.00  0.00     0.031 C 
ATOM     54  C   UNL A   1      46.986  29.845  31.086  1.00  0.00     0.029 A 
ATOM     55  C   UNL A   1      46.193  28.848  30.539  1.00  0.00     0.049 A 
ATOM     56  H   UNL A   1      44.149  28.909  30.025  1.00  0.00     0.167 HD
ATOM     57  C   UNL A   1      45.735  26.584  29.634  1.00  0.00     0.074 A 
ATOM     58  C   UNL A   1      46.136  25.243  29.259  1.00  0.00     0.031 C 
ATOM     59  C   UNL A   1      46.571  27.508  30.169  1.00  0.00     0.031 A 
BRANCH  46  60
ATOM     60  C   UNL A   1      43.913  32.967  31.338  1.00  0.00    -0.014 A 
ATOM     61  C   UNL A   1      44.282  33.996  30.452  1.00  0.00     0.010 A 
ATOM     62  C   UNL A   1      43.659  33.286  32.685  1.00  0.00     0.010 A 
ATOM     63  C   UNL A   1      44.442  35.305  30.912  1.00  0.00     0.020 A 
ATOM     64  C   UNL A   1      43.788  34.599  33.144  1.00  0.00     0.020 A 
ATOM     65  C   UNL A   1      44.198  35.598  32.257  1.00  0.00     0.054 A 
BRANCH  65  66
ATOM     66  S   UNL A   1      44.396  37.310  32.825  1.00  0.00     0.124 S 
ATOM     67  O   UNL A   1      43.601  37.313  34.051  1.00  0.00    -0.237 OA
ATOM     68  O   UNL A   1      45.840  37.421  33.013  1.00  0.00    -0.237 OA
ATOM     69  O   UNL A   1      43.850  38.104  31.727  1.00  0.00    -0.744 OA
ENDBRANCH  65  66
ENDBRANCH  46  60
BRANCH  47  70
ATOM     70  C   UNL A   1      42.472  23.717  27.810  1.00  0.00    -0.014 A 
ATOM     71  C   UNL A   1      42.590  23.489  26.428  1.00  0.00     0.010 A 
ATOM     72  C   UNL A   1      42.179  22.634  28.659  1.00  0.00     0.010 A 
ATOM     73  C   UNL A   1      42.404  22.207  25.902  1.00  0.00     0.020 A 
ATOM     74  C   UNL A   1      42.018  21.346  28.140  1.00  0.00     0.020 A 
ATOM     75  C   UNL A   1      42.120  21.142  26.762  1.00  0.00     0.054 A 
BRANCH  75  76
ATOM     76  S   UNL A   1      41.936  19.478  26.064  1.00  0.00     0.124 S 
ATOM     77  O   UNL A   1      42.443  18.638  27.144  1.00  0.00    -0.237 OA
ATOM     78  O   UNL A   1      40.498  19.394  25.819  1.00  0.00    -0.237 OA
ATOM     79  O   UNL A   1      42.763  19.518  24.860  1.00  0.00    -0.744 OA
ENDBRANCH  75  76
ENDBRANCH  47  70
BRANCH  59  80
ATOM     80  C   UNL A   1      47.995  27.096  30.420  1.00  0.00    -0.014 A 
ATOM     81  C   UNL A   1      49.010  27.376  29.490  1.00  0.00     0.010 A 
ATOM     82  C   UNL A   1      48.332  26.490  31.645  1.00  0.00     0.010 A 
ATOM     83  C   UNL A   1      50.337  27.042  29.772  1.00  0.00     0.020 A 
ATOM     84  C   UNL A   1      49.661  26.178  31.942  1.00  0.00     0.020 A 
ATOM     85  C   UNL A   1      50.654  26.447  30.999  1.00  0.00     0.054 A 
BRANCH  85  86
ATOM     86  S   UNL A   1      52.392  26.083  31.369  1.00  0.00     0.124 S 
ATOM     87  O   UNL A   1      52.992  26.077  30.037  1.00  0.00    -0.237 OA
ATOM     88  O   UNL A   1      52.779  27.200  32.227  1.00  0.00    -0.237 OA
ATOM     89  O   UNL A   1      52.339  24.784  32.034  1.00  0.00    -0.744 OA
ENDBRANCH  85  86
ENDBRANCH  59  80
ENDBRANCH  33  34
ENDBRANCH  25  28
ENDBRANCH  23  24
ENDBRANCH   1  23
TORSDOF 18
ENDMDL
MODEL 3
REMARK VINA RESULT:     -10.9      4.157     10.067
REMARK SMILES CCC[C@@](C)(Nc1cc(C)cc(C)c1)C(=O)NCCCCNC(=O)c1ccc(-c2c3nc(c(-c4ccc(S(=O)(=O)[O-])cc4)c4ccc([nH]4)c(-c4ccc(S(=O)(=O)[O-])cc4)c4nc(c(-c5ccc(S(=O)(=O)[O-])cc5)c5ccc2[nH]5)C=C4)C=C3)cc1
REMARK SMILES IDX 20 1 19 2 18 3 17 4 15 5 16 6 4 8 5 9 3 10 2 11 1 12 6 13
REMARK SMILES IDX 7 15 8 16 14 17 9 18 12 19 10 20 11 21 13 22 21 23 22 24
REMARK SMILES IDX 23 25 24 27 25 28 26 29 84 30 27 31 83 32 28 33 29 34 30 35
REMARK SMILES IDX 77 36 31 37 82 38 76 39 78 40 32 41 81 42 75 43 74 44 33 46
REMARK SMILES IDX 63 47 44 48 62 49 45 50 48 51 61 52 79 53 46 54 47 55 60 57
REMARK SMILES IDX 80 58 49 59 34 60 35 61 43 62 36 63 42 64 37 65 38 66 39 67
REMARK SMILES IDX 40 68 41 69 64 70 65 71 73 72 66 73 72 74 67 75 68 76 69 77
REMARK SMILES IDX 70 78 71 79 50 80 51 81 59 82 52 83 58 84 53 85 54 86 55 87
REMARK SMILES IDX 56 88 57 89
REMARK H PARENT 17 7 6 14 22 26 78 45 48 56
REMARK Flexibility Score: inf
ROOT
ATOM      1  C   UNL A   1      35.614  23.573  24.721  1.00  0.00     0.023 C 
ENDROOT
BRANCH   1   2
ATOM      2  C   UNL A   1      34.301  23.554  25.499  1.00  0.00     0.023 C 
BRANCH   2   3
ATOM      3  C   UNL A   1      33.717  24.926  25.838  1.00  0.00     0.116 C 
BRANCH   3   4
ATOM      4  N   UNL A   1      32.318  24.906  26.222  1.00  0.00    -0.354 N 
ATOM      5  C   UNL A   1      31.207  25.509  25.710  1.00  0.00     0.245 C 
ATOM      6  O   UNL A   1      30.189  25.387  26.400  1.00  0.00    -0.272 OA
ATOM      7  H   UNL A   1      32.134  24.346  27.010  1.00  0.00     0.163 HD
BRANCH   5   8
ATOM      8  C   UNL A   1      31.208  26.315  24.379  1.00  0.00     0.114 C 
ATOM      9  C   UNL A   1      31.602  25.382  23.210  1.00  0.00     0.045 C 
BRANCH   8  10
ATOM     10  C   UNL A   1      29.796  26.921  24.060  1.00  0.00     0.038 C 
BRANCH  10  11
ATOM     11  C   UNL A   1      29.624  27.771  22.784  1.00  0.00    -0.000 C 
ATOM     12  C   UNL A   1      28.742  28.998  22.940  1.00  0.00     0.004 C 
ENDBRANCH  10  11
ENDBRANCH   8  10
BRANCH   8  13
ATOM     13  N   UNL A   1      32.162  27.461  24.376  1.00  0.00    -0.371 N 
ATOM     14  H   UNL A   1      32.716  27.541  23.566  1.00  0.00     0.161 HD
BRANCH  13  15
ATOM     15  C   UNL A   1      32.388  28.433  25.341  1.00  0.00     0.035 A 
ATOM     16  C   UNL A   1      33.412  28.404  26.293  1.00  0.00     0.029 A 
ATOM     17  C   UNL A   1      31.595  29.594  25.317  1.00  0.00     0.029 A 
ATOM     18  C   UNL A   1      33.726  29.514  27.098  1.00  0.00    -0.049 A 
ATOM     19  C   UNL A   1      31.824  30.682  26.177  1.00  0.00    -0.049 A 
ATOM     20  C   UNL A   1      34.971  29.525  27.940  1.00  0.00     0.044 C 
ATOM     21  C   UNL A   1      32.924  30.651  27.034  1.00  0.00     0.007 A 
ATOM     22  C   UNL A   1      30.944  31.895  26.151  1.00  0.00     0.044 C 
ENDBRANCH  13  15
ENDBRANCH   8  13
ENDBRANCH   5   8
ENDBRANCH   3   4
ENDBRANCH   2   3
ENDBRANCH   1   2
BRANCH   1  23
ATOM     23  C   UNL A   1      36.818  24.028  25.526  1.00  0.00     0.116 C 
BRANCH  23  24
ATOM     24  N   UNL A   1      37.741  22.937  25.791  1.00  0.00    -0.352 N 
ATOM     25  C   UNL A   1      39.011  22.979  26.314  1.00  0.00     0.251 C 
ATOM     26  H   UNL A   1      37.408  22.039  25.564  1.00  0.00     0.163 HD
ATOM     27  O   UNL A   1      39.728  21.985  26.256  1.00  0.00    -0.269 OA
BRANCH  25  28
ATOM     28  C   UNL A   1      39.517  24.227  26.930  1.00  0.00     0.039 A 
ATOM     29  C   UNL A   1      40.238  25.133  26.148  1.00  0.00     0.014 A 
ATOM     30  C   UNL A   1      39.291  24.499  28.282  1.00  0.00     0.014 A 
ATOM     31  C   UNL A   1      40.682  26.334  26.708  1.00  0.00     0.010 A 
ATOM     32  C   UNL A   1      39.647  25.734  28.810  1.00  0.00     0.010 A 
ATOM     33  C   UNL A   1      40.365  26.658  28.037  1.00  0.00    -0.014 A 
BRANCH  33  34
ATOM     34  C   UNL A   1      40.807  27.928  28.667  1.00  0.00     0.031 A 
ATOM     35  C   UNL A   1      42.202  28.029  29.230  1.00  0.00     0.074 A 
ATOM     36  C   UNL A   1      39.943  28.953  28.811  1.00  0.00     0.049 A 
ATOM     37  N   UNL A   1      42.739  28.986  29.941  1.00  0.00    -0.248 NA
ATOM     38  C   UNL A   1      43.097  26.884  28.993  1.00  0.00     0.031 C 
ATOM     39  C   UNL A   1      38.556  28.969  28.340  1.00  0.00     0.029 A 
ATOM     40  N   UNL A   1      40.103  30.177  29.412  1.00  0.00    -0.354 N 
ATOM     41  C   UNL A   1      44.017  28.542  30.265  1.00  0.00     0.074 A 
ATOM     42  C   UNL A   1      44.157  27.213  29.716  1.00  0.00     0.031 C 
ATOM     43  C   UNL A   1      37.999  30.152  28.650  1.00  0.00     0.029 A 
ATOM     44  C   UNL A   1      38.972  30.959  29.381  1.00  0.00     0.049 A 
ATOM     45  H   UNL A   1      40.948  30.468  29.825  1.00  0.00     0.167 HD
ATOM     46  C   UNL A   1      44.995  29.191  30.942  1.00  0.00     0.031 A 
ATOM     47  C   UNL A   1      38.739  32.183  29.896  1.00  0.00     0.031 A 
ATOM     48  C   UNL A   1      44.864  30.527  31.454  1.00  0.00     0.049 A 
ATOM     49  C   UNL A   1      39.842  32.889  30.636  1.00  0.00     0.074 A 
ATOM     50  C   UNL A   1      45.816  31.298  32.096  1.00  0.00     0.029 A 
ATOM     51  N   UNL A   1      43.712  31.294  31.374  1.00  0.00    -0.354 N 
ATOM     52  N   UNL A   1      41.061  32.472  30.890  1.00  0.00    -0.248 NA
ATOM     53  C   UNL A   1      39.543  34.230  31.153  1.00  0.00     0.031 C 
ATOM     54  C   UNL A   1      45.225  32.518  32.443  1.00  0.00     0.029 A 
ATOM     55  C   UNL A   1      43.923  32.526  31.969  1.00  0.00     0.049 A 
ATOM     56  H   UNL A   1      42.869  31.005  30.955  1.00  0.00     0.167 HD
ATOM     57  C   UNL A   1      41.682  33.513  31.571  1.00  0.00     0.074 A 
ATOM     58  C   UNL A   1      40.709  34.581  31.681  1.00  0.00     0.031 C 
ATOM     59  C   UNL A   1      42.945  33.579  32.060  1.00  0.00     0.031 A 
BRANCH  46  60
ATOM     60  C   UNL A   1      46.291  28.457  31.165  1.00  0.00    -0.014 A 
ATOM     61  C   UNL A   1      47.351  28.557  30.246  1.00  0.00     0.010 A 
ATOM     62  C   UNL A   1      46.464  27.679  32.325  1.00  0.00     0.010 A 
ATOM     63  C   UNL A   1      48.541  27.856  30.457  1.00  0.00     0.020 A 
ATOM     64  C   UNL A   1      47.663  27.000  32.555  1.00  0.00     0.020 A 
ATOM     65  C   UNL A   1      48.688  27.077  31.608  1.00  0.00     0.054 A 
BRANCH  65  66
ATOM     66  S   UNL A   1      50.250  26.191  31.866  1.00  0.00     0.124 S 
ATOM     67  O   UNL A   1      51.175  26.968  31.046  1.00  0.00    -0.237 OA
ATOM     68  O   UNL A   1      50.447  26.301  33.309  1.00  0.00    -0.237 OA
ATOM     69  O   UNL A   1      49.968  24.843  31.380  1.00  0.00    -0.744 OA
ENDBRANCH  65  66
ENDBRANCH  46  60
BRANCH  47  70
ATOM     70  C   UNL A   1      37.407  32.823  29.715  1.00  0.00    -0.014 A 
ATOM     71  C   UNL A   1      36.431  32.732  30.722  1.00  0.00     0.010 A 
ATOM     72  C   UNL A   1      37.113  33.542  28.541  1.00  0.00     0.010 A 
ATOM     73  C   UNL A   1      35.181  33.334  30.555  1.00  0.00     0.020 A 
ATOM     74  C   UNL A   1      35.873  34.168  28.382  1.00  0.00     0.020 A 
ATOM     75  C   UNL A   1      34.909  34.050  29.386  1.00  0.00     0.054 A 
BRANCH  75  76
ATOM     76  S   UNL A   1      33.300  34.869  29.214  1.00  0.00     0.124 S 
ATOM     77  O   UNL A   1      33.685  36.204  28.769  1.00  0.00    -0.237 OA
ATOM     78  O   UNL A   1      32.627  34.039  28.216  1.00  0.00    -0.237 OA
ATOM     79  O   UNL A   1      32.732  34.794  30.558  1.00  0.00    -0.744 OA
ENDBRANCH  75  76
ENDBRANCH  47  70
BRANCH  59  80
ATOM     80  C   UNL A   1      43.367  34.860  32.724  1.00  0.00    -0.014 A 
ATOM     81  C   UNL A   1      43.917  35.920  31.982  1.00  0.00     0.010 A 
ATOM     82  C   UNL A   1      43.133  35.034  34.101  1.00  0.00     0.010 A 
ATOM     83  C   UNL A   1      44.243  37.125  32.609  1.00  0.00     0.020 A 
ATOM     84  C   UNL A   1      43.434  36.246  34.726  1.00  0.00     0.020 A 
ATOM     85  C   UNL A   1      43.996  37.281  33.977  1.00  0.00     0.054 A 
BRANCH  85  86
ATOM     86  S   UNL A   1      44.366  38.877  34.754  1.00  0.00     0.124 S 
ATOM     87  O   UNL A   1      45.755  39.094  34.358  1.00  0.00    -0.237 OA
ATOM     88  O   UNL A   1      43.390  39.771  34.135  1.00  0.00    -0.237 OA
ATOM     89  O   UNL A   1      44.156  38.626  36.178  1.00  0.00    -0.744 OA
ENDBRANCH  85  86
ENDBRANCH  59  80
ENDBRANCH  33  34
ENDBRANCH  25  28
ENDBRANCH  23  24
ENDBRANCH   1  23
TORSDOF 18
ENDMDL
