MODEL 1
REMARK VINA RESULT:     -12.6      0.000      0.000
REMARK SMILES C=C1C[C@@]23CC[C@H]4[C@@](C)(CCC[C@@]4(C)C(=O)NCCCCNC(=O)c4ccc(-c5c6nc(c(-c7ccc(S(=O)(=O)[O-])cc7)c7ccc([nH]7)c(-c7ccc(S(=O)(=O)[O-])cc7)c7nc(c(-c8ccc(S(=O)(=O)[O-])cc8)c8ccc5[nH]8)C=C7)C=C6)cc4)[C@H]2CC[C@]1(O)C3
REMARK SMILES IDX 20 1 19 2 18 3 17 4 15 5 16 6 13 8 1 9 2 10 3 11 88 12 4 13
REMARK SMILES IDX 87 14 90 15 5 16 85 17 86 18 6 19 8 20 7 21 9 22 10 23 11 24
REMARK SMILES IDX 12 25 14 26 89 27 21 29 22 30 23 31 24 33 25 34 26 35 84 36
REMARK SMILES IDX 27 37 83 38 28 39 29 40 30 41 77 42 31 43 82 44 76 45 78 46
REMARK SMILES IDX 32 47 81 48 75 49 74 50 33 52 63 53 44 54 62 55 45 56 48 57
REMARK SMILES IDX 61 58 79 59 46 60 47 61 60 63 80 64 49 65 34 66 35 67 43 68
REMARK SMILES IDX 36 69 42 70 37 71 38 72 39 73 40 74 41 75 64 76 65 77 73 78
REMARK SMILES IDX 66 79 72 80 67 81 68 82 69 83 70 84 71 85 50 86 51 87 59 88
REMARK SMILES IDX 52 89 58 90 53 91 54 92 55 93 56 94 57 95
REMARK H PARENT 17 7 89 28 22 32 78 51 48 62
REMARK Flexibility Score: inf
ROOT
ATOM      1  C   UNL A   1      32.397  28.225  27.256  1.00  0.00     0.023 C 
ENDROOT
BRANCH   1   2
ATOM      2  C   UNL A   1      31.232  28.690  26.388  1.00  0.00     0.023 C 
BRANCH   2   3
ATOM      3  C   UNL A   1      31.578  29.744  25.331  1.00  0.00     0.116 C 
BRANCH   3   4
ATOM      4  N   UNL A   1      31.145  29.387  23.982  1.00  0.00    -0.356 N 
ATOM      5  C   UNL A   1      31.582  28.628  22.942  1.00  0.00     0.226 C 
ATOM      6  O   UNL A   1      30.815  28.612  21.966  1.00  0.00    -0.274 OA
ATOM      7  H   UNL A   1      30.289  29.821  23.763  1.00  0.00     0.163 HD
BRANCH   5   8
ATOM      8  C   UNL A   1      32.892  27.802  22.870  1.00  0.00     0.050 C 
ATOM      9  C   UNL A   1      32.977  20.269  25.932  1.00  0.00     0.011 C 
ATOM     10  C   UNL A   1      32.863  21.603  25.857  1.00  0.00    -0.045 C 
ATOM     11  C   UNL A   1      33.247  22.454  24.656  1.00  0.00     0.040 C 
ATOM     12  C   UNL A   1      32.511  22.527  26.997  1.00  0.00     0.086 C 
ATOM     13  C   UNL A   1      33.283  23.905  25.226  1.00  0.00    -0.020 C 
ATOM     14  C   UNL A   1      31.072  23.051  26.897  1.00  0.00     0.040 C 
ATOM     15  C   UNL A   1      33.507  23.638  26.728  1.00  0.00     0.047 C 
ATOM     16  C   UNL A   1      34.449  24.761  24.736  1.00  0.00     0.008 C 
ATOM     17  C   UNL A   1      31.906  24.644  25.087  1.00  0.00     0.002 C 
ATOM     18  C   UNL A   1      30.741  23.731  25.548  1.00  0.00     0.008 C 
ATOM     19  C   UNL A   1      34.097  26.279  24.834  1.00  0.00     0.006 C 
ATOM     20  C   UNL A   1      31.724  25.607  23.825  1.00  0.00    -0.025 C 
ATOM     21  C   UNL A   1      32.981  26.536  23.792  1.00  0.00     0.010 C 
ATOM     22  C   UNL A   1      30.353  26.285  24.084  1.00  0.00     0.012 C 
ATOM     23  C   UNL A   1      31.674  25.041  22.355  1.00  0.00     0.007 C 
ATOM     24  C   UNL A   1      32.514  25.804  21.224  1.00  0.00     0.002 C 
ATOM     25  C   UNL A   1      33.216  27.191  21.493  1.00  0.00     0.017 C 
ATOM     26  C   UNL A   1      33.960  28.842  23.290  1.00  0.00     0.022 C 
BRANCH  12  27
ATOM     27  O   UNL A   1      32.747  21.954  28.268  1.00  0.00    -0.386 OA
ATOM     28  H   UNL A   1      32.461  21.028  28.264  1.00  0.00     0.211 HD
ENDBRANCH  12  27
ENDBRANCH   5   8
ENDBRANCH   3   4
ENDBRANCH   2   3
ENDBRANCH   1   2
BRANCH   1  29
ATOM     29  C   UNL A   1      33.667  29.055  27.147  1.00  0.00     0.116 C 
BRANCH  29  30
ATOM     30  N   UNL A   1      33.648  30.328  27.855  1.00  0.00    -0.352 N 
ATOM     31  C   UNL A   1      34.700  30.903  28.549  1.00  0.00     0.251 C 
ATOM     32  H   UNL A   1      32.802  30.831  27.839  1.00  0.00     0.163 HD
ATOM     33  O   UNL A   1      34.574  31.964  29.133  1.00  0.00    -0.269 OA
BRANCH  31  34
ATOM     34  C   UNL A   1      35.970  30.144  28.604  1.00  0.00     0.039 A 
ATOM     35  C   UNL A   1      36.830  30.186  27.506  1.00  0.00     0.014 A 
ATOM     36  C   UNL A   1      36.374  29.565  29.809  1.00  0.00     0.014 A 
ATOM     37  C   UNL A   1      38.144  29.736  27.653  1.00  0.00     0.010 A 
ATOM     38  C   UNL A   1      37.707  29.215  29.978  1.00  0.00     0.010 A 
ATOM     39  C   UNL A   1      38.610  29.305  28.906  1.00  0.00    -0.014 A 
BRANCH  39  40
ATOM     40  C   UNL A   1      40.035  28.943  29.127  1.00  0.00     0.031 A 
ATOM     41  C   UNL A   1      40.986  29.971  29.679  1.00  0.00     0.074 A 
ATOM     42  C   UNL A   1      40.491  27.728  28.755  1.00  0.00     0.049 A 
ATOM     43  N   UNL A   1      42.279  29.889  29.852  1.00  0.00    -0.248 NA
ATOM     44  C   UNL A   1      40.413  31.277  30.045  1.00  0.00     0.031 C 
ATOM     45  C   UNL A   1      39.689  26.665  28.143  1.00  0.00     0.029 A 
ATOM     46  N   UNL A   1      41.751  27.187  28.828  1.00  0.00    -0.354 N 
ATOM     47  C   UNL A   1      42.675  31.137  30.318  1.00  0.00     0.074 A 
ATOM     48  C   UNL A   1      41.498  31.975  30.341  1.00  0.00     0.031 C 
ATOM     49  C   UNL A   1      40.468  25.592  27.929  1.00  0.00     0.029 A 
ATOM     50  C   UNL A   1      41.831  25.899  28.352  1.00  0.00     0.049 A 
ATOM     51  H   UNL A   1      42.526  27.676  29.188  1.00  0.00     0.167 HD
ATOM     52  C   UNL A   1      43.901  31.544  30.722  1.00  0.00     0.031 A 
ATOM     53  C   UNL A   1      42.881  25.058  28.267  1.00  0.00     0.031 A 
ATOM     54  C   UNL A   1      45.064  30.700  30.736  1.00  0.00     0.049 A 
ATOM     55  C   UNL A   1      44.226  25.517  28.762  1.00  0.00     0.074 A 
ATOM     56  C   UNL A   1      46.339  30.997  31.182  1.00  0.00     0.029 A 
ATOM     57  N   UNL A   1      45.087  29.385  30.295  1.00  0.00    -0.354 N 
ATOM     58  N   UNL A   1      44.566  26.684  29.256  1.00  0.00    -0.248 NA
ATOM     59  C   UNL A   1      45.324  24.542  28.703  1.00  0.00     0.031 C 
ATOM     60  C   UNL A   1      47.142  29.869  30.983  1.00  0.00     0.029 A 
ATOM     61  C   UNL A   1      46.357  28.858  30.454  1.00  0.00     0.049 A 
ATOM     62  H   UNL A   1      44.316  28.900  29.922  1.00  0.00     0.167 HD
ATOM     63  C   UNL A   1      45.912  26.576  29.588  1.00  0.00     0.074 A 
ATOM     64  C   UNL A   1      46.318  25.226  29.254  1.00  0.00     0.031 C 
ATOM     65  C   UNL A   1      46.738  27.509  30.120  1.00  0.00     0.031 A 
BRANCH  52  66
ATOM     66  C   UNL A   1      44.031  32.966  31.199  1.00  0.00    -0.014 A 
ATOM     67  C   UNL A   1      44.359  34.001  30.303  1.00  0.00     0.010 A 
ATOM     68  C   UNL A   1      43.818  33.275  32.554  1.00  0.00     0.010 A 
ATOM     69  C   UNL A   1      44.522  35.309  30.762  1.00  0.00     0.020 A 
ATOM     70  C   UNL A   1      43.950  34.589  33.011  1.00  0.00     0.020 A 
ATOM     71  C   UNL A   1      44.323  35.595  32.115  1.00  0.00     0.054 A 
BRANCH  71  72
ATOM     72  S   UNL A   1      44.531  37.305  32.682  1.00  0.00     0.124 S 
ATOM     73  O   UNL A   1      45.898  37.285  33.196  1.00  0.00    -0.237 OA
ATOM     74  O   UNL A   1      44.332  38.076  31.458  1.00  0.00    -0.237 OA
ATOM     75  O   UNL A   1      43.488  37.463  33.692  1.00  0.00    -0.744 OA
ENDBRANCH  71  72
ENDBRANCH  52  66
BRANCH  53  76
ATOM     76  C   UNL A   1      42.698  23.687  27.717  1.00  0.00    -0.014 A 
ATOM     77  C   UNL A   1      42.922  23.431  26.352  1.00  0.00     0.010 A 
ATOM     78  C   UNL A   1      42.308  22.627  28.555  1.00  0.00     0.010 A 
ATOM     79  C   UNL A   1      42.742  22.146  25.831  1.00  0.00     0.020 A 
ATOM     80  C   UNL A   1      42.150  21.335  28.043  1.00  0.00     0.020 A 
ATOM     81  C   UNL A   1      42.358  21.105  26.681  1.00  0.00     0.054 A 
BRANCH  81  82
ATOM     82  S   UNL A   1      42.181  19.433  25.996  1.00  0.00     0.124 S 
ATOM     83  O   UNL A   1      40.743  19.350  25.766  1.00  0.00    -0.237 OA
ATOM     84  O   UNL A   1      43.012  19.493  24.796  1.00  0.00    -0.237 OA
ATOM     85  O   UNL A   1      42.698  18.575  27.059  1.00  0.00    -0.744 OA
ENDBRANCH  81  82
ENDBRANCH  53  76
BRANCH  65  86
ATOM     86  C   UNL A   1      48.156  27.097  30.406  1.00  0.00    -0.014 A 
ATOM     87  C   UNL A   1      49.201  27.443  29.533  1.00  0.00     0.010 A 
ATOM     88  C   UNL A   1      48.450  26.411  31.598  1.00  0.00     0.010 A 
ATOM     89  C   UNL A   1      50.518  27.085  29.835  1.00  0.00     0.020 A 
ATOM     90  C   UNL A   1      49.767  26.072  31.914  1.00  0.00     0.020 A 
ATOM     91  C   UNL A   1      50.792  26.400  31.023  1.00  0.00     0.054 A 
BRANCH  91  92
ATOM     92  S   UNL A   1      52.513  25.990  31.418  1.00  0.00     0.124 S 
ATOM     93  O   UNL A   1      52.900  27.101  32.282  1.00  0.00    -0.237 OA
ATOM     94  O   UNL A   1      52.393  24.692  32.077  1.00  0.00    -0.237 OA
ATOM     95  O   UNL A   1      53.170  25.959  30.112  1.00  0.00    -0.744 OA
ENDBRANCH  91  92
ENDBRANCH  65  86
ENDBRANCH  39  40
ENDBRANCH  31  34
ENDBRANCH  29  30
ENDBRANCH   1  29
TORSDOF 15
ENDMDL
MODEL 2
REMARK VINA RESULT:     -12.3      2.805      9.326
REMARK SMILES C=C1C[C@@]23CC[C@H]4[C@@](C)(CCC[C@@]4(C)C(=O)NCCCCNC(=O)c4ccc(-c5c6nc(c(-c7ccc(S(=O)(=O)[O-])cc7)c7ccc([nH]7)c(-c7ccc(S(=O)(=O)[O-])cc7)c7nc(c(-c8ccc(S(=O)(=O)[O-])cc8)c8ccc5[nH]8)C=C7)C=C6)cc4)[C@H]2CC[C@]1(O)C3
REMARK SMILES IDX 20 1 19 2 18 3 17 4 15 5 16 6 13 8 1 9 2 10 3 11 88 12 4 13
REMARK SMILES IDX 87 14 90 15 5 16 85 17 86 18 6 19 8 20 7 21 9 22 10 23 11 24
REMARK SMILES IDX 12 25 14 26 89 27 21 29 22 30 23 31 24 33 25 34 26 35 84 36
REMARK SMILES IDX 27 37 83 38 28 39 29 40 30 41 77 42 31 43 82 44 76 45 78 46
REMARK SMILES IDX 32 47 81 48 75 49 74 50 33 52 63 53 44 54 62 55 45 56 48 57
REMARK SMILES IDX 61 58 79 59 46 60 47 61 60 63 80 64 49 65 34 66 35 67 43 68
REMARK SMILES IDX 36 69 42 70 37 71 38 72 39 73 40 74 41 75 64 76 65 77 73 78
REMARK SMILES IDX 66 79 72 80 67 81 68 82 69 83 70 84 71 85 50 86 51 87 59 88
REMARK SMILES IDX 52 89 58 90 53 91 54 92 55 93 56 94 57 95
REMARK H PARENT 17 7 89 28 22 32 78 51 48 62
REMARK Flexibility Score: inf
ROOT
ATOM      1  C   UNL A   1      36.638  23.232  24.218  1.00  0.00     0.023 C 
ENDROOT
BRANCH   1   2
ATOM      2  C   UNL A   1      35.966  21.894  23.926  1.00  0.00     0.023 C 
BRANCH   2   3
ATOM      3  C   UNL A   1      35.790  20.967  25.134  1.00  0.00     0.116 C 
BRANCH   3   4
ATOM      4  N   UNL A   1      34.415  20.514  25.331  1.00  0.00    -0.356 N 
ATOM      5  C   UNL A   1      33.268  20.967  25.901  1.00  0.00     0.226 C 
ATOM      6  O   UNL A   1      32.301  20.196  25.782  1.00  0.00    -0.274 OA
ATOM      7  H   UNL A   1      34.282  19.622  24.937  1.00  0.00     0.163 HD
BRANCH   5   8
ATOM      8  C   UNL A   1      33.058  22.310  26.648  1.00  0.00     0.050 C 
ATOM      9  C   UNL A   1      31.151  28.947  22.354  1.00  0.00     0.011 C 
ATOM     10  C   UNL A   1      31.830  27.879  22.797  1.00  0.00    -0.045 C 
ATOM     11  C   UNL A   1      31.473  27.057  24.026  1.00  0.00     0.040 C 
ATOM     12  C   UNL A   1      33.165  27.401  22.281  1.00  0.00     0.086 C 
ATOM     13  C   UNL A   1      32.760  26.218  24.298  1.00  0.00    -0.020 C 
ATOM     14  C   UNL A   1      33.035  26.143  21.412  1.00  0.00     0.040 C 
ATOM     15  C   UNL A   1      33.836  27.076  23.601  1.00  0.00     0.047 C 
ATOM     16  C   UNL A   1      33.153  26.101  25.769  1.00  0.00     0.008 C 
ATOM     17  C   UNL A   1      32.739  24.826  23.577  1.00  0.00     0.002 C 
ATOM     18  C   UNL A   1      32.289  24.975  22.100  1.00  0.00     0.008 C 
ATOM     19  C   UNL A   1      34.015  24.820  26.008  1.00  0.00     0.006 C 
ATOM     20  C   UNL A   1      32.259  23.569  24.441  1.00  0.00    -0.025 C 
ATOM     21  C   UNL A   1      33.074  23.613  25.774  1.00  0.00     0.010 C 
ATOM     22  C   UNL A   1      32.515  22.365  23.497  1.00  0.00     0.012 C 
ATOM     23  C   UNL A   1      30.774  23.435  24.948  1.00  0.00     0.007 C 
ATOM     24  C   UNL A   1      30.533  22.967  26.462  1.00  0.00     0.002 C 
ATOM     25  C   UNL A   1      31.711  22.458  27.379  1.00  0.00     0.017 C 
ATOM     26  C   UNL A   1      34.244  22.321  27.643  1.00  0.00     0.022 C 
BRANCH  12  27
ATOM     27  O   UNL A   1      33.887  28.408  21.599  1.00  0.00    -0.386 OA
ATOM     28  H   UNL A   1      34.329  28.982  22.242  1.00  0.00     0.211 HD
ENDBRANCH  12  27
ENDBRANCH   5   8
ENDBRANCH   3   4
ENDBRANCH   2   3
ENDBRANCH   1   2
BRANCH   1  29
ATOM     29  C   UNL A   1      37.341  23.332  25.564  1.00  0.00     0.116 C 
BRANCH  29  30
ATOM     30  N   UNL A   1      38.596  22.600  25.673  1.00  0.00    -0.352 N 
ATOM     31  C   UNL A   1      39.755  23.037  26.291  1.00  0.00     0.251 C 
ATOM     32  H   UNL A   1      38.623  21.704  25.265  1.00  0.00     0.163 HD
ATOM     33  O   UNL A   1      40.765  22.357  26.305  1.00  0.00    -0.269 OA
BRANCH  31  34
ATOM     34  C   UNL A   1      39.737  24.394  26.884  1.00  0.00     0.039 A 
ATOM     35  C   UNL A   1      39.239  24.559  28.177  1.00  0.00     0.014 A 
ATOM     36  C   UNL A   1      40.388  25.440  26.227  1.00  0.00     0.014 A 
ATOM     37  C   UNL A   1      39.489  25.754  28.855  1.00  0.00     0.010 A 
ATOM     38  C   UNL A   1      40.722  26.583  26.942  1.00  0.00     0.010 A 
ATOM     39  C   UNL A   1      40.284  26.750  28.266  1.00  0.00    -0.014 A 
BRANCH  39  40
ATOM     40  C   UNL A   1      40.678  27.977  29.008  1.00  0.00     0.031 A 
ATOM     41  C   UNL A   1      42.019  28.035  29.691  1.00  0.00     0.074 A 
ATOM     42  C   UNL A   1      39.805  28.997  29.143  1.00  0.00     0.049 A 
ATOM     43  N   UNL A   1      42.510  28.965  30.467  1.00  0.00    -0.248 NA
ATOM     44  C   UNL A   1      42.907  26.875  29.508  1.00  0.00     0.031 C 
ATOM     45  C   UNL A   1      38.448  29.038  28.591  1.00  0.00     0.029 A 
ATOM     46  N   UNL A   1      39.928  30.196  29.801  1.00  0.00    -0.354 N 
ATOM     47  C   UNL A   1      43.747  28.490  30.886  1.00  0.00     0.074 A 
ATOM     48  C   UNL A   1      43.903  27.165  30.330  1.00  0.00     0.031 C 
ATOM     49  C   UNL A   1      37.879  30.214  28.905  1.00  0.00     0.029 A 
ATOM     50  C   UNL A   1      38.812  30.997  29.709  1.00  0.00     0.049 A 
ATOM     51  H   UNL A   1      40.739  30.460  30.292  1.00  0.00     0.167 HD
ATOM     52  C   UNL A   1      44.684  29.110  31.641  1.00  0.00     0.031 A 
ATOM     53  C   UNL A   1      38.568  32.222  30.213  1.00  0.00     0.031 A 
ATOM     54  C   UNL A   1      44.545  30.442  32.161  1.00  0.00     0.049 A 
ATOM     55  C   UNL A   1      39.642  32.911  31.012  1.00  0.00     0.074 A 
ATOM     56  C   UNL A   1      45.461  31.184  32.885  1.00  0.00     0.029 A 
ATOM     57  N   UNL A   1      43.420  31.236  31.999  1.00  0.00    -0.354 N 
ATOM     58  N   UNL A   1      40.830  32.467  31.346  1.00  0.00    -0.248 NA
ATOM     59  C   UNL A   1      39.348  34.270  31.487  1.00  0.00     0.031 C 
ATOM     60  C   UNL A   1      44.877  32.419  33.187  1.00  0.00     0.029 A 
ATOM     61  C   UNL A   1      43.616  32.461  32.614  1.00  0.00     0.049 A 
ATOM     62  H   UNL A   1      42.603  30.969  31.519  1.00  0.00     0.167 HD
ATOM     63  C   UNL A   1      41.435  33.501  32.052  1.00  0.00     0.074 A 
ATOM     64  C   UNL A   1      40.488  34.597  32.082  1.00  0.00     0.031 C 
ATOM     65  C   UNL A   1      42.662  33.540  32.626  1.00  0.00     0.031 A 
BRANCH  52  66
ATOM     66  C   UNL A   1      45.951  28.348  31.925  1.00  0.00    -0.014 A 
ATOM     67  C   UNL A   1      47.069  28.466  31.079  1.00  0.00     0.010 A 
ATOM     68  C   UNL A   1      46.031  27.512  33.053  1.00  0.00     0.010 A 
ATOM     69  C   UNL A   1      48.225  27.722  31.324  1.00  0.00     0.020 A 
ATOM     70  C   UNL A   1      47.197  26.789  33.319  1.00  0.00     0.020 A 
ATOM     71  C   UNL A   1      48.279  26.882  32.440  1.00  0.00     0.054 A 
BRANCH  71  72
ATOM     72  S   UNL A   1      49.796  25.935  32.741  1.00  0.00     0.124 S 
ATOM     73  O   UNL A   1      49.438  25.168  33.931  1.00  0.00    -0.237 OA
ATOM     74  O   UNL A   1      49.939  25.158  31.513  1.00  0.00    -0.237 OA
ATOM     75  O   UNL A   1      50.812  26.964  32.946  1.00  0.00    -0.744 OA
ENDBRANCH  71  72
ENDBRANCH  52  66
BRANCH  53  76
ATOM     76  C   UNL A   1      37.264  32.891  29.953  1.00  0.00    -0.014 A 
ATOM     77  C   UNL A   1      36.226  32.822  30.900  1.00  0.00     0.010 A 
ATOM     78  C   UNL A   1      37.054  33.610  28.763  1.00  0.00     0.010 A 
ATOM     79  C   UNL A   1      34.997  33.441  30.655  1.00  0.00     0.020 A 
ATOM     80  C   UNL A   1      35.834  34.251  28.524  1.00  0.00     0.020 A 
ATOM     81  C   UNL A   1      34.809  34.153  29.467  1.00  0.00     0.054 A 
BRANCH  81  82
ATOM     82  S   UNL A   1      33.225  34.995  29.191  1.00  0.00     0.124 S 
ATOM     83  O   UNL A   1      32.640  34.989  30.528  1.00  0.00    -0.237 OA
ATOM     84  O   UNL A   1      33.643  36.301  28.688  1.00  0.00    -0.237 OA
ATOM     85  O   UNL A   1      32.555  34.145  28.210  1.00  0.00    -0.744 OA
ENDBRANCH  81  82
ENDBRANCH  53  76
BRANCH  65  86
ATOM     86  C   UNL A   1      43.068  34.818  33.307  1.00  0.00    -0.014 A 
ATOM     87  C   UNL A   1      42.789  35.035  34.666  1.00  0.00     0.010 A 
ATOM     88  C   UNL A   1      43.795  35.785  32.588  1.00  0.00     0.010 A 
ATOM     89  C   UNL A   1      43.208  36.213  35.292  1.00  0.00     0.020 A 
ATOM     90  C   UNL A   1      44.236  36.952  33.215  1.00  0.00     0.020 A 
ATOM     91  C   UNL A   1      43.928  37.164  34.561  1.00  0.00     0.054 A 
BRANCH  91  92
ATOM     92  S   UNL A   1      44.505  38.661  35.406  1.00  0.00     0.124 S 
ATOM     93  O   UNL A   1      43.787  39.710  34.689  1.00  0.00    -0.237 OA
ATOM     94  O   UNL A   1      44.080  38.438  36.786  1.00  0.00    -0.237 OA
ATOM     95  O   UNL A   1      45.952  38.641  35.196  1.00  0.00    -0.744 OA
ENDBRANCH  91  92
ENDBRANCH  65  86
ENDBRANCH  39  40
ENDBRANCH  31  34
ENDBRANCH  29  30
ENDBRANCH   1  29
TORSDOF 15
ENDMDL
MODEL 3
REMARK VINA RESULT:     -12.1      1.374      2.539
REMARK SMILES C=C1C[C@@]23CC[C@H]4[C@@](C)(CCC[C@@]4(C)C(=O)NCCCCNC(=O)c4ccc(-c5c6nc(c(-c7ccc(S(=O)(=O)[O-])cc7)c7ccc([nH]7)c(-c7ccc(S(=O)(=O)[O-])cc7)c7nc(c(-c8ccc(S(=O)(=O)[O-])cc8)c8ccc5[nH]8)C=C7)C=C6)cc4)[C@H]2CC[C@]1(O)C3
REMARK SMILES IDX 20 1 19 2 18 3 17 4 15 5 16 6 13 8 1 9 2 10 3 11 88 12 4 13
REMARK SMILES IDX 87 14 90 15 5 16 85 17 86 18 6 19 8 20 7 21 9 22 10 23 11 24
REMARK SMILES IDX 12 25 14 26 89 27 21 29 22 30 23 31 24 33 25 34 26 35 84 36
REMARK SMILES IDX 27 37 83 38 28 39 29 40 30 41 77 42 31 43 82 44 76 45 78 46
REMARK SMILES IDX 32 47 81 48 75 49 74 50 33 52 63 53 44 54 62 55 45 56 48 57
REMARK SMILES IDX 61 58 79 59 46 60 47 61 60 63 80 64 49 65 34 66 35 67 43 68
REMARK SMILES IDX 36 69 42 70 37 71 38 72 39 73 40 74 41 75 64 76 65 77 73 78
REMARK SMILES IDX 66 79 72 80 67 81 68 82 69 83 70 84 71 85 50 86 51 87 59 88
REMARK SMILES IDX 52 89 58 90 53 91 54 92 55 93 56 94 57 95
REMARK H PARENT 17 7 89 28 22 32 78 51 48 62
REMARK Flexibility Score: inf
ROOT
ATOM      1  C   UNL A   1      32.813  28.961  25.147  1.00  0.00     0.023 C 
ENDROOT
BRANCH   1   2
ATOM      2  C   UNL A   1      33.291  28.810  23.707  1.00  0.00     0.023 C 
BRANCH   2   3
ATOM      3  C   UNL A   1      33.389  27.369  23.194  1.00  0.00     0.116 C 
BRANCH   3   4
ATOM      4  N   UNL A   1      32.208  26.560  23.483  1.00  0.00    -0.356 N 
ATOM      5  C   UNL A   1      31.842  25.563  24.331  1.00  0.00     0.226 C 
ATOM      6  O   UNL A   1      30.660  25.203  24.214  1.00  0.00    -0.274 OA
ATOM      7  H   UNL A   1      31.461  26.810  22.893  1.00  0.00     0.163 HD
BRANCH   5   8
ATOM      8  C   UNL A   1      32.727  24.869  25.399  1.00  0.00     0.050 C 
ATOM      9  C   UNL A   1      34.954  17.134  24.245  1.00  0.00     0.011 C 
ATOM     10  C   UNL A   1      34.180  18.214  24.422  1.00  0.00    -0.045 C 
ATOM     11  C   UNL A   1      34.677  19.599  24.807  1.00  0.00     0.040 C 
ATOM     12  C   UNL A   1      32.672  18.227  24.455  1.00  0.00     0.086 C 
ATOM     13  C   UNL A   1      33.382  20.348  25.249  1.00  0.00    -0.020 C 
ATOM     14  C   UNL A   1      32.067  18.810  23.171  1.00  0.00     0.040 C 
ATOM     15  C   UNL A   1      32.461  19.170  25.625  1.00  0.00     0.047 C 
ATOM     16  C   UNL A   1      33.536  21.221  26.493  1.00  0.00     0.008 C 
ATOM     17  C   UNL A   1      32.693  21.116  24.067  1.00  0.00     0.002 C 
ATOM     18  C   UNL A   1      32.597  20.217  22.807  1.00  0.00     0.008 C 
ATOM     19  C   UNL A   1      32.459  22.353  26.507  1.00  0.00     0.006 C 
ATOM     20  C   UNL A   1      33.025  22.672  23.923  1.00  0.00    -0.025 C 
ATOM     21  C   UNL A   1      32.811  23.303  25.337  1.00  0.00     0.010 C 
ATOM     22  C   UNL A   1      32.073  23.140  22.790  1.00  0.00     0.012 C 
ATOM     23  C   UNL A   1      34.466  23.176  23.533  1.00  0.00     0.007 C 
ATOM     24  C   UNL A   1      35.079  24.413  24.349  1.00  0.00     0.002 C 
ATOM     25  C   UNL A   1      34.219  25.249  25.374  1.00  0.00     0.017 C 
ATOM     26  C   UNL A   1      32.054  25.313  26.722  1.00  0.00     0.022 C 
BRANCH  12  27
ATOM     27  O   UNL A   1      32.113  16.959  24.741  1.00  0.00    -0.386 OA
ATOM     28  H   UNL A   1      32.452  16.307  24.109  1.00  0.00     0.211 HD
ENDBRANCH  12  27
ENDBRANCH   5   8
ENDBRANCH   3   4
ENDBRANCH   2   3
ENDBRANCH   1   2
BRANCH   1  29
ATOM     29  C   UNL A   1      33.907  29.166  26.184  1.00  0.00     0.116 C 
BRANCH  29  30
ATOM     30  N   UNL A   1      33.744  30.328  27.049  1.00  0.00    -0.352 N 
ATOM     31  C   UNL A   1      34.648  30.790  27.990  1.00  0.00     0.251 C 
ATOM     32  H   UNL A   1      32.905  30.835  26.955  1.00  0.00     0.163 HD
ATOM     33  O   UNL A   1      34.405  31.759  28.685  1.00  0.00    -0.269 OA
BRANCH  31  34
ATOM     34  C   UNL A   1      35.901  30.019  28.161  1.00  0.00     0.039 A 
ATOM     35  C   UNL A   1      36.870  30.076  27.158  1.00  0.00     0.014 A 
ATOM     36  C   UNL A   1      36.175  29.415  29.389  1.00  0.00     0.014 A 
ATOM     37  C   UNL A   1      38.159  29.612  27.430  1.00  0.00     0.010 A 
ATOM     38  C   UNL A   1      37.482  29.051  29.688  1.00  0.00     0.010 A 
ATOM     39  C   UNL A   1      38.490  29.153  28.715  1.00  0.00    -0.014 A 
BRANCH  39  40
ATOM     40  C   UNL A   1      39.883  28.775  29.075  1.00  0.00     0.031 A 
ATOM     41  C   UNL A   1      40.776  29.782  29.749  1.00  0.00     0.074 A 
ATOM     42  C   UNL A   1      40.370  27.567  28.722  1.00  0.00     0.049 A 
ATOM     43  N   UNL A   1      42.044  29.687  30.054  1.00  0.00    -0.248 NA
ATOM     44  C   UNL A   1      40.174  31.083  30.086  1.00  0.00     0.031 C 
ATOM     45  C   UNL A   1      39.631  26.525  28.004  1.00  0.00     0.029 A 
ATOM     46  N   UNL A   1      41.613  27.015  28.912  1.00  0.00    -0.354 N 
ATOM     47  C   UNL A   1      42.394  30.920  30.590  1.00  0.00     0.074 A 
ATOM     48  C   UNL A   1      41.225  31.766  30.510  1.00  0.00     0.031 C 
ATOM     49  C   UNL A   1      40.423  25.451  27.845  1.00  0.00     0.029 A 
ATOM     50  C   UNL A   1      41.735  25.738  28.415  1.00  0.00     0.049 A 
ATOM     51  H   UNL A   1      42.348  27.489  29.364  1.00  0.00     0.167 HD
ATOM     52  C   UNL A   1      43.574  31.308  31.129  1.00  0.00     0.031 A 
ATOM     53  C   UNL A   1      42.785  24.892  28.418  1.00  0.00     0.031 A 
ATOM     54  C   UNL A   1      44.724  30.455  31.243  1.00  0.00     0.049 A 
ATOM     55  C   UNL A   1      44.073  25.329  29.063  1.00  0.00     0.074 A 
ATOM     56  C   UNL A   1      45.948  30.732  31.827  1.00  0.00     0.029 A 
ATOM     57  N   UNL A   1      44.788  29.152  30.774  1.00  0.00    -0.354 N 
ATOM     58  N   UNL A   1      44.365  26.481  29.619  1.00  0.00    -0.248 NA
ATOM     59  C   UNL A   1      45.166  24.348  29.094  1.00  0.00     0.031 C 
ATOM     60  C   UNL A   1      46.762  29.604  31.685  1.00  0.00     0.029 A 
ATOM     61  C   UNL A   1      46.031  28.612  31.052  1.00  0.00     0.049 A 
ATOM     62  H   UNL A   1      44.057  28.682  30.311  1.00  0.00     0.167 HD
ATOM     63  C   UNL A   1      45.668  26.354  30.087  1.00  0.00     0.074 A 
ATOM     64  C   UNL A   1      46.101  25.010  29.763  1.00  0.00     0.031 C 
ATOM     65  C   UNL A   1      46.439  27.269  30.725  1.00  0.00     0.031 A 
BRANCH  52  66
ATOM     66  C   UNL A   1      43.660  32.717  31.653  1.00  0.00    -0.014 A 
ATOM     67  C   UNL A   1      43.283  33.020  32.974  1.00  0.00     0.010 A 
ATOM     68  C   UNL A   1      44.130  33.750  30.821  1.00  0.00     0.010 A 
ATOM     69  C   UNL A   1      43.323  34.336  33.439  1.00  0.00     0.020 A 
ATOM     70  C   UNL A   1      44.201  35.063  31.292  1.00  0.00     0.020 A 
ATOM     71  C   UNL A   1      43.775  35.351  32.592  1.00  0.00     0.054 A 
BRANCH  71  72
ATOM     72  S   UNL A   1      43.827  37.051  33.223  1.00  0.00     0.124 S 
ATOM     73  O   UNL A   1      43.765  37.830  31.990  1.00  0.00    -0.237 OA
ATOM     74  O   UNL A   1      42.637  37.116  34.067  1.00  0.00    -0.237 OA
ATOM     75  O   UNL A   1      45.099  37.115  33.938  1.00  0.00    -0.744 OA
ENDBRANCH  71  72
ENDBRANCH  52  66
BRANCH  53  76
ATOM     76  C   UNL A   1      42.653  23.536  27.819  1.00  0.00    -0.014 A 
ATOM     77  C   UNL A   1      42.047  22.493  28.542  1.00  0.00     0.010 A 
ATOM     78  C   UNL A   1      43.123  23.281  26.518  1.00  0.00     0.010 A 
ATOM     79  C   UNL A   1      41.931  21.216  27.985  1.00  0.00     0.020 A 
ATOM     80  C   UNL A   1      42.988  22.011  25.948  1.00  0.00     0.020 A 
ATOM     81  C   UNL A   1      42.402  20.983  26.690  1.00  0.00     0.054 A 
BRANCH  81  82
ATOM     82  S   UNL A   1      42.193  19.332  25.965  1.00  0.00     0.124 S 
ATOM     83  O   UNL A   1      42.992  19.432  24.748  1.00  0.00    -0.237 OA
ATOM     84  O   UNL A   1      42.729  18.459  27.006  1.00  0.00    -0.237 OA
ATOM     85  O   UNL A   1      40.750  19.231  25.762  1.00  0.00    -0.744 OA
ENDBRANCH  81  82
ENDBRANCH  53  76
BRANCH  65  86
ATOM     86  C   UNL A   1      47.817  26.839  31.146  1.00  0.00    -0.014 A 
ATOM     87  C   UNL A   1      48.044  26.271  32.411  1.00  0.00     0.010 A 
ATOM     88  C   UNL A   1      48.885  26.949  30.237  1.00  0.00     0.010 A 
ATOM     89  C   UNL A   1      49.324  25.842  32.771  1.00  0.00     0.020 A 
ATOM     90  C   UNL A   1      50.161  26.500  30.584  1.00  0.00     0.020 A 
ATOM     91  C   UNL A   1      50.375  25.960  31.855  1.00  0.00     0.054 A 
BRANCH  91  92
ATOM     92  S   UNL A   1      52.017  25.352  32.325  1.00  0.00     0.124 S 
ATOM     93  O   UNL A   1      52.205  25.968  33.635  1.00  0.00    -0.237 OA
ATOM     94  O   UNL A   1      51.834  23.902  32.332  1.00  0.00    -0.237 OA
ATOM     95  O   UNL A   1      52.889  25.858  31.267  1.00  0.00    -0.744 OA
ENDBRANCH  91  92
ENDBRANCH  65  86
ENDBRANCH  39  40
ENDBRANCH  31  34
ENDBRANCH  29  30
ENDBRANCH   1  29
TORSDOF 15
ENDMDL
