MODEL 1
REMARK VINA RESULT:     -13.3      0.000      0.000
REMARK SMILES Cc1cccc(S(=O)(=O)Nc2cc(C(=O)NCCCCNC(=O)c3ccc(-c4c5nc(c(-c6ccc(S(=O)(=O)[O-])cc6)c6ccc([nH]6)c(-c6ccc(S(=O)(=O)[O-])cc6)c6nc(c(-c7ccc(S(=O)(=O)[O-])cc7)c7ccc4[nH]7)C=C6)C=C5)cc3)cnc2N2CCC[C@H](C)C2)c1
REMARK SMILES IDX 18 1 17 2 16 3 14 4 15 5 13 7 11 8 12 9 86 10 85 11 84 12
REMARK SMILES IDX 10 13 7 15 8 16 9 17 6 18 1 19 2 20 3 21 94 22 4 23 5 24
REMARK SMILES IDX 87 25 88 26 93 27 89 28 91 29 90 30 92 31 19 32 20 33 21 34
REMARK SMILES IDX 22 35 23 37 24 38 25 39 83 40 26 41 82 42 27 43 28 44 29 45
REMARK SMILES IDX 76 46 30 47 81 48 75 49 77 50 31 51 80 52 74 53 73 54 32 56
REMARK SMILES IDX 62 57 43 58 61 59 44 60 47 61 60 62 78 63 45 64 46 65 59 67
REMARK SMILES IDX 79 68 48 69 33 70 34 71 42 72 35 73 41 74 36 75 37 76 38 77
REMARK SMILES IDX 39 78 40 79 63 80 64 81 72 82 65 83 71 84 66 85 67 86 68 87
REMARK SMILES IDX 69 88 70 89 49 90 50 91 58 92 51 93 57 94 52 95 53 96 54 97
REMARK SMILES IDX 55 98 56 99
REMARK H PARENT 16 6 10 14 21 36 77 55 47 66
REMARK Flexibility Score: inf
ROOT
ATOM      1  C   UNL A   1      33.356  29.235  25.185  1.00  0.00     0.023 C 
ENDROOT
BRANCH   1   2
ATOM      2  C   UNL A   1      31.954  28.658  25.433  1.00  0.00     0.116 C 
BRANCH   2   3
ATOM      3  N   UNL A   1      31.358  28.104  24.219  1.00  0.00    -0.352 N 
ATOM      4  C   UNL A   1      31.606  26.975  23.480  1.00  0.00     0.252 C 
ATOM      5  O   UNL A   1      30.866  26.733  22.525  1.00  0.00    -0.269 OA
ATOM      6  H   UNL A   1      30.628  28.656  23.856  1.00  0.00     0.163 HD
BRANCH   4   7
ATOM      7  C   UNL A   1      32.681  26.004  23.792  1.00  0.00     0.060 A 
ATOM      8  C   UNL A   1      33.845  24.438  25.188  1.00  0.00     0.092 A 
ATOM      9  C   UNL A   1      32.939  25.481  25.046  1.00  0.00     0.046 A 
ATOM     10  C   UNL A   1      34.646  24.041  24.097  1.00  0.00     0.153 A 
ATOM     11  N   UNL A   1      34.480  24.611  22.886  1.00  0.00    -0.236 NA
ATOM     12  C   UNL A   1      33.487  25.542  22.754  1.00  0.00     0.127 A 
BRANCH   8  13
ATOM     13  N   UNL A   1      33.892  23.784  26.465  1.00  0.00    -0.276 N 
ATOM     14  H   UNL A   1      34.575  24.036  27.127  1.00  0.00     0.180 HD
BRANCH  13  15
ATOM     15  S   UNL A   1      32.747  22.566  26.824  1.00  0.00     0.262 S 
ATOM     16  O   UNL A   1      31.511  23.282  27.061  1.00  0.00    -0.201 OA
ATOM     17  O   UNL A   1      33.301  21.751  27.885  1.00  0.00    -0.201 OA
BRANCH  15  18
ATOM     18  C   UNL A   1      32.497  21.486  25.430  1.00  0.00     0.088 A 
ATOM     19  C   UNL A   1      33.134  17.912  24.236  1.00  0.00     0.044 C 
ATOM     20  C   UNL A   1      32.661  19.334  24.296  1.00  0.00    -0.050 A 
ATOM     21  C   UNL A   1      32.206  19.935  23.123  1.00  0.00     0.003 A 
ATOM     22  C   UNL A   1      32.723  20.100  25.474  1.00  0.00     0.025 A 
ATOM     23  C   UNL A   1      31.893  21.287  23.114  1.00  0.00     0.002 A 
ATOM     24  C   UNL A   1      32.051  22.071  24.249  1.00  0.00     0.022 A 
ENDBRANCH  15  18
ENDBRANCH  13  15
ENDBRANCH   8  13
BRANCH  10  25
ATOM     25  N   UNL A   1      35.694  23.167  24.287  1.00  0.00    -0.355 N 
ATOM     26  C   UNL A   1      35.572  21.730  24.130  1.00  0.00     0.118 C 
ATOM     27  C   UNL A   1      37.048  23.689  24.203  1.00  0.00     0.121 C 
ATOM     28  C   UNL A   1      36.265  21.077  25.332  1.00  0.00     0.022 C 
ATOM     29  C   UNL A   1      37.828  23.141  25.414  1.00  0.00     0.005 C 
ATOM     30  C   UNL A   1      37.698  21.603  25.513  1.00  0.00     0.007 C 
ATOM     31  C   UNL A   1      37.380  23.839  26.704  1.00  0.00     0.009 C 
ENDBRANCH  10  25
ENDBRANCH   4   7
ENDBRANCH   2   3
ENDBRANCH   1   2
BRANCH   1  32
ATOM     32  C   UNL A   1      34.406  28.726  26.170  1.00  0.00     0.023 C 
BRANCH  32  33
ATOM     33  C   UNL A   1      34.511  29.593  27.417  1.00  0.00     0.116 C 
BRANCH  33  34
ATOM     34  N   UNL A   1      35.346  30.770  27.244  1.00  0.00    -0.352 N 
ATOM     35  C   UNL A   1      36.561  30.971  27.889  1.00  0.00     0.251 C 
ATOM     36  H   UNL A   1      35.031  31.471  26.629  1.00  0.00     0.163 HD
ATOM     37  O   UNL A   1      36.958  32.055  28.273  1.00  0.00    -0.269 OA
BRANCH  35  38
ATOM     38  C   UNL A   1      37.439  29.783  27.950  1.00  0.00     0.039 A 
ATOM     39  C   UNL A   1      37.346  28.961  29.080  1.00  0.00     0.014 A 
ATOM     40  C   UNL A   1      38.502  29.673  27.060  1.00  0.00     0.014 A 
ATOM     41  C   UNL A   1      38.417  28.141  29.416  1.00  0.00     0.010 A 
ATOM     42  C   UNL A   1      39.601  28.941  27.447  1.00  0.00     0.010 A 
ATOM     43  C   UNL A   1      39.573  28.211  28.644  1.00  0.00    -0.014 A 
BRANCH  43  44
ATOM     44  C   UNL A   1      40.845  27.613  29.015  1.00  0.00     0.031 A 
ATOM     45  C   UNL A   1      41.107  26.200  28.688  1.00  0.00     0.074 A 
ATOM     46  C   UNL A   1      41.830  28.408  29.481  1.00  0.00     0.049 A 
ATOM     47  N   UNL A   1      42.093  25.513  29.150  1.00  0.00    -0.248 NA
ATOM     48  C   UNL A   1      40.213  25.423  27.835  1.00  0.00     0.031 C 
ATOM     49  C   UNL A   1      43.258  28.111  29.530  1.00  0.00     0.029 A 
ATOM     50  N   UNL A   1      41.698  29.573  30.231  1.00  0.00    -0.354 N 
ATOM     51  C   UNL A   1      42.161  24.353  28.413  1.00  0.00     0.074 A 
ATOM     52  C   UNL A   1      40.907  24.291  27.703  1.00  0.00     0.031 C 
ATOM     53  C   UNL A   1      43.814  28.852  30.500  1.00  0.00     0.029 A 
ATOM     54  C   UNL A   1      42.727  29.541  31.182  1.00  0.00     0.049 A 
ATOM     55  H   UNL A   1      41.021  30.279  30.117  1.00  0.00     0.167 HD
ATOM     56  C   UNL A   1      43.343  23.672  28.364  1.00  0.00     0.031 A 
ATOM     57  C   UNL A   1      42.534  29.580  32.529  1.00  0.00     0.031 A 
ATOM     58  C   UNL A   1      44.302  24.211  29.335  1.00  0.00     0.049 A 
ATOM     59  C   UNL A   1      43.166  28.369  33.169  1.00  0.00     0.074 A 
ATOM     60  C   UNL A   1      45.422  25.017  29.217  1.00  0.00     0.029 A 
ATOM     61  N   UNL A   1      43.974  24.198  30.693  1.00  0.00    -0.354 N 
ATOM     62  N   UNL A   1      43.380  27.253  32.523  1.00  0.00    -0.248 NA
ATOM     63  C   UNL A   1      43.669  28.333  34.536  1.00  0.00     0.031 C 
ATOM     64  C   UNL A   1      45.694  25.577  30.498  1.00  0.00     0.029 A 
ATOM     65  C   UNL A   1      44.769  25.080  31.402  1.00  0.00     0.049 A 
ATOM     66  H   UNL A   1      43.271  23.636  31.092  1.00  0.00     0.167 HD
ATOM     67  C   UNL A   1      44.121  26.413  33.303  1.00  0.00     0.074 A 
ATOM     68  C   UNL A   1      44.239  27.115  34.573  1.00  0.00     0.031 C 
ATOM     69  C   UNL A   1      44.627  25.230  32.848  1.00  0.00     0.031 A 
BRANCH  56  70
ATOM     70  C   UNL A   1      43.708  22.732  27.225  1.00  0.00    -0.014 A 
ATOM     71  C   UNL A   1      42.893  21.617  26.939  1.00  0.00     0.010 A 
ATOM     72  C   UNL A   1      44.880  22.839  26.451  1.00  0.00     0.010 A 
ATOM     73  C   UNL A   1      43.268  20.634  26.001  1.00  0.00     0.020 A 
ATOM     74  C   UNL A   1      45.284  21.856  25.535  1.00  0.00     0.020 A 
ATOM     75  C   UNL A   1      44.477  20.751  25.319  1.00  0.00     0.054 A 
BRANCH  75  76
ATOM     76  S   UNL A   1      44.982  19.463  24.149  1.00  0.00     0.124 S 
ATOM     77  O   UNL A   1      44.514  19.996  22.872  1.00  0.00    -0.237 OA
ATOM     78  O   UNL A   1      46.431  19.427  24.326  1.00  0.00    -0.237 OA
ATOM     79  O   UNL A   1      44.272  18.273  24.615  1.00  0.00    -0.744 OA
ENDBRANCH  75  76
ENDBRANCH  56  70
BRANCH  57  80
ATOM     80  C   UNL A   1      41.304  30.312  32.947  1.00  0.00    -0.014 A 
ATOM     81  C   UNL A   1      40.173  29.514  33.242  1.00  0.00     0.010 A 
ATOM     82  C   UNL A   1      41.387  31.594  33.515  1.00  0.00     0.010 A 
ATOM     83  C   UNL A   1      39.267  29.892  34.238  1.00  0.00     0.020 A 
ATOM     84  C   UNL A   1      40.467  31.983  34.505  1.00  0.00     0.020 A 
ATOM     85  C   UNL A   1      39.464  31.095  34.914  1.00  0.00     0.054 A 
BRANCH  85  86
ATOM     86  S   UNL A   1      38.519  31.388  36.446  1.00  0.00     0.124 S 
ATOM     87  O   UNL A   1      38.128  30.039  36.837  1.00  0.00    -0.237 OA
ATOM     88  O   UNL A   1      39.513  32.037  37.306  1.00  0.00    -0.237 OA
ATOM     89  O   UNL A   1      37.432  32.255  36.004  1.00  0.00    -0.744 OA
ENDBRANCH  85  86
ENDBRANCH  57  80
BRANCH  69  90
ATOM     90  C   UNL A   1      45.142  24.125  33.735  1.00  0.00    -0.014 A 
ATOM     91  C   UNL A   1      46.428  24.126  34.299  1.00  0.00     0.010 A 
ATOM     92  C   UNL A   1      44.249  23.116  34.170  1.00  0.00     0.010 A 
ATOM     93  C   UNL A   1      46.825  23.139  35.206  1.00  0.00     0.020 A 
ATOM     94  C   UNL A   1      44.619  22.157  35.114  1.00  0.00     0.020 A 
ATOM     95  C   UNL A   1      45.916  22.162  35.612  1.00  0.00     0.054 A 
BRANCH  95  96
ATOM     96  S   UNL A   1      46.412  20.955  36.864  1.00  0.00     0.124 S 
ATOM     97  O   UNL A   1      47.868  20.996  36.758  1.00  0.00    -0.237 OA
ATOM     98  O   UNL A   1      45.858  21.515  38.095  1.00  0.00    -0.237 OA
ATOM     99  O   UNL A   1      45.782  19.717  36.414  1.00  0.00    -0.744 OA
ENDBRANCH  95  96
ENDBRANCH  69  90
ENDBRANCH  43  44
ENDBRANCH  35  38
ENDBRANCH  33  34
ENDBRANCH  32  33
ENDBRANCH   1  32
TORSDOF 18
ENDMDL
MODEL 2
REMARK VINA RESULT:     -13.1      4.749     11.203
REMARK SMILES Cc1cccc(S(=O)(=O)Nc2cc(C(=O)NCCCCNC(=O)c3ccc(-c4c5nc(c(-c6ccc(S(=O)(=O)[O-])cc6)c6ccc([nH]6)c(-c6ccc(S(=O)(=O)[O-])cc6)c6nc(c(-c7ccc(S(=O)(=O)[O-])cc7)c7ccc4[nH]7)C=C6)C=C5)cc3)cnc2N2CCC[C@H](C)C2)c1
REMARK SMILES IDX 18 1 17 2 16 3 14 4 15 5 13 7 11 8 12 9 86 10 85 11 84 12
REMARK SMILES IDX 10 13 7 15 8 16 9 17 6 18 1 19 2 20 3 21 94 22 4 23 5 24
REMARK SMILES IDX 87 25 88 26 93 27 89 28 91 29 90 30 92 31 19 32 20 33 21 34
REMARK SMILES IDX 22 35 23 37 24 38 25 39 83 40 26 41 82 42 27 43 28 44 29 45
REMARK SMILES IDX 76 46 30 47 81 48 75 49 77 50 31 51 80 52 74 53 73 54 32 56
REMARK SMILES IDX 62 57 43 58 61 59 44 60 47 61 60 62 78 63 45 64 46 65 59 67
REMARK SMILES IDX 79 68 48 69 33 70 34 71 42 72 35 73 41 74 36 75 37 76 38 77
REMARK SMILES IDX 39 78 40 79 63 80 64 81 72 82 65 83 71 84 66 85 67 86 68 87
REMARK SMILES IDX 69 88 70 89 49 90 50 91 58 92 51 93 57 94 52 95 53 96 54 97
REMARK SMILES IDX 55 98 56 99
REMARK H PARENT 16 6 10 14 21 36 77 55 47 66
REMARK Flexibility Score: inf
ROOT
ATOM      1  C   UNL A   1      36.185  21.954  25.763  1.00  0.00     0.023 C 
ENDROOT
BRANCH   1   2
ATOM      2  C   UNL A   1      35.580  21.071  24.662  1.00  0.00     0.116 C 
BRANCH   2   3
ATOM      3  N   UNL A   1      34.212  20.659  24.967  1.00  0.00    -0.352 N 
ATOM      4  C   UNL A   1      33.069  21.351  25.282  1.00  0.00     0.252 C 
ATOM      5  O   UNL A   1      32.024  20.714  25.415  1.00  0.00    -0.269 OA
ATOM      6  H   UNL A   1      34.083  19.683  24.943  1.00  0.00     0.163 HD
BRANCH   4   7
ATOM      7  C   UNL A   1      33.010  22.825  25.424  1.00  0.00     0.060 A 
ATOM      8  C   UNL A   1      32.890  25.076  24.602  1.00  0.00     0.092 A 
ATOM      9  C   UNL A   1      33.152  23.729  24.387  1.00  0.00     0.046 A 
ATOM     10  C   UNL A   1      32.669  25.556  25.910  1.00  0.00     0.153 A 
ATOM     11  N   UNL A   1      32.627  24.700  26.952  1.00  0.00    -0.236 NA
ATOM     12  C   UNL A   1      32.759  23.366  26.683  1.00  0.00     0.127 A 
BRANCH   8  13
ATOM     13  N   UNL A   1      32.823  25.920  23.444  1.00  0.00    -0.276 N 
ATOM     14  H   UNL A   1      33.572  26.518  23.221  1.00  0.00     0.180 HD
BRANCH  13  15
ATOM     15  S   UNL A   1      31.430  25.875  22.454  1.00  0.00     0.262 S 
ATOM     16  O   UNL A   1      30.636  24.787  22.987  1.00  0.00    -0.201 OA
ATOM     17  O   UNL A   1      31.878  25.807  21.079  1.00  0.00    -0.201 OA
BRANCH  15  18
ATOM     18  C   UNL A   1      30.481  27.374  22.607  1.00  0.00     0.088 A 
ATOM     19  C   UNL A   1      26.982  28.651  23.459  1.00  0.00     0.044 C 
ATOM     20  C   UNL A   1      28.440  28.609  23.109  1.00  0.00    -0.050 A 
ATOM     21  C   UNL A   1      29.049  29.774  22.647  1.00  0.00     0.003 A 
ATOM     22  C   UNL A   1      29.195  27.422  23.167  1.00  0.00     0.025 A 
ATOM     23  C   UNL A   1      30.356  29.735  22.183  1.00  0.00     0.002 A 
ATOM     24  C   UNL A   1      31.072  28.546  22.142  1.00  0.00     0.022 A 
ENDBRANCH  15  18
ENDBRANCH  13  15
ENDBRANCH   8  13
BRANCH  10  25
ATOM     25  N   UNL A   1      32.630  26.911  26.156  1.00  0.00    -0.355 N 
ATOM     26  C   UNL A   1      31.432  27.609  26.581  1.00  0.00     0.118 C 
ATOM     27  C   UNL A   1      33.881  27.596  26.435  1.00  0.00     0.121 C 
ATOM     28  C   UNL A   1      31.320  28.884  25.737  1.00  0.00     0.022 C 
ATOM     29  C   UNL A   1      33.906  28.876  25.580  1.00  0.00     0.005 C 
ATOM     30  C   UNL A   1      32.617  29.708  25.781  1.00  0.00     0.007 C 
ATOM     31  C   UNL A   1      34.142  28.535  24.103  1.00  0.00     0.009 C 
ENDBRANCH  10  25
ENDBRANCH   4   7
ENDBRANCH   2   3
ENDBRANCH   1   2
BRANCH   1  32
ATOM     32  C   UNL A   1      37.535  22.558  25.386  1.00  0.00     0.023 C 
BRANCH  32  33
ATOM     33  C   UNL A   1      37.921  23.734  26.272  1.00  0.00     0.116 C 
BRANCH  33  34
ATOM     34  N   UNL A   1      38.866  23.393  27.321  1.00  0.00    -0.352 N 
ATOM     35  C   UNL A   1      39.896  24.223  27.750  1.00  0.00     0.251 C 
ATOM     36  H   UNL A   1      38.773  22.516  27.758  1.00  0.00     0.163 HD
ATOM     37  O   UNL A   1      40.990  23.827  28.102  1.00  0.00    -0.269 OA
BRANCH  35  38
ATOM     38  C   UNL A   1      39.526  25.647  27.902  1.00  0.00     0.039 A 
ATOM     39  C   UNL A   1      40.025  26.555  26.960  1.00  0.00     0.014 A 
ATOM     40  C   UNL A   1      38.956  26.080  29.095  1.00  0.00     0.014 A 
ATOM     41  C   UNL A   1      40.114  27.902  27.292  1.00  0.00     0.010 A 
ATOM     42  C   UNL A   1      39.138  27.394  29.463  1.00  0.00     0.010 A 
ATOM     43  C   UNL A   1      39.754  28.292  28.579  1.00  0.00    -0.014 A 
BRANCH  43  44
ATOM     44  C   UNL A   1      40.029  29.602  29.146  1.00  0.00     0.031 A 
ATOM     45  C   UNL A   1      38.994  30.649  29.089  1.00  0.00     0.074 A 
ATOM     46  C   UNL A   1      41.149  29.777  29.877  1.00  0.00     0.049 A 
ATOM     47  N   UNL A   1      39.195  31.893  29.359  1.00  0.00    -0.248 NA
ATOM     48  C   UNL A   1      37.630  30.369  28.654  1.00  0.00     0.031 C 
ATOM     49  C   UNL A   1      41.420  30.838  30.841  1.00  0.00     0.029 A 
ATOM     50  N   UNL A   1      42.377  29.142  29.713  1.00  0.00    -0.354 N 
ATOM     51  C   UNL A   1      37.961  32.490  29.468  1.00  0.00     0.074 A 
ATOM     52  C   UNL A   1      37.037  31.539  28.902  1.00  0.00     0.031 C 
ATOM     53  C   UNL A   1      42.749  30.993  30.941  1.00  0.00     0.029 A 
ATOM     54  C   UNL A   1      43.353  30.122  29.942  1.00  0.00     0.049 A 
ATOM     55  H   UNL A   1      42.531  28.197  29.485  1.00  0.00     0.167 HD
ATOM     56  C   UNL A   1      37.851  33.650  30.180  1.00  0.00     0.031 A 
ATOM     57  C   UNL A   1      44.303  30.490  29.039  1.00  0.00     0.031 A 
ATOM     58  C   UNL A   1      39.174  34.185  30.523  1.00  0.00     0.049 A 
ATOM     59  C   UNL A   1      44.207  31.972  28.775  1.00  0.00     0.074 A 
ATOM     60  C   UNL A   1      39.915  34.209  31.693  1.00  0.00     0.029 A 
ATOM     61  N   UNL A   1      40.060  34.516  29.495  1.00  0.00    -0.354 N 
ATOM     62  N   UNL A   1      43.109  32.657  28.957  1.00  0.00    -0.248 NA
ATOM     63  C   UNL A   1      45.329  32.806  28.365  1.00  0.00     0.031 C 
ATOM     64  C   UNL A   1      41.275  34.447  31.345  1.00  0.00     0.029 A 
ATOM     65  C   UNL A   1      41.356  34.609  29.971  1.00  0.00     0.049 A 
ATOM     66  H   UNL A   1      39.797  34.663  28.558  1.00  0.00     0.167 HD
ATOM     67  C   UNL A   1      43.376  33.989  28.811  1.00  0.00     0.074 A 
ATOM     68  C   UNL A   1      44.771  34.030  28.396  1.00  0.00     0.031 C 
ATOM     69  C   UNL A   1      42.461  34.964  29.084  1.00  0.00     0.031 A 
BRANCH  56  70
ATOM     70  C   UNL A   1      36.547  34.110  30.813  1.00  0.00    -0.014 A 
ATOM     71  C   UNL A   1      35.348  34.071  30.071  1.00  0.00     0.010 A 
ATOM     72  C   UNL A   1      36.443  34.670  32.102  1.00  0.00     0.010 A 
ATOM     73  C   UNL A   1      34.147  34.628  30.555  1.00  0.00     0.020 A 
ATOM     74  C   UNL A   1      35.264  35.256  32.588  1.00  0.00     0.020 A 
ATOM     75  C   UNL A   1      34.120  35.238  31.807  1.00  0.00     0.054 A 
BRANCH  75  76
ATOM     76  S   UNL A   1      32.589  35.997  32.409  1.00  0.00     0.124 S 
ATOM     77  O   UNL A   1      31.778  34.834  32.763  1.00  0.00    -0.237 OA
ATOM     78  O   UNL A   1      33.058  36.805  33.531  1.00  0.00    -0.237 OA
ATOM     79  O   UNL A   1      32.103  36.757  31.259  1.00  0.00    -0.744 OA
ENDBRANCH  75  76
ENDBRANCH  56  70
BRANCH  57  80
ATOM     80  C   UNL A   1      44.699  29.406  28.096  1.00  0.00    -0.014 A 
ATOM     81  C   UNL A   1      45.629  28.459  28.587  1.00  0.00     0.010 A 
ATOM     82  C   UNL A   1      43.856  29.030  27.037  1.00  0.00     0.010 A 
ATOM     83  C   UNL A   1      45.571  27.120  28.186  1.00  0.00     0.020 A 
ATOM     84  C   UNL A   1      43.808  27.687  26.620  1.00  0.00     0.020 A 
ATOM     85  C   UNL A   1      44.609  26.731  27.256  1.00  0.00     0.054 A 
BRANCH  85  86
ATOM     86  S   UNL A   1      44.294  24.949  27.036  1.00  0.00     0.124 S 
ATOM     87  O   UNL A   1      43.111  24.940  26.184  1.00  0.00    -0.237 OA
ATOM     88  O   UNL A   1      45.535  24.488  26.407  1.00  0.00    -0.237 OA
ATOM     89  O   UNL A   1      44.089  24.477  28.401  1.00  0.00    -0.744 OA
ENDBRANCH  85  86
ENDBRANCH  57  80
BRANCH  69  90
ATOM     90  C   UNL A   1      42.577  36.395  28.624  1.00  0.00    -0.014 A 
ATOM     91  C   UNL A   1      43.353  37.358  29.288  1.00  0.00     0.010 A 
ATOM     92  C   UNL A   1      42.024  36.764  27.374  1.00  0.00     0.010 A 
ATOM     93  C   UNL A   1      43.523  38.643  28.763  1.00  0.00     0.020 A 
ATOM     94  C   UNL A   1      42.230  38.027  26.817  1.00  0.00     0.020 A 
ATOM     95  C   UNL A   1      42.964  38.969  27.528  1.00  0.00     0.054 A 
BRANCH  95  96
ATOM     96  S   UNL A   1      43.279  40.600  26.816  1.00  0.00     0.124 S 
ATOM     97  O   UNL A   1      44.235  40.285  25.758  1.00  0.00    -0.237 OA
ATOM     98  O   UNL A   1      41.955  41.019  26.359  1.00  0.00    -0.237 OA
ATOM     99  O   UNL A   1      43.812  41.366  27.939  1.00  0.00    -0.744 OA
ENDBRANCH  95  96
ENDBRANCH  69  90
ENDBRANCH  43  44
ENDBRANCH  35  38
ENDBRANCH  33  34
ENDBRANCH  32  33
ENDBRANCH   1  32
TORSDOF 18
ENDMDL
MODEL 3
REMARK VINA RESULT:     -13.1      4.036     10.522
REMARK SMILES Cc1cccc(S(=O)(=O)Nc2cc(C(=O)NCCCCNC(=O)c3ccc(-c4c5nc(c(-c6ccc(S(=O)(=O)[O-])cc6)c6ccc([nH]6)c(-c6ccc(S(=O)(=O)[O-])cc6)c6nc(c(-c7ccc(S(=O)(=O)[O-])cc7)c7ccc4[nH]7)C=C6)C=C5)cc3)cnc2N2CCC[C@H](C)C2)c1
REMARK SMILES IDX 18 1 17 2 16 3 14 4 15 5 13 7 11 8 12 9 86 10 85 11 84 12
REMARK SMILES IDX 10 13 7 15 8 16 9 17 6 18 1 19 2 20 3 21 94 22 4 23 5 24
REMARK SMILES IDX 87 25 88 26 93 27 89 28 91 29 90 30 92 31 19 32 20 33 21 34
REMARK SMILES IDX 22 35 23 37 24 38 25 39 83 40 26 41 82 42 27 43 28 44 29 45
REMARK SMILES IDX 76 46 30 47 81 48 75 49 77 50 31 51 80 52 74 53 73 54 32 56
REMARK SMILES IDX 62 57 43 58 61 59 44 60 47 61 60 62 78 63 45 64 46 65 59 67
REMARK SMILES IDX 79 68 48 69 33 70 34 71 42 72 35 73 41 74 36 75 37 76 38 77
REMARK SMILES IDX 39 78 40 79 63 80 64 81 72 82 65 83 71 84 66 85 67 86 68 87
REMARK SMILES IDX 69 88 70 89 49 90 50 91 58 92 51 93 57 94 52 95 53 96 54 97
REMARK SMILES IDX 55 98 56 99
REMARK H PARENT 16 6 10 14 21 36 77 55 47 66
REMARK Flexibility Score: inf
ROOT
ATOM      1  C   UNL A   1      36.064  20.740  25.011  1.00  0.00     0.023 C 
ENDROOT
BRANCH   1   2
ATOM      2  C   UNL A   1      34.612  20.708  25.513  1.00  0.00     0.116 C 
BRANCH   2   3
ATOM      3  N   UNL A   1      33.702  20.104  24.544  1.00  0.00    -0.352 N 
ATOM      4  C   UNL A   1      32.871  20.624  23.583  1.00  0.00     0.252 C 
ATOM      5  O   UNL A   1      32.268  19.837  22.851  1.00  0.00    -0.269 OA
ATOM      6  H   UNL A   1      33.679  19.120  24.589  1.00  0.00     0.163 HD
BRANCH   4   7
ATOM      7  C   UNL A   1      32.692  22.075  23.345  1.00  0.00     0.060 A 
ATOM      8  C   UNL A   1      32.060  24.307  23.956  1.00  0.00     0.092 A 
ATOM      9  C   UNL A   1      32.002  22.937  24.177  1.00  0.00     0.046 A 
ATOM     10  C   UNL A   1      32.652  24.812  22.780  1.00  0.00     0.153 A 
ATOM     11  N   UNL A   1      33.243  23.975  21.902  1.00  0.00    -0.236 NA
ATOM     12  C   UNL A   1      33.283  22.646  22.219  1.00  0.00     0.127 A 
BRANCH   8  13
ATOM     13  N   UNL A   1      31.527  25.156  24.983  1.00  0.00    -0.276 N 
ATOM     14  H   UNL A   1      30.633  25.557  24.882  1.00  0.00     0.180 HD
BRANCH  13  15
ATOM     15  S   UNL A   1      32.458  25.463  26.384  1.00  0.00     0.262 S 
ATOM     16  O   UNL A   1      33.755  24.886  26.095  1.00  0.00    -0.201 OA
ATOM     17  O   UNL A   1      31.708  24.968  27.519  1.00  0.00    -0.201 OA
BRANCH  15  18
ATOM     18  C   UNL A   1      32.678  27.211  26.641  1.00  0.00     0.088 A 
ATOM     19  C   UNL A   1      35.373  29.848  27.260  1.00  0.00     0.044 C 
ATOM     20  C   UNL A   1      34.047  29.195  27.005  1.00  0.00    -0.050 A 
ATOM     21  C   UNL A   1      32.888  29.940  27.207  1.00  0.00     0.003 A 
ATOM     22  C   UNL A   1      33.933  27.842  26.635  1.00  0.00     0.025 A 
ATOM     23  C   UNL A   1      31.646  29.327  27.116  1.00  0.00     0.002 A 
ATOM     24  C   UNL A   1      31.530  27.969  26.853  1.00  0.00     0.022 A 
ENDBRANCH  15  18
ENDBRANCH  13  15
ENDBRANCH   8  13
BRANCH  10  25
ATOM     25  N   UNL A   1      32.517  26.142  22.449  1.00  0.00    -0.355 N 
ATOM     26  C   UNL A   1      33.616  27.088  22.484  1.00  0.00     0.118 C 
ATOM     27  C   UNL A   1      31.385  26.534  21.626  1.00  0.00     0.121 C 
ATOM     28  C   UNL A   1      33.109  28.356  23.180  1.00  0.00     0.022 C 
ATOM     29  C   UNL A   1      30.751  27.777  22.278  1.00  0.00     0.005 C 
ATOM     30  C   UNL A   1      31.811  28.873  22.540  1.00  0.00     0.007 C 
ATOM     31  C   UNL A   1      29.997  27.392  23.557  1.00  0.00     0.009 C 
ENDBRANCH  10  25
ENDBRANCH   4   7
ENDBRANCH   2   3
ENDBRANCH   1   2
BRANCH   1  32
ATOM     32  C   UNL A   1      36.422  22.024  24.268  1.00  0.00     0.023 C 
BRANCH  32  33
ATOM     33  C   UNL A   1      37.404  22.895  25.041  1.00  0.00     0.116 C 
BRANCH  33  34
ATOM     34  N   UNL A   1      38.089  22.196  26.114  1.00  0.00    -0.352 N 
ATOM     35  C   UNL A   1      39.267  22.635  26.710  1.00  0.00     0.251 C 
ATOM     36  H   UNL A   1      37.694  21.356  26.442  1.00  0.00     0.163 HD
ATOM     37  O   UNL A   1      40.151  21.896  27.099  1.00  0.00    -0.269 OA
BRANCH  35  38
ATOM     38  C   UNL A   1      39.320  24.086  26.991  1.00  0.00     0.039 A 
ATOM     39  C   UNL A   1      39.955  24.909  26.053  1.00  0.00     0.014 A 
ATOM     40  C   UNL A   1      39.012  24.545  28.267  1.00  0.00     0.014 A 
ATOM     41  C   UNL A   1      40.443  26.147  26.453  1.00  0.00     0.010 A 
ATOM     42  C   UNL A   1      39.584  25.724  28.690  1.00  0.00     0.010 A 
ATOM     43  C   UNL A   1      40.333  26.500  27.795  1.00  0.00    -0.014 A 
BRANCH  43  44
ATOM     44  C   UNL A   1      41.013  27.633  28.402  1.00  0.00     0.031 A 
ATOM     45  C   UNL A   1      40.242  28.838  28.758  1.00  0.00     0.074 A 
ATOM     46  C   UNL A   1      42.293  27.490  28.801  1.00  0.00     0.049 A 
ATOM     47  N   UNL A   1      40.763  29.966  29.096  1.00  0.00    -0.248 NA
ATOM     48  C   UNL A   1      38.785  28.872  28.698  1.00  0.00     0.031 C 
ATOM     49  C   UNL A   1      43.019  28.316  29.761  1.00  0.00     0.029 A 
ATOM     50  N   UNL A   1      43.277  26.689  28.228  1.00  0.00    -0.354 N 
ATOM     51  C   UNL A   1      39.751  30.741  29.615  1.00  0.00     0.074 A 
ATOM     52  C   UNL A   1      38.534  30.069  29.231  1.00  0.00     0.031 C 
ATOM     53  C   UNL A   1      44.331  28.221  29.498  1.00  0.00     0.029 A 
ATOM     54  C   UNL A   1      44.462  27.436  28.279  1.00  0.00     0.049 A 
ATOM     55  H   UNL A   1      43.165  25.782  27.862  1.00  0.00     0.167 HD
ATOM     56  C   UNL A   1      40.074  31.769  30.453  1.00  0.00     0.031 A 
ATOM     57  C   UNL A   1      45.206  27.778  27.191  1.00  0.00     0.031 A 
ATOM     58  C   UNL A   1      41.522  32.004  30.466  1.00  0.00     0.049 A 
ATOM     59  C   UNL A   1      45.359  29.277  27.131  1.00  0.00     0.074 A 
ATOM     60  C   UNL A   1      42.526  31.709  31.374  1.00  0.00     0.029 A 
ATOM     61  N   UNL A   1      42.165  32.343  29.272  1.00  0.00    -0.354 N 
ATOM     62  N   UNL A   1      44.514  30.102  27.691  1.00  0.00    -0.248 NA
ATOM     63  C   UNL A   1      46.489  29.961  26.516  1.00  0.00     0.031 C 
ATOM     64  C   UNL A   1      43.770  31.763  30.684  1.00  0.00     0.029 A 
ATOM     65  C   UNL A   1      43.529  32.133  29.370  1.00  0.00     0.049 A 
ATOM     66  H   UNL A   1      41.709  32.685  28.470  1.00  0.00     0.167 HD
ATOM     67  C   UNL A   1      45.009  31.373  27.625  1.00  0.00     0.074 A 
ATOM     68  C   UNL A   1      46.227  31.242  26.839  1.00  0.00     0.031 C 
ATOM     69  C   UNL A   1      44.420  32.433  28.252  1.00  0.00     0.031 A 
BRANCH  56  70
ATOM     70  C   UNL A   1      39.101  32.336  31.476  1.00  0.00    -0.014 A 
ATOM     71  C   UNL A   1      38.466  31.480  32.400  1.00  0.00     0.010 A 
ATOM     72  C   UNL A   1      38.703  33.687  31.531  1.00  0.00     0.010 A 
ATOM     73  C   UNL A   1      37.445  31.930  33.261  1.00  0.00     0.020 A 
ATOM     74  C   UNL A   1      37.668  34.146  32.359  1.00  0.00     0.020 A 
ATOM     75  C   UNL A   1      37.037  33.261  33.218  1.00  0.00     0.054 A 
BRANCH  75  76
ATOM     76  S   UNL A   1      35.692  33.828  34.291  1.00  0.00     0.124 S 
ATOM     77  O   UNL A   1      35.657  35.263  34.022  1.00  0.00    -0.237 OA
ATOM     78  O   UNL A   1      34.551  33.063  33.796  1.00  0.00    -0.237 OA
ATOM     79  O   UNL A   1      36.143  33.466  35.634  1.00  0.00    -0.744 OA
ENDBRANCH  75  76
ENDBRANCH  56  70
BRANCH  57  80
ATOM     80  C   UNL A   1      45.110  26.812  26.060  1.00  0.00    -0.014 A 
ATOM     81  C   UNL A   1      46.108  25.809  26.009  1.00  0.00     0.010 A 
ATOM     82  C   UNL A   1      43.882  26.568  25.423  1.00  0.00     0.010 A 
ATOM     83  C   UNL A   1      45.815  24.528  25.530  1.00  0.00     0.020 A 
ATOM     84  C   UNL A   1      43.591  25.285  24.927  1.00  0.00     0.020 A 
ATOM     85  C   UNL A   1      44.532  24.256  25.059  1.00  0.00     0.054 A 
BRANCH  85  86
ATOM     86  S   UNL A   1      44.058  22.514  24.805  1.00  0.00     0.124 S 
ATOM     87  O   UNL A   1      44.875  21.818  25.792  1.00  0.00    -0.237 OA
ATOM     88  O   UNL A   1      42.617  22.539  25.077  1.00  0.00    -0.237 OA
ATOM     89  O   UNL A   1      44.413  22.272  23.411  1.00  0.00    -0.744 OA
ENDBRANCH  85  86
ENDBRANCH  57  80
BRANCH  69  90
ATOM     90  C   UNL A   1      44.713  33.878  27.939  1.00  0.00    -0.014 A 
ATOM     91  C   UNL A   1      43.984  34.627  27.001  1.00  0.00     0.010 A 
ATOM     92  C   UNL A   1      45.650  34.580  28.735  1.00  0.00     0.010 A 
ATOM     93  C   UNL A   1      44.215  35.994  26.824  1.00  0.00     0.020 A 
ATOM     94  C   UNL A   1      45.852  35.955  28.601  1.00  0.00     0.020 A 
ATOM     95  C   UNL A   1      45.146  36.652  27.629  1.00  0.00     0.054 A 
BRANCH  95  96
ATOM     96  S   UNL A   1      45.359  38.439  27.458  1.00  0.00     0.124 S 
ATOM     97  O   UNL A   1      43.976  38.898  27.369  1.00  0.00    -0.237 OA
ATOM     98  O   UNL A   1      46.061  38.803  28.687  1.00  0.00    -0.237 OA
ATOM     99  O   UNL A   1      46.148  38.574  26.237  1.00  0.00    -0.744 OA
ENDBRANCH  95  96
ENDBRANCH  69  90
ENDBRANCH  43  44
ENDBRANCH  35  38
ENDBRANCH  33  34
ENDBRANCH  32  33
ENDBRANCH   1  32
TORSDOF 18
ENDMDL
