MODEL 1
REMARK VINA RESULT:     -12.2      0.000      0.000
REMARK SMILES O=C(NCCCCNC(=O)c1cc(/C=C/c2cc(O)cc(O)c2)ccc1O)c1ccc(-c2c3nc(c(-c4ccc(S(=O)(=O)[O-])cc4)c4ccc([nH]4)c(-c4ccc(S(=O)(=O)[O-])cc4)c4nc(c(-c5ccc(S(=O)(=O)[O-])cc5)c5ccc2[nH]5)C=C4)C=C3)cc1
REMARK SMILES IDX 5 1 4 2 3 3 1 4 2 5 28 7 29 8 87 9 30 10 86 11 31 12 32 13
REMARK SMILES IDX 33 14 80 15 34 16 85 17 79 18 81 19 35 20 84 21 78 22 77 23
REMARK SMILES IDX 36 25 66 26 47 27 65 28 48 29 51 30 64 31 82 32 49 33 50 34
REMARK SMILES IDX 63 36 83 37 52 38 37 39 38 40 46 41 39 42 45 43 40 44 41 45
REMARK SMILES IDX 42 46 43 47 44 48 67 49 68 50 76 51 69 52 75 53 70 54 71 55
REMARK SMILES IDX 72 56 73 57 74 58 53 59 54 60 62 61 55 62 61 63 56 64 57 65
REMARK SMILES IDX 58 66 59 67 60 68 6 69 7 70 8 71 9 72 10 74 11 75 12 76
REMARK SMILES IDX 26 77 13 78 25 79 24 80 27 81 14 83 15 84 16 85 17 86 23 87
REMARK SMILES IDX 18 88 21 89 20 90 19 91 22 93
REMARK H PARENT 3 6 81 24 51 35 8 73 27 82 19 92 22 94
REMARK Flexibility Score: inf
ROOT
ATOM      1  C   UNL A   1      37.964  23.124  26.000  1.00  0.00     0.023 C 
ENDROOT
BRANCH   1   2
ATOM      2  C   UNL A   1      38.946  24.039  26.723  1.00  0.00     0.116 C 
BRANCH   2   3
ATOM      3  N   UNL A   1      40.046  24.487  25.881  1.00  0.00    -0.352 N 
ATOM      4  O   UNL A   1      41.754  25.797  25.207  1.00  0.00    -0.269 OA
ATOM      5  C   UNL A   1      40.958  25.495  26.092  1.00  0.00     0.251 C 
ATOM      6  H   UNL A   1      40.153  23.995  25.034  1.00  0.00     0.163 HD
BRANCH   5   7
ATOM      7  C   UNL A   1      40.949  26.242  27.370  1.00  0.00     0.039 A 
ATOM      8  C   UNL A   1      40.097  25.866  28.410  1.00  0.00     0.014 A 
ATOM      9  C   UNL A   1      41.782  27.355  27.514  1.00  0.00     0.014 A 
ATOM     10  C   UNL A   1      39.944  26.704  29.510  1.00  0.00     0.010 A 
ATOM     11  C   UNL A   1      41.690  28.148  28.664  1.00  0.00     0.010 A 
ATOM     12  C   UNL A   1      40.730  27.860  29.646  1.00  0.00    -0.014 A 
BRANCH  12  13
ATOM     13  C   UNL A   1      40.520  28.746  30.822  1.00  0.00     0.031 A 
ATOM     14  C   UNL A   1      41.438  28.684  32.016  1.00  0.00     0.074 A 
ATOM     15  C   UNL A   1      39.529  29.657  30.784  1.00  0.00     0.049 A 
ATOM     16  N   UNL A   1      41.444  29.439  33.087  1.00  0.00    -0.248 NA
ATOM     17  C   UNL A   1      42.477  27.641  32.015  1.00  0.00     0.031 C 
ATOM     18  C   UNL A   1      38.567  29.813  29.690  1.00  0.00     0.029 A 
ATOM     19  N   UNL A   1      39.188  30.648  31.670  1.00  0.00    -0.354 N 
ATOM     20  C   UNL A   1      42.461  28.945  33.898  1.00  0.00     0.074 A 
ATOM     21  C   UNL A   1      43.040  27.815  33.203  1.00  0.00     0.031 C 
ATOM     22  C   UNL A   1      37.790  30.878  29.937  1.00  0.00     0.029 A 
ATOM     23  C   UNL A   1      38.162  31.449  31.227  1.00  0.00     0.049 A 
ATOM     24  H   UNL A   1      39.634  30.773  32.538  1.00  0.00     0.167 HD
ATOM     25  C   UNL A   1      42.877  29.392  35.108  1.00  0.00     0.031 A 
ATOM     26  C   UNL A   1      37.585  32.528  31.788  1.00  0.00     0.031 A 
ATOM     27  C   UNL A   1      42.319  30.530  35.790  1.00  0.00     0.049 A 
ATOM     28  C   UNL A   1      38.082  33.018  33.116  1.00  0.00     0.074 A 
ATOM     29  C   UNL A   1      42.697  31.077  37.005  1.00  0.00     0.029 A 
ATOM     30  N   UNL A   1      41.268  31.300  35.316  1.00  0.00    -0.354 N 
ATOM     31  N   UNL A   1      39.058  32.548  33.854  1.00  0.00    -0.248 NA
ATOM     32  C   UNL A   1      37.401  34.189  33.685  1.00  0.00     0.031 C 
ATOM     33  C   UNL A   1      41.852  32.159  37.280  1.00  0.00     0.029 A 
ATOM     34  C   UNL A   1      40.975  32.309  36.218  1.00  0.00     0.049 A 
ATOM     35  H   UNL A   1      40.798  31.150  34.464  1.00  0.00     0.167 HD
ATOM     36  C   UNL A   1      39.119  33.374  34.969  1.00  0.00     0.074 A 
ATOM     37  C   UNL A   1      38.092  34.383  34.800  1.00  0.00     0.031 C 
ATOM     38  C   UNL A   1      39.949  33.303  36.038  1.00  0.00     0.031 A 
BRANCH  25  39
ATOM     39  C   UNL A   1      43.981  28.628  35.788  1.00  0.00    -0.014 A 
ATOM     40  C   UNL A   1      45.331  28.843  35.456  1.00  0.00     0.010 A 
ATOM     41  C   UNL A   1      43.665  27.703  36.801  1.00  0.00     0.010 A 
ATOM     42  C   UNL A   1      46.341  28.120  36.097  1.00  0.00     0.020 A 
ATOM     43  C   UNL A   1      44.674  26.993  37.458  1.00  0.00     0.020 A 
ATOM     44  C   UNL A   1      46.005  27.192  37.088  1.00  0.00     0.054 A 
BRANCH  44  45
ATOM     45  S   UNL A   1      47.333  26.269  37.913  1.00  0.00     0.124 S 
ATOM     46  O   UNL A   1      48.514  26.733  37.188  1.00  0.00    -0.237 OA
ATOM     47  O   UNL A   1      47.230  26.721  39.298  1.00  0.00    -0.237 OA
ATOM     48  O   UNL A   1      46.972  24.872  37.689  1.00  0.00    -0.744 OA
ENDBRANCH  44  45
ENDBRANCH  25  39
BRANCH  26  49
ATOM     49  C   UNL A   1      36.483  33.224  31.076  1.00  0.00    -0.014 A 
ATOM     50  C   UNL A   1      35.177  33.208  31.594  1.00  0.00     0.010 A 
ATOM     51  C   UNL A   1      36.745  33.940  29.893  1.00  0.00     0.010 A 
ATOM     52  C   UNL A   1      34.149  33.891  30.939  1.00  0.00     0.020 A 
ATOM     53  C   UNL A   1      35.725  34.642  29.249  1.00  0.00     0.020 A 
ATOM     54  C   UNL A   1      34.430  34.605  29.771  1.00  0.00     0.054 A 
BRANCH  54  55
ATOM     55  S   UNL A   1      33.100  35.545  28.971  1.00  0.00     0.124 S 
ATOM     56  O   UNL A   1      32.347  36.040  30.119  1.00  0.00    -0.237 OA
ATOM     57  O   UNL A   1      33.833  36.555  28.212  1.00  0.00    -0.237 OA
ATOM     58  O   UNL A   1      32.418  34.540  28.157  1.00  0.00    -0.744 OA
ENDBRANCH  54  55
ENDBRANCH  26  49
BRANCH  38  59
ATOM     59  C   UNL A   1      39.794  34.361  37.093  1.00  0.00    -0.014 A 
ATOM     60  C   UNL A   1      39.070  34.110  38.272  1.00  0.00     0.010 A 
ATOM     61  C   UNL A   1      40.401  35.616  36.912  1.00  0.00     0.010 A 
ATOM     62  C   UNL A   1      38.921  35.111  39.235  1.00  0.00     0.020 A 
ATOM     63  C   UNL A   1      40.272  36.614  37.882  1.00  0.00     0.020 A 
ATOM     64  C   UNL A   1      39.516  36.360  39.029  1.00  0.00     0.054 A 
BRANCH  64  65
ATOM     65  S   UNL A   1      39.331  37.642  40.300  1.00  0.00     0.124 S 
ATOM     66  O   UNL A   1      40.691  38.166  40.401  1.00  0.00    -0.237 OA
ATOM     67  O   UNL A   1      38.351  38.548  39.708  1.00  0.00    -0.237 OA
ATOM     68  O   UNL A   1      38.858  36.901  41.467  1.00  0.00    -0.744 OA
ENDBRANCH  64  65
ENDBRANCH  38  59
ENDBRANCH  12  13
ENDBRANCH   5   7
ENDBRANCH   2   3
ENDBRANCH   1   2
BRANCH   1  69
ATOM     69  C   UNL A   1      36.512  23.596  25.985  1.00  0.00     0.023 C 
BRANCH  69  70
ATOM     70  C   UNL A   1      35.838  23.600  24.617  1.00  0.00     0.116 C 
BRANCH  70  71
ATOM     71  N   UNL A   1      35.296  22.305  24.250  1.00  0.00    -0.352 N 
ATOM     72  C   UNL A   1      34.044  21.808  24.511  1.00  0.00     0.255 C 
ATOM     73  H   UNL A   1      35.902  21.708  23.754  1.00  0.00     0.163 HD
ATOM     74  O   UNL A   1      33.728  20.674  24.163  1.00  0.00    -0.269 OA
BRANCH  72  75
ATOM     75  C   UNL A   1      33.098  22.611  25.307  1.00  0.00     0.082 A 
ATOM     76  C   UNL A   1      32.612  23.784  24.716  1.00  0.00     0.025 A 
ATOM     77  C   UNL A   1      32.678  22.231  26.583  1.00  0.00     0.128 A 
ATOM     78  C   UNL A   1      31.670  24.576  25.380  1.00  0.00    -0.025 A 
ATOM     79  C   UNL A   1      31.733  23.002  27.253  1.00  0.00     0.047 A 
ATOM     80  C   UNL A   1      31.228  24.160  26.647  1.00  0.00     0.012 A 
BRANCH  77  81
ATOM     81  O   UNL A   1      33.172  21.100  27.167  1.00  0.00    -0.507 OA
ATOM     82  H   UNL A   1      33.184  20.294  26.689  1.00  0.00     0.293 HD
ENDBRANCH  77  81
BRANCH  78  83
ATOM     83  C   UNL A   1      31.099  25.807  24.805  1.00  0.00     0.009 C 
ATOM     84  C   UNL A   1      30.166  25.865  23.840  1.00  0.00     0.009 C 
BRANCH  84  85
ATOM     85  C   UNL A   1      29.664  27.134  23.295  1.00  0.00    -0.018 A 
ATOM     86  C   UNL A   1      28.321  27.509  23.444  1.00  0.00     0.054 A 
ATOM     87  C   UNL A   1      30.558  28.013  22.671  1.00  0.00     0.054 A 
ATOM     88  C   UNL A   1      27.884  28.735  22.950  1.00  0.00     0.119 A 
ATOM     89  C   UNL A   1      30.097  29.235  22.182  1.00  0.00     0.119 A 
ATOM     90  C   UNL A   1      28.764  29.601  22.314  1.00  0.00     0.092 A 
BRANCH  88  91
ATOM     91  O   UNL A   1      26.583  29.127  23.081  1.00  0.00    -0.508 OA
ATOM     92  H   UNL A   1      25.913  28.704  22.581  1.00  0.00     0.293 HD
ENDBRANCH  88  91
BRANCH  89  93
ATOM     93  O   UNL A   1      30.938  30.113  21.561  1.00  0.00    -0.508 OA
ATOM     94  H   UNL A   1      31.612  30.542  22.051  1.00  0.00     0.293 HD
ENDBRANCH  89  93
ENDBRANCH  84  85
ENDBRANCH  78  83
ENDBRANCH  72  75
ENDBRANCH  70  71
ENDBRANCH  69  70
ENDBRANCH   1  69
TORSDOF 19
ENDMDL
MODEL 2
REMARK VINA RESULT:     -12.0      3.161      9.709
REMARK SMILES O=C(NCCCCNC(=O)c1cc(/C=C/c2cc(O)cc(O)c2)ccc1O)c1ccc(-c2c3nc(c(-c4ccc(S(=O)(=O)[O-])cc4)c4ccc([nH]4)c(-c4ccc(S(=O)(=O)[O-])cc4)c4nc(c(-c5ccc(S(=O)(=O)[O-])cc5)c5ccc2[nH]5)C=C4)C=C3)cc1
REMARK SMILES IDX 5 1 4 2 3 3 1 4 2 5 28 7 29 8 87 9 30 10 86 11 31 12 32 13
REMARK SMILES IDX 33 14 80 15 34 16 85 17 79 18 81 19 35 20 84 21 78 22 77 23
REMARK SMILES IDX 36 25 66 26 47 27 65 28 48 29 51 30 64 31 82 32 49 33 50 34
REMARK SMILES IDX 63 36 83 37 52 38 37 39 38 40 46 41 39 42 45 43 40 44 41 45
REMARK SMILES IDX 42 46 43 47 44 48 67 49 68 50 76 51 69 52 75 53 70 54 71 55
REMARK SMILES IDX 72 56 73 57 74 58 53 59 54 60 62 61 55 62 61 63 56 64 57 65
REMARK SMILES IDX 58 66 59 67 60 68 6 69 7 70 8 71 9 72 10 74 11 75 12 76
REMARK SMILES IDX 26 77 13 78 25 79 24 80 27 81 14 83 15 84 16 85 17 86 23 87
REMARK SMILES IDX 18 88 21 89 20 90 19 91 22 93
REMARK H PARENT 3 6 81 24 51 35 8 73 27 82 19 92 22 94
REMARK Flexibility Score: inf
ROOT
ATOM      1  C   UNL A   1      32.892  28.249  27.189  1.00  0.00     0.023 C 
ENDROOT
BRANCH   1   2
ATOM      2  C   UNL A   1      33.668  29.324  26.437  1.00  0.00     0.116 C 
BRANCH   2   3
ATOM      3  N   UNL A   1      33.427  30.669  26.940  1.00  0.00    -0.352 N 
ATOM      4  O   UNL A   1      33.762  32.517  28.189  1.00  0.00    -0.269 OA
ATOM      5  C   UNL A   1      34.189  31.437  27.790  1.00  0.00     0.251 C 
ATOM      6  H   UNL A   1      32.594  31.091  26.626  1.00  0.00     0.163 HD
BRANCH   5   7
ATOM      7  C   UNL A   1      35.504  30.940  28.253  1.00  0.00     0.039 A 
ATOM      8  C   UNL A   1      35.608  29.733  28.946  1.00  0.00     0.014 A 
ATOM      9  C   UNL A   1      36.645  31.714  28.018  1.00  0.00     0.014 A 
ATOM     10  C   UNL A   1      36.809  29.395  29.561  1.00  0.00     0.010 A 
ATOM     11  C   UNL A   1      37.873  31.324  28.563  1.00  0.00     0.010 A 
ATOM     12  C   UNL A   1      37.954  30.191  29.386  1.00  0.00    -0.014 A 
BRANCH  12  13
ATOM     13  C   UNL A   1      39.213  29.811  30.080  1.00  0.00     0.031 A 
ATOM     14  C   UNL A   1      39.595  30.438  31.397  1.00  0.00     0.074 A 
ATOM     15  C   UNL A   1      39.986  28.844  29.548  1.00  0.00     0.049 A 
ATOM     16  N   UNL A   1      40.615  30.162  32.172  1.00  0.00    -0.248 NA
ATOM     17  C   UNL A   1      38.732  31.515  31.907  1.00  0.00     0.031 C 
ATOM     18  C   UNL A   1      39.730  28.165  28.275  1.00  0.00     0.029 A 
ATOM     19  N   UNL A   1      41.121  28.240  30.025  1.00  0.00    -0.354 N 
ATOM     20  C   UNL A   1      40.534  31.048  33.242  1.00  0.00     0.074 A 
ATOM     21  C   UNL A   1      39.374  31.882  33.008  1.00  0.00     0.031 C 
ATOM     22  C   UNL A   1      40.640  27.194  28.106  1.00  0.00     0.029 A 
ATOM     23  C   UNL A   1      41.571  27.214  29.228  1.00  0.00     0.049 A 
ATOM     24  H   UNL A   1      41.570  28.514  30.857  1.00  0.00     0.167 HD
ATOM     25  C   UNL A   1      41.346  31.156  34.321  1.00  0.00     0.031 A 
ATOM     26  C   UNL A   1      42.613  26.375  29.381  1.00  0.00     0.031 A 
ATOM     27  C   UNL A   1      42.486  30.313  34.567  1.00  0.00     0.049 A 
ATOM     28  C   UNL A   1      43.482  26.500  30.597  1.00  0.00     0.074 A 
ATOM     29  C   UNL A   1      43.350  30.327  35.649  1.00  0.00     0.029 A 
ATOM     30  N   UNL A   1      42.919  29.301  33.725  1.00  0.00    -0.354 N 
ATOM     31  N   UNL A   1      43.374  27.331  31.605  1.00  0.00    -0.248 NA
ATOM     32  C   UNL A   1      44.614  25.567  30.699  1.00  0.00     0.031 C 
ATOM     33  C   UNL A   1      44.325  29.342  35.444  1.00  0.00     0.029 A 
ATOM     34  C   UNL A   1      44.044  28.691  34.255  1.00  0.00     0.049 A 
ATOM     35  H   UNL A   1      42.491  29.052  32.874  1.00  0.00     0.167 HD
ATOM     36  C   UNL A   1      44.414  27.013  32.469  1.00  0.00     0.074 A 
ATOM     37  C   UNL A   1      45.130  25.902  31.873  1.00  0.00     0.031 C 
ATOM     38  C   UNL A   1      44.747  27.590  33.649  1.00  0.00     0.031 A 
BRANCH  25  39
ATOM     39  C   UNL A   1      41.045  32.249  35.311  1.00  0.00    -0.014 A 
ATOM     40  C   UNL A   1      40.186  32.029  36.403  1.00  0.00     0.010 A 
ATOM     41  C   UNL A   1      41.658  33.507  35.165  1.00  0.00     0.010 A 
ATOM     42  C   UNL A   1      39.915  33.060  37.308  1.00  0.00     0.020 A 
ATOM     43  C   UNL A   1      41.406  34.533  36.080  1.00  0.00     0.020 A 
ATOM     44  C   UNL A   1      40.520  34.308  37.136  1.00  0.00     0.054 A 
BRANCH  44  45
ATOM     45  S   UNL A   1      40.161  35.630  38.327  1.00  0.00     0.124 S 
ATOM     46  O   UNL A   1      39.041  35.062  39.074  1.00  0.00    -0.237 OA
ATOM     47  O   UNL A   1      41.415  35.747  39.069  1.00  0.00    -0.237 OA
ATOM     48  O   UNL A   1      39.832  36.775  37.484  1.00  0.00    -0.744 OA
ENDBRANCH  44  45
ENDBRANCH  25  39
BRANCH  26  49
ATOM     49  C   UNL A   1      42.872  25.332  28.355  1.00  0.00    -0.014 A 
ATOM     50  C   UNL A   1      43.643  25.626  27.218  1.00  0.00     0.010 A 
ATOM     51  C   UNL A   1      42.378  24.027  28.532  1.00  0.00     0.010 A 
ATOM     52  C   UNL A   1      43.911  24.634  26.271  1.00  0.00     0.020 A 
ATOM     53  C   UNL A   1      42.663  23.028  27.600  1.00  0.00     0.020 A 
ATOM     54  C   UNL A   1      43.421  23.341  26.469  1.00  0.00     0.054 A 
BRANCH  54  55
ATOM     55  S   UNL A   1      43.838  22.046  25.268  1.00  0.00     0.124 S 
ATOM     56  O   UNL A   1      45.181  21.663  25.691  1.00  0.00    -0.237 OA
ATOM     57  O   UNL A   1      42.794  21.051  25.495  1.00  0.00    -0.237 OA
ATOM     58  O   UNL A   1      43.757  22.739  23.983  1.00  0.00    -0.744 OA
ENDBRANCH  54  55
ENDBRANCH  26  49
BRANCH  38  59
ATOM     59  C   UNL A   1      45.925  27.012  34.382  1.00  0.00    -0.014 A 
ATOM     60  C   UNL A   1      45.763  25.958  35.299  1.00  0.00     0.010 A 
ATOM     61  C   UNL A   1      47.214  27.516  34.133  1.00  0.00     0.010 A 
ATOM     62  C   UNL A   1      46.865  25.444  35.985  1.00  0.00     0.020 A 
ATOM     63  C   UNL A   1      48.322  26.991  34.802  1.00  0.00     0.020 A 
ATOM     64  C   UNL A   1      48.138  25.970  35.738  1.00  0.00     0.054 A 
BRANCH  64  65
ATOM     65  S   UNL A   1      49.562  25.277  36.622  1.00  0.00     0.124 S 
ATOM     66  O   UNL A   1      50.118  26.459  37.275  1.00  0.00    -0.237 OA
ATOM     67  O   UNL A   1      48.947  24.297  37.514  1.00  0.00    -0.237 OA
ATOM     68  O   UNL A   1      50.383  24.708  35.556  1.00  0.00    -0.744 OA
ENDBRANCH  64  65
ENDBRANCH  38  59
ENDBRANCH  12  13
ENDBRANCH   5   7
ENDBRANCH   2   3
ENDBRANCH   1   2
BRANCH   1  69
ATOM     69  C   UNL A   1      31.879  27.465  26.358  1.00  0.00     0.023 C 
BRANCH  69  70
ATOM     70  C   UNL A   1      31.401  28.156  25.085  1.00  0.00     0.116 C 
BRANCH  70  71
ATOM     71  N   UNL A   1      30.063  27.754  24.692  1.00  0.00    -0.352 N 
ATOM     72  C   UNL A   1      29.698  26.717  23.870  1.00  0.00     0.255 C 
ATOM     73  H   UNL A   1      29.325  28.293  25.059  1.00  0.00     0.163 HD
ATOM     74  O   UNL A   1      28.519  26.509  23.599  1.00  0.00    -0.269 OA
BRANCH  72  75
ATOM     75  C   UNL A   1      30.744  25.903  23.225  1.00  0.00     0.082 A 
ATOM     76  C   UNL A   1      30.999  24.644  23.785  1.00  0.00     0.025 A 
ATOM     77  C   UNL A   1      31.447  26.336  22.100  1.00  0.00     0.128 A 
ATOM     78  C   UNL A   1      31.937  23.785  23.204  1.00  0.00    -0.025 A 
ATOM     79  C   UNL A   1      32.376  25.489  21.503  1.00  0.00     0.047 A 
ATOM     80  C   UNL A   1      32.608  24.220  22.048  1.00  0.00     0.012 A 
BRANCH  77  81
ATOM     81  O   UNL A   1      31.214  27.573  21.571  1.00  0.00    -0.507 OA
ATOM     82  H   UNL A   1      31.308  27.713  20.650  1.00  0.00     0.293 HD
ENDBRANCH  77  81
BRANCH  78  83
ATOM     83  C   UNL A   1      32.234  22.439  23.725  1.00  0.00     0.009 C 
ATOM     84  C   UNL A   1      32.259  21.305  23.005  1.00  0.00     0.009 C 
BRANCH  84  85
ATOM     85  C   UNL A   1      32.536  19.991  23.603  1.00  0.00    -0.018 A 
ATOM     86  C   UNL A   1      32.897  18.893  22.809  1.00  0.00     0.054 A 
ATOM     87  C   UNL A   1      32.498  19.850  24.996  1.00  0.00     0.054 A 
ATOM     88  C   UNL A   1      33.189  17.670  23.408  1.00  0.00     0.119 A 
ATOM     89  C   UNL A   1      32.794  18.616  25.574  1.00  0.00     0.119 A 
ATOM     90  C   UNL A   1      33.135  17.522  24.788  1.00  0.00     0.092 A 
BRANCH  88  91
ATOM     91  O   UNL A   1      33.545  16.584  22.661  1.00  0.00    -0.508 OA
ATOM     92  H   UNL A   1      32.990  15.829  22.638  1.00  0.00     0.293 HD
ENDBRANCH  88  91
BRANCH  89  93
ATOM     93  O   UNL A   1      32.760  18.440  26.926  1.00  0.00    -0.508 OA
ATOM     94  H   UNL A   1      32.059  17.959  27.319  1.00  0.00     0.293 HD
ENDBRANCH  89  93
ENDBRANCH  84  85
ENDBRANCH  78  83
ENDBRANCH  72  75
ENDBRANCH  70  71
ENDBRANCH  69  70
ENDBRANCH   1  69
TORSDOF 19
ENDMDL
MODEL 3
REMARK VINA RESULT:     -11.9      6.116      8.166
REMARK SMILES O=C(NCCCCNC(=O)c1cc(/C=C/c2cc(O)cc(O)c2)ccc1O)c1ccc(-c2c3nc(c(-c4ccc(S(=O)(=O)[O-])cc4)c4ccc([nH]4)c(-c4ccc(S(=O)(=O)[O-])cc4)c4nc(c(-c5ccc(S(=O)(=O)[O-])cc5)c5ccc2[nH]5)C=C4)C=C3)cc1
REMARK SMILES IDX 5 1 4 2 3 3 1 4 2 5 28 7 29 8 87 9 30 10 86 11 31 12 32 13
REMARK SMILES IDX 33 14 80 15 34 16 85 17 79 18 81 19 35 20 84 21 78 22 77 23
REMARK SMILES IDX 36 25 66 26 47 27 65 28 48 29 51 30 64 31 82 32 49 33 50 34
REMARK SMILES IDX 63 36 83 37 52 38 37 39 38 40 46 41 39 42 45 43 40 44 41 45
REMARK SMILES IDX 42 46 43 47 44 48 67 49 68 50 76 51 69 52 75 53 70 54 71 55
REMARK SMILES IDX 72 56 73 57 74 58 53 59 54 60 62 61 55 62 61 63 56 64 57 65
REMARK SMILES IDX 58 66 59 67 60 68 6 69 7 70 8 71 9 72 10 74 11 75 12 76
REMARK SMILES IDX 26 77 13 78 25 79 24 80 27 81 14 83 15 84 16 85 17 86 23 87
REMARK SMILES IDX 18 88 21 89 20 90 19 91 22 93
REMARK H PARENT 3 6 81 24 51 35 8 73 27 82 19 92 22 94
REMARK Flexibility Score: inf
ROOT
ATOM      1  C   UNL A   1      39.150  22.112  26.811  1.00  0.00     0.023 C 
ENDROOT
BRANCH   1   2
ATOM      2  C   UNL A   1      39.189  21.177  25.608  1.00  0.00     0.116 C 
BRANCH   2   3
ATOM      3  N   UNL A   1      40.008  19.992  25.824  1.00  0.00    -0.352 N 
ATOM      4  O   UNL A   1      41.882  18.796  26.205  1.00  0.00    -0.269 OA
ATOM      5  C   UNL A   1      41.334  19.894  26.175  1.00  0.00     0.251 C 
ATOM      6  H   UNL A   1      39.543  19.133  25.699  1.00  0.00     0.163 HD
BRANCH   5   7
ATOM      7  C   UNL A   1      42.109  21.119  26.477  1.00  0.00     0.039 A 
ATOM      8  C   UNL A   1      42.478  21.426  27.788  1.00  0.00     0.014 A 
ATOM      9  C   UNL A   1      42.440  21.990  25.434  1.00  0.00     0.014 A 
ATOM     10  C   UNL A   1      43.007  22.680  28.077  1.00  0.00     0.010 A 
ATOM     11  C   UNL A   1      43.055  23.214  25.718  1.00  0.00     0.010 A 
ATOM     12  C   UNL A   1      43.293  23.593  27.048  1.00  0.00    -0.014 A 
BRANCH  12  13
ATOM     13  C   UNL A   1      43.834  24.934  27.398  1.00  0.00     0.031 A 
ATOM     14  C   UNL A   1      45.265  25.298  27.095  1.00  0.00     0.074 A 
ATOM     15  C   UNL A   1      43.007  25.851  27.936  1.00  0.00     0.049 A 
ATOM     16  N   UNL A   1      45.872  26.447  27.261  1.00  0.00    -0.248 NA
ATOM     17  C   UNL A   1      46.128  24.241  26.544  1.00  0.00     0.031 C 
ATOM     18  C   UNL A   1      41.603  25.620  28.285  1.00  0.00     0.029 A 
ATOM     19  N   UNL A   1      43.216  27.170  28.250  1.00  0.00    -0.354 N 
ATOM     20  C   UNL A   1      47.190  26.245  26.865  1.00  0.00     0.074 A 
ATOM     21  C   UNL A   1      47.300  24.857  26.467  1.00  0.00     0.031 C 
ATOM     22  C   UNL A   1      41.059  26.773  28.700  1.00  0.00     0.029 A 
ATOM     23  C   UNL A   1      42.084  27.811  28.697  1.00  0.00     0.049 A 
ATOM     24  H   UNL A   1      44.090  27.614  28.165  1.00  0.00     0.167 HD
ATOM     25  C   UNL A   1      48.215  27.131  26.833  1.00  0.00     0.031 A 
ATOM     26  C   UNL A   1      41.885  29.092  29.058  1.00  0.00     0.031 A 
ATOM     27  C   UNL A   1      48.103  28.516  27.206  1.00  0.00     0.049 A 
ATOM     28  C   UNL A   1      43.030  30.060  28.989  1.00  0.00     0.074 A 
ATOM     29  C   UNL A   1      49.079  29.498  27.177  1.00  0.00     0.029 A 
ATOM     30  N   UNL A   1      46.945  29.120  27.673  1.00  0.00    -0.354 N 
ATOM     31  N   UNL A   1      44.262  29.850  28.592  1.00  0.00    -0.248 NA
ATOM     32  C   UNL A   1      42.755  31.440  29.413  1.00  0.00     0.031 C 
ATOM     33  C   UNL A   1      48.518  30.689  27.656  1.00  0.00     0.029 A 
ATOM     34  C   UNL A   1      47.184  30.457  27.946  1.00  0.00     0.049 A 
ATOM     35  H   UNL A   1      46.080  28.665  27.793  1.00  0.00     0.167 HD
ATOM     36  C   UNL A   1      44.907  31.076  28.705  1.00  0.00     0.074 A 
ATOM     37  C   UNL A   1      43.925  32.024  29.190  1.00  0.00     0.031 C 
ATOM     38  C   UNL A   1      46.197  31.386  28.432  1.00  0.00     0.031 A 
BRANCH  25  39
ATOM     39  C   UNL A   1      49.563  26.619  26.400  1.00  0.00    -0.014 A 
ATOM     40  C   UNL A   1      50.054  26.859  25.104  1.00  0.00     0.010 A 
ATOM     41  C   UNL A   1      50.366  25.916  27.317  1.00  0.00     0.010 A 
ATOM     42  C   UNL A   1      51.307  26.371  24.721  1.00  0.00     0.020 A 
ATOM     43  C   UNL A   1      51.628  25.445  26.943  1.00  0.00     0.020 A 
ATOM     44  C   UNL A   1      52.082  25.659  25.640  1.00  0.00     0.054 A 
BRANCH  44  45
ATOM     45  S   UNL A   1      53.709  25.041  25.124  1.00  0.00     0.124 S 
ATOM     46  O   UNL A   1      54.595  25.699  26.082  1.00  0.00    -0.237 OA
ATOM     47  O   UNL A   1      53.574  23.595  25.287  1.00  0.00    -0.237 OA
ATOM     48  O   UNL A   1      53.831  25.500  23.744  1.00  0.00    -0.744 OA
ENDBRANCH  44  45
ENDBRANCH  25  39
BRANCH  26  49
ATOM     49  C   UNL A   1      40.536  29.530  29.499  1.00  0.00    -0.014 A 
ATOM     50  C   UNL A   1      40.219  29.591  30.866  1.00  0.00     0.010 A 
ATOM     51  C   UNL A   1      39.574  29.924  28.551  1.00  0.00     0.010 A 
ATOM     52  C   UNL A   1      38.959  30.034  31.279  1.00  0.00     0.020 A 
ATOM     53  C   UNL A   1      38.323  30.387  28.961  1.00  0.00     0.020 A 
ATOM     54  C   UNL A   1      38.020  30.431  30.324  1.00  0.00     0.054 A 
BRANCH  54  55
ATOM     55  S   UNL A   1      36.414  31.070  30.878  1.00  0.00     0.124 S 
ATOM     56  O   UNL A   1      36.769  32.402  31.359  1.00  0.00    -0.237 OA
ATOM     57  O   UNL A   1      35.615  31.030  29.656  1.00  0.00    -0.237 OA
ATOM     58  O   UNL A   1      36.008  30.117  31.909  1.00  0.00    -0.744 OA
ENDBRANCH  54  55
ENDBRANCH  26  49
BRANCH  38  59
ATOM     59  C   UNL A   1      46.611  32.818  28.630  1.00  0.00    -0.014 A 
ATOM     60  C   UNL A   1      47.133  33.259  29.859  1.00  0.00     0.010 A 
ATOM     61  C   UNL A   1      46.495  33.727  27.564  1.00  0.00     0.010 A 
ATOM     62  C   UNL A   1      47.495  34.596  30.031  1.00  0.00     0.020 A 
ATOM     63  C   UNL A   1      46.876  35.062  27.726  1.00  0.00     0.020 A 
ATOM     64  C   UNL A   1      47.356  35.492  28.966  1.00  0.00     0.054 A 
BRANCH  64  65
ATOM     65  S   UNL A   1      47.852  37.221  29.200  1.00  0.00     0.124 S 
ATOM     66  O   UNL A   1      47.861  37.338  30.656  1.00  0.00    -0.237 OA
ATOM     67  O   UNL A   1      49.162  37.275  28.557  1.00  0.00    -0.237 OA
ATOM     68  O   UNL A   1      46.801  37.974  28.520  1.00  0.00    -0.744 OA
ENDBRANCH  64  65
ENDBRANCH  38  59
ENDBRANCH  12  13
ENDBRANCH   5   7
ENDBRANCH   2   3
ENDBRANCH   1   2
BRANCH   1  69
ATOM     69  C   UNL A   1      39.075  23.602  26.485  1.00  0.00     0.023 C 
BRANCH  69  70
ATOM     70  C   UNL A   1      37.741  24.083  25.923  1.00  0.00     0.116 C 
BRANCH  70  71
ATOM     71  N   UNL A   1      37.454  23.540  24.608  1.00  0.00    -0.352 N 
ATOM     72  C   UNL A   1      36.234  23.426  23.989  1.00  0.00     0.255 C 
ATOM     73  H   UNL A   1      38.229  23.213  24.097  1.00  0.00     0.163 HD
ATOM     74  O   UNL A   1      36.134  22.916  22.877  1.00  0.00    -0.269 OA
BRANCH  72  75
ATOM     75  C   UNL A   1      35.015  23.830  24.712  1.00  0.00     0.082 A 
ATOM     76  C   UNL A   1      34.244  24.846  24.131  1.00  0.00     0.025 A 
ATOM     77  C   UNL A   1      34.618  23.233  25.910  1.00  0.00     0.128 A 
ATOM     78  C   UNL A   1      33.044  25.252  24.723  1.00  0.00    -0.025 A 
ATOM     79  C   UNL A   1      33.421  23.618  26.505  1.00  0.00     0.047 A 
ATOM     80  C   UNL A   1      32.638  24.614  25.907  1.00  0.00     0.012 A 
BRANCH  77  81
ATOM     81  O   UNL A   1      35.384  22.261  26.486  1.00  0.00    -0.507 OA
ATOM     82  H   UNL A   1      34.998  21.442  26.725  1.00  0.00     0.293 HD
ENDBRANCH  77  81
BRANCH  78  83
ATOM     83  C   UNL A   1      32.172  26.294  24.152  1.00  0.00     0.009 C 
ATOM     84  C   UNL A   1      30.837  26.219  24.023  1.00  0.00     0.009 C 
BRANCH  84  85
ATOM     85  C   UNL A   1      30.036  27.291  23.414  1.00  0.00    -0.018 A 
ATOM     86  C   UNL A   1      28.646  27.346  23.586  1.00  0.00     0.054 A 
ATOM     87  C   UNL A   1      30.682  28.309  22.701  1.00  0.00     0.054 A 
ATOM     88  C   UNL A   1      27.919  28.395  23.028  1.00  0.00     0.119 A 
ATOM     89  C   UNL A   1      29.934  29.348  22.150  1.00  0.00     0.119 A 
ATOM     90  C   UNL A   1      28.554  29.396  22.305  1.00  0.00     0.092 A 
BRANCH  88  91
ATOM     91  O   UNL A   1      26.565  28.476  23.180  1.00  0.00    -0.508 OA
ATOM     92  H   UNL A   1      26.158  29.308  23.319  1.00  0.00     0.293 HD
ENDBRANCH  88  91
BRANCH  89  93
ATOM     93  O   UNL A   1      30.529  30.353  21.443  1.00  0.00    -0.508 OA
ATOM     94  H   UNL A   1      30.672  31.187  21.845  1.00  0.00     0.293 HD
ENDBRANCH  89  93
ENDBRANCH  84  85
ENDBRANCH  78  83
ENDBRANCH  72  75
ENDBRANCH  70  71
ENDBRANCH  69  70
ENDBRANCH   1  69
TORSDOF 19
ENDMDL
