MODEL 1
REMARK VINA RESULT:     -10.5      0.000      0.000
REMARK SMILES Cc1cc2cc(-c3ccc([C@@H](C)C(=O)NCCCCNC(=O)c4ccc(-c5c6nc(c(-c7ccc(S(=O)(=O)[O-])cc7)c7ccc([nH]7)c(-c7ccc(S(=O)(=O)[O-])cc7)c7nc(c(-c8ccc(S(=O)(=O)[O-])cc8)c8ccc5[nH]8)C=C7)C=C6)cc4)cc3)ccc2[nH]1
REMARK SMILES IDX 18 1 17 2 16 3 15 4 13 5 14 6 11 8 12 9 10 10 7 11 8 12
REMARK SMILES IDX 84 13 9 14 83 15 6 16 1 17 2 18 3 19 88 20 4 21 87 22 5 24
REMARK SMILES IDX 86 25 85 26 19 27 20 28 21 29 22 31 23 32 24 33 82 34 25 35
REMARK SMILES IDX 81 36 26 37 27 38 28 39 75 40 29 41 80 42 74 43 76 44 30 45
REMARK SMILES IDX 79 46 73 47 72 48 31 50 61 51 42 52 60 53 43 54 46 55 59 56
REMARK SMILES IDX 77 57 44 58 45 59 58 61 78 62 47 63 32 64 33 65 41 66 34 67
REMARK SMILES IDX 40 68 35 69 36 70 37 71 38 72 39 73 62 74 63 75 71 76 64 77
REMARK SMILES IDX 70 78 65 79 66 80 67 81 68 82 69 83 48 84 49 85 57 86 50 87
REMARK SMILES IDX 56 88 51 89 52 90 53 91 54 92 55 93
REMARK H PARENT 15 7 88 23 20 30 76 49 46 60
REMARK Flexibility Score: inf
ROOT
ATOM      1  C   UNL A   1      42.189  20.973  26.952  1.00  0.00     0.023 C 
ENDROOT
BRANCH   1   2
ATOM      2  C   UNL A   1      42.033  19.747  26.054  1.00  0.00     0.023 C 
BRANCH   2   3
ATOM      3  C   UNL A   1      43.281  18.873  25.927  1.00  0.00     0.116 C 
BRANCH   3   4
ATOM      4  N   UNL A   1      43.676  18.673  24.547  1.00  0.00    -0.356 N 
ATOM      5  C   UNL A   1      44.742  19.138  23.837  1.00  0.00     0.227 C 
ATOM      6  O   UNL A   1      44.788  18.829  22.640  1.00  0.00    -0.274 OA
ATOM      7  H   UNL A   1      43.066  18.099  24.030  1.00  0.00     0.163 HD
BRANCH   5   8
ATOM      8  C   UNL A   1      45.868  19.989  24.445  1.00  0.00     0.105 C 
ATOM      9  C   UNL A   1      46.681  19.262  25.518  1.00  0.00     0.023 C 
BRANCH   8  10
ATOM     10  C   UNL A   1      45.441  21.409  24.776  1.00  0.00    -0.036 A 
ATOM     11  C   UNL A   1      44.832  24.142  25.367  1.00  0.00    -0.018 A 
ATOM     12  C   UNL A   1      44.292  23.485  24.249  1.00  0.00     0.009 A 
ATOM     13  C   UNL A   1      45.665  23.383  26.203  1.00  0.00     0.009 A 
ATOM     14  C   UNL A   1      44.559  22.139  23.978  1.00  0.00     0.005 A 
ATOM     15  C   UNL A   1      45.979  22.049  25.903  1.00  0.00     0.005 A 
BRANCH  11  16
ATOM     16  C   UNL A   1      44.538  25.574  25.619  1.00  0.00    -0.018 A 
ATOM     17  C   UNL A   1      45.022  31.077  28.289  1.00  0.00     0.064 C 
ATOM     18  C   UNL A   1      44.878  29.781  27.586  1.00  0.00     0.013 A 
ATOM     19  C   UNL A   1      45.654  28.642  27.636  1.00  0.00     0.031 A 
ATOM     20  N   UNL A   1      43.841  29.530  26.718  1.00  0.00    -0.359 N 
ATOM     21  C   UNL A   1      45.057  27.669  26.789  1.00  0.00     0.000 A 
ATOM     22  C   UNL A   1      43.922  28.245  26.230  1.00  0.00     0.046 A 
ATOM     23  H   UNL A   1      43.139  30.178  26.481  1.00  0.00     0.166 HD
ATOM     24  C   UNL A   1      45.373  26.338  26.462  1.00  0.00     0.019 A 
ATOM     25  C   UNL A   1      43.085  27.548  25.355  1.00  0.00     0.027 A 
ATOM     26  C   UNL A   1      43.408  26.210  25.075  1.00  0.00     0.011 A 
ENDBRANCH  11  16
ENDBRANCH   8  10
ENDBRANCH   5   8
ENDBRANCH   3   4
ENDBRANCH   2   3
ENDBRANCH   1   2
BRANCH   1  27
ATOM     27  C   UNL A   1      41.501  22.240  26.457  1.00  0.00     0.116 C 
BRANCH  27  28
ATOM     28  N   UNL A   1      40.144  22.031  25.970  1.00  0.00    -0.352 N 
ATOM     29  C   UNL A   1      39.067  22.885  26.071  1.00  0.00     0.251 C 
ATOM     30  H   UNL A   1      39.975  21.175  25.515  1.00  0.00     0.163 HD
ATOM     31  O   UNL A   1      37.960  22.545  25.673  1.00  0.00    -0.269 OA
BRANCH  29  32
ATOM     32  C   UNL A   1      39.261  24.201  26.718  1.00  0.00     0.039 A 
ATOM     33  C   UNL A   1      38.853  24.370  28.042  1.00  0.00     0.014 A 
ATOM     34  C   UNL A   1      39.919  25.231  26.041  1.00  0.00     0.014 A 
ATOM     35  C   UNL A   1      39.188  25.545  28.720  1.00  0.00     0.010 A 
ATOM     36  C   UNL A   1      40.311  26.368  26.737  1.00  0.00     0.010 A 
ATOM     37  C   UNL A   1      39.960  26.532  28.087  1.00  0.00    -0.014 A 
BRANCH  37  38
ATOM     38  C   UNL A   1      40.431  27.738  28.812  1.00  0.00     0.031 A 
ATOM     39  C   UNL A   1      41.782  27.735  29.473  1.00  0.00     0.074 A 
ATOM     40  C   UNL A   1      39.609  28.796  28.958  1.00  0.00     0.049 A 
ATOM     41  N   UNL A   1      42.320  28.635  30.254  1.00  0.00    -0.248 NA
ATOM     42  C   UNL A   1      42.625  26.550  29.248  1.00  0.00     0.031 C 
ATOM     43  C   UNL A   1      38.257  28.907  28.403  1.00  0.00     0.029 A 
ATOM     44  N   UNL A   1      39.785  29.978  29.633  1.00  0.00    -0.354 N 
ATOM     45  C   UNL A   1      43.549  28.113  30.637  1.00  0.00     0.074 A 
ATOM     46  C   UNL A   1      43.661  26.803  30.033  1.00  0.00     0.031 C 
ATOM     47  C   UNL A   1      37.736  30.098  28.742  1.00  0.00     0.029 A 
ATOM     48  C   UNL A   1      38.697  30.818  29.571  1.00  0.00     0.049 A 
ATOM     49  H   UNL A   1      40.612  30.203  30.117  1.00  0.00     0.167 HD
ATOM     50  C   UNL A   1      44.509  28.680  31.408  1.00  0.00     0.031 A 
ATOM     51  C   UNL A   1      38.493  32.028  30.127  1.00  0.00     0.031 A 
ATOM     52  C   UNL A   1      44.407  29.993  31.986  1.00  0.00     0.049 A 
ATOM     53  C   UNL A   1      39.577  32.644  30.967  1.00  0.00     0.074 A 
ATOM     54  C   UNL A   1      45.345  30.676  32.740  1.00  0.00     0.029 A 
ATOM     55  N   UNL A   1      43.303  30.823  31.869  1.00  0.00    -0.354 N 
ATOM     56  N   UNL A   1      40.752  32.154  31.280  1.00  0.00    -0.248 NA
ATOM     57  C   UNL A   1      39.312  33.979  31.522  1.00  0.00     0.031 C 
ATOM     58  C   UNL A   1      44.797  31.911  33.103  1.00  0.00     0.029 A 
ATOM     59  C   UNL A   1      43.533  32.011  32.543  1.00  0.00     0.049 A 
ATOM     60  H   UNL A   1      42.479  30.602  31.380  1.00  0.00     0.167 HD
ATOM     61  C   UNL A   1      41.377  33.130  32.047  1.00  0.00     0.074 A 
ATOM     62  C   UNL A   1      40.453  34.243  32.144  1.00  0.00     0.031 C 
ATOM     63  C   UNL A   1      42.605  33.109  32.619  1.00  0.00     0.031 A 
BRANCH  50  64
ATOM     64  C   UNL A   1      45.752  27.873  31.665  1.00  0.00    -0.014 A 
ATOM     65  C   UNL A   1      45.795  26.927  32.706  1.00  0.00     0.010 A 
ATOM     66  C   UNL A   1      46.883  28.048  30.850  1.00  0.00     0.010 A 
ATOM     67  C   UNL A   1      46.965  26.208  32.959  1.00  0.00     0.020 A 
ATOM     68  C   UNL A   1      48.048  27.311  31.083  1.00  0.00     0.020 A 
ATOM     69  C   UNL A   1      48.087  26.410  32.151  1.00  0.00     0.054 A 
BRANCH  69  70
ATOM     70  S   UNL A   1      49.593  25.461  32.497  1.00  0.00     0.124 S 
ATOM     71  O   UNL A   1      49.112  24.478  33.465  1.00  0.00    -0.237 OA
ATOM     72  O   UNL A   1      49.947  24.927  31.184  1.00  0.00    -0.237 OA
ATOM     73  O   UNL A   1      50.517  26.460  33.029  1.00  0.00    -0.744 OA
ENDBRANCH  69  70
ENDBRANCH  50  64
BRANCH  51  74
ATOM     74  C   UNL A   1      37.213  32.749  29.891  1.00  0.00    -0.014 A 
ATOM     75  C   UNL A   1      37.038  33.515  28.726  1.00  0.00     0.010 A 
ATOM     76  C   UNL A   1      36.161  32.662  30.820  1.00  0.00     0.010 A 
ATOM     77  C   UNL A   1      35.839  34.199  28.501  1.00  0.00     0.020 A 
ATOM     78  C   UNL A   1      34.953  33.327  30.587  1.00  0.00     0.020 A 
ATOM     79  C   UNL A   1      34.804  34.100  29.433  1.00  0.00     0.054 A 
BRANCH  79  80
ATOM     80  S   UNL A   1      33.237  34.953  29.098  1.00  0.00     0.124 S 
ATOM     81  O   UNL A   1      32.658  34.122  28.049  1.00  0.00    -0.237 OA
ATOM     82  O   UNL A   1      32.562  34.901  30.393  1.00  0.00    -0.237 OA
ATOM     83  O   UNL A   1      33.660  36.288  28.680  1.00  0.00    -0.744 OA
ENDBRANCH  79  80
ENDBRANCH  51  74
BRANCH  63  84
ATOM     84  C   UNL A   1      43.042  34.336  33.370  1.00  0.00    -0.014 A 
ATOM     85  C   UNL A   1      42.929  34.409  34.769  1.00  0.00     0.010 A 
ATOM     86  C   UNL A   1      43.637  35.401  32.670  1.00  0.00     0.010 A 
ATOM     87  C   UNL A   1      43.390  35.535  35.455  1.00  0.00     0.020 A 
ATOM     88  C   UNL A   1      44.118  36.519  33.354  1.00  0.00     0.020 A 
ATOM     89  C   UNL A   1      43.982  36.583  34.743  1.00  0.00     0.054 A 
BRANCH  89  90
ATOM     90  S   UNL A   1      44.632  38.008  35.659  1.00  0.00     0.124 S 
ATOM     91  O   UNL A   1      44.246  39.123  34.799  1.00  0.00    -0.237 OA
ATOM     92  O   UNL A   1      43.923  37.923  36.933  1.00  0.00    -0.237 OA
ATOM     93  O   UNL A   1      46.068  37.746  35.734  1.00  0.00    -0.744 OA
ENDBRANCH  89  90
ENDBRANCH  63  84
ENDBRANCH  37  38
ENDBRANCH  29  32
ENDBRANCH  27  28
ENDBRANCH   1  27
TORSDOF 16
ENDMDL
MODEL 2
REMARK VINA RESULT:     -10.3      2.917     12.094
REMARK SMILES Cc1cc2cc(-c3ccc([C@@H](C)C(=O)NCCCCNC(=O)c4ccc(-c5c6nc(c(-c7ccc(S(=O)(=O)[O-])cc7)c7ccc([nH]7)c(-c7ccc(S(=O)(=O)[O-])cc7)c7nc(c(-c8ccc(S(=O)(=O)[O-])cc8)c8ccc5[nH]8)C=C7)C=C6)cc4)cc3)ccc2[nH]1
REMARK SMILES IDX 18 1 17 2 16 3 15 4 13 5 14 6 11 8 12 9 10 10 7 11 8 12
REMARK SMILES IDX 84 13 9 14 83 15 6 16 1 17 2 18 3 19 88 20 4 21 87 22 5 24
REMARK SMILES IDX 86 25 85 26 19 27 20 28 21 29 22 31 23 32 24 33 82 34 25 35
REMARK SMILES IDX 81 36 26 37 27 38 28 39 75 40 29 41 80 42 74 43 76 44 30 45
REMARK SMILES IDX 79 46 73 47 72 48 31 50 61 51 42 52 60 53 43 54 46 55 59 56
REMARK SMILES IDX 77 57 44 58 45 59 58 61 78 62 47 63 32 64 33 65 41 66 34 67
REMARK SMILES IDX 40 68 35 69 36 70 37 71 38 72 39 73 62 74 63 75 71 76 64 77
REMARK SMILES IDX 70 78 65 79 66 80 67 81 68 82 69 83 48 84 49 85 57 86 50 87
REMARK SMILES IDX 56 88 51 89 52 90 53 91 54 92 55 93
REMARK H PARENT 15 7 88 23 20 30 76 49 46 60
REMARK Flexibility Score: inf
ROOT
ATOM      1  C   UNL A   1      35.365  34.396  28.985  1.00  0.00     0.023 C 
ENDROOT
BRANCH   1   2
ATOM      2  C   UNL A   1      34.491  35.352  28.175  1.00  0.00     0.023 C 
BRANCH   2   3
ATOM      3  C   UNL A   1      33.128  35.665  28.790  1.00  0.00     0.116 C 
BRANCH   3   4
ATOM      4  N   UNL A   1      33.184  36.770  29.726  1.00  0.00    -0.356 N 
ATOM      5  C   UNL A   1      32.986  36.825  31.072  1.00  0.00     0.227 C 
ATOM      6  O   UNL A   1      33.058  37.943  31.598  1.00  0.00    -0.274 OA
ATOM      7  H   UNL A   1      33.407  37.637  29.315  1.00  0.00     0.163 HD
BRANCH   5   8
ATOM      8  C   UNL A   1      32.701  35.592  31.945  1.00  0.00     0.105 C 
ATOM      9  C   UNL A   1      31.679  35.845  33.055  1.00  0.00     0.023 C 
BRANCH   8  10
ATOM     10  C   UNL A   1      33.956  34.835  32.349  1.00  0.00    -0.036 A 
ATOM     11  C   UNL A   1      36.364  33.394  32.908  1.00  0.00    -0.018 A 
ATOM     12  C   UNL A   1      36.187  34.731  33.305  1.00  0.00     0.009 A 
ATOM     13  C   UNL A   1      35.286  32.786  32.246  1.00  0.00     0.009 A 
ATOM     14  C   UNL A   1      34.997  35.425  33.065  1.00  0.00     0.005 A 
ATOM     15  C   UNL A   1      34.113  33.498  31.954  1.00  0.00     0.005 A 
BRANCH  11  16
ATOM     16  C   UNL A   1      37.643  32.691  33.167  1.00  0.00    -0.018 A 
ATOM     17  C   UNL A   1      41.476  27.940  33.786  1.00  0.00     0.064 C 
ATOM     18  C   UNL A   1      40.608  29.129  33.625  1.00  0.00     0.013 A 
ATOM     19  C   UNL A   1      39.333  29.246  33.111  1.00  0.00     0.031 A 
ATOM     20  N   UNL A   1      41.007  30.386  34.016  1.00  0.00    -0.359 N 
ATOM     21  C   UNL A   1      38.944  30.608  33.213  1.00  0.00     0.000 A 
ATOM     22  C   UNL A   1      40.004  31.302  33.786  1.00  0.00     0.046 A 
ATOM     23  H   UNL A   1      41.885  30.599  34.405  1.00  0.00     0.166 HD
ATOM     24  C   UNL A   1      37.772  31.314  32.884  1.00  0.00     0.019 A 
ATOM     25  C   UNL A   1      39.947  32.673  34.047  1.00  0.00     0.027 A 
ATOM     26  C   UNL A   1      38.750  33.342  33.740  1.00  0.00     0.011 A 
ENDBRANCH  11  16
ENDBRANCH   8  10
ENDBRANCH   5   8
ENDBRANCH   3   4
ENDBRANCH   2   3
ENDBRANCH   1   2
BRANCH   1  27
ATOM     27  C   UNL A   1      35.803  33.131  28.256  1.00  0.00     0.116 C 
BRANCH  27  28
ATOM     28  N   UNL A   1      34.715  32.211  27.951  1.00  0.00    -0.352 N 
ATOM     29  C   UNL A   1      34.766  30.836  27.869  1.00  0.00     0.251 C 
ATOM     30  H   UNL A   1      33.837  32.621  27.781  1.00  0.00     0.163 HD
ATOM     31  O   UNL A   1      33.780  30.193  27.535  1.00  0.00    -0.269 OA
BRANCH  29  32
ATOM     32  C   UNL A   1      36.051  30.155  28.143  1.00  0.00     0.039 A 
ATOM     33  C   UNL A   1      37.009  30.088  27.130  1.00  0.00     0.014 A 
ATOM     34  C   UNL A   1      36.331  29.662  29.420  1.00  0.00     0.014 A 
ATOM     35  C   UNL A   1      38.287  29.607  27.425  1.00  0.00     0.010 A 
ATOM     36  C   UNL A   1      37.622  29.250  29.728  1.00  0.00     0.010 A 
ATOM     37  C   UNL A   1      38.617  29.230  28.736  1.00  0.00    -0.014 A 
BRANCH  37  38
ATOM     38  C   UNL A   1      39.995  28.825  29.108  1.00  0.00     0.031 A 
ATOM     39  C   UNL A   1      40.919  29.819  29.757  1.00  0.00     0.074 A 
ATOM     40  C   UNL A   1      40.446  27.598  28.776  1.00  0.00     0.049 A 
ATOM     41  N   UNL A   1      42.190  29.700  30.041  1.00  0.00    -0.248 NA
ATOM     42  C   UNL A   1      40.343  31.128  30.104  1.00  0.00     0.031 C 
ATOM     43  C   UNL A   1      39.664  26.556  28.106  1.00  0.00     0.029 A 
ATOM     44  N   UNL A   1      41.682  27.024  28.946  1.00  0.00    -0.354 N 
ATOM     45  C   UNL A   1      42.572  30.926  30.572  1.00  0.00     0.074 A 
ATOM     46  C   UNL A   1      41.409  31.785  30.535  1.00  0.00     0.031 C 
ATOM     47  C   UNL A   1      40.432  25.466  27.940  1.00  0.00     0.029 A 
ATOM     48  C   UNL A   1      41.769  25.743  28.454  1.00  0.00     0.049 A 
ATOM     49  H   UNL A   1      42.436  27.488  29.378  1.00  0.00     0.167 HD
ATOM     50  C   UNL A   1      43.778  31.299  31.063  1.00  0.00     0.031 A 
ATOM     51  C   UNL A   1      42.811  24.890  28.412  1.00  0.00     0.031 A 
ATOM     52  C   UNL A   1      44.926  30.436  31.122  1.00  0.00     0.049 A 
ATOM     53  C   UNL A   1      44.136  25.320  28.977  1.00  0.00     0.074 A 
ATOM     54  C   UNL A   1      46.178  30.704  31.648  1.00  0.00     0.029 A 
ATOM     55  N   UNL A   1      44.961  29.135  30.646  1.00  0.00    -0.354 N 
ATOM     56  N   UNL A   1      44.465  26.469  29.517  1.00  0.00    -0.248 NA
ATOM     57  C   UNL A   1      45.228  24.338  28.933  1.00  0.00     0.031 C 
ATOM     58  C   UNL A   1      46.980  29.572  31.463  1.00  0.00     0.029 A 
ATOM     59  C   UNL A   1      46.215  28.588  30.858  1.00  0.00     0.049 A 
ATOM     60  H   UNL A   1      44.206  28.668  30.220  1.00  0.00     0.167 HD
ATOM     61  C   UNL A   1      45.795  26.339  29.901  1.00  0.00     0.074 A 
ATOM     62  C   UNL A   1      46.207  24.998  29.539  1.00  0.00     0.031 C 
ATOM     63  C   UNL A   1      46.602  27.248  30.500  1.00  0.00     0.031 A 
BRANCH  50  64
ATOM     64  C   UNL A   1      43.908  32.708  31.574  1.00  0.00    -0.014 A 
ATOM     65  C   UNL A   1      43.566  33.028  32.901  1.00  0.00     0.010 A 
ATOM     66  C   UNL A   1      44.390  33.720  30.726  1.00  0.00     0.010 A 
ATOM     67  C   UNL A   1      43.656  34.346  33.355  1.00  0.00     0.020 A 
ATOM     68  C   UNL A   1      44.507  35.035  31.186  1.00  0.00     0.020 A 
ATOM     69  C   UNL A   1      44.118  35.343  32.492  1.00  0.00     0.054 A 
BRANCH  69  70
ATOM     70  S   UNL A   1      44.231  37.045  33.106  1.00  0.00     0.124 S 
ATOM     71  O   UNL A   1      45.670  37.197  33.307  1.00  0.00    -0.237 OA
ATOM     72  O   UNL A   1      43.665  37.823  32.008  1.00  0.00    -0.237 OA
ATOM     73  O   UNL A   1      43.430  37.026  34.328  1.00  0.00    -0.744 OA
ENDBRANCH  69  70
ENDBRANCH  50  64
BRANCH  51  74
ATOM     74  C   UNL A   1      42.637  23.531  27.832  1.00  0.00    -0.014 A 
ATOM     75  C   UNL A   1      43.393  23.138  26.714  1.00  0.00     0.010 A 
ATOM     76  C   UNL A   1      41.728  22.621  28.399  1.00  0.00     0.010 A 
ATOM     77  C   UNL A   1      43.231  21.864  26.161  1.00  0.00     0.020 A 
ATOM     78  C   UNL A   1      41.579  21.339  27.862  1.00  0.00     0.020 A 
ATOM     79  C   UNL A   1      42.324  20.973  26.739  1.00  0.00     0.054 A 
BRANCH  79  80
ATOM     80  S   UNL A   1      42.165  19.305  26.038  1.00  0.00     0.124 S 
ATOM     81  O   UNL A   1      40.722  19.185  25.867  1.00  0.00    -0.237 OA
ATOM     82  O   UNL A   1      42.943  19.403  24.806  1.00  0.00    -0.237 OA
ATOM     83  O   UNL A   1      42.750  18.448  27.067  1.00  0.00    -0.744 OA
ENDBRANCH  79  80
ENDBRANCH  51  74
BRANCH  63  84
ATOM     84  C   UNL A   1      48.002  26.815  30.839  1.00  0.00    -0.014 A 
ATOM     85  C   UNL A   1      49.068  27.053  29.955  1.00  0.00     0.010 A 
ATOM     86  C   UNL A   1      48.260  26.226  32.090  1.00  0.00     0.010 A 
ATOM     87  C   UNL A   1      50.371  26.693  30.310  1.00  0.00     0.020 A 
ATOM     88  C   UNL A   1      49.563  25.885  32.457  1.00  0.00     0.020 A 
ATOM     89  C   UNL A   1      50.610  26.111  31.560  1.00  0.00     0.054 A 
BRANCH  89  90
ATOM     90  S   UNL A   1      52.316  25.710  32.028  1.00  0.00     0.124 S 
ATOM     91  O   UNL A   1      52.547  26.622  33.145  1.00  0.00    -0.237 OA
ATOM     92  O   UNL A   1      52.230  24.295  32.379  1.00  0.00    -0.237 OA
ATOM     93  O   UNL A   1      53.084  25.998  30.818  1.00  0.00    -0.744 OA
ENDBRANCH  89  90
ENDBRANCH  63  84
ENDBRANCH  37  38
ENDBRANCH  29  32
ENDBRANCH  27  28
ENDBRANCH   1  27
TORSDOF 16
ENDMDL
MODEL 3
REMARK VINA RESULT:     -10.1      3.036     11.182
REMARK SMILES Cc1cc2cc(-c3ccc([C@@H](C)C(=O)NCCCCNC(=O)c4ccc(-c5c6nc(c(-c7ccc(S(=O)(=O)[O-])cc7)c7ccc([nH]7)c(-c7ccc(S(=O)(=O)[O-])cc7)c7nc(c(-c8ccc(S(=O)(=O)[O-])cc8)c8ccc5[nH]8)C=C7)C=C6)cc4)cc3)ccc2[nH]1
REMARK SMILES IDX 18 1 17 2 16 3 15 4 13 5 14 6 11 8 12 9 10 10 7 11 8 12
REMARK SMILES IDX 84 13 9 14 83 15 6 16 1 17 2 18 3 19 88 20 4 21 87 22 5 24
REMARK SMILES IDX 86 25 85 26 19 27 20 28 21 29 22 31 23 32 24 33 82 34 25 35
REMARK SMILES IDX 81 36 26 37 27 38 28 39 75 40 29 41 80 42 74 43 76 44 30 45
REMARK SMILES IDX 79 46 73 47 72 48 31 50 61 51 42 52 60 53 43 54 46 55 59 56
REMARK SMILES IDX 77 57 44 58 45 59 58 61 78 62 47 63 32 64 33 65 41 66 34 67
REMARK SMILES IDX 40 68 35 69 36 70 37 71 38 72 39 73 62 74 63 75 71 76 64 77
REMARK SMILES IDX 70 78 65 79 66 80 67 81 68 82 69 83 48 84 49 85 57 86 50 87
REMARK SMILES IDX 56 88 51 89 52 90 53 91 54 92 55 93
REMARK H PARENT 15 7 88 23 20 30 76 49 46 60
REMARK Flexibility Score: inf
ROOT
ATOM      1  C   UNL A   1      35.376  33.099  28.008  1.00  0.00     0.023 C 
ENDROOT
BRANCH   1   2
ATOM      2  C   UNL A   1      36.621  33.402  28.839  1.00  0.00     0.023 C 
BRANCH   2   3
ATOM      3  C   UNL A   1      36.514  33.047  30.322  1.00  0.00     0.116 C 
BRANCH   3   4
ATOM      4  N   UNL A   1      36.937  34.135  31.182  1.00  0.00    -0.356 N 
ATOM      5  C   UNL A   1      37.047  34.225  32.536  1.00  0.00     0.227 C 
ATOM      6  O   UNL A   1      37.397  35.321  32.993  1.00  0.00    -0.274 OA
ATOM      7  H   UNL A   1      37.190  34.956  30.701  1.00  0.00     0.163 HD
BRANCH   5   8
ATOM      8  C   UNL A   1      36.782  33.054  33.495  1.00  0.00     0.105 C 
ATOM      9  C   UNL A   1      35.949  33.435  34.720  1.00  0.00     0.023 C 
BRANCH   8  10
ATOM     10  C   UNL A   1      38.010  32.199  33.761  1.00  0.00    -0.036 A 
ATOM     11  C   UNL A   1      40.341  30.566  34.055  1.00  0.00    -0.018 A 
ATOM     12  C   UNL A   1      40.332  31.922  34.423  1.00  0.00     0.009 A 
ATOM     13  C   UNL A   1      39.138  30.039  33.562  1.00  0.00     0.009 A 
ATOM     14  C   UNL A   1      39.183  32.712  34.314  1.00  0.00     0.005 A 
ATOM     15  C   UNL A   1      38.001  30.843  33.399  1.00  0.00     0.005 A 
BRANCH  11  16
ATOM     16  C   UNL A   1      41.579  29.758  34.172  1.00  0.00    -0.018 A 
ATOM     17  C   UNL A   1      45.266  24.900  33.495  1.00  0.00     0.064 C 
ATOM     18  C   UNL A   1      44.434  26.114  33.666  1.00  0.00     0.013 A 
ATOM     19  C   UNL A   1      43.216  26.452  33.115  1.00  0.00     0.031 A 
ATOM     20  N   UNL A   1      44.813  27.152  34.486  1.00  0.00    -0.359 N 
ATOM     21  C   UNL A   1      42.839  27.721  33.632  1.00  0.00     0.000 A 
ATOM     22  C   UNL A   1      43.851  28.137  34.491  1.00  0.00     0.046 A 
ATOM     23  H   UNL A   1      45.654  27.185  34.997  1.00  0.00     0.166 HD
ATOM     24  C   UNL A   1      41.714  28.548  33.459  1.00  0.00     0.019 A 
ATOM     25  C   UNL A   1      43.789  29.346  35.187  1.00  0.00     0.027 A 
ATOM     26  C   UNL A   1      42.637  30.133  35.021  1.00  0.00     0.011 A 
ENDBRANCH  11  16
ENDBRANCH   8  10
ENDBRANCH   5   8
ENDBRANCH   3   4
ENDBRANCH   2   3
ENDBRANCH   1   2
BRANCH   1  27
ATOM     27  C   UNL A   1      34.309  32.264  28.707  1.00  0.00     0.116 C 
BRANCH  27  28
ATOM     28  N   UNL A   1      33.874  31.097  27.951  1.00  0.00    -0.352 N 
ATOM     29  C   UNL A   1      34.605  29.971  27.636  1.00  0.00     0.251 C 
ATOM     30  H   UNL A   1      32.947  31.115  27.623  1.00  0.00     0.163 HD
ATOM     31  O   UNL A   1      34.126  29.093  26.931  1.00  0.00    -0.269 OA
BRANCH  29  32
ATOM     32  C   UNL A   1      35.997  29.868  28.124  1.00  0.00     0.039 A 
ATOM     33  C   UNL A   1      36.222  29.483  29.447  1.00  0.00     0.014 A 
ATOM     34  C   UNL A   1      37.069  30.069  27.251  1.00  0.00     0.014 A 
ATOM     35  C   UNL A   1      37.525  29.211  29.871  1.00  0.00     0.010 A 
ATOM     36  C   UNL A   1      38.355  29.731  27.655  1.00  0.00     0.010 A 
ATOM     37  C   UNL A   1      38.595  29.287  28.965  1.00  0.00    -0.014 A 
BRANCH  37  38
ATOM     38  C   UNL A   1      39.973  28.894  29.351  1.00  0.00     0.031 A 
ATOM     39  C   UNL A   1      40.869  29.884  30.043  1.00  0.00     0.074 A 
ATOM     40  C   UNL A   1      40.450  27.684  28.994  1.00  0.00     0.049 A 
ATOM     41  N   UNL A   1      42.136  29.778  30.346  1.00  0.00    -0.248 NA
ATOM     42  C   UNL A   1      40.265  31.173  30.415  1.00  0.00     0.031 C 
ATOM     43  C   UNL A   1      39.697  26.648  28.281  1.00  0.00     0.029 A 
ATOM     44  N   UNL A   1      41.692  27.126  29.169  1.00  0.00    -0.354 N 
ATOM     45  C   UNL A   1      42.489  30.995  30.917  1.00  0.00     0.074 A 
ATOM     46  C   UNL A   1      41.312  31.836  30.884  1.00  0.00     0.031 C 
ATOM     47  C   UNL A   1      40.485  25.576  28.099  1.00  0.00     0.029 A 
ATOM     48  C   UNL A   1      41.809  25.860  28.644  1.00  0.00     0.049 A 
ATOM     49  H   UNL A   1      42.430  27.589  29.628  1.00  0.00     0.167 HD
ATOM     50  C   UNL A   1      43.680  31.373  31.441  1.00  0.00     0.031 A 
ATOM     51  C   UNL A   1      42.865  25.025  28.598  1.00  0.00     0.031 A 
ATOM     52  C   UNL A   1      44.841  30.527  31.497  1.00  0.00     0.049 A 
ATOM     53  C   UNL A   1      44.173  25.461  29.198  1.00  0.00     0.074 A 
ATOM     54  C   UNL A   1      46.079  30.800  32.052  1.00  0.00     0.029 A 
ATOM     55  N   UNL A   1      44.905  29.240  30.986  1.00  0.00    -0.354 N 
ATOM     56  N   UNL A   1      44.473  26.600  29.775  1.00  0.00    -0.248 NA
ATOM     57  C   UNL A   1      45.282  24.498  29.147  1.00  0.00     0.031 C 
ATOM     58  C   UNL A   1      46.902  29.688  31.851  1.00  0.00     0.029 A 
ATOM     59  C   UNL A   1      46.164  28.708  31.205  1.00  0.00     0.049 A 
ATOM     60  H   UNL A   1      44.166  28.774  30.534  1.00  0.00     0.167 HD
ATOM     61  C   UNL A   1      45.798  26.480  30.179  1.00  0.00     0.074 A 
ATOM     62  C   UNL A   1      46.239  25.157  29.788  1.00  0.00     0.031 C 
ATOM     63  C   UNL A   1      46.580  27.385  30.818  1.00  0.00     0.031 A 
BRANCH  50  64
ATOM     64  C   UNL A   1      43.777  32.769  31.993  1.00  0.00    -0.014 A 
ATOM     65  C   UNL A   1      44.101  33.854  31.158  1.00  0.00     0.010 A 
ATOM     66  C   UNL A   1      43.526  33.004  33.356  1.00  0.00     0.010 A 
ATOM     67  C   UNL A   1      44.223  35.141  31.686  1.00  0.00     0.020 A 
ATOM     68  C   UNL A   1      43.621  34.295  33.884  1.00  0.00     0.020 A 
ATOM     69  C   UNL A   1      43.990  35.352  33.048  1.00  0.00     0.054 A 
BRANCH  69  70
ATOM     70  S   UNL A   1      44.151  37.033  33.710  1.00  0.00     0.124 S 
ATOM     71  O   UNL A   1      45.417  36.950  34.434  1.00  0.00    -0.237 OA
ATOM     72  O   UNL A   1      44.171  37.855  32.503  1.00  0.00    -0.237 OA
ATOM     73  O   UNL A   1      42.963  37.190  34.547  1.00  0.00    -0.744 OA
ENDBRANCH  69  70
ENDBRANCH  50  64
BRANCH  51  74
ATOM     74  C   UNL A   1      42.724  23.681  27.977  1.00  0.00    -0.014 A 
ATOM     75  C   UNL A   1      42.258  22.596  28.739  1.00  0.00     0.010 A 
ATOM     76  C   UNL A   1      43.043  23.481  26.622  1.00  0.00     0.010 A 
ATOM     77  C   UNL A   1      42.128  21.329  28.161  1.00  0.00     0.020 A 
ATOM     78  C   UNL A   1      42.894  22.221  26.036  1.00  0.00     0.020 A 
ATOM     79  C   UNL A   1      42.448  21.149  26.813  1.00  0.00     0.054 A 
BRANCH  79  80
ATOM     80  S   UNL A   1      42.224  19.509  26.069  1.00  0.00     0.124 S 
ATOM     81  O   UNL A   1      43.117  19.573  24.918  1.00  0.00    -0.237 OA
ATOM     82  O   UNL A   1      42.640  18.612  27.145  1.00  0.00    -0.237 OA
ATOM     83  O   UNL A   1      40.797  19.470  25.757  1.00  0.00    -0.744 OA
ENDBRANCH  79  80
ENDBRANCH  51  74
BRANCH  63  84
ATOM     84  C   UNL A   1      47.980  26.966  31.170  1.00  0.00    -0.014 A 
ATOM     85  C   UNL A   1      48.288  26.468  32.447  1.00  0.00     0.010 A 
ATOM     86  C   UNL A   1      48.983  27.008  30.184  1.00  0.00     0.010 A 
ATOM     87  C   UNL A   1      49.583  26.032  32.739  1.00  0.00     0.020 A 
ATOM     88  C   UNL A   1      50.273  26.553  30.466  1.00  0.00     0.020 A 
ATOM     89  C   UNL A   1      50.568  26.077  31.746  1.00  0.00     0.054 A 
BRANCH  89  90
ATOM     90  S   UNL A   1      52.226  25.448  32.127  1.00  0.00     0.124 S 
ATOM     91  O   UNL A   1      52.972  25.812  30.925  1.00  0.00    -0.237 OA
ATOM     92  O   UNL A   1      52.582  26.187  33.335  1.00  0.00    -0.237 OA
ATOM     93  O   UNL A   1      52.016  24.015  32.321  1.00  0.00    -0.744 OA
ENDBRANCH  89  90
ENDBRANCH  63  84
ENDBRANCH  37  38
ENDBRANCH  29  32
ENDBRANCH  27  28
ENDBRANCH   1  27
TORSDOF 16
ENDMDL
