MODEL 1
REMARK VINA RESULT:     -13.4      0.000      0.000
REMARK SMILES Cc1cccc(-c2ncc(C[NH+]3CCC4(CC3)NC(=O)C[C@H]4C(=O)NCCCCNC(=O)c3ccc(-c4c5nc(c(-c6ccc(S(=O)(=O)[O-])cc6)c6ccc([nH]6)c(-c6ccc(S(=O)(=O)[O-])cc6)c6nc(c(-c7ccc(S(=O)(=O)[O-])cc7)c7ccc4[nH]7)C=C6)C=C5)cc3)cn2)c1
REMARK SMILES IDX 27 1 26 2 25 3 23 4 24 5 22 7 12 8 13 9 17 10 14 12 16 13
REMARK SMILES IDX 15 14 18 15 19 16 21 18 20 19 11 20 10 21 7 22 8 23 94 24
REMARK SMILES IDX 9 25 93 26 6 27 1 28 2 29 3 30 95 31 4 32 5 33 28 34 29 35
REMARK SMILES IDX 30 36 31 37 32 39 33 40 34 41 92 42 35 43 91 44 36 45 37 46
REMARK SMILES IDX 38 47 85 48 39 49 90 50 84 51 86 52 40 53 89 54 83 55 82 56
REMARK SMILES IDX 41 58 71 59 52 60 70 61 53 62 56 63 69 64 87 65 54 66 55 67
REMARK SMILES IDX 68 69 88 70 57 71 42 72 43 73 51 74 44 75 50 76 45 77 46 78
REMARK SMILES IDX 47 79 48 80 49 81 72 82 73 83 81 84 74 85 80 86 75 87 76 88
REMARK SMILES IDX 77 89 78 90 79 91 58 92 59 93 67 94 60 95 66 96 61 97 62 98
REMARK SMILES IDX 63 99 64 100 65 101
REMARK H PARENT 25 6 12 11 18 17 30 38 86 57 56 68
REMARK Flexibility Score: inf
ROOT
ATOM      1  C   UNL A   1      33.004  28.887  24.403  1.00  0.00     0.023 C 
ENDROOT
BRANCH   1   2
ATOM      2  C   UNL A   1      32.216  28.633  23.102  1.00  0.00     0.116 C 
BRANCH   2   3
ATOM      3  N   UNL A   1      32.816  27.699  22.142  1.00  0.00    -0.356 N 
ATOM      4  C   UNL A   1      32.635  26.397  21.801  1.00  0.00     0.226 C 
ATOM      5  O   UNL A   1      33.310  25.981  20.848  1.00  0.00    -0.275 OA
ATOM      6  H   UNL A   1      33.530  28.123  21.614  1.00  0.00     0.163 HD
BRANCH   4   7
ATOM      7  C   UNL A   1      31.732  25.390  22.524  1.00  0.00     0.114 C 
ATOM      8  N   UNL A   1      34.000  22.110  23.795  1.00  0.00    -0.331 N 
ATOM      9  C   UNL A   1      32.559  21.982  23.644  1.00  0.00     0.264 C 
ATOM     10  C   UNL A   1      34.485  23.299  23.116  1.00  0.00     0.264 C 
ATOM     11  H   UNL A   1      34.379  21.300  23.306  1.00  0.00     0.348 HD
ATOM     12  C   UNL A   1      31.710  23.220  23.951  1.00  0.00     0.091 C 
ATOM     13  C   UNL A   1      33.885  24.577  23.671  1.00  0.00     0.091 C 
ATOM     14  C   UNL A   1      32.349  24.626  23.715  1.00  0.00     0.063 C 
ATOM     15  N   UNL A   1      31.854  25.438  24.819  1.00  0.00    -0.349 N 
ATOM     16  C   UNL A   1      30.689  26.115  24.533  1.00  0.00     0.221 C 
ATOM     17  H   UNL A   1      32.311  25.498  25.690  1.00  0.00     0.164 HD
ATOM     18  C   UNL A   1      30.450  26.041  23.051  1.00  0.00     0.116 C 
ATOM     19  O   UNL A   1      29.969  26.656  25.352  1.00  0.00    -0.275 OA
BRANCH   8  20
ATOM     20  C   UNL A   1      34.616  21.789  25.095  1.00  0.00     0.302 C 
BRANCH  20  21
ATOM     21  C   UNL A   1      36.106  21.901  25.216  1.00  0.00     0.043 A 
ATOM     22  C   UNL A   1      38.751  21.894  25.865  1.00  0.00     0.159 A 
ATOM     23  N   UNL A   1      38.248  20.818  25.227  1.00  0.00    -0.236 NA
ATOM     24  N   UNL A   1      38.052  23.020  26.103  1.00  0.00    -0.236 NA
ATOM     25  C   UNL A   1      36.949  20.868  24.881  1.00  0.00     0.124 A 
ATOM     26  C   UNL A   1      36.742  22.995  25.776  1.00  0.00     0.124 A 
BRANCH  22  27
ATOM     27  C   UNL A   1      40.079  21.744  26.483  1.00  0.00     0.019 A 
ATOM     28  C   UNL A   1      43.319  19.842  25.765  1.00  0.00     0.044 C 
ATOM     29  C   UNL A   1      42.333  20.752  26.436  1.00  0.00    -0.050 A 
ATOM     30  C   UNL A   1      42.619  21.363  27.655  1.00  0.00     0.003 A 
ATOM     31  C   UNL A   1      41.077  20.968  25.852  1.00  0.00     0.015 A 
ATOM     32  C   UNL A   1      41.653  22.134  28.300  1.00  0.00     0.001 A 
ATOM     33  C   UNL A   1      40.390  22.312  27.727  1.00  0.00     0.012 A 
ENDBRANCH  22  27
ENDBRANCH  20  21
ENDBRANCH   8  20
ENDBRANCH   4   7
ENDBRANCH   2   3
ENDBRANCH   1   2
BRANCH   1  34
ATOM     34  C   UNL A   1      32.229  29.535  25.555  1.00  0.00     0.023 C 
BRANCH  34  35
ATOM     35  C   UNL A   1      33.039  29.604  26.841  1.00  0.00     0.116 C 
BRANCH  35  36
ATOM     36  N   UNL A   1      33.418  30.948  27.262  1.00  0.00    -0.352 N 
ATOM     37  C   UNL A   1      34.490  31.294  28.078  1.00  0.00     0.251 C 
ATOM     38  H   UNL A   1      32.857  31.688  26.934  1.00  0.00     0.163 HD
ATOM     39  O   UNL A   1      34.619  32.393  28.577  1.00  0.00    -0.269 OA
BRANCH  37  40
ATOM     40  C   UNL A   1      35.543  30.263  28.227  1.00  0.00     0.039 A 
ATOM     41  C   UNL A   1      35.751  29.757  29.515  1.00  0.00     0.014 A 
ATOM     42  C   UNL A   1      36.504  30.124  27.230  1.00  0.00     0.014 A 
ATOM     43  C   UNL A   1      37.016  29.300  29.870  1.00  0.00     0.010 A 
ATOM     44  C   UNL A   1      37.780  29.759  27.609  1.00  0.00     0.010 A 
ATOM     45  C   UNL A   1      38.048  29.405  28.941  1.00  0.00    -0.014 A 
BRANCH  45  46
ATOM     46  C   UNL A   1      39.454  29.189  29.264  1.00  0.00     0.031 A 
ATOM     47  C   UNL A   1      40.053  27.866  28.952  1.00  0.00     0.074 A 
ATOM     48  C   UNL A   1      40.220  30.194  29.753  1.00  0.00     0.049 A 
ATOM     49  N   UNL A   1      41.167  27.427  29.432  1.00  0.00    -0.248 NA
ATOM     50  C   UNL A   1      39.386  26.889  28.091  1.00  0.00     0.031 C 
ATOM     51  C   UNL A   1      41.683  30.204  29.838  1.00  0.00     0.029 A 
ATOM     52  N   UNL A   1      39.866  31.360  30.438  1.00  0.00    -0.354 N 
ATOM     53  C   UNL A   1      41.511  26.295  28.724  1.00  0.00     0.074 A 
ATOM     54  C   UNL A   1      40.325  25.946  27.982  1.00  0.00     0.031 C 
ATOM     55  C   UNL A   1      42.052  31.080  30.785  1.00  0.00     0.029 A 
ATOM     56  C   UNL A   1      40.834  31.507  31.448  1.00  0.00     0.049 A 
ATOM     57  H   UNL A   1      39.101  31.951  30.254  1.00  0.00     0.167 HD
ATOM     58  C   UNL A   1      42.807  25.872  28.734  1.00  0.00     0.031 A 
ATOM     59  C   UNL A   1      40.601  31.369  32.791  1.00  0.00     0.031 A 
ATOM     60  C   UNL A   1      43.599  26.609  29.719  1.00  0.00     0.049 A 
ATOM     61  C   UNL A   1      41.498  30.334  33.458  1.00  0.00     0.074 A 
ATOM     62  C   UNL A   1      44.502  27.655  29.626  1.00  0.00     0.029 A 
ATOM     63  N   UNL A   1      43.274  26.487  31.066  1.00  0.00    -0.354 N 
ATOM     64  N   UNL A   1      42.148  29.410  32.803  1.00  0.00    -0.248 NA
ATOM     65  C   UNL A   1      41.720  30.231  34.902  1.00  0.00     0.031 C 
ATOM     66  C   UNL A   1      44.640  28.229  30.921  1.00  0.00     0.029 A 
ATOM     67  C   UNL A   1      43.853  27.504  31.800  1.00  0.00     0.049 A 
ATOM     68  H   UNL A   1      42.710  25.775  31.443  1.00  0.00     0.167 HD
ATOM     69  C   UNL A   1      42.860  28.625  33.671  1.00  0.00     0.074 A 
ATOM     70  C   UNL A   1      42.564  29.185  34.978  1.00  0.00     0.031 C 
ATOM     71  C   UNL A   1      43.627  27.581  33.239  1.00  0.00     0.031 A 
BRANCH  58  72
ATOM     72  C   UNL A   1      43.411  24.994  27.655  1.00  0.00    -0.014 A 
ATOM     73  C   UNL A   1      44.650  24.360  27.885  1.00  0.00     0.010 A 
ATOM     74  C   UNL A   1      42.866  24.820  26.369  1.00  0.00     0.010 A 
ATOM     75  C   UNL A   1      45.344  23.680  26.868  1.00  0.00     0.020 A 
ATOM     76  C   UNL A   1      43.556  24.169  25.335  1.00  0.00     0.020 A 
ATOM     77  C   UNL A   1      44.801  23.613  25.588  1.00  0.00     0.054 A 
BRANCH  77  78
ATOM     78  S   UNL A   1      45.731  22.805  24.261  1.00  0.00     0.124 S 
ATOM     79  O   UNL A   1      44.675  22.416  23.328  1.00  0.00    -0.237 OA
ATOM     80  O   UNL A   1      46.617  23.871  23.803  1.00  0.00    -0.237 OA
ATOM     81  O   UNL A   1      46.398  21.690  24.931  1.00  0.00    -0.744 OA
ENDBRANCH  77  78
ENDBRANCH  58  72
BRANCH  59  82
ATOM     82  C   UNL A   1      39.212  31.700  33.214  1.00  0.00    -0.014 A 
ATOM     83  C   UNL A   1      38.929  33.057  33.479  1.00  0.00     0.010 A 
ATOM     84  C   UNL A   1      38.144  30.821  32.965  1.00  0.00     0.010 A 
ATOM     85  C   UNL A   1      37.641  33.558  33.294  1.00  0.00     0.020 A 
ATOM     86  C   UNL A   1      36.838  31.322  32.819  1.00  0.00     0.020 A 
ATOM     87  C   UNL A   1      36.612  32.697  32.922  1.00  0.00     0.054 A 
BRANCH  87  88
ATOM     88  S   UNL A   1      35.046  33.439  32.372  1.00  0.00     0.124 S 
ATOM     89  O   UNL A   1      34.296  32.277  31.905  1.00  0.00    -0.237 OA
ATOM     90  O   UNL A   1      34.562  34.058  33.605  1.00  0.00    -0.237 OA
ATOM     91  O   UNL A   1      35.463  34.373  31.331  1.00  0.00    -0.744 OA
ENDBRANCH  87  88
ENDBRANCH  59  82
BRANCH  71  92
ATOM     92  C   UNL A   1      44.295  26.536  34.106  1.00  0.00    -0.014 A 
ATOM     93  C   UNL A   1      43.662  25.857  35.158  1.00  0.00     0.010 A 
ATOM     94  C   UNL A   1      45.596  26.095  33.752  1.00  0.00     0.010 A 
ATOM     95  C   UNL A   1      44.309  24.818  35.847  1.00  0.00     0.020 A 
ATOM     96  C   UNL A   1      46.231  25.034  34.401  1.00  0.00     0.020 A 
ATOM     97  C   UNL A   1      45.588  24.411  35.463  1.00  0.00     0.054 A 
BRANCH  97  98
ATOM     98  S   UNL A   1      46.373  23.007  36.292  1.00  0.00     0.124 S 
ATOM     99  O   UNL A   1      45.480  21.907  35.933  1.00  0.00    -0.237 OA
ATOM    100  O   UNL A   1      47.699  22.960  35.678  1.00  0.00    -0.237 OA
ATOM    101  O   UNL A   1      46.362  23.391  37.701  1.00  0.00    -0.744 OA
ENDBRANCH  97  98
ENDBRANCH  71  92
ENDBRANCH  45  46
ENDBRANCH  37  40
ENDBRANCH  35  36
ENDBRANCH  34  35
ENDBRANCH   1  34
TORSDOF 17
ENDMDL
MODEL 2
REMARK VINA RESULT:     -12.8      3.412     10.682
REMARK SMILES Cc1cccc(-c2ncc(C[NH+]3CCC4(CC3)NC(=O)C[C@H]4C(=O)NCCCCNC(=O)c3ccc(-c4c5nc(c(-c6ccc(S(=O)(=O)[O-])cc6)c6ccc([nH]6)c(-c6ccc(S(=O)(=O)[O-])cc6)c6nc(c(-c7ccc(S(=O)(=O)[O-])cc7)c7ccc4[nH]7)C=C6)C=C5)cc3)cn2)c1
REMARK SMILES IDX 27 1 26 2 25 3 23 4 24 5 22 7 12 8 13 9 17 10 14 12 16 13
REMARK SMILES IDX 15 14 18 15 19 16 21 18 20 19 11 20 10 21 7 22 8 23 94 24
REMARK SMILES IDX 9 25 93 26 6 27 1 28 2 29 3 30 95 31 4 32 5 33 28 34 29 35
REMARK SMILES IDX 30 36 31 37 32 39 33 40 34 41 92 42 35 43 91 44 36 45 37 46
REMARK SMILES IDX 38 47 85 48 39 49 90 50 84 51 86 52 40 53 89 54 83 55 82 56
REMARK SMILES IDX 41 58 71 59 52 60 70 61 53 62 56 63 69 64 87 65 54 66 55 67
REMARK SMILES IDX 68 69 88 70 57 71 42 72 43 73 51 74 44 75 50 76 45 77 46 78
REMARK SMILES IDX 47 79 48 80 49 81 72 82 73 83 81 84 74 85 80 86 75 87 76 88
REMARK SMILES IDX 77 89 78 90 79 91 58 92 59 93 67 94 60 95 66 96 61 97 62 98
REMARK SMILES IDX 63 99 64 100 65 101
REMARK H PARENT 25 6 12 11 18 17 30 38 86 57 56 68
REMARK Flexibility Score: inf
ROOT
ATOM      1  C   UNL A   1      35.142  22.682  25.706  1.00  0.00     0.023 C 
ENDROOT
BRANCH   1   2
ATOM      2  C   UNL A   1      33.836  21.872  25.576  1.00  0.00     0.116 C 
BRANCH   2   3
ATOM      3  N   UNL A   1      32.688  22.346  26.359  1.00  0.00    -0.356 N 
ATOM      4  C   UNL A   1      31.503  22.951  26.087  1.00  0.00     0.226 C 
ATOM      5  O   UNL A   1      30.742  23.122  27.050  1.00  0.00    -0.275 OA
ATOM      6  H   UNL A   1      32.809  22.187  27.322  1.00  0.00     0.163 HD
BRANCH   4   7
ATOM      7  C   UNL A   1      31.057  23.496  24.724  1.00  0.00     0.114 C 
ATOM      8  N   UNL A   1      30.625  27.654  24.935  1.00  0.00    -0.331 N 
ATOM      9  C   UNL A   1      29.949  26.906  23.887  1.00  0.00     0.264 C 
ATOM     10  C   UNL A   1      31.074  26.767  25.993  1.00  0.00     0.264 C 
ATOM     11  H   UNL A   1      29.900  28.256  25.324  1.00  0.00     0.348 HD
ATOM     12  C   UNL A   1      30.660  25.661  23.345  1.00  0.00     0.091 C 
ATOM     13  C   UNL A   1      32.068  25.729  25.505  1.00  0.00     0.091 C 
ATOM     14  C   UNL A   1      31.607  24.878  24.309  1.00  0.00     0.063 C 
ATOM     15  N   UNL A   1      32.721  24.464  23.466  1.00  0.00    -0.349 N 
ATOM     16  C   UNL A   1      32.556  23.218  22.901  1.00  0.00     0.221 C 
ATOM     17  H   UNL A   1      33.517  25.022  23.313  1.00  0.00     0.164 HD
ATOM     18  C   UNL A   1      31.401  22.538  23.581  1.00  0.00     0.116 C 
ATOM     19  O   UNL A   1      33.223  22.764  21.989  1.00  0.00    -0.275 OA
BRANCH   8  20
ATOM     20  C   UNL A   1      31.531  28.754  24.559  1.00  0.00     0.302 C 
BRANCH  20  21
ATOM     21  C   UNL A   1      32.139  29.573  25.658  1.00  0.00     0.043 A 
ATOM     22  C   UNL A   1      33.418  31.333  27.297  1.00  0.00     0.159 A 
ATOM     23  N   UNL A   1      32.149  31.608  26.932  1.00  0.00    -0.236 NA
ATOM     24  N   UNL A   1      34.056  30.187  26.992  1.00  0.00    -0.236 NA
ATOM     25  C   UNL A   1      31.528  30.699  26.157  1.00  0.00     0.124 A 
ATOM     26  C   UNL A   1      33.401  29.334  26.174  1.00  0.00     0.124 A 
BRANCH  22  27
ATOM     27  C   UNL A   1      34.189  32.428  27.907  1.00  0.00     0.019 A 
ATOM     28  C   UNL A   1      33.506  35.944  29.251  1.00  0.00     0.044 C 
ATOM     29  C   UNL A   1      34.241  34.689  28.884  1.00  0.00    -0.050 A 
ATOM     30  C   UNL A   1      35.625  34.590  29.021  1.00  0.00     0.003 A 
ATOM     31  C   UNL A   1      33.537  33.601  28.352  1.00  0.00     0.015 A 
ATOM     32  C   UNL A   1      36.295  33.445  28.590  1.00  0.00     0.001 A 
ATOM     33  C   UNL A   1      35.585  32.379  28.026  1.00  0.00     0.012 A 
ENDBRANCH  22  27
ENDBRANCH  20  21
ENDBRANCH   8  20
ENDBRANCH   4   7
ENDBRANCH   2   3
ENDBRANCH   1   2
BRANCH   1  34
ATOM     34  C   UNL A   1      36.440  21.872  25.792  1.00  0.00     0.023 C 
BRANCH  34  35
ATOM     35  C   UNL A   1      37.683  22.744  25.681  1.00  0.00     0.116 C 
BRANCH  35  36
ATOM     36  N   UNL A   1      38.890  22.178  26.271  1.00  0.00    -0.352 N 
ATOM     37  C   UNL A   1      39.980  22.881  26.772  1.00  0.00     0.251 C 
ATOM     38  H   UNL A   1      38.938  21.196  26.321  1.00  0.00     0.163 HD
ATOM     39  O   UNL A   1      41.044  22.360  27.036  1.00  0.00    -0.269 OA
BRANCH  37  40
ATOM     40  C   UNL A   1      39.741  24.313  27.069  1.00  0.00     0.039 A 
ATOM     41  C   UNL A   1      40.367  25.243  26.233  1.00  0.00     0.014 A 
ATOM     42  C   UNL A   1      39.261  24.673  28.324  1.00  0.00     0.014 A 
ATOM     43  C   UNL A   1      40.710  26.492  26.742  1.00  0.00     0.010 A 
ATOM     44  C   UNL A   1      39.683  25.875  28.856  1.00  0.00     0.010 A 
ATOM     45  C   UNL A   1      40.458  26.757  28.085  1.00  0.00    -0.014 A 
BRANCH  45  46
ATOM     46  C   UNL A   1      40.979  27.920  28.793  1.00  0.00     0.031 A 
ATOM     47  C   UNL A   1      40.069  29.072  29.022  1.00  0.00     0.074 A 
ATOM     48  C   UNL A   1      42.232  27.920  29.309  1.00  0.00     0.049 A 
ATOM     49  N   UNL A   1      40.448  30.258  29.358  1.00  0.00    -0.248 NA
ATOM     50  C   UNL A   1      38.622  28.976  28.826  1.00  0.00     0.031 C 
ATOM     51  C   UNL A   1      42.769  28.878  30.279  1.00  0.00     0.029 A 
ATOM     52  N   UNL A   1      43.361  27.171  28.963  1.00  0.00    -0.354 N 
ATOM     53  C   UNL A   1      39.325  30.969  29.722  1.00  0.00     0.074 A 
ATOM     54  C   UNL A   1      38.214  30.166  29.273  1.00  0.00     0.031 C 
ATOM     55  C   UNL A   1      44.108  28.884  30.181  1.00  0.00     0.029 A 
ATOM     56  C   UNL A   1      44.439  28.072  29.025  1.00  0.00     0.049 A 
ATOM     57  H   UNL A   1      43.393  26.217  28.724  1.00  0.00     0.167 HD
ATOM     58  C   UNL A   1      39.464  32.083  30.496  1.00  0.00     0.031 A 
ATOM     59  C   UNL A   1      45.154  28.524  27.948  1.00  0.00     0.031 A 
ATOM     60  C   UNL A   1      40.869  32.467  30.627  1.00  0.00     0.049 A 
ATOM     61  C   UNL A   1      45.180  30.043  27.833  1.00  0.00     0.074 A 
ATOM     62  C   UNL A   1      41.811  32.305  31.629  1.00  0.00     0.029 A 
ATOM     63  N   UNL A   1      41.567  32.851  29.488  1.00  0.00    -0.354 N 
ATOM     64  N   UNL A   1      44.332  30.829  28.439  1.00  0.00    -0.248 NA
ATOM     65  C   UNL A   1      46.133  30.800  27.018  1.00  0.00     0.031 C 
ATOM     66  C   UNL A   1      43.098  32.498  31.054  1.00  0.00     0.029 A 
ATOM     67  C   UNL A   1      42.929  32.816  29.716  1.00  0.00     0.049 A 
ATOM     68  H   UNL A   1      41.149  33.112  28.636  1.00  0.00     0.167 HD
ATOM     69  C   UNL A   1      44.602  32.139  28.138  1.00  0.00     0.074 A 
ATOM     70  C   UNL A   1      45.746  32.069  27.247  1.00  0.00     0.031 C 
ATOM     71  C   UNL A   1      43.855  33.165  28.645  1.00  0.00     0.031 A 
BRANCH  58  72
ATOM     72  C   UNL A   1      38.352  32.649  31.359  1.00  0.00    -0.014 A 
ATOM     73  C   UNL A   1      37.301  31.808  31.781  1.00  0.00     0.010 A 
ATOM     74  C   UNL A   1      38.228  34.005  31.714  1.00  0.00     0.010 A 
ATOM     75  C   UNL A   1      36.158  32.306  32.430  1.00  0.00     0.020 A 
ATOM     76  C   UNL A   1      37.082  34.524  32.336  1.00  0.00     0.020 A 
ATOM     77  C   UNL A   1      36.044  33.671  32.680  1.00  0.00     0.054 A 
BRANCH  77  78
ATOM     78  S   UNL A   1      34.537  34.321  33.444  1.00  0.00     0.124 S 
ATOM     79  O   UNL A   1      34.958  34.548  34.825  1.00  0.00    -0.237 OA
ATOM     80  O   UNL A   1      34.278  35.523  32.657  1.00  0.00    -0.237 OA
ATOM     81  O   UNL A   1      33.564  33.244  33.269  1.00  0.00    -0.744 OA
ENDBRANCH  77  78
ENDBRANCH  58  72
BRANCH  59  82
ATOM     82  C   UNL A   1      45.208  27.576  26.800  1.00  0.00    -0.014 A 
ATOM     83  C   UNL A   1      46.213  26.587  26.832  1.00  0.00     0.010 A 
ATOM     84  C   UNL A   1      44.099  27.388  25.956  1.00  0.00     0.010 A 
ATOM     85  C   UNL A   1      46.016  25.359  26.202  1.00  0.00     0.020 A 
ATOM     86  C   UNL A   1      43.922  26.164  25.288  1.00  0.00     0.020 A 
ATOM     87  C   UNL A   1      44.851  25.138  25.470  1.00  0.00     0.054 A 
BRANCH  87  88
ATOM     88  S   UNL A   1      44.488  23.432  24.955  1.00  0.00     0.124 S 
ATOM     89  O   UNL A   1      43.060  23.492  24.663  1.00  0.00    -0.237 OA
ATOM     90  O   UNL A   1      45.371  23.278  23.799  1.00  0.00    -0.237 OA
ATOM     91  O   UNL A   1      44.855  22.642  26.126  1.00  0.00    -0.744 OA
ENDBRANCH  87  88
ENDBRANCH  59  82
BRANCH  71  92
ATOM     92  C   UNL A   1      43.933  34.619  28.237  1.00  0.00    -0.014 A 
ATOM     93  C   UNL A   1      43.764  35.085  26.925  1.00  0.00     0.010 A 
ATOM     94  C   UNL A   1      44.033  35.602  29.255  1.00  0.00     0.010 A 
ATOM     95  C   UNL A   1      43.736  36.459  26.637  1.00  0.00     0.020 A 
ATOM     96  C   UNL A   1      43.962  36.971  28.986  1.00  0.00     0.020 A 
ATOM     97  C   UNL A   1      43.832  37.393  27.669  1.00  0.00     0.054 A 
BRANCH  97  98
ATOM     98  S   UNL A   1      43.696  39.161  27.301  1.00  0.00     0.124 S 
ATOM     99  O   UNL A   1      44.787  39.355  26.349  1.00  0.00    -0.237 OA
ATOM    100  O   UNL A   1      42.351  39.278  26.741  1.00  0.00    -0.237 OA
ATOM    101  O   UNL A   1      43.877  39.797  28.603  1.00  0.00    -0.744 OA
ENDBRANCH  97  98
ENDBRANCH  71  92
ENDBRANCH  45  46
ENDBRANCH  37  40
ENDBRANCH  35  36
ENDBRANCH  34  35
ENDBRANCH   1  34
TORSDOF 17
ENDMDL
MODEL 3
REMARK VINA RESULT:     -12.3      2.063      3.726
REMARK SMILES Cc1cccc(-c2ncc(C[NH+]3CCC4(CC3)NC(=O)C[C@H]4C(=O)NCCCCNC(=O)c3ccc(-c4c5nc(c(-c6ccc(S(=O)(=O)[O-])cc6)c6ccc([nH]6)c(-c6ccc(S(=O)(=O)[O-])cc6)c6nc(c(-c7ccc(S(=O)(=O)[O-])cc7)c7ccc4[nH]7)C=C6)C=C5)cc3)cn2)c1
REMARK SMILES IDX 27 1 26 2 25 3 23 4 24 5 22 7 12 8 13 9 17 10 14 12 16 13
REMARK SMILES IDX 15 14 18 15 19 16 21 18 20 19 11 20 10 21 7 22 8 23 94 24
REMARK SMILES IDX 9 25 93 26 6 27 1 28 2 29 3 30 95 31 4 32 5 33 28 34 29 35
REMARK SMILES IDX 30 36 31 37 32 39 33 40 34 41 92 42 35 43 91 44 36 45 37 46
REMARK SMILES IDX 38 47 85 48 39 49 90 50 84 51 86 52 40 53 89 54 83 55 82 56
REMARK SMILES IDX 41 58 71 59 52 60 70 61 53 62 56 63 69 64 87 65 54 66 55 67
REMARK SMILES IDX 68 69 88 70 57 71 42 72 43 73 51 74 44 75 50 76 45 77 46 78
REMARK SMILES IDX 47 79 48 80 49 81 72 82 73 83 81 84 74 85 80 86 75 87 76 88
REMARK SMILES IDX 77 89 78 90 79 91 58 92 59 93 67 94 60 95 66 96 61 97 62 98
REMARK SMILES IDX 63 99 64 100 65 101
REMARK H PARENT 25 6 12 11 18 17 30 38 86 57 56 68
REMARK Flexibility Score: inf
ROOT
ATOM      1  C   UNL A   1      32.814  31.228  26.432  1.00  0.00     0.023 C 
ENDROOT
BRANCH   1   2
ATOM      2  C   UNL A   1      31.767  30.132  26.145  1.00  0.00     0.116 C 
BRANCH   2   3
ATOM      3  N   UNL A   1      31.386  29.939  24.741  1.00  0.00    -0.356 N 
ATOM      4  C   UNL A   1      31.708  29.067  23.751  1.00  0.00     0.226 C 
ATOM      5  O   UNL A   1      31.086  29.192  22.687  1.00  0.00    -0.275 OA
ATOM      6  H   UNL A   1      30.733  30.613  24.441  1.00  0.00     0.163 HD
BRANCH   4   7
ATOM      7  C   UNL A   1      32.808  27.999  23.810  1.00  0.00     0.114 C 
ATOM      8  N   UNL A   1      31.890  25.181  26.766  1.00  0.00    -0.331 N 
ATOM      9  C   UNL A   1      33.262  25.331  26.307  1.00  0.00     0.264 C 
ATOM     10  C   UNL A   1      31.085  26.322  26.364  1.00  0.00     0.264 C 
ATOM     11  H   UNL A   1      31.961  25.197  27.783  1.00  0.00     0.348 HD
ATOM     12  C   UNL A   1      33.470  25.706  24.836  1.00  0.00     0.091 C 
ATOM     13  C   UNL A   1      31.012  26.485  24.857  1.00  0.00     0.091 C 
ATOM     14  C   UNL A   1      32.365  26.555  24.130  1.00  0.00     0.063 C 
ATOM     15  N   UNL A   1      32.295  26.008  22.781  1.00  0.00    -0.349 N 
ATOM     16  C   UNL A   1      33.114  26.649  21.878  1.00  0.00     0.221 C 
ATOM     17  H   UNL A   1      31.714  25.250  22.537  1.00  0.00     0.164 HD
ATOM     18  C   UNL A   1      33.606  27.923  22.506  1.00  0.00     0.116 C 
ATOM     19  O   UNL A   1      33.404  26.234  20.771  1.00  0.00    -0.275 OA
BRANCH   8  20
ATOM     20  C   UNL A   1      31.250  23.856  26.692  1.00  0.00     0.302 C 
BRANCH  20  21
ATOM     21  C   UNL A   1      31.988  22.756  25.989  1.00  0.00     0.043 A 
ATOM     22  C   UNL A   1      32.946  20.486  24.827  1.00  0.00     0.159 A 
ATOM     23  N   UNL A   1      32.180  21.310  24.083  1.00  0.00    -0.236 NA
ATOM     24  N   UNL A   1      33.359  20.771  26.077  1.00  0.00    -0.236 NA
ATOM     25  C   UNL A   1      31.757  22.444  24.670  1.00  0.00     0.124 A 
ATOM     26  C   UNL A   1      32.865  21.899  26.631  1.00  0.00     0.124 A 
BRANCH  22  27
ATOM     27  C   UNL A   1      33.184  19.134  24.296  1.00  0.00     0.019 A 
ATOM     28  C   UNL A   1      35.270  16.068  25.234  1.00  0.00     0.044 C 
ATOM     29  C   UNL A   1      34.310  16.952  24.495  1.00  0.00    -0.050 A 
ATOM     30  C   UNL A   1      33.734  16.553  23.291  1.00  0.00     0.003 A 
ATOM     31  C   UNL A   1      34.011  18.227  24.995  1.00  0.00     0.015 A 
ATOM     32  C   UNL A   1      32.914  17.429  22.578  1.00  0.00     0.001 A 
ATOM     33  C   UNL A   1      32.652  18.712  23.069  1.00  0.00     0.012 A 
ENDBRANCH  22  27
ENDBRANCH  20  21
ENDBRANCH   8  20
ENDBRANCH   4   7
ENDBRANCH   2   3
ENDBRANCH   1   2
BRANCH   1  34
ATOM     34  C   UNL A   1      33.845  30.918  27.523  1.00  0.00     0.023 C 
BRANCH  34  35
ATOM     35  C   UNL A   1      34.697  32.126  27.883  1.00  0.00     0.116 C 
BRANCH  35  36
ATOM     36  N   UNL A   1      34.780  32.420  29.309  1.00  0.00    -0.352 N 
ATOM     37  C   UNL A   1      35.565  31.762  30.250  1.00  0.00     0.251 C 
ATOM     38  H   UNL A   1      34.224  33.162  29.640  1.00  0.00     0.163 HD
ATOM     39  O   UNL A   1      35.421  31.898  31.448  1.00  0.00    -0.269 OA
BRANCH  37  40
ATOM     40  C   UNL A   1      36.676  30.948  29.706  1.00  0.00     0.039 A 
ATOM     41  C   UNL A   1      36.700  29.595  30.063  1.00  0.00     0.014 A 
ATOM     42  C   UNL A   1      37.810  31.588  29.217  1.00  0.00     0.014 A 
ATOM     43  C   UNL A   1      37.920  28.933  30.136  1.00  0.00     0.010 A 
ATOM     44  C   UNL A   1      39.028  30.959  29.379  1.00  0.00     0.010 A 
ATOM     45  C   UNL A   1      39.087  29.654  29.895  1.00  0.00    -0.014 A 
BRANCH  45  46
ATOM     46  C   UNL A   1      40.425  29.147  30.171  1.00  0.00     0.031 A 
ATOM     47  C   UNL A   1      40.817  27.838  29.585  1.00  0.00     0.074 A 
ATOM     48  C   UNL A   1      41.322  29.885  30.868  1.00  0.00     0.049 A 
ATOM     49  N   UNL A   1      41.826  27.131  29.965  1.00  0.00    -0.248 NA
ATOM     50  C   UNL A   1      40.038  27.188  28.531  1.00  0.00     0.031 C 
ATOM     51  C   UNL A   1      42.763  29.635  30.961  1.00  0.00     0.029 A 
ATOM     52  N   UNL A   1      41.132  30.922  31.786  1.00  0.00    -0.354 N 
ATOM     53  C   UNL A   1      42.013  26.133  29.033  1.00  0.00     0.074 A 
ATOM     54  C   UNL A   1      40.817  26.148  28.227  1.00  0.00     0.031 C 
ATOM     55  C   UNL A   1      43.229  30.219  32.076  1.00  0.00     0.029 A 
ATOM     56  C   UNL A   1      42.069  30.691  32.809  1.00  0.00     0.049 A 
ATOM     57  H   UNL A   1      40.480  31.657  31.729  1.00  0.00     0.167 HD
ATOM     58  C   UNL A   1      43.223  25.509  28.958  1.00  0.00     0.031 A 
ATOM     59  C   UNL A   1      41.763  30.314  34.089  1.00  0.00     0.031 A 
ATOM     60  C   UNL A   1      44.082  25.880  30.083  1.00  0.00     0.049 A 
ATOM     61  C   UNL A   1      42.456  29.028  34.523  1.00  0.00     0.074 A 
ATOM     62  C   UNL A   1      45.144  26.759  30.221  1.00  0.00     0.029 A 
ATOM     63  N   UNL A   1      43.688  25.532  31.370  1.00  0.00    -0.354 N 
ATOM     64  N   UNL A   1      42.975  28.168  33.688  1.00  0.00    -0.248 NA
ATOM     65  C   UNL A   1      42.600  28.588  35.912  1.00  0.00     0.031 C 
ATOM     66  C   UNL A   1      45.320  27.016  31.609  1.00  0.00     0.029 A 
ATOM     67  C   UNL A   1      44.392  26.262  32.308  1.00  0.00     0.049 A 
ATOM     68  H   UNL A   1      43.003  24.860  31.583  1.00  0.00     0.167 HD
ATOM     69  C   UNL A   1      43.517  27.112  34.372  1.00  0.00     0.074 A 
ATOM     70  C   UNL A   1      43.262  27.424  35.767  1.00  0.00     0.031 C 
ATOM     71  C   UNL A   1      44.124  26.070  33.729  1.00  0.00     0.031 A 
BRANCH  58  72
ATOM     72  C   UNL A   1      43.721  24.790  27.719  1.00  0.00    -0.014 A 
ATOM     73  C   UNL A   1      43.585  23.389  27.624  1.00  0.00     0.010 A 
ATOM     74  C   UNL A   1      44.409  25.410  26.658  1.00  0.00     0.010 A 
ATOM     75  C   UNL A   1      44.179  22.648  26.588  1.00  0.00     0.020 A 
ATOM     76  C   UNL A   1      45.032  24.684  25.633  1.00  0.00     0.020 A 
ATOM     77  C   UNL A   1      44.925  23.301  25.610  1.00  0.00     0.054 A 
BRANCH  77  78
ATOM     78  S   UNL A   1      45.755  22.338  24.321  1.00  0.00     0.124 S 
ATOM     79  O   UNL A   1      44.645  21.953  23.452  1.00  0.00    -0.237 OA
ATOM     80  O   UNL A   1      46.691  23.306  23.758  1.00  0.00    -0.237 OA
ATOM     81  O   UNL A   1      46.372  21.233  25.054  1.00  0.00    -0.744 OA
ENDBRANCH  77  78
ENDBRANCH  58  72
BRANCH  59  82
ATOM     82  C   UNL A   1      40.430  30.773  34.567  1.00  0.00    -0.014 A 
ATOM     83  C   UNL A   1      40.413  31.827  35.504  1.00  0.00     0.010 A 
ATOM     84  C   UNL A   1      39.259  30.491  33.842  1.00  0.00     0.010 A 
ATOM     85  C   UNL A   1      39.328  32.701  35.563  1.00  0.00     0.020 A 
ATOM     86  C   UNL A   1      38.149  31.350  33.934  1.00  0.00     0.020 A 
ATOM     87  C   UNL A   1      38.221  32.484  34.746  1.00  0.00     0.054 A 
BRANCH  87  88
ATOM     88  S   UNL A   1      36.993  33.818  34.615  1.00  0.00     0.124 S 
ATOM     89  O   UNL A   1      35.886  33.304  35.415  1.00  0.00    -0.237 OA
ATOM     90  O   UNL A   1      37.722  34.950  35.186  1.00  0.00    -0.237 OA
ATOM     91  O   UNL A   1      36.740  33.904  33.180  1.00  0.00    -0.744 OA
ENDBRANCH  87  88
ENDBRANCH  59  82
BRANCH  71  92
ATOM     92  C   UNL A   1      44.580  24.771  34.355  1.00  0.00    -0.014 A 
ATOM     93  C   UNL A   1      43.737  23.683  34.627  1.00  0.00     0.010 A 
ATOM     94  C   UNL A   1      45.971  24.565  34.547  1.00  0.00     0.010 A 
ATOM     95  C   UNL A   1      44.250  22.466  35.105  1.00  0.00     0.020 A 
ATOM     96  C   UNL A   1      46.496  23.345  34.979  1.00  0.00     0.020 A 
ATOM     97  C   UNL A   1      45.626  22.304  35.275  1.00  0.00     0.054 A 
BRANCH  97  98
ATOM     98  S   UNL A   1      46.287  20.700  35.796  1.00  0.00     0.124 S 
ATOM     99  O   UNL A   1      45.760  20.584  37.154  1.00  0.00    -0.237 OA
ATOM    100  O   UNL A   1      45.712  19.775  34.821  1.00  0.00    -0.237 OA
ATOM    101  O   UNL A   1      47.733  20.877  35.697  1.00  0.00    -0.744 OA
ENDBRANCH  97  98
ENDBRANCH  71  92
ENDBRANCH  45  46
ENDBRANCH  37  40
ENDBRANCH  35  36
ENDBRANCH  34  35
ENDBRANCH   1  34
TORSDOF 17
ENDMDL
