MODEL 1
REMARK VINA RESULT:     -11.5      0.000      0.000
REMARK SMILES Nc1nccc(N2CCC[C@@](Cc3ccc(F)cc3F)(C(=O)NCCCCNC(=O)c3ccc(-c4c5nc(c(-c6ccc(S(=O)(=O)[O-])cc6)c6ccc([nH]6)c(-c6ccc(S(=O)(=O)[O-])cc6)c6nc(c(-c7ccc(S(=O)(=O)[O-])cc7)c7ccc4[nH]7)C=C6)C=C5)cc3)C2)n1
REMARK SMILES IDX 26 1 25 2 24 3 23 4 21 5 22 6 11 8 7 9 8 10 91 11 9 12 10 13
REMARK SMILES IDX 6 14 2 15 3 16 92 17 4 18 5 19 1 20 12 23 13 24 14 25 19 26
REMARK SMILES IDX 15 27 18 28 20 29 16 30 17 31 27 32 28 33 29 34 30 36 31 37
REMARK SMILES IDX 32 38 90 39 33 40 89 41 34 42 35 43 36 44 83 45 37 46 88 47
REMARK SMILES IDX 82 48 84 49 38 50 87 51 81 52 80 53 39 55 69 56 50 57 68 58
REMARK SMILES IDX 51 59 54 60 67 61 85 62 52 63 53 64 66 66 86 67 55 68 40 69
REMARK SMILES IDX 41 70 49 71 42 72 48 73 43 74 44 75 45 76 46 77 47 78 70 79
REMARK SMILES IDX 71 80 79 81 72 82 78 83 73 84 74 85 75 86 76 87 77 88 56 89
REMARK SMILES IDX 57 90 65 91 58 92 64 93 59 94 60 95 61 96 62 97 63 98
REMARK H PARENT 23 7 1 21 1 22 28 35 84 54 54 65
REMARK Flexibility Score: inf
ROOT
ATOM      1  C   UNL A   1      35.965  22.520  25.427  1.00  0.00     0.023 C 
ENDROOT
BRANCH   1   2
ATOM      2  C   UNL A   1      34.849  22.943  24.471  1.00  0.00     0.023 C 
BRANCH   2   3
ATOM      3  C   UNL A   1      34.643  24.447  24.355  1.00  0.00     0.116 C 
BRANCH   3   4
ATOM      4  N   UNL A   1      34.258  24.889  23.031  1.00  0.00    -0.356 N 
ATOM      5  C   UNL A   1      33.496  25.934  22.600  1.00  0.00     0.228 C 
ATOM      6  O   UNL A   1      33.566  26.170  21.388  1.00  0.00    -0.274 OA
ATOM      7  H   UNL A   1      34.614  24.328  22.304  1.00  0.00     0.163 HD
BRANCH   5   8
ATOM      8  C   UNL A   1      32.606  26.799  23.524  1.00  0.00     0.071 C 
ATOM      9  N   UNL A   1      30.284  27.618  23.662  1.00  0.00    -0.355 N 
ATOM     10  C   UNL A   1      29.893  26.892  24.855  1.00  0.00     0.118 C 
ATOM     11  C   UNL A   1      31.224  26.933  22.774  1.00  0.00     0.135 C 
ATOM     12  C   UNL A   1      31.146  26.663  25.686  1.00  0.00     0.023 C 
ATOM     13  C   UNL A   1      32.300  26.072  24.867  1.00  0.00     0.021 C 
BRANCH   9  14
ATOM     14  C   UNL A   1      29.384  28.524  23.136  1.00  0.00     0.134 A 
ATOM     15  C   UNL A   1      28.898  30.522  22.136  1.00  0.00     0.221 A 
ATOM     16  N   UNL A   1      27.577  30.311  22.147  1.00  0.00    -0.222 NA
ATOM     17  N   UNL A   1      29.818  29.686  22.627  1.00  0.00    -0.196 NA
ATOM     18  C   UNL A   1      27.172  29.152  22.685  1.00  0.00     0.119 A 
ATOM     19  C   UNL A   1      28.039  28.212  23.178  1.00  0.00     0.067 A 
BRANCH  15  20
ATOM     20  N   UNL A   1      29.335  31.683  21.569  1.00  0.00    -0.368 N 
ATOM     21  H   UNL A   1      30.096  32.168  21.963  1.00  0.00     0.159 HD
ATOM     22  H   UNL A   1      28.889  32.039  20.767  1.00  0.00     0.159 HD
ENDBRANCH  15  20
ENDBRANCH   9  14
BRANCH   8  23
ATOM     23  C   UNL A   1      33.143  28.263  23.644  1.00  0.00     0.057 C 
BRANCH  23  24
ATOM     24  C   UNL A   1      33.518  28.847  24.981  1.00  0.00    -0.011 A 
ATOM     25  C   UNL A   1      34.692  28.434  25.634  1.00  0.00     0.010 A 
ATOM     26  C   UNL A   1      32.730  29.835  25.587  1.00  0.00     0.129 A 
ATOM     27  C   UNL A   1      35.033  28.972  26.877  1.00  0.00     0.040 A 
ATOM     28  C   UNL A   1      33.060  30.370  26.826  1.00  0.00     0.078 A 
ATOM     29  F   UNL A   1      31.618  30.269  24.979  1.00  0.00    -0.207 F 
ATOM     30  C   UNL A   1      34.210  29.928  27.462  1.00  0.00     0.126 A 
ATOM     31  F   UNL A   1      34.532  30.429  28.660  1.00  0.00    -0.207 F 
ENDBRANCH  23  24
ENDBRANCH   8  23
ENDBRANCH   5   8
ENDBRANCH   3   4
ENDBRANCH   2   3
ENDBRANCH   1   2
BRANCH   1  32
ATOM     32  C   UNL A   1      37.243  23.357  25.381  1.00  0.00     0.116 C 
BRANCH  32  33
ATOM     33  N   UNL A   1      38.471  22.581  25.509  1.00  0.00    -0.352 N 
ATOM     34  C   UNL A   1      39.646  22.962  26.117  1.00  0.00     0.251 C 
ATOM     35  H   UNL A   1      38.459  21.678  25.115  1.00  0.00     0.163 HD
ATOM     36  O   UNL A   1      40.633  22.234  26.103  1.00  0.00    -0.269 OA
BRANCH  34  37
ATOM     37  C   UNL A   1      39.705  24.297  26.743  1.00  0.00     0.039 A 
ATOM     38  C   UNL A   1      39.107  24.486  27.991  1.00  0.00     0.014 A 
ATOM     39  C   UNL A   1      40.463  25.310  26.148  1.00  0.00     0.014 A 
ATOM     40  C   UNL A   1      39.353  25.666  28.696  1.00  0.00     0.010 A 
ATOM     41  C   UNL A   1      40.746  26.461  26.875  1.00  0.00     0.010 A 
ATOM     42  C   UNL A   1      40.216  26.636  28.166  1.00  0.00    -0.014 A 
BRANCH  42  43
ATOM     43  C   UNL A   1      40.630  27.829  28.948  1.00  0.00     0.031 A 
ATOM     44  C   UNL A   1      41.894  27.787  29.757  1.00  0.00     0.074 A 
ATOM     45  C   UNL A   1      39.805  28.892  29.030  1.00  0.00     0.049 A 
ATOM     46  N   UNL A   1      42.329  28.637  30.649  1.00  0.00    -0.248 NA
ATOM     47  C   UNL A   1      42.768  26.618  29.560  1.00  0.00     0.031 C 
ATOM     48  C   UNL A   1      38.527  29.037  28.325  1.00  0.00     0.029 A 
ATOM     49  N   UNL A   1      39.901  30.043  29.774  1.00  0.00    -0.354 N 
ATOM     50  C   UNL A   1      43.501  28.089  31.152  1.00  0.00     0.074 A 
ATOM     51  C   UNL A   1      43.706  26.827  30.474  1.00  0.00     0.031 C 
ATOM     52  C   UNL A   1      37.960  30.203  28.673  1.00  0.00     0.029 A 
ATOM     53  C   UNL A   1      38.808  30.871  29.655  1.00  0.00     0.049 A 
ATOM     54  H   UNL A   1      40.679  30.256  30.338  1.00  0.00     0.167 HD
ATOM     55  C   UNL A   1      44.332  28.593  32.093  1.00  0.00     0.031 A 
ATOM     56  C   UNL A   1      38.509  32.023  30.287  1.00  0.00     0.031 A 
ATOM     57  C   UNL A   1      44.150  29.868  32.733  1.00  0.00     0.049 A 
ATOM     58  C   UNL A   1      39.471  32.580  31.301  1.00  0.00     0.074 A 
ATOM     59  C   UNL A   1      44.983  30.498  33.641  1.00  0.00     0.029 A 
ATOM     60  N   UNL A   1      43.067  30.707  32.529  1.00  0.00    -0.354 N 
ATOM     61  N   UNL A   1      40.608  32.076  31.716  1.00  0.00    -0.248 NA
ATOM     62  C   UNL A   1      39.113  33.860  31.930  1.00  0.00     0.031 C 
ATOM     63  C   UNL A   1      44.388  31.708  34.010  1.00  0.00     0.029 A 
ATOM     64  C   UNL A   1      43.205  31.845  33.303  1.00  0.00     0.049 A 
ATOM     65  H   UNL A   1      42.313  30.521  31.924  1.00  0.00     0.167 HD
ATOM     66  C   UNL A   1      41.115  32.993  32.630  1.00  0.00     0.074 A 
ATOM     67  C   UNL A   1      40.166  34.083  32.706  1.00  0.00     0.031 C 
ATOM     68  C   UNL A   1      42.265  32.935  33.342  1.00  0.00     0.031 A 
BRANCH  55  69
ATOM     69  C   UNL A   1      45.520  27.767  32.497  1.00  0.00    -0.014 A 
ATOM     70  C   UNL A   1      46.767  27.936  31.872  1.00  0.00     0.010 A 
ATOM     71  C   UNL A   1      45.403  26.860  33.567  1.00  0.00     0.010 A 
ATOM     72  C   UNL A   1      47.874  27.197  32.295  1.00  0.00     0.020 A 
ATOM     73  C   UNL A   1      46.513  26.134  34.006  1.00  0.00     0.020 A 
ATOM     74  C   UNL A   1      47.739  26.299  33.358  1.00  0.00     0.054 A 
BRANCH  74  75
ATOM     75  S   UNL A   1      49.202  25.387  33.922  1.00  0.00     0.124 S 
ATOM     76  O   UNL A   1      49.678  24.786  32.678  1.00  0.00    -0.237 OA
ATOM     77  O   UNL A   1      50.049  26.443  34.471  1.00  0.00    -0.237 OA
ATOM     78  O   UNL A   1      48.668  24.448  34.904  1.00  0.00    -0.744 OA
ENDBRANCH  74  75
ENDBRANCH  55  69
BRANCH  56  79
ATOM     79  C   UNL A   1      37.233  32.731  29.994  1.00  0.00    -0.014 A 
ATOM     80  C   UNL A   1      36.090  32.491  30.776  1.00  0.00     0.010 A 
ATOM     81  C   UNL A   1      37.149  33.631  28.916  1.00  0.00     0.010 A 
ATOM     82  C   UNL A   1      34.877  33.112  30.465  1.00  0.00     0.020 A 
ATOM     83  C   UNL A   1      35.944  34.271  28.617  1.00  0.00     0.020 A 
ATOM     84  C   UNL A   1      34.810  33.994  29.383  1.00  0.00     0.054 A 
BRANCH  84  85
ATOM     85  S   UNL A   1      33.233  34.809  29.005  1.00  0.00     0.124 S 
ATOM     86  O   UNL A   1      32.612  33.854  28.092  1.00  0.00    -0.237 OA
ATOM     87  O   UNL A   1      32.609  34.926  30.319  1.00  0.00    -0.237 OA
ATOM     88  O   UNL A   1      33.645  36.076  28.406  1.00  0.00    -0.744 OA
ENDBRANCH  84  85
ENDBRANCH  56  79
BRANCH  68  89
ATOM     89  C   UNL A   1      42.602  34.101  34.227  1.00  0.00    -0.014 A 
ATOM     90  C   UNL A   1      42.257  34.102  35.589  1.00  0.00     0.010 A 
ATOM     91  C   UNL A   1      43.365  35.162  33.706  1.00  0.00     0.010 A 
ATOM     92  C   UNL A   1      42.668  35.149  36.416  1.00  0.00     0.020 A 
ATOM     93  C   UNL A   1      43.794  36.200  34.536  1.00  0.00     0.020 A 
ATOM     94  C   UNL A   1      43.438  36.190  35.885  1.00  0.00     0.054 A 
BRANCH  94  95
ATOM     95  S   UNL A   1      44.038  37.492  36.997  1.00  0.00     0.124 S 
ATOM     96  O   UNL A   1      42.953  37.586  37.968  1.00  0.00    -0.237 OA
ATOM     97  O   UNL A   1      45.290  36.934  37.504  1.00  0.00    -0.237 OA
ATOM     98  O   UNL A   1      44.193  38.650  36.119  1.00  0.00    -0.744 OA
ENDBRANCH  94  95
ENDBRANCH  68  89
ENDBRANCH  42  43
ENDBRANCH  34  37
ENDBRANCH  32  33
ENDBRANCH   1  32
TORSDOF 18
ENDMDL
MODEL 2
REMARK VINA RESULT:     -11.4      3.364      8.702
REMARK SMILES Nc1nccc(N2CCC[C@@](Cc3ccc(F)cc3F)(C(=O)NCCCCNC(=O)c3ccc(-c4c5nc(c(-c6ccc(S(=O)(=O)[O-])cc6)c6ccc([nH]6)c(-c6ccc(S(=O)(=O)[O-])cc6)c6nc(c(-c7ccc(S(=O)(=O)[O-])cc7)c7ccc4[nH]7)C=C6)C=C5)cc3)C2)n1
REMARK SMILES IDX 26 1 25 2 24 3 23 4 21 5 22 6 11 8 7 9 8 10 91 11 9 12 10 13
REMARK SMILES IDX 6 14 2 15 3 16 92 17 4 18 5 19 1 20 12 23 13 24 14 25 19 26
REMARK SMILES IDX 15 27 18 28 20 29 16 30 17 31 27 32 28 33 29 34 30 36 31 37
REMARK SMILES IDX 32 38 90 39 33 40 89 41 34 42 35 43 36 44 83 45 37 46 88 47
REMARK SMILES IDX 82 48 84 49 38 50 87 51 81 52 80 53 39 55 69 56 50 57 68 58
REMARK SMILES IDX 51 59 54 60 67 61 85 62 52 63 53 64 66 66 86 67 55 68 40 69
REMARK SMILES IDX 41 70 49 71 42 72 48 73 43 74 44 75 45 76 46 77 47 78 70 79
REMARK SMILES IDX 71 80 79 81 72 82 78 83 73 84 74 85 75 86 76 87 77 88 56 89
REMARK SMILES IDX 57 90 65 91 58 92 64 93 59 94 60 95 61 96 62 97 63 98
REMARK H PARENT 23 7 1 21 1 22 28 35 84 54 54 65
REMARK Flexibility Score: inf
ROOT
ATOM      1  C   UNL A   1      34.085  31.621  28.147  1.00  0.00     0.023 C 
ENDROOT
BRANCH   1   2
ATOM      2  C   UNL A   1      35.099  30.621  27.590  1.00  0.00     0.023 C 
BRANCH   2   3
ATOM      3  C   UNL A   1      34.496  29.335  27.044  1.00  0.00     0.116 C 
BRANCH   3   4
ATOM      4  N   UNL A   1      33.295  28.908  27.732  1.00  0.00    -0.356 N 
ATOM      5  C   UNL A   1      32.249  28.124  27.346  1.00  0.00     0.228 C 
ATOM      6  O   UNL A   1      31.502  27.758  28.262  1.00  0.00    -0.274 OA
ATOM      7  H   UNL A   1      33.219  29.250  28.652  1.00  0.00     0.163 HD
BRANCH   5   8
ATOM      8  C   UNL A   1      31.983  27.685  25.887  1.00  0.00     0.071 C 
ATOM      9  N   UNL A   1      31.204  28.644  23.752  1.00  0.00    -0.355 N 
ATOM     10  C   UNL A   1      32.440  28.493  23.009  1.00  0.00     0.118 C 
ATOM     11  C   UNL A   1      31.344  28.942  25.178  1.00  0.00     0.135 C 
ATOM     12  C   UNL A   1      33.192  27.311  23.602  1.00  0.00     0.023 C 
ATOM     13  C   UNL A   1      33.311  27.389  25.128  1.00  0.00     0.021 C 
BRANCH   9  14
ATOM     14  C   UNL A   1      30.091  29.093  23.067  1.00  0.00     0.134 A 
ATOM     15  C   UNL A   1      27.843  29.065  22.650  1.00  0.00     0.221 A 
ATOM     16  N   UNL A   1      27.923  29.967  21.665  1.00  0.00    -0.222 NA
ATOM     17  N   UNL A   1      28.879  28.593  23.349  1.00  0.00    -0.196 NA
ATOM     18  C   UNL A   1      29.150  30.429  21.389  1.00  0.00     0.119 A 
ATOM     19  C   UNL A   1      30.270  30.038  22.075  1.00  0.00     0.067 A 
BRANCH  15  20
ATOM     20  N   UNL A   1      26.601  28.600  22.966  1.00  0.00    -0.368 N 
ATOM     21  H   UNL A   1      25.819  29.195  22.893  1.00  0.00     0.159 HD
ATOM     22  H   UNL A   1      26.484  27.670  23.267  1.00  0.00     0.159 HD
ENDBRANCH  15  20
ENDBRANCH   9  14
BRANCH   8  23
ATOM     23  C   UNL A   1      30.885  26.575  25.804  1.00  0.00     0.057 C 
BRANCH  23  24
ATOM     24  C   UNL A   1      31.170  25.245  25.157  1.00  0.00    -0.011 A 
ATOM     25  C   UNL A   1      30.601  24.922  23.913  1.00  0.00     0.010 A 
ATOM     26  C   UNL A   1      32.031  24.317  25.758  1.00  0.00     0.129 A 
ATOM     27  C   UNL A   1      30.862  23.686  23.319  1.00  0.00     0.040 A 
ATOM     28  C   UNL A   1      32.291  23.082  25.175  1.00  0.00     0.078 A 
ATOM     29  F   UNL A   1      32.610  24.604  26.931  1.00  0.00    -0.207 F 
ATOM     30  C   UNL A   1      31.697  22.777  23.959  1.00  0.00     0.126 A 
ATOM     31  F   UNL A   1      31.932  21.587  23.395  1.00  0.00    -0.207 F 
ENDBRANCH  23  24
ENDBRANCH   8  23
ENDBRANCH   5   8
ENDBRANCH   3   4
ENDBRANCH   2   3
ENDBRANCH   1   2
BRANCH   1  32
ATOM     32  C   UNL A   1      34.387  33.097  27.891  1.00  0.00     0.116 C 
BRANCH  32  33
ATOM     33  N   UNL A   1      33.448  34.018  28.522  1.00  0.00    -0.352 N 
ATOM     34  C   UNL A   1      33.462  34.471  29.823  1.00  0.00     0.251 C 
ATOM     35  H   UNL A   1      32.720  34.356  27.952  1.00  0.00     0.163 HD
ATOM     36  O   UNL A   1      32.574  35.201  30.249  1.00  0.00    -0.269 OA
BRANCH  34  37
ATOM     37  C   UNL A   1      34.548  34.011  30.710  1.00  0.00     0.039 A 
ATOM     38  C   UNL A   1      34.324  32.905  31.534  1.00  0.00     0.014 A 
ATOM     39  C   UNL A   1      35.814  34.595  30.618  1.00  0.00     0.014 A 
ATOM     40  C   UNL A   1      35.403  32.318  32.198  1.00  0.00     0.010 A 
ATOM     41  C   UNL A   1      36.893  33.978  31.241  1.00  0.00     0.010 A 
ATOM     42  C   UNL A   1      36.701  32.818  32.014  1.00  0.00    -0.014 A 
BRANCH  42  43
ATOM     43  C   UNL A   1      37.893  32.131  32.572  1.00  0.00     0.031 A 
ATOM     44  C   UNL A   1      38.351  32.449  33.966  1.00  0.00     0.074 A 
ATOM     45  C   UNL A   1      38.632  31.328  31.780  1.00  0.00     0.049 A 
ATOM     46  N   UNL A   1      39.462  32.111  34.564  1.00  0.00    -0.248 NA
ATOM     47  C   UNL A   1      37.454  33.283  34.784  1.00  0.00     0.031 C 
ATOM     48  C   UNL A   1      38.316  30.974  30.392  1.00  0.00     0.029 A 
ATOM     49  N   UNL A   1      39.823  30.688  32.019  1.00  0.00    -0.354 N 
ATOM     50  C   UNL A   1      39.422  32.725  35.809  1.00  0.00     0.074 A 
ATOM     51  C   UNL A   1      38.180  33.465  35.878  1.00  0.00     0.031 C 
ATOM     52  C   UNL A   1      39.290  30.187  29.905  1.00  0.00     0.029 A 
ATOM     53  C   UNL A   1      40.318  30.014  30.925  1.00  0.00     0.049 A 
ATOM     54  H   UNL A   1      40.281  30.708  32.890  1.00  0.00     0.167 HD
ATOM     55  C   UNL A   1      40.336  32.673  36.805  1.00  0.00     0.031 A 
ATOM     56  C   UNL A   1      41.480  29.354  30.755  1.00  0.00     0.031 A 
ATOM     57  C   UNL A   1      41.548  31.901  36.751  1.00  0.00     0.049 A 
ATOM     58  C   UNL A   1      42.462  29.282  31.893  1.00  0.00     0.074 A 
ATOM     59  C   UNL A   1      42.497  31.725  37.743  1.00  0.00     0.029 A 
ATOM     60  N   UNL A   1      41.973  31.174  35.651  1.00  0.00    -0.354 N 
ATOM     61  N   UNL A   1      42.374  29.817  33.087  1.00  0.00    -0.248 NA
ATOM     62  C   UNL A   1      43.696  28.516  31.665  1.00  0.00     0.031 C 
ATOM     63  C   UNL A   1      43.514  30.913  37.232  1.00  0.00     0.029 A 
ATOM     64  C   UNL A   1      43.177  30.556  35.937  1.00  0.00     0.049 A 
ATOM     65  H   UNL A   1      41.491  31.107  34.796  1.00  0.00     0.167 HD
ATOM     66  C   UNL A   1      43.525  29.425  33.761  1.00  0.00     0.074 A 
ATOM     67  C   UNL A   1      44.293  28.607  32.846  1.00  0.00     0.031 C 
ATOM     68  C   UNL A   1      43.911  29.719  35.025  1.00  0.00     0.031 A 
BRANCH  55  69
ATOM     69  C   UNL A   1      40.069  33.478  38.045  1.00  0.00    -0.014 A 
ATOM     70  C   UNL A   1      40.527  34.801  38.163  1.00  0.00     0.010 A 
ATOM     71  C   UNL A   1      39.286  32.925  39.076  1.00  0.00     0.010 A 
ATOM     72  C   UNL A   1      40.225  35.552  39.301  1.00  0.00     0.020 A 
ATOM     73  C   UNL A   1      38.965  33.681  40.206  1.00  0.00     0.020 A 
ATOM     74  C   UNL A   1      39.448  34.987  40.316  1.00  0.00     0.054 A 
BRANCH  74  75
ATOM     75  S   UNL A   1      39.028  36.000  41.761  1.00  0.00     0.124 S 
ATOM     76  O   UNL A   1      40.182  35.777  42.629  1.00  0.00    -0.237 OA
ATOM     77  O   UNL A   1      38.919  37.342  41.194  1.00  0.00    -0.237 OA
ATOM     78  O   UNL A   1      37.772  35.424  42.234  1.00  0.00    -0.744 OA
ENDBRANCH  74  75
ENDBRANCH  55  69
BRANCH  56  79
ATOM     79  C   UNL A   1      41.797  28.715  29.448  1.00  0.00    -0.014 A 
ATOM     80  C   UNL A   1      42.355  29.470  28.402  1.00  0.00     0.010 A 
ATOM     81  C   UNL A   1      41.519  27.352  29.236  1.00  0.00     0.010 A 
ATOM     82  C   UNL A   1      42.598  28.885  27.157  1.00  0.00     0.020 A 
ATOM     83  C   UNL A   1      41.783  26.757  28.000  1.00  0.00     0.020 A 
ATOM     84  C   UNL A   1      42.304  27.532  26.962  1.00  0.00     0.054 A 
BRANCH  84  85
ATOM     85  S   UNL A   1      42.646  26.779  25.346  1.00  0.00     0.124 S 
ATOM     86  O   UNL A   1      43.910  26.095  25.594  1.00  0.00    -0.237 OA
ATOM     87  O   UNL A   1      41.486  25.915  25.143  1.00  0.00    -0.237 OA
ATOM     88  O   UNL A   1      42.718  27.930  24.448  1.00  0.00    -0.744 OA
ENDBRANCH  84  85
ENDBRANCH  56  79
BRANCH  68  89
ATOM     89  C   UNL A   1      45.191  29.112  35.526  1.00  0.00    -0.014 A 
ATOM     90  C   UNL A   1      45.209  27.832  36.104  1.00  0.00     0.010 A 
ATOM     91  C   UNL A   1      46.403  29.794  35.319  1.00  0.00     0.010 A 
ATOM     92  C   UNL A   1      46.421  27.244  36.470  1.00  0.00     0.020 A 
ATOM     93  C   UNL A   1      47.619  29.202  35.667  1.00  0.00     0.020 A 
ATOM     94  C   UNL A   1      47.620  27.931  36.245  1.00  0.00     0.054 A 
BRANCH  94  95
ATOM     95  S   UNL A   1      49.188  27.112  36.645  1.00  0.00     0.124 S 
ATOM     96  O   UNL A   1      50.024  28.237  37.051  1.00  0.00    -0.237 OA
ATOM     97  O   UNL A   1      48.809  26.191  37.715  1.00  0.00    -0.237 OA
ATOM     98  O   UNL A   1      49.571  26.469  35.389  1.00  0.00    -0.744 OA
ENDBRANCH  94  95
ENDBRANCH  68  89
ENDBRANCH  42  43
ENDBRANCH  34  37
ENDBRANCH  32  33
ENDBRANCH   1  32
TORSDOF 18
ENDMDL
MODEL 3
REMARK VINA RESULT:     -11.2      3.361      8.054
REMARK SMILES Nc1nccc(N2CCC[C@@](Cc3ccc(F)cc3F)(C(=O)NCCCCNC(=O)c3ccc(-c4c5nc(c(-c6ccc(S(=O)(=O)[O-])cc6)c6ccc([nH]6)c(-c6ccc(S(=O)(=O)[O-])cc6)c6nc(c(-c7ccc(S(=O)(=O)[O-])cc7)c7ccc4[nH]7)C=C6)C=C5)cc3)C2)n1
REMARK SMILES IDX 26 1 25 2 24 3 23 4 21 5 22 6 11 8 7 9 8 10 91 11 9 12 10 13
REMARK SMILES IDX 6 14 2 15 3 16 92 17 4 18 5 19 1 20 12 23 13 24 14 25 19 26
REMARK SMILES IDX 15 27 18 28 20 29 16 30 17 31 27 32 28 33 29 34 30 36 31 37
REMARK SMILES IDX 32 38 90 39 33 40 89 41 34 42 35 43 36 44 83 45 37 46 88 47
REMARK SMILES IDX 82 48 84 49 38 50 87 51 81 52 80 53 39 55 69 56 50 57 68 58
REMARK SMILES IDX 51 59 54 60 67 61 85 62 52 63 53 64 66 66 86 67 55 68 40 69
REMARK SMILES IDX 41 70 49 71 42 72 48 73 43 74 44 75 45 76 46 77 47 78 70 79
REMARK SMILES IDX 71 80 79 81 72 82 78 83 73 84 74 85 75 86 76 87 77 88 56 89
REMARK SMILES IDX 57 90 65 91 58 92 64 93 59 94 60 95 61 96 62 97 63 98
REMARK H PARENT 23 7 1 21 1 22 28 35 84 54 54 65
REMARK Flexibility Score: inf
ROOT
ATOM      1  C   UNL A   1      33.846  31.433  27.764  1.00  0.00     0.023 C 
ENDROOT
BRANCH   1   2
ATOM      2  C   UNL A   1      34.947  30.388  27.577  1.00  0.00     0.023 C 
BRANCH   2   3
ATOM      3  C   UNL A   1      34.450  28.993  27.227  1.00  0.00     0.116 C 
BRANCH   3   4
ATOM      4  N   UNL A   1      33.185  28.645  27.840  1.00  0.00    -0.356 N 
ATOM      5  C   UNL A   1      32.112  27.937  27.386  1.00  0.00     0.228 C 
ATOM      6  O   UNL A   1      31.290  27.618  28.253  1.00  0.00    -0.274 OA
ATOM      7  H   UNL A   1      33.080  28.985  28.758  1.00  0.00     0.163 HD
BRANCH   5   8
ATOM      8  C   UNL A   1      31.902  27.529  25.909  1.00  0.00     0.071 C 
ATOM      9  N   UNL A   1      31.231  28.537  23.760  1.00  0.00    -0.355 N 
ATOM     10  C   UNL A   1      32.495  28.378  23.068  1.00  0.00     0.118 C 
ATOM     11  C   UNL A   1      31.315  28.809  25.196  1.00  0.00     0.135 C 
ATOM     12  C   UNL A   1      33.201  27.173  23.671  1.00  0.00     0.023 C 
ATOM     13  C   UNL A   1      33.256  27.223  25.202  1.00  0.00     0.021 C 
BRANCH   9  14
ATOM     14  C   UNL A   1      30.156  29.016  23.037  1.00  0.00     0.134 A 
ATOM     15  C   UNL A   1      27.920  29.075  22.562  1.00  0.00     0.221 A 
ATOM     16  N   UNL A   1      28.063  29.948  21.559  1.00  0.00    -0.222 NA
ATOM     17  N   UNL A   1      28.917  28.575  23.299  1.00  0.00    -0.196 NA
ATOM     18  C   UNL A   1      29.315  30.351  21.304  1.00  0.00     0.119 A 
ATOM     19  C   UNL A   1      30.400  29.929  22.028  1.00  0.00     0.067 A 
BRANCH  15  20
ATOM     20  N   UNL A   1      26.651  28.671  22.856  1.00  0.00    -0.368 N 
ATOM     21  H   UNL A   1      26.028  28.437  22.130  1.00  0.00     0.159 HD
ATOM     22  H   UNL A   1      26.357  28.613  23.793  1.00  0.00     0.159 HD
ENDBRANCH  15  20
ENDBRANCH   9  14
BRANCH   8  23
ATOM     23  C   UNL A   1      30.790  26.439  25.759  1.00  0.00     0.057 C 
BRANCH  23  24
ATOM     24  C   UNL A   1      31.143  24.979  25.635  1.00  0.00    -0.011 A 
ATOM     25  C   UNL A   1      31.607  24.262  26.750  1.00  0.00     0.010 A 
ATOM     26  C   UNL A   1      30.985  24.297  24.421  1.00  0.00     0.129 A 
ATOM     27  C   UNL A   1      31.941  22.912  26.629  1.00  0.00     0.040 A 
ATOM     28  C   UNL A   1      31.319  22.955  24.293  1.00  0.00     0.078 A 
ATOM     29  F   UNL A   1      30.520  24.946  23.345  1.00  0.00    -0.207 F 
ATOM     30  C   UNL A   1      31.799  22.275  25.402  1.00  0.00     0.126 A 
ATOM     31  F   UNL A   1      32.135  20.985  25.286  1.00  0.00    -0.207 F 
ENDBRANCH  23  24
ENDBRANCH   8  23
ENDBRANCH   5   8
ENDBRANCH   3   4
ENDBRANCH   2   3
ENDBRANCH   1   2
BRANCH   1  32
ATOM     32  C   UNL A   1      34.213  32.869  27.392  1.00  0.00     0.116 C 
BRANCH  32  33
ATOM     33  N   UNL A   1      33.284  33.874  27.897  1.00  0.00    -0.352 N 
ATOM     34  C   UNL A   1      33.375  34.587  29.071  1.00  0.00     0.251 C 
ATOM     35  H   UNL A   1      32.501  34.066  27.331  1.00  0.00     0.163 HD
ATOM     36  O   UNL A   1      32.489  35.364  29.411  1.00  0.00    -0.269 OA
BRANCH  34  37
ATOM     37  C   UNL A   1      34.543  34.351  29.941  1.00  0.00     0.039 A 
ATOM     38  C   UNL A   1      34.366  33.647  31.135  1.00  0.00     0.014 A 
ATOM     39  C   UNL A   1      35.819  34.713  29.503  1.00  0.00     0.014 A 
ATOM     40  C   UNL A   1      35.487  33.214  31.847  1.00  0.00     0.010 A 
ATOM     41  C   UNL A   1      36.933  34.237  30.187  1.00  0.00     0.010 A 
ATOM     42  C   UNL A   1      36.776  33.461  31.350  1.00  0.00    -0.014 A 
BRANCH  42  43
ATOM     43  C   UNL A   1      37.986  32.885  31.988  1.00  0.00     0.031 A 
ATOM     44  C   UNL A   1      38.675  31.712  31.354  1.00  0.00     0.074 A 
ATOM     45  C   UNL A   1      38.381  33.335  33.196  1.00  0.00     0.049 A 
ATOM     46  N   UNL A   1      39.617  30.949  31.842  1.00  0.00    -0.248 NA
ATOM     47  C   UNL A   1      38.223  31.326  30.007  1.00  0.00     0.031 C 
ATOM     48  C   UNL A   1      37.768  34.442  33.937  1.00  0.00     0.029 A 
ATOM     49  N   UNL A   1      39.375  32.891  34.034  1.00  0.00    -0.354 N 
ATOM     50  C   UNL A   1      39.840  29.967  30.885  1.00  0.00     0.074 A 
ATOM     51  C   UNL A   1      38.928  30.224  29.791  1.00  0.00     0.031 C 
ATOM     52  C   UNL A   1      38.395  34.586  35.116  1.00  0.00     0.029 A 
ATOM     53  C   UNL A   1      39.424  33.559  35.236  1.00  0.00     0.049 A 
ATOM     54  H   UNL A   1      39.995  32.164  33.797  1.00  0.00     0.167 HD
ATOM     55  C   UNL A   1      40.727  28.946  30.915  1.00  0.00     0.031 A 
ATOM     56  C   UNL A   1      40.193  33.351  36.323  1.00  0.00     0.031 A 
ATOM     57  C   UNL A   1      41.662  28.719  31.983  1.00  0.00     0.049 A 
ATOM     58  C   UNL A   1      41.197  32.230  36.314  1.00  0.00     0.074 A 
ATOM     59  C   UNL A   1      42.653  27.756  32.065  1.00  0.00     0.029 A 
ATOM     60  N   UNL A   1      41.727  29.464  33.149  1.00  0.00    -0.354 N 
ATOM     61  N   UNL A   1      41.437  31.352  35.370  1.00  0.00    -0.248 NA
ATOM     62  C   UNL A   1      42.036  32.073  37.511  1.00  0.00     0.031 C 
ATOM     63  C   UNL A   1      43.300  27.901  33.296  1.00  0.00     0.029 A 
ATOM     64  C   UNL A   1      42.735  28.976  33.961  1.00  0.00     0.049 A 
ATOM     65  H   UNL A   1      41.144  30.227  33.366  1.00  0.00     0.167 HD
ATOM     66  C   UNL A   1      42.475  30.560  35.848  1.00  0.00     0.074 A 
ATOM     67  C   UNL A   1      42.821  31.063  37.160  1.00  0.00     0.031 C 
ATOM     68  C   UNL A   1      43.086  29.509  35.251  1.00  0.00     0.031 A 
BRANCH  55  69
ATOM     69  C   UNL A   1      40.732  27.986  29.760  1.00  0.00    -0.014 A 
ATOM     70  C   UNL A   1      41.764  28.005  28.807  1.00  0.00     0.010 A 
ATOM     71  C   UNL A   1      39.728  27.004  29.669  1.00  0.00     0.010 A 
ATOM     72  C   UNL A   1      41.782  27.070  27.768  1.00  0.00     0.020 A 
ATOM     73  C   UNL A   1      39.754  26.056  28.644  1.00  0.00     0.020 A 
ATOM     74  C   UNL A   1      40.775  26.104  27.692  1.00  0.00     0.054 A 
BRANCH  74  75
ATOM     75  S   UNL A   1      40.847  24.871  26.363  1.00  0.00     0.124 S 
ATOM     76  O   UNL A   1      39.490  24.329  26.384  1.00  0.00    -0.237 OA
ATOM     77  O   UNL A   1      41.181  25.678  25.192  1.00  0.00    -0.237 OA
ATOM     78  O   UNL A   1      41.893  23.951  26.800  1.00  0.00    -0.744 OA
ENDBRANCH  74  75
ENDBRANCH  55  69
BRANCH  56  79
ATOM     79  C   UNL A   1      40.040  34.212  37.528  1.00  0.00    -0.014 A 
ATOM     80  C   UNL A   1      39.105  33.883  38.524  1.00  0.00     0.010 A 
ATOM     81  C   UNL A   1      40.812  35.379  37.671  1.00  0.00     0.010 A 
ATOM     82  C   UNL A   1      38.920  34.722  39.627  1.00  0.00     0.020 A 
ATOM     83  C   UNL A   1      40.646  36.208  38.783  1.00  0.00     0.020 A 
ATOM     84  C   UNL A   1      39.688  35.884  39.746  1.00  0.00     0.054 A 
BRANCH  84  85
ATOM     85  S   UNL A   1      39.452  36.952  41.193  1.00  0.00     0.124 S 
ATOM     86  O   UNL A   1      40.823  37.343  41.506  1.00  0.00    -0.237 OA
ATOM     87  O   UNL A   1      38.595  38.013  40.673  1.00  0.00    -0.237 OA
ATOM     88  O   UNL A   1      38.812  36.067  42.164  1.00  0.00    -0.744 OA
ENDBRANCH  84  85
ENDBRANCH  56  79
BRANCH  68  89
ATOM     89  C   UNL A   1      44.230  28.860  35.975  1.00  0.00    -0.014 A 
ATOM     90  C   UNL A   1      45.538  29.361  35.863  1.00  0.00     0.010 A 
ATOM     91  C   UNL A   1      43.971  27.798  36.861  1.00  0.00     0.010 A 
ATOM     92  C   UNL A   1      46.570  28.806  36.623  1.00  0.00     0.020 A 
ATOM     93  C   UNL A   1      44.997  27.254  37.636  1.00  0.00     0.020 A 
ATOM     94  C   UNL A   1      46.292  27.759  37.509  1.00  0.00     0.054 A 
BRANCH  94  95
ATOM     95  S   UNL A   1      47.629  27.115  38.553  1.00  0.00     0.124 S 
ATOM     96  O   UNL A   1      48.750  27.969  38.172  1.00  0.00    -0.237 OA
ATOM     97  O   UNL A   1      47.112  27.320  39.904  1.00  0.00    -0.237 OA
ATOM     98  O   UNL A   1      47.742  25.717  38.143  1.00  0.00    -0.744 OA
ENDBRANCH  94  95
ENDBRANCH  68  89
ENDBRANCH  42  43
ENDBRANCH  34  37
ENDBRANCH  32  33
ENDBRANCH   1  32
TORSDOF 18
ENDMDL
