MODEL 1
REMARK VINA RESULT:     -12.0      0.000      0.000
REMARK SMILES Cc1ccc(C(=O)N[C@@H]2C=C[C@H](C(=O)NCCCCNC(=O)c3ccc(-c4c5nc(c(-c6ccc(S(=O)(=O)[O-])cc6)c6ccc([nH]6)c(-c6ccc(S(=O)(=O)[O-])cc6)c6nc(c(-c7ccc(S(=O)(=O)[O-])cc7)c7ccc4[nH]7)C=C6)C=C5)cc3)C2)c(F)c1
REMARK SMILES IDX 18 1 17 2 16 3 15 4 13 5 14 6 12 8 9 9 10 10 83 11 11 12
REMARK SMILES IDX 8 13 6 14 7 15 5 17 1 18 2 19 3 20 86 21 4 22 84 23 85 24
REMARK SMILES IDX 19 25 20 26 21 27 22 29 23 30 24 31 82 32 25 33 81 34 26 35
REMARK SMILES IDX 27 36 28 37 75 38 29 39 80 40 74 41 76 42 30 43 79 44 73 45
REMARK SMILES IDX 72 46 31 48 61 49 42 50 60 51 43 52 46 53 59 54 77 55 44 56
REMARK SMILES IDX 45 57 58 59 78 60 47 61 32 62 33 63 41 64 34 65 40 66 35 67
REMARK SMILES IDX 36 68 37 69 38 70 39 71 62 72 63 73 71 74 64 75 70 76 65 77
REMARK SMILES IDX 66 78 67 79 68 80 69 81 48 82 49 83 57 84 50 85 56 86 51 87
REMARK SMILES IDX 52 88 53 89 54 90 55 91
REMARK H PARENT 15 7 8 16 20 28 76 47 46 58
REMARK Flexibility Score: inf
ROOT
ATOM      1  C   UNL A   1      35.328  32.171  27.827  1.00  0.00     0.023 C 
ENDROOT
BRANCH   1   2
ATOM      2  C   UNL A   1      34.674  30.788  27.787  1.00  0.00     0.023 C 
BRANCH   2   3
ATOM      3  C   UNL A   1      33.393  30.678  26.964  1.00  0.00     0.116 C 
BRANCH   3   4
ATOM      4  N   UNL A   1      32.420  29.762  27.532  1.00  0.00    -0.356 N 
ATOM      5  C   UNL A   1      32.171  28.456  27.198  1.00  0.00     0.227 C 
ATOM      6  O   UNL A   1      31.415  27.803  27.914  1.00  0.00    -0.274 OA
ATOM      7  H   UNL A   1      31.863  30.129  28.257  1.00  0.00     0.163 HD
BRANCH   5   8
ATOM      8  C   UNL A   1      32.792  27.905  25.912  1.00  0.00     0.103 C 
ATOM      9  C   UNL A   1      31.986  25.673  25.193  1.00  0.00     0.106 C 
ATOM     10  C   UNL A   1      33.393  25.639  25.706  1.00  0.00    -0.006 C 
ATOM     11  C   UNL A   1      31.707  27.182  25.109  1.00  0.00     0.047 C 
ATOM     12  C   UNL A   1      33.818  26.838  26.117  1.00  0.00    -0.016 C 
BRANCH   9  13
ATOM     13  N   UNL A   1      31.183  24.853  26.085  1.00  0.00    -0.346 N 
ATOM     14  C   UNL A   1      31.344  23.583  26.585  1.00  0.00     0.254 C 
ATOM     15  O   UNL A   1      30.726  23.246  27.591  1.00  0.00    -0.269 OA
ATOM     16  H   UNL A   1      30.358  25.296  26.392  1.00  0.00     0.164 HD
BRANCH  14  17
ATOM     17  C   UNL A   1      32.172  22.597  25.874  1.00  0.00     0.075 A 
ATOM     18  C   UNL A   1      34.077  19.026  24.451  1.00  0.00     0.044 C 
ATOM     19  C   UNL A   1      33.480  20.331  24.890  1.00  0.00    -0.048 A 
ATOM     20  C   UNL A   1      32.471  20.948  24.137  1.00  0.00     0.004 A 
ATOM     21  C   UNL A   1      33.928  20.944  26.064  1.00  0.00     0.043 A 
ATOM     22  C   UNL A   1      31.829  22.096  24.616  1.00  0.00     0.017 A 
ATOM     23  C   UNL A   1      33.268  22.066  26.555  1.00  0.00     0.136 A 
ATOM     24  F   UNL A   1      33.668  22.570  27.732  1.00  0.00    -0.206 F 
ENDBRANCH  14  17
ENDBRANCH   9  13
ENDBRANCH   5   8
ENDBRANCH   3   4
ENDBRANCH   2   3
ENDBRANCH   1   2
BRANCH   1  25
ATOM     25  C   UNL A   1      36.240  32.439  29.019  1.00  0.00     0.116 C 
BRANCH  25  26
ATOM     26  N   UNL A   1      35.931  31.604  30.168  1.00  0.00    -0.352 N 
ATOM     27  C   UNL A   1      36.621  30.536  30.689  1.00  0.00     0.251 C 
ATOM     28  H   UNL A   1      35.103  31.840  30.645  1.00  0.00     0.163 HD
ATOM     29  O   UNL A   1      36.110  29.878  31.591  1.00  0.00    -0.269 OA
BRANCH  27  30
ATOM     30  C   UNL A   1      37.954  30.160  30.160  1.00  0.00     0.039 A 
ATOM     31  C   UNL A   1      39.020  30.043  31.058  1.00  0.00     0.014 A 
ATOM     32  C   UNL A   1      38.173  29.952  28.796  1.00  0.00     0.014 A 
ATOM     33  C   UNL A   1      40.287  29.681  30.593  1.00  0.00     0.010 A 
ATOM     34  C   UNL A   1      39.415  29.507  28.345  1.00  0.00     0.010 A 
ATOM     35  C   UNL A   1      40.493  29.386  29.234  1.00  0.00    -0.014 A 
BRANCH  35  36
ATOM     36  C   UNL A   1      41.834  28.976  28.740  1.00  0.00     0.031 A 
ATOM     37  C   UNL A   1      42.953  29.980  28.639  1.00  0.00     0.074 A 
ATOM     38  C   UNL A   1      42.039  27.702  28.347  1.00  0.00     0.049 A 
ATOM     39  N   UNL A   1      44.194  29.796  28.261  1.00  0.00    -0.248 NA
ATOM     40  C   UNL A   1      42.632  31.374  28.978  1.00  0.00     0.031 C 
ATOM     41  C   UNL A   1      41.022  26.648  28.331  1.00  0.00     0.029 A 
ATOM     42  N   UNL A   1      43.171  27.078  27.885  1.00  0.00    -0.354 N 
ATOM     43  C   UNL A   1      44.792  31.051  28.298  1.00  0.00     0.074 A 
ATOM     44  C   UNL A   1      43.765  31.994  28.680  1.00  0.00     0.031 C 
ATOM     45  C   UNL A   1      41.583  25.503  27.913  1.00  0.00     0.029 A 
ATOM     46  C   UNL A   1      42.989  25.746  27.600  1.00  0.00     0.049 A 
ATOM     47  H   UNL A   1      44.032  27.541  27.768  1.00  0.00     0.167 HD
ATOM     48  C   UNL A   1      46.082  31.389  28.055  1.00  0.00     0.031 A 
ATOM     49  C   UNL A   1      43.851  24.819  27.139  1.00  0.00     0.031 A 
ATOM     50  C   UNL A   1      47.102  30.445  27.677  1.00  0.00     0.049 A 
ATOM     51  C   UNL A   1      45.286  25.205  26.907  1.00  0.00     0.074 A 
ATOM     52  C   UNL A   1      48.454  30.672  27.482  1.00  0.00     0.029 A 
ATOM     53  N   UNL A   1      46.883  29.099  27.425  1.00  0.00    -0.354 N 
ATOM     54  N   UNL A   1      45.855  26.379  27.042  1.00  0.00    -0.248 NA
ATOM     55  C   UNL A   1      46.199  24.134  26.486  1.00  0.00     0.031 C 
ATOM     56  C   UNL A   1      49.040  29.477  27.049  1.00  0.00     0.029 A 
ATOM     57  C   UNL A   1      48.068  28.488  27.047  1.00  0.00     0.049 A 
ATOM     58  H   UNL A   1      46.014  28.645  27.503  1.00  0.00     0.167 HD
ATOM     59  C   UNL A   1      47.201  26.183  26.745  1.00  0.00     0.074 A 
ATOM     60  C   UNL A   1      47.359  24.774  26.445  1.00  0.00     0.031 C 
ATOM     61  C   UNL A   1      48.212  27.088  26.730  1.00  0.00     0.031 A 
BRANCH  48  62
ATOM     62  C   UNL A   1      46.451  32.848  28.167  1.00  0.00    -0.014 A 
ATOM     63  C   UNL A   1      46.871  33.408  29.388  1.00  0.00     0.010 A 
ATOM     64  C   UNL A   1      46.387  33.671  27.028  1.00  0.00     0.010 A 
ATOM     65  C   UNL A   1      47.158  34.773  29.481  1.00  0.00     0.020 A 
ATOM     66  C   UNL A   1      46.708  35.030  27.109  1.00  0.00     0.020 A 
ATOM     67  C   UNL A   1      47.067  35.577  28.341  1.00  0.00     0.054 A 
BRANCH  67  68
ATOM     68  S   UNL A   1      47.438  37.346  28.492  1.00  0.00     0.124 S 
ATOM     69  O   UNL A   1      46.306  37.950  27.794  1.00  0.00    -0.237 OA
ATOM     70  O   UNL A   1      47.462  37.547  29.939  1.00  0.00    -0.237 OA
ATOM     71  O   UNL A   1      48.729  37.488  27.824  1.00  0.00    -0.744 OA
ENDBRANCH  67  68
ENDBRANCH  48  62
BRANCH  49  72
ATOM     72  C   UNL A   1      43.374  23.430  26.897  1.00  0.00    -0.014 A 
ATOM     73  C   UNL A   1      43.266  22.921  25.592  1.00  0.00     0.010 A 
ATOM     74  C   UNL A   1      43.071  22.589  27.985  1.00  0.00     0.010 A 
ATOM     75  C   UNL A   1      42.862  21.599  25.378  1.00  0.00     0.020 A 
ATOM     76  C   UNL A   1      42.697  21.260  27.777  1.00  0.00     0.020 A 
ATOM     77  C   UNL A   1      42.590  20.773  26.474  1.00  0.00     0.054 A 
BRANCH  77  78
ATOM     78  S   UNL A   1      42.157  19.037  26.175  1.00  0.00     0.124 S 
ATOM     79  O   UNL A   1      43.128  18.651  25.155  1.00  0.00    -0.237 OA
ATOM     80  O   UNL A   1      42.348  18.434  27.492  1.00  0.00    -0.237 OA
ATOM     81  O   UNL A   1      40.769  19.103  25.725  1.00  0.00    -0.744 OA
ENDBRANCH  77  78
ENDBRANCH  49  72
BRANCH  61  82
ATOM     82  C   UNL A   1      49.592  26.575  26.406  1.00  0.00    -0.014 A 
ATOM     83  C   UNL A   1      50.132  26.678  25.110  1.00  0.00     0.010 A 
ATOM     84  C   UNL A   1      50.371  25.998  27.425  1.00  0.00     0.010 A 
ATOM     85  C   UNL A   1      51.400  26.163  24.830  1.00  0.00     0.020 A 
ATOM     86  C   UNL A   1      51.653  25.512  27.157  1.00  0.00     0.020 A 
ATOM     87  C   UNL A   1      52.150  25.578  25.854  1.00  0.00     0.054 A 
BRANCH  87  88
ATOM     88  S   UNL A   1      53.795  24.918  25.468  1.00  0.00     0.124 S 
ATOM     89  O   UNL A   1      54.504  25.113  26.729  1.00  0.00    -0.237 OA
ATOM     90  O   UNL A   1      53.509  23.528  25.117  1.00  0.00    -0.237 OA
ATOM     91  O   UNL A   1      54.253  25.752  24.360  1.00  0.00    -0.744 OA
ENDBRANCH  87  88
ENDBRANCH  61  82
ENDBRANCH  35  36
ENDBRANCH  27  30
ENDBRANCH  25  26
ENDBRANCH   1  25
TORSDOF 16
ENDMDL
MODEL 2
REMARK VINA RESULT:     -12.0      3.190      4.124
REMARK SMILES Cc1ccc(C(=O)N[C@@H]2C=C[C@H](C(=O)NCCCCNC(=O)c3ccc(-c4c5nc(c(-c6ccc(S(=O)(=O)[O-])cc6)c6ccc([nH]6)c(-c6ccc(S(=O)(=O)[O-])cc6)c6nc(c(-c7ccc(S(=O)(=O)[O-])cc7)c7ccc4[nH]7)C=C6)C=C5)cc3)C2)c(F)c1
REMARK SMILES IDX 18 1 17 2 16 3 15 4 13 5 14 6 12 8 9 9 10 10 83 11 11 12
REMARK SMILES IDX 8 13 6 14 7 15 5 17 1 18 2 19 3 20 86 21 4 22 84 23 85 24
REMARK SMILES IDX 19 25 20 26 21 27 22 29 23 30 24 31 82 32 25 33 81 34 26 35
REMARK SMILES IDX 27 36 28 37 75 38 29 39 80 40 74 41 76 42 30 43 79 44 73 45
REMARK SMILES IDX 72 46 31 48 61 49 42 50 60 51 43 52 46 53 59 54 77 55 44 56
REMARK SMILES IDX 45 57 58 59 78 60 47 61 32 62 33 63 41 64 34 65 40 66 35 67
REMARK SMILES IDX 36 68 37 69 38 70 39 71 62 72 63 73 71 74 64 75 70 76 65 77
REMARK SMILES IDX 66 78 67 79 68 80 69 81 48 82 49 83 57 84 50 85 56 86 51 87
REMARK SMILES IDX 52 88 53 89 54 90 55 91
REMARK H PARENT 15 7 8 16 20 28 76 47 46 58
REMARK Flexibility Score: inf
ROOT
ATOM      1  C   UNL A   1      33.718  28.278  25.267  1.00  0.00     0.023 C 
ENDROOT
BRANCH   1   2
ATOM      2  C   UNL A   1      32.612  29.113  24.619  1.00  0.00     0.023 C 
BRANCH   2   3
ATOM      3  C   UNL A   1      31.203  28.531  24.695  1.00  0.00     0.116 C 
BRANCH   3   4
ATOM      4  N   UNL A   1      31.002  27.392  23.817  1.00  0.00    -0.356 N 
ATOM      5  C   UNL A   1      30.839  26.071  24.146  1.00  0.00     0.227 C 
ATOM      6  O   UNL A   1      30.517  25.283  23.260  1.00  0.00    -0.274 OA
ATOM      7  H   UNL A   1      30.978  27.596  22.855  1.00  0.00     0.163 HD
BRANCH   5   8
ATOM      8  C   UNL A   1      31.138  25.640  25.584  1.00  0.00     0.103 C 
ATOM      9  C   UNL A   1      32.045  23.348  25.858  1.00  0.00     0.106 C 
ATOM     10  C   UNL A   1      30.636  23.472  26.350  1.00  0.00    -0.006 C 
ATOM     11  C   UNL A   1      32.427  24.813  25.595  1.00  0.00     0.047 C 
ATOM     12  C   UNL A   1      30.138  24.702  26.179  1.00  0.00    -0.016 C 
BRANCH   9  13
ATOM     13  N   UNL A   1      32.032  22.409  24.748  1.00  0.00    -0.346 N 
ATOM     14  C   UNL A   1      32.973  21.542  24.247  1.00  0.00     0.254 C 
ATOM     15  O   UNL A   1      32.615  20.604  23.541  1.00  0.00    -0.269 OA
ATOM     16  H   UNL A   1      31.179  22.391  24.257  1.00  0.00     0.164 HD
BRANCH  14  17
ATOM     17  C   UNL A   1      34.407  21.781  24.470  1.00  0.00     0.075 A 
ATOM     18  C   UNL A   1      38.223  23.309  25.697  1.00  0.00     0.044 C 
ATOM     19  C   UNL A   1      36.941  22.708  25.203  1.00  0.00    -0.048 A 
ATOM     20  C   UNL A   1      36.401  21.566  25.813  1.00  0.00     0.004 A 
ATOM     21  C   UNL A   1      36.267  23.288  24.124  1.00  0.00     0.043 A 
ATOM     22  C   UNL A   1      35.143  21.085  25.432  1.00  0.00     0.017 A 
ATOM     23  C   UNL A   1      35.002  22.830  23.769  1.00  0.00     0.136 A 
ATOM     24  F   UNL A   1      34.349  23.472  22.789  1.00  0.00    -0.206 F 
ENDBRANCH  14  17
ENDBRANCH   9  13
ENDBRANCH   5   8
ENDBRANCH   3   4
ENDBRANCH   2   3
ENDBRANCH   1   2
BRANCH   1  25
ATOM     25  C   UNL A   1      33.805  28.358  26.788  1.00  0.00     0.116 C 
BRANCH  25  26
ATOM     26  N   UNL A   1      33.605  29.704  27.296  1.00  0.00    -0.352 N 
ATOM     27  C   UNL A   1      34.441  30.492  28.052  1.00  0.00     0.251 C 
ATOM     28  H   UNL A   1      32.740  30.114  27.066  1.00  0.00     0.163 HD
ATOM     29  O   UNL A   1      34.019  31.556  28.495  1.00  0.00    -0.269 OA
BRANCH  27  30
ATOM     30  C   UNL A   1      35.826  30.060  28.353  1.00  0.00     0.039 A 
ATOM     31  C   UNL A   1      36.784  30.135  27.337  1.00  0.00     0.014 A 
ATOM     32  C   UNL A   1      36.185  29.555  29.606  1.00  0.00     0.014 A 
ATOM     33  C   UNL A   1      38.102  29.744  27.590  1.00  0.00     0.010 A 
ATOM     34  C   UNL A   1      37.517  29.249  29.882  1.00  0.00     0.010 A 
ATOM     35  C   UNL A   1      38.488  29.319  28.873  1.00  0.00    -0.014 A 
BRANCH  35  36
ATOM     36  C   UNL A   1      39.894  28.927  29.152  1.00  0.00     0.031 A 
ATOM     37  C   UNL A   1      40.845  29.898  29.804  1.00  0.00     0.074 A 
ATOM     38  C   UNL A   1      40.332  27.704  28.789  1.00  0.00     0.049 A 
ATOM     39  N   UNL A   1      42.095  29.720  30.151  1.00  0.00    -0.248 NA
ATOM     40  C   UNL A   1      40.336  31.251  30.074  1.00  0.00     0.031 C 
ATOM     41  C   UNL A   1      39.533  26.694  28.091  1.00  0.00     0.029 A 
ATOM     42  N   UNL A   1      41.555  27.103  28.954  1.00  0.00    -0.354 N 
ATOM     43  C   UNL A   1      42.525  30.942  30.660  1.00  0.00     0.074 A 
ATOM     44  C   UNL A   1      41.421  31.865  30.524  1.00  0.00     0.031 C 
ATOM     45  C   UNL A   1      40.276  25.589  27.917  1.00  0.00     0.029 A 
ATOM     46  C   UNL A   1      41.611  25.822  28.460  1.00  0.00     0.049 A 
ATOM     47  H   UNL A   1      42.320  27.549  29.387  1.00  0.00     0.167 HD
ATOM     48  C   UNL A   1      43.722  31.263  31.208  1.00  0.00     0.031 A 
ATOM     49  C   UNL A   1      42.621  24.929  28.443  1.00  0.00     0.031 A 
ATOM     50  C   UNL A   1      44.818  30.339  31.345  1.00  0.00     0.049 A 
ATOM     51  C   UNL A   1      43.931  25.293  29.086  1.00  0.00     0.074 A 
ATOM     52  C   UNL A   1      46.045  30.544  31.954  1.00  0.00     0.029 A 
ATOM     53  N   UNL A   1      44.826  29.042  30.855  1.00  0.00    -0.354 N 
ATOM     54  N   UNL A   1      44.286  26.423  29.650  1.00  0.00    -0.248 NA
ATOM     55  C   UNL A   1      44.967  24.252  29.112  1.00  0.00     0.031 C 
ATOM     56  C   UNL A   1      46.818  29.391  31.776  1.00  0.00     0.029 A 
ATOM     57  C   UNL A   1      46.047  28.442  31.122  1.00  0.00     0.049 A 
ATOM     58  H   UNL A   1      44.076  28.610  30.388  1.00  0.00     0.167 HD
ATOM     59  C   UNL A   1      45.579  26.220  30.121  1.00  0.00     0.074 A 
ATOM     60  C   UNL A   1      45.932  24.854  29.793  1.00  0.00     0.031 C 
ATOM     61  C   UNL A   1      46.396  27.087  30.773  1.00  0.00     0.031 A 
BRANCH  48  62
ATOM     62  C   UNL A   1      43.911  32.685  31.678  1.00  0.00    -0.014 A 
ATOM     63  C   UNL A   1      43.650  33.061  33.009  1.00  0.00     0.010 A 
ATOM     64  C   UNL A   1      44.369  33.661  30.774  1.00  0.00     0.010 A 
ATOM     65  C   UNL A   1      43.782  34.394  33.409  1.00  0.00     0.020 A 
ATOM     66  C   UNL A   1      44.536  34.989  31.179  1.00  0.00     0.020 A 
ATOM     67  C   UNL A   1      44.218  35.351  32.489  1.00  0.00     0.054 A 
BRANCH  67  68
ATOM     68  S   UNL A   1      44.373  37.074  33.033  1.00  0.00     0.124 S 
ATOM     69  O   UNL A   1      43.054  37.328  33.606  1.00  0.00    -0.237 OA
ATOM     70  O   UNL A   1      45.472  37.010  33.993  1.00  0.00    -0.237 OA
ATOM     71  O   UNL A   1      44.668  37.802  31.801  1.00  0.00    -0.744 OA
ENDBRANCH  67  68
ENDBRANCH  48  62
BRANCH  49  72
ATOM     72  C   UNL A   1      42.409  23.596  27.815  1.00  0.00    -0.014 A 
ATOM     73  C   UNL A   1      42.812  23.350  26.491  1.00  0.00     0.010 A 
ATOM     74  C   UNL A   1      41.847  22.546  28.565  1.00  0.00     0.010 A 
ATOM     75  C   UNL A   1      42.653  22.081  25.927  1.00  0.00     0.020 A 
ATOM     76  C   UNL A   1      41.714  21.269  28.015  1.00  0.00     0.020 A 
ATOM     77  C   UNL A   1      42.114  21.044  26.697  1.00  0.00     0.054 A 
BRANCH  77  78
ATOM     78  S   UNL A   1      42.001  19.385  25.973  1.00  0.00     0.124 S 
ATOM     79  O   UNL A   1      42.858  19.505  24.797  1.00  0.00    -0.237 OA
ATOM     80  O   UNL A   1      42.515  18.538  27.047  1.00  0.00    -0.237 OA
ATOM     81  O   UNL A   1      40.575  19.227  25.696  1.00  0.00    -0.744 OA
ENDBRANCH  77  78
ENDBRANCH  49  72
BRANCH  61  82
ATOM     82  C   UNL A   1      47.747  26.572  31.202  1.00  0.00    -0.014 A 
ATOM     83  C   UNL A   1      47.953  26.015  32.478  1.00  0.00     0.010 A 
ATOM     84  C   UNL A   1      48.826  26.629  30.300  1.00  0.00     0.010 A 
ATOM     85  C   UNL A   1      49.224  25.578  32.861  1.00  0.00     0.020 A 
ATOM     86  C   UNL A   1      50.090  26.161  30.668  1.00  0.00     0.020 A 
ATOM     87  C   UNL A   1      50.285  25.659  31.956  1.00  0.00     0.054 A 
BRANCH  87  88
ATOM     88  S   UNL A   1      51.925  25.083  32.475  1.00  0.00     0.124 S 
ATOM     89  O   UNL A   1      51.994  25.565  33.852  1.00  0.00    -0.237 OA
ATOM     90  O   UNL A   1      51.819  23.634  32.321  1.00  0.00    -0.237 OA
ATOM     91  O   UNL A   1      52.835  25.739  31.539  1.00  0.00    -0.744 OA
ENDBRANCH  87  88
ENDBRANCH  61  82
ENDBRANCH  35  36
ENDBRANCH  27  30
ENDBRANCH  25  26
ENDBRANCH   1  25
TORSDOF 16
ENDMDL
MODEL 3
REMARK VINA RESULT:     -11.9      3.253      4.048
REMARK SMILES Cc1ccc(C(=O)N[C@@H]2C=C[C@H](C(=O)NCCCCNC(=O)c3ccc(-c4c5nc(c(-c6ccc(S(=O)(=O)[O-])cc6)c6ccc([nH]6)c(-c6ccc(S(=O)(=O)[O-])cc6)c6nc(c(-c7ccc(S(=O)(=O)[O-])cc7)c7ccc4[nH]7)C=C6)C=C5)cc3)C2)c(F)c1
REMARK SMILES IDX 18 1 17 2 16 3 15 4 13 5 14 6 12 8 9 9 10 10 83 11 11 12
REMARK SMILES IDX 8 13 6 14 7 15 5 17 1 18 2 19 3 20 86 21 4 22 84 23 85 24
REMARK SMILES IDX 19 25 20 26 21 27 22 29 23 30 24 31 82 32 25 33 81 34 26 35
REMARK SMILES IDX 27 36 28 37 75 38 29 39 80 40 74 41 76 42 30 43 79 44 73 45
REMARK SMILES IDX 72 46 31 48 61 49 42 50 60 51 43 52 46 53 59 54 77 55 44 56
REMARK SMILES IDX 45 57 58 59 78 60 47 61 32 62 33 63 41 64 34 65 40 66 35 67
REMARK SMILES IDX 36 68 37 69 38 70 39 71 62 72 63 73 71 74 64 75 70 76 65 77
REMARK SMILES IDX 66 78 67 79 68 80 69 81 48 82 49 83 57 84 50 85 56 86 51 87
REMARK SMILES IDX 52 88 53 89 54 90 55 91
REMARK H PARENT 15 7 8 16 20 28 76 47 46 58
REMARK Flexibility Score: inf
ROOT
ATOM      1  C   UNL A   1      34.088  28.117  25.494  1.00  0.00     0.023 C 
ENDROOT
BRANCH   1   2
ATOM      2  C   UNL A   1      33.362  29.073  24.546  1.00  0.00     0.023 C 
BRANCH   2   3
ATOM      3  C   UNL A   1      33.111  28.553  23.133  1.00  0.00     0.116 C 
BRANCH   3   4
ATOM      4  N   UNL A   1      31.953  27.683  23.037  1.00  0.00    -0.356 N 
ATOM      5  C   UNL A   1      31.910  26.316  22.936  1.00  0.00     0.227 C 
ATOM      6  O   UNL A   1      30.820  25.756  23.031  1.00  0.00    -0.274 OA
ATOM      7  H   UNL A   1      31.079  28.136  23.045  1.00  0.00     0.163 HD
BRANCH   5   8
ATOM      8  C   UNL A   1      33.212  25.569  22.638  1.00  0.00     0.103 C 
ATOM      9  C   UNL A   1      33.247  23.169  23.259  1.00  0.00     0.106 C 
ATOM     10  C   UNL A   1      34.110  24.007  24.152  1.00  0.00    -0.006 C 
ATOM     11  C   UNL A   1      32.873  24.159  22.146  1.00  0.00     0.047 C 
ATOM     12  C   UNL A   1      34.071  25.305  23.833  1.00  0.00    -0.016 C 
BRANCH   9  13
ATOM     13  N   UNL A   1      32.195  22.603  24.087  1.00  0.00    -0.346 N 
ATOM     14  C   UNL A   1      32.030  21.373  24.678  1.00  0.00     0.254 C 
ATOM     15  O   UNL A   1      31.245  21.252  25.614  1.00  0.00    -0.269 OA
ATOM     16  H   UNL A   1      31.450  23.225  24.258  1.00  0.00     0.164 HD
BRANCH  14  17
ATOM     17  C   UNL A   1      32.712  20.186  24.141  1.00  0.00     0.075 A 
ATOM     18  C   UNL A   1      34.296  16.257  23.458  1.00  0.00     0.044 C 
ATOM     19  C   UNL A   1      33.801  17.665  23.615  1.00  0.00    -0.048 A 
ATOM     20  C   UNL A   1      32.689  18.119  22.893  1.00  0.00     0.004 A 
ATOM     21  C   UNL A   1      34.450  18.540  24.492  1.00  0.00     0.043 A 
ATOM     22  C   UNL A   1      32.155  19.390  23.137  1.00  0.00     0.017 A 
ATOM     23  C   UNL A   1      33.899  19.789  24.758  1.00  0.00     0.136 A 
ATOM     24  F   UNL A   1      34.499  20.563  25.674  1.00  0.00    -0.206 F 
ENDBRANCH  14  17
ENDBRANCH   9  13
ENDBRANCH   5   8
ENDBRANCH   3   4
ENDBRANCH   2   3
ENDBRANCH   1   2
BRANCH   1  25
ATOM     25  C   UNL A   1      33.770  28.283  26.976  1.00  0.00     0.116 C 
BRANCH  25  26
ATOM     26  N   UNL A   1      33.574  29.670  27.361  1.00  0.00    -0.352 N 
ATOM     27  C   UNL A   1      34.433  30.537  27.995  1.00  0.00     0.251 C 
ATOM     28  H   UNL A   1      32.693  30.046  27.135  1.00  0.00     0.163 HD
ATOM     29  O   UNL A   1      34.017  31.635  28.354  1.00  0.00    -0.269 OA
BRANCH  27  30
ATOM     30  C   UNL A   1      35.838  30.151  28.268  1.00  0.00     0.039 A 
ATOM     31  C   UNL A   1      36.164  29.675  29.542  1.00  0.00     0.014 A 
ATOM     32  C   UNL A   1      36.839  30.281  27.301  1.00  0.00     0.014 A 
ATOM     33  C   UNL A   1      37.478  29.295  29.830  1.00  0.00     0.010 A 
ATOM     34  C   UNL A   1      38.128  29.819  27.562  1.00  0.00     0.010 A 
ATOM     35  C   UNL A   1      38.469  29.340  28.835  1.00  0.00    -0.014 A 
BRANCH  35  36
ATOM     36  C   UNL A   1      39.862  28.912  29.130  1.00  0.00     0.031 A 
ATOM     37  C   UNL A   1      40.830  29.856  29.795  1.00  0.00     0.074 A 
ATOM     38  C   UNL A   1      40.272  27.679  28.768  1.00  0.00     0.049 A 
ATOM     39  N   UNL A   1      42.071  29.645  30.156  1.00  0.00    -0.248 NA
ATOM     40  C   UNL A   1      40.353  31.221  30.063  1.00  0.00     0.031 C 
ATOM     41  C   UNL A   1      39.455  26.691  28.058  1.00  0.00     0.029 A 
ATOM     42  N   UNL A   1      41.477  27.046  28.945  1.00  0.00    -0.354 N 
ATOM     43  C   UNL A   1      42.527  30.853  30.674  1.00  0.00     0.074 A 
ATOM     44  C   UNL A   1      41.448  31.805  30.527  1.00  0.00     0.031 C 
ATOM     45  C   UNL A   1      40.171  25.569  27.889  1.00  0.00     0.029 A 
ATOM     46  C   UNL A   1      41.506  25.765  28.447  1.00  0.00     0.049 A 
ATOM     47  H   UNL A   1      42.248  27.470  29.387  1.00  0.00     0.167 HD
ATOM     48  C   UNL A   1      43.725  31.142  31.236  1.00  0.00     0.031 A 
ATOM     49  C   UNL A   1      42.492  24.847  28.440  1.00  0.00     0.031 A 
ATOM     50  C   UNL A   1      44.795  30.190  31.382  1.00  0.00     0.049 A 
ATOM     51  C   UNL A   1      43.804  25.174  29.098  1.00  0.00     0.074 A 
ATOM     52  C   UNL A   1      46.020  30.360  32.006  1.00  0.00     0.029 A 
ATOM     53  N   UNL A   1      44.775  28.894  30.889  1.00  0.00    -0.354 N 
ATOM     54  N   UNL A   1      44.181  26.293  29.670  1.00  0.00    -0.248 NA
ATOM     55  C   UNL A   1      44.812  24.107  29.133  1.00  0.00     0.031 C 
ATOM     56  C   UNL A   1      46.765  29.188  31.833  1.00  0.00     0.029 A 
ATOM     57  C   UNL A   1      45.977  28.262  31.167  1.00  0.00     0.049 A 
ATOM     58  H   UNL A   1      44.019  28.483  30.412  1.00  0.00     0.167 HD
ATOM     59  C   UNL A   1      45.463  26.056  30.155  1.00  0.00     0.074 A 
ATOM     60  C   UNL A   1      45.784  24.681  29.827  1.00  0.00     0.031 C 
ATOM     61  C   UNL A   1      46.295  26.899  30.818  1.00  0.00     0.031 A 
BRANCH  48  62
ATOM     62  C   UNL A   1      43.946  32.557  31.712  1.00  0.00    -0.014 A 
ATOM     63  C   UNL A   1      44.438  33.555  30.851  1.00  0.00     0.010 A 
ATOM     64  C   UNL A   1      43.646  32.898  33.044  1.00  0.00     0.010 A 
ATOM     65  C   UNL A   1      44.684  34.846  31.327  1.00  0.00     0.020 A 
ATOM     66  C   UNL A   1      43.858  34.197  33.515  1.00  0.00     0.020 A 
ATOM     67  C   UNL A   1      44.399  35.156  32.659  1.00  0.00     0.054 A 
BRANCH  67  68
ATOM     68  S   UNL A   1      44.736  36.837  33.253  1.00  0.00     0.124 S 
ATOM     69  O   UNL A   1      43.791  37.627  32.467  1.00  0.00    -0.237 OA
ATOM     70  O   UNL A   1      44.437  36.739  34.679  1.00  0.00    -0.237 OA
ATOM     71  O   UNL A   1      46.144  37.046  32.927  1.00  0.00    -0.744 OA
ENDBRANCH  67  68
ENDBRANCH  48  62
BRANCH  49  72
ATOM     72  C   UNL A   1      42.253  23.521  27.805  1.00  0.00    -0.014 A 
ATOM     73  C   UNL A   1      42.654  23.272  26.481  1.00  0.00     0.010 A 
ATOM     74  C   UNL A   1      41.666  22.480  28.548  1.00  0.00     0.010 A 
ATOM     75  C   UNL A   1      42.469  22.009  25.911  1.00  0.00     0.020 A 
ATOM     76  C   UNL A   1      41.506  21.209  27.993  1.00  0.00     0.020 A 
ATOM     77  C   UNL A   1      41.905  20.981  26.675  1.00  0.00     0.054 A 
BRANCH  77  78
ATOM     78  S   UNL A   1      41.759  19.327  25.944  1.00  0.00     0.124 S 
ATOM     79  O   UNL A   1      42.649  19.422  24.791  1.00  0.00    -0.237 OA
ATOM     80  O   UNL A   1      42.216  18.463  27.029  1.00  0.00    -0.237 OA
ATOM     81  O   UNL A   1      40.336  19.217  25.628  1.00  0.00    -0.744 OA
ENDBRANCH  77  78
ENDBRANCH  49  72
BRANCH  61  82
ATOM     82  C   UNL A   1      47.627  26.348  31.262  1.00  0.00    -0.014 A 
ATOM     83  C   UNL A   1      48.761  26.402  30.431  1.00  0.00     0.010 A 
ATOM     84  C   UNL A   1      47.747  25.783  32.545  1.00  0.00     0.010 A 
ATOM     85  C   UNL A   1      49.974  25.851  30.854  1.00  0.00     0.020 A 
ATOM     86  C   UNL A   1      48.967  25.263  32.985  1.00  0.00     0.020 A 
ATOM     87  C   UNL A   1      50.067  25.280  32.126  1.00  0.00     0.054 A 
BRANCH  87  88
ATOM     88  S   UNL A   1      51.652  24.575  32.656  1.00  0.00     0.124 S 
ATOM     89  O   UNL A   1      51.675  24.912  34.077  1.00  0.00    -0.237 OA
ATOM     90  O   UNL A   1      51.490  23.156  32.350  1.00  0.00    -0.237 OA
ATOM     91  O   UNL A   1      52.636  25.275  31.834  1.00  0.00    -0.744 OA
ENDBRANCH  87  88
ENDBRANCH  61  82
ENDBRANCH  35  36
ENDBRANCH  27  30
ENDBRANCH  25  26
ENDBRANCH   1  25
TORSDOF 16
ENDMDL
