MODEL 1
REMARK VINA RESULT:     -10.3      0.000      0.000
REMARK SMILES CC[C@H](C)N(CC)c1cc(C)c(N)c(C(=O)NCCCCNC(=O)c2ccc(-c3c4nc(c(-c5ccc(S(=O)(=O)[O-])cc5)c5ccc([nH]5)c(-c5ccc(S(=O)(=O)[O-])cc5)c5nc(c(-c6ccc(S(=O)(=O)[O-])cc6)c6ccc3[nH]6)C=C5)C=C4)cc2)c1
REMARK SMILES IDX 19 1 18 2 17 3 15 4 16 5 14 7 8 8 9 9 85 10 10 11 11 12
REMARK SMILES IDX 12 13 5 14 3 15 4 16 2 17 1 18 6 19 7 20 13 21 20 24 21 25
REMARK SMILES IDX 22 26 23 27 24 29 25 30 26 31 84 32 27 33 83 34 28 35 29 36
REMARK SMILES IDX 30 37 77 38 31 39 82 40 76 41 78 42 32 43 81 44 75 45 74 46
REMARK SMILES IDX 33 48 63 49 44 50 62 51 45 52 48 53 61 54 79 55 46 56 47 57
REMARK SMILES IDX 60 59 80 60 49 61 34 62 35 63 43 64 36 65 42 66 37 67 38 68
REMARK SMILES IDX 39 69 40 70 41 71 64 72 65 73 73 74 66 75 72 76 67 77 68 78
REMARK SMILES IDX 69 79 70 80 71 81 50 82 51 83 59 84 52 85 58 86 53 87 54 88
REMARK SMILES IDX 55 89 56 90 57 91
REMARK H PARENT 17 6 13 22 13 23 22 28 78 47 48 58
REMARK Flexibility Score: inf
ROOT
ATOM      1  C   UNL A   1      33.780  26.335  25.707  1.00  0.00     0.023 C 
ENDROOT
BRANCH   1   2
ATOM      2  C   UNL A   1      34.145  26.134  24.234  1.00  0.00     0.116 C 
BRANCH   2   3
ATOM      3  N   UNL A   1      32.948  26.057  23.428  1.00  0.00    -0.352 N 
ATOM      4  C   UNL A   1      31.945  25.123  23.328  1.00  0.00     0.253 C 
ATOM      5  O   UNL A   1      31.075  25.370  22.487  1.00  0.00    -0.269 OA
ATOM      6  H   UNL A   1      32.825  26.829  22.830  1.00  0.00     0.163 HD
BRANCH   4   7
ATOM      7  C   UNL A   1      31.834  23.884  24.178  1.00  0.00     0.065 A 
ATOM      8  C   UNL A   1      32.580  21.614  24.792  1.00  0.00     0.038 A 
ATOM      9  C   UNL A   1      31.616  21.606  25.798  1.00  0.00     0.031 A 
ATOM     10  C   UNL A   1      32.625  22.743  23.964  1.00  0.00     0.042 A 
ATOM     11  C   UNL A   1      30.733  22.682  25.995  1.00  0.00    -0.025 A 
ATOM     12  C   UNL A   1      29.681  22.568  27.065  1.00  0.00     0.046 C 
ATOM     13  C   UNL A   1      30.843  23.838  25.193  1.00  0.00     0.047 A 
BRANCH   8  14
ATOM     14  N   UNL A   1      33.471  20.567  24.593  1.00  0.00    -0.369 N 
BRANCH  14  15
ATOM     15  C   UNL A   1      33.042  19.200  24.232  1.00  0.00     0.078 C 
ATOM     16  C   UNL A   1      32.233  19.179  22.933  1.00  0.00     0.031 C 
BRANCH  15  17
ATOM     17  C   UNL A   1      34.220  18.206  24.326  1.00  0.00     0.021 C 
ATOM     18  C   UNL A   1      34.064  16.926  23.520  1.00  0.00     0.006 C 
ENDBRANCH  15  17
ENDBRANCH  14  15
BRANCH  14  19
ATOM     19  C   UNL A   1      34.852  20.742  25.071  1.00  0.00     0.113 C 
ATOM     20  C   UNL A   1      34.926  21.612  26.316  1.00  0.00     0.027 C 
ENDBRANCH  14  19
ENDBRANCH   8  14
BRANCH  13  21
ATOM     21  N   UNL A   1      30.077  24.965  25.519  1.00  0.00    -0.398 N 
ATOM     22  H   UNL A   1      29.414  24.918  26.245  1.00  0.00     0.156 HD
ATOM     23  H   UNL A   1      30.201  25.805  25.019  1.00  0.00     0.156 HD
ENDBRANCH  13  21
ENDBRANCH   4   7
ENDBRANCH   2   3
ENDBRANCH   1   2
BRANCH   1  24
ATOM     24  C   UNL A   1      33.256  27.739  26.024  1.00  0.00     0.023 C 
BRANCH  24  25
ATOM     25  C   UNL A   1      34.341  28.764  26.338  1.00  0.00     0.116 C 
BRANCH  25  26
ATOM     26  N   UNL A   1      33.813  30.090  26.613  1.00  0.00    -0.352 N 
ATOM     27  C   UNL A   1      34.272  31.029  27.507  1.00  0.00     0.251 C 
ATOM     28  H   UNL A   1      33.020  30.351  26.091  1.00  0.00     0.163 HD
ATOM     29  O   UNL A   1      33.639  32.054  27.699  1.00  0.00    -0.269 OA
BRANCH  27  30
ATOM     30  C   UNL A   1      35.518  30.759  28.259  1.00  0.00     0.039 A 
ATOM     31  C   UNL A   1      35.530  29.701  29.169  1.00  0.00     0.014 A 
ATOM     32  C   UNL A   1      36.667  31.525  28.052  1.00  0.00     0.014 A 
ATOM     33  C   UNL A   1      36.716  29.380  29.832  1.00  0.00     0.010 A 
ATOM     34  C   UNL A   1      37.868  31.150  28.648  1.00  0.00     0.010 A 
ATOM     35  C   UNL A   1      37.902  30.081  29.554  1.00  0.00    -0.014 A 
BRANCH  35  36
ATOM     36  C   UNL A   1      39.177  29.690  30.205  1.00  0.00     0.031 A 
ATOM     37  C   UNL A   1      39.616  30.343  31.486  1.00  0.00     0.074 A 
ATOM     38  C   UNL A   1      39.952  28.753  29.624  1.00  0.00     0.049 A 
ATOM     39  N   UNL A   1      40.645  30.058  32.244  1.00  0.00    -0.248 NA
ATOM     40  C   UNL A   1      38.813  31.476  31.969  1.00  0.00     0.031 C 
ATOM     41  C   UNL A   1      39.665  28.091  28.349  1.00  0.00     0.029 A 
ATOM     42  N   UNL A   1      41.125  28.178  30.040  1.00  0.00    -0.354 N 
ATOM     43  C   UNL A   1      40.616  30.979  33.284  1.00  0.00     0.074 A 
ATOM     44  C   UNL A   1      39.508  31.872  33.025  1.00  0.00     0.031 C 
ATOM     45  C   UNL A   1      40.598  27.153  28.121  1.00  0.00     0.029 A 
ATOM     46  C   UNL A   1      41.565  27.170  29.214  1.00  0.00     0.049 A 
ATOM     47  H   UNL A   1      41.607  28.459  30.851  1.00  0.00     0.167 HD
ATOM     48  C   UNL A   1      41.422  31.062  34.371  1.00  0.00     0.031 A 
ATOM     49  C   UNL A   1      42.613  26.334  29.336  1.00  0.00     0.031 A 
ATOM     50  C   UNL A   1      42.529  30.176  34.617  1.00  0.00     0.049 A 
ATOM     51  C   UNL A   1      43.493  26.436  30.551  1.00  0.00     0.074 A 
ATOM     52  C   UNL A   1      43.373  30.134  35.713  1.00  0.00     0.029 A 
ATOM     53  N   UNL A   1      42.953  29.181  33.749  1.00  0.00    -0.354 N 
ATOM     54  N   UNL A   1      43.398  27.256  31.571  1.00  0.00    -0.248 NA
ATOM     55  C   UNL A   1      44.607  25.485  30.638  1.00  0.00     0.031 C 
ATOM     56  C   UNL A   1      44.344  29.153  35.479  1.00  0.00     0.029 A 
ATOM     57  C   UNL A   1      44.063  28.537  34.269  1.00  0.00     0.049 A 
ATOM     58  H   UNL A   1      42.527  28.964  32.888  1.00  0.00     0.167 HD
ATOM     59  C   UNL A   1      44.423  26.897  32.440  1.00  0.00     0.074 A 
ATOM     60  C   UNL A   1      45.114  25.780  31.827  1.00  0.00     0.031 C 
ATOM     61  C   UNL A   1      44.754  27.437  33.640  1.00  0.00     0.031 A 
BRANCH  48  62
ATOM     62  C   UNL A   1      41.138  32.171  35.354  1.00  0.00    -0.014 A 
ATOM     63  C   UNL A   1      40.224  31.994  36.411  1.00  0.00     0.010 A 
ATOM     64  C   UNL A   1      41.786  33.411  35.216  1.00  0.00     0.010 A 
ATOM     65  C   UNL A   1      39.908  33.058  37.262  1.00  0.00     0.020 A 
ATOM     66  C   UNL A   1      41.499  34.467  36.086  1.00  0.00     0.020 A 
ATOM     67  C   UNL A   1      40.540  34.292  37.086  1.00  0.00     0.054 A 
BRANCH  67  68
ATOM     68  S   UNL A   1      40.094  35.664  38.185  1.00  0.00     0.124 S 
ATOM     69  O   UNL A   1      41.317  35.833  38.965  1.00  0.00    -0.237 OA
ATOM     70  O   UNL A   1      39.794  36.743  37.246  1.00  0.00    -0.237 OA
ATOM     71  O   UNL A   1      38.944  35.154  38.928  1.00  0.00    -0.744 OA
ENDBRANCH  67  68
ENDBRANCH  48  62
BRANCH  49  72
ATOM     72  C   UNL A   1      42.834  25.278  28.310  1.00  0.00    -0.014 A 
ATOM     73  C   UNL A   1      43.647  25.537  27.192  1.00  0.00     0.010 A 
ATOM     74  C   UNL A   1      42.276  23.997  28.468  1.00  0.00     0.010 A 
ATOM     75  C   UNL A   1      43.898  24.536  26.250  1.00  0.00     0.020 A 
ATOM     76  C   UNL A   1      42.546  22.984  27.542  1.00  0.00     0.020 A 
ATOM     77  C   UNL A   1      43.352  23.262  26.436  1.00  0.00     0.054 A 
BRANCH  77  78
ATOM     78  S   UNL A   1      43.761  21.957  25.244  1.00  0.00     0.124 S 
ATOM     79  O   UNL A   1      42.726  20.963  25.513  1.00  0.00    -0.237 OA
ATOM     80  O   UNL A   1      43.651  22.654  23.965  1.00  0.00    -0.237 OA
ATOM     81  O   UNL A   1      45.117  21.565  25.617  1.00  0.00    -0.744 OA
ENDBRANCH  77  78
ENDBRANCH  49  72
BRANCH  61  82
ATOM     82  C   UNL A   1      45.898  26.801  34.387  1.00  0.00    -0.014 A 
ATOM     83  C   UNL A   1      45.689  25.759  35.306  1.00  0.00     0.010 A 
ATOM     84  C   UNL A   1      47.211  27.248  34.145  1.00  0.00     0.010 A 
ATOM     85  C   UNL A   1      46.765  25.211  36.010  1.00  0.00     0.020 A 
ATOM     86  C   UNL A   1      48.293  26.679  34.821  1.00  0.00     0.020 A 
ATOM     87  C   UNL A   1      48.060  25.679  35.766  1.00  0.00     0.054 A 
BRANCH  87  88
ATOM     88  S   UNL A   1      49.442  24.945  36.683  1.00  0.00     0.124 S 
ATOM     89  O   UNL A   1      50.564  25.776  36.256  1.00  0.00    -0.237 OA
ATOM     90  O   UNL A   1      49.030  25.112  38.074  1.00  0.00    -0.237 OA
ATOM     91  O   UNL A   1      49.475  23.562  36.211  1.00  0.00    -0.744 OA
ENDBRANCH  87  88
ENDBRANCH  61  82
ENDBRANCH  35  36
ENDBRANCH  27  30
ENDBRANCH  25  26
ENDBRANCH  24  25
ENDBRANCH   1  24
TORSDOF 19
ENDMDL
MODEL 2
REMARK VINA RESULT:     -10.2      3.015      9.440
REMARK SMILES CC[C@H](C)N(CC)c1cc(C)c(N)c(C(=O)NCCCCNC(=O)c2ccc(-c3c4nc(c(-c5ccc(S(=O)(=O)[O-])cc5)c5ccc([nH]5)c(-c5ccc(S(=O)(=O)[O-])cc5)c5nc(c(-c6ccc(S(=O)(=O)[O-])cc6)c6ccc3[nH]6)C=C5)C=C4)cc2)c1
REMARK SMILES IDX 19 1 18 2 17 3 15 4 16 5 14 7 8 8 9 9 85 10 10 11 11 12
REMARK SMILES IDX 12 13 5 14 3 15 4 16 2 17 1 18 6 19 7 20 13 21 20 24 21 25
REMARK SMILES IDX 22 26 23 27 24 29 25 30 26 31 84 32 27 33 83 34 28 35 29 36
REMARK SMILES IDX 30 37 77 38 31 39 82 40 76 41 78 42 32 43 81 44 75 45 74 46
REMARK SMILES IDX 33 48 63 49 44 50 62 51 45 52 48 53 61 54 79 55 46 56 47 57
REMARK SMILES IDX 60 59 80 60 49 61 34 62 35 63 43 64 36 65 42 66 37 67 38 68
REMARK SMILES IDX 39 69 40 70 41 71 64 72 65 73 73 74 66 75 72 76 67 77 68 78
REMARK SMILES IDX 69 79 70 80 71 81 50 82 51 83 59 84 52 85 58 86 53 87 54 88
REMARK SMILES IDX 55 89 56 90 57 91
REMARK H PARENT 17 6 13 22 13 23 22 28 78 47 48 58
REMARK Flexibility Score: inf
ROOT
ATOM      1  C   UNL A   1      39.520  22.339  26.230  1.00  0.00     0.023 C 
ENDROOT
BRANCH   1   2
ATOM      2  C   UNL A   1      38.202  23.104  26.070  1.00  0.00     0.116 C 
BRANCH   2   3
ATOM      3  N   UNL A   1      37.706  22.969  24.720  1.00  0.00    -0.352 N 
ATOM      4  C   UNL A   1      36.462  23.128  24.159  1.00  0.00     0.253 C 
ATOM      5  O   UNL A   1      36.392  22.887  22.950  1.00  0.00    -0.269 OA
ATOM      6  H   UNL A   1      38.399  22.710  24.070  1.00  0.00     0.163 HD
BRANCH   4   7
ATOM      7  C   UNL A   1      35.236  23.595  24.901  1.00  0.00     0.065 A 
ATOM      8  C   UNL A   1      33.410  25.218  25.245  1.00  0.00     0.038 A 
ATOM      9  C   UNL A   1      32.942  24.419  26.286  1.00  0.00     0.031 A 
ATOM     10  C   UNL A   1      34.591  24.808  24.611  1.00  0.00     0.042 A 
ATOM     11  C   UNL A   1      33.605  23.244  26.681  1.00  0.00    -0.025 A 
ATOM     12  C   UNL A   1      33.067  22.470  27.855  1.00  0.00     0.046 C 
ATOM     13  C   UNL A   1      34.753  22.814  25.983  1.00  0.00     0.047 A 
BRANCH   8  14
ATOM     14  N   UNL A   1      32.760  26.373  24.830  1.00  0.00    -0.369 N 
BRANCH  14  15
ATOM     15  C   UNL A   1      31.870  27.158  25.710  1.00  0.00     0.078 C 
ATOM     16  C   UNL A   1      30.670  26.337  26.190  1.00  0.00     0.031 C 
BRANCH  15  17
ATOM     17  C   UNL A   1      32.677  27.898  26.798  1.00  0.00     0.021 C 
ATOM     18  C   UNL A   1      34.127  28.196  26.451  1.00  0.00     0.006 C 
ENDBRANCH  15  17
ENDBRANCH  14  15
BRANCH  14  19
ATOM     19  C   UNL A   1      32.696  26.643  23.384  1.00  0.00     0.113 C 
ATOM     20  C   UNL A   1      33.637  27.762  22.965  1.00  0.00     0.027 C 
ENDBRANCH  14  19
ENDBRANCH   8  14
BRANCH  13  21
ATOM     21  N   UNL A   1      35.294  21.555  26.275  1.00  0.00    -0.398 N 
ATOM     22  H   UNL A   1      36.104  21.484  26.829  1.00  0.00     0.156 HD
ATOM     23  H   UNL A   1      34.863  20.742  25.924  1.00  0.00     0.156 HD
ENDBRANCH  13  21
ENDBRANCH   4   7
ENDBRANCH   2   3
ENDBRANCH   1   2
BRANCH   1  24
ATOM     24  C   UNL A   1      40.287  22.697  27.507  1.00  0.00     0.023 C 
BRANCH  24  25
ATOM     25  C   UNL A   1      41.696  23.229  27.270  1.00  0.00     0.116 C 
BRANCH  25  26
ATOM     26  N   UNL A   1      41.789  24.112  26.119  1.00  0.00    -0.352 N 
ATOM     27  C   UNL A   1      41.618  25.475  26.067  1.00  0.00     0.251 C 
ATOM     28  H   UNL A   1      42.003  23.676  25.263  1.00  0.00     0.163 HD
ATOM     29  O   UNL A   1      41.616  26.052  24.991  1.00  0.00    -0.269 OA
BRANCH  27  30
ATOM     30  C   UNL A   1      41.395  26.223  27.324  1.00  0.00     0.039 A 
ATOM     31  C   UNL A   1      42.361  27.145  27.730  1.00  0.00     0.014 A 
ATOM     32  C   UNL A   1      40.236  26.036  28.081  1.00  0.00     0.014 A 
ATOM     33  C   UNL A   1      42.135  27.917  28.871  1.00  0.00     0.010 A 
ATOM     34  C   UNL A   1      39.974  26.866  29.167  1.00  0.00     0.010 A 
ATOM     35  C   UNL A   1      40.927  27.807  29.581  1.00  0.00    -0.014 A 
BRANCH  35  36
ATOM     36  C   UNL A   1      40.659  28.682  30.750  1.00  0.00     0.031 A 
ATOM     37  C   UNL A   1      41.502  28.582  31.991  1.00  0.00     0.074 A 
ATOM     38  C   UNL A   1      39.636  29.558  30.695  1.00  0.00     0.049 A 
ATOM     39  N   UNL A   1      41.475  29.331  33.065  1.00  0.00    -0.248 NA
ATOM     40  C   UNL A   1      42.484  27.489  32.047  1.00  0.00     0.031 C 
ATOM     41  C   UNL A   1      38.709  29.705  29.571  1.00  0.00     0.029 A 
ATOM     42  N   UNL A   1      39.220  30.504  31.596  1.00  0.00    -0.354 N 
ATOM     43  C   UNL A   1      42.428  28.795  33.923  1.00  0.00     0.074 A 
ATOM     44  C   UNL A   1      42.967  27.620  33.274  1.00  0.00     0.031 C 
ATOM     45  C   UNL A   1      37.877  30.728  29.819  1.00  0.00     0.029 A 
ATOM     46  C   UNL A   1      38.188  31.286  31.131  1.00  0.00     0.049 A 
ATOM     47  H   UNL A   1      39.619  30.613  32.489  1.00  0.00     0.167 HD
ATOM     48  C   UNL A   1      42.837  29.251  35.133  1.00  0.00     0.031 A 
ATOM     49  C   UNL A   1      37.580  32.352  31.685  1.00  0.00     0.031 A 
ATOM     50  C   UNL A   1      42.289  30.415  35.778  1.00  0.00     0.049 A 
ATOM     51  C   UNL A   1      38.051  32.848  33.025  1.00  0.00     0.074 A 
ATOM     52  C   UNL A   1      42.668  30.998  36.974  1.00  0.00     0.029 A 
ATOM     53  N   UNL A   1      41.235  31.169  35.283  1.00  0.00    -0.354 N 
ATOM     54  N   UNL A   1      39.015  32.382  33.784  1.00  0.00    -0.248 NA
ATOM     55  C   UNL A   1      37.364  34.025  33.569  1.00  0.00     0.031 C 
ATOM     56  C   UNL A   1      41.804  32.069  37.232  1.00  0.00     0.029 A 
ATOM     57  C   UNL A   1      40.930  32.196  36.162  1.00  0.00     0.049 A 
ATOM     58  H   UNL A   1      40.769  31.000  34.433  1.00  0.00     0.167 HD
ATOM     59  C   UNL A   1      39.073  33.232  34.883  1.00  0.00     0.074 A 
ATOM     60  C   UNL A   1      38.053  34.243  34.681  1.00  0.00     0.031 C 
ATOM     61  C   UNL A   1      39.900  33.185  35.957  1.00  0.00     0.031 A 
BRANCH  48  62
ATOM     62  C   UNL A   1      43.913  28.463  35.837  1.00  0.00    -0.014 A 
ATOM     63  C   UNL A   1      45.279  28.736  35.622  1.00  0.00     0.010 A 
ATOM     64  C   UNL A   1      43.558  27.426  36.718  1.00  0.00     0.010 A 
ATOM     65  C   UNL A   1      46.264  27.941  36.215  1.00  0.00     0.020 A 
ATOM     66  C   UNL A   1      44.541  26.651  37.342  1.00  0.00     0.020 A 
ATOM     67  C   UNL A   1      45.887  26.895  37.063  1.00  0.00     0.054 A 
BRANCH  67  68
ATOM     68  S   UNL A   1      47.182  25.861  37.799  1.00  0.00     0.124 S 
ATOM     69  O   UNL A   1      46.651  25.623  39.138  1.00  0.00    -0.237 OA
ATOM     70  O   UNL A   1      47.203  24.696  36.917  1.00  0.00    -0.237 OA
ATOM     71  O   UNL A   1      48.375  26.702  37.740  1.00  0.00    -0.744 OA
ENDBRANCH  67  68
ENDBRANCH  48  62
BRANCH  49  72
ATOM     72  C   UNL A   1      36.513  33.063  30.931  1.00  0.00    -0.014 A 
ATOM     73  C   UNL A   1      35.162  32.885  31.279  1.00  0.00     0.010 A 
ATOM     74  C   UNL A   1      36.840  33.958  29.896  1.00  0.00     0.010 A 
ATOM     75  C   UNL A   1      34.157  33.587  30.608  1.00  0.00     0.020 A 
ATOM     76  C   UNL A   1      35.839  34.682  29.240  1.00  0.00     0.020 A 
ATOM     77  C   UNL A   1      34.503  34.488  29.597  1.00  0.00     0.054 A 
BRANCH  77  78
ATOM     78  S   UNL A   1      33.188  35.448  28.797  1.00  0.00     0.124 S 
ATOM     79  O   UNL A   1      32.434  35.947  29.943  1.00  0.00    -0.237 OA
ATOM     80  O   UNL A   1      33.943  36.452  28.050  1.00  0.00    -0.237 OA
ATOM     81  O   UNL A   1      32.496  34.460  27.974  1.00  0.00    -0.744 OA
ENDBRANCH  77  78
ENDBRANCH  49  72
BRANCH  61  82
ATOM     82  C   UNL A   1      39.760  34.281  36.982  1.00  0.00    -0.014 A 
ATOM     83  C   UNL A   1      40.468  35.490  36.869  1.00  0.00     0.010 A 
ATOM     84  C   UNL A   1      38.883  34.100  38.068  1.00  0.00     0.010 A 
ATOM     85  C   UNL A   1      40.344  36.476  37.852  1.00  0.00     0.020 A 
ATOM     86  C   UNL A   1      38.729  35.097  39.034  1.00  0.00     0.020 A 
ATOM     87  C   UNL A   1      39.479  36.270  38.932  1.00  0.00     0.054 A 
BRANCH  87  88
ATOM     88  S   UNL A   1      39.326  37.568  40.189  1.00  0.00     0.124 S 
ATOM     89  O   UNL A   1      39.001  36.795  41.385  1.00  0.00    -0.237 OA
ATOM     90  O   UNL A   1      40.650  38.184  40.180  1.00  0.00    -0.237 OA
ATOM     91  O   UNL A   1      38.248  38.416  39.682  1.00  0.00    -0.744 OA
ENDBRANCH  87  88
ENDBRANCH  61  82
ENDBRANCH  35  36
ENDBRANCH  27  30
ENDBRANCH  25  26
ENDBRANCH  24  25
ENDBRANCH   1  24
TORSDOF 19
ENDMDL
MODEL 3
REMARK VINA RESULT:     -10.1      5.568     10.887
REMARK SMILES CC[C@H](C)N(CC)c1cc(C)c(N)c(C(=O)NCCCCNC(=O)c2ccc(-c3c4nc(c(-c5ccc(S(=O)(=O)[O-])cc5)c5ccc([nH]5)c(-c5ccc(S(=O)(=O)[O-])cc5)c5nc(c(-c6ccc(S(=O)(=O)[O-])cc6)c6ccc3[nH]6)C=C5)C=C4)cc2)c1
REMARK SMILES IDX 19 1 18 2 17 3 15 4 16 5 14 7 8 8 9 9 85 10 10 11 11 12
REMARK SMILES IDX 12 13 5 14 3 15 4 16 2 17 1 18 6 19 7 20 13 21 20 24 21 25
REMARK SMILES IDX 22 26 23 27 24 29 25 30 26 31 84 32 27 33 83 34 28 35 29 36
REMARK SMILES IDX 30 37 77 38 31 39 82 40 76 41 78 42 32 43 81 44 75 45 74 46
REMARK SMILES IDX 33 48 63 49 44 50 62 51 45 52 48 53 61 54 79 55 46 56 47 57
REMARK SMILES IDX 60 59 80 60 49 61 34 62 35 63 43 64 36 65 42 66 37 67 38 68
REMARK SMILES IDX 39 69 40 70 41 71 64 72 65 73 73 74 66 75 72 76 67 77 68 78
REMARK SMILES IDX 69 79 70 80 71 81 50 82 51 83 59 84 52 85 58 86 53 87 54 88
REMARK SMILES IDX 55 89 56 90 57 91
REMARK H PARENT 17 6 13 22 13 23 22 28 78 47 48 58
REMARK Flexibility Score: inf
ROOT
ATOM      1  C   UNL A   1      39.495  22.471  26.183  1.00  0.00     0.023 C 
ENDROOT
BRANCH   1   2
ATOM      2  C   UNL A   1      38.177  23.228  25.999  1.00  0.00     0.116 C 
BRANCH   2   3
ATOM      3  N   UNL A   1      37.692  23.067  24.647  1.00  0.00    -0.352 N 
ATOM      4  C   UNL A   1      36.453  23.218  24.073  1.00  0.00     0.253 C 
ATOM      5  O   UNL A   1      36.393  22.953  22.868  1.00  0.00    -0.269 OA
ATOM      6  H   UNL A   1      38.389  22.793  24.009  1.00  0.00     0.163 HD
BRANCH   4   7
ATOM      7  C   UNL A   1      35.222  23.704  24.794  1.00  0.00     0.065 A 
ATOM      8  C   UNL A   1      33.449  25.383  25.145  1.00  0.00     0.038 A 
ATOM      9  C   UNL A   1      32.917  24.563  26.139  1.00  0.00     0.031 A 
ATOM     10  C   UNL A   1      34.633  24.952  24.532  1.00  0.00     0.042 A 
ATOM     11  C   UNL A   1      33.522  23.349  26.508  1.00  0.00    -0.025 A 
ATOM     12  C   UNL A   1      32.917  22.552  27.633  1.00  0.00     0.046 C 
ATOM     13  C   UNL A   1      34.675  22.902  25.829  1.00  0.00     0.047 A 
BRANCH   8  14
ATOM     14  N   UNL A   1      32.856  26.577  24.756  1.00  0.00    -0.369 N 
BRANCH  14  15
ATOM     15  C   UNL A   1      33.392  27.902  25.128  1.00  0.00     0.078 C 
ATOM     16  C   UNL A   1      32.669  29.037  24.398  1.00  0.00     0.031 C 
BRANCH  15  17
ATOM     17  C   UNL A   1      33.516  28.040  26.661  1.00  0.00     0.021 C 
ATOM     18  C   UNL A   1      32.212  28.276  27.407  1.00  0.00     0.006 C 
ENDBRANCH  15  17
ENDBRANCH  14  15
BRANCH  14  19
ATOM     19  C   UNL A   1      31.481  26.522  24.234  1.00  0.00     0.113 C 
ATOM     20  C   UNL A   1      31.424  25.979  22.814  1.00  0.00     0.027 C 
ENDBRANCH  14  19
ENDBRANCH   8  14
BRANCH  13  21
ATOM     21  N   UNL A   1      35.158  21.612  26.087  1.00  0.00    -0.398 N 
ATOM     22  H   UNL A   1      34.679  21.023  26.714  1.00  0.00     0.156 HD
ATOM     23  H   UNL A   1      35.979  21.296  25.643  1.00  0.00     0.156 HD
ENDBRANCH  13  21
ENDBRANCH   4   7
ENDBRANCH   2   3
ENDBRANCH   1   2
BRANCH   1  24
ATOM     24  C   UNL A   1      39.424  21.002  25.753  1.00  0.00     0.023 C 
BRANCH  24  25
ATOM     25  C   UNL A   1      40.073  20.025  26.728  1.00  0.00     0.116 C 
BRANCH  25  26
ATOM     26  N   UNL A   1      41.064  19.165  26.102  1.00  0.00    -0.352 N 
ATOM     27  C   UNL A   1      42.363  19.458  25.762  1.00  0.00     0.251 C 
ATOM     28  H   UNL A   1      40.764  18.250  25.894  1.00  0.00     0.163 HD
ATOM     29  O   UNL A   1      43.029  18.651  25.132  1.00  0.00    -0.269 OA
BRANCH  27  30
ATOM     30  C   UNL A   1      42.926  20.776  26.131  1.00  0.00     0.039 A 
ATOM     31  C   UNL A   1      43.383  21.614  25.113  1.00  0.00     0.014 A 
ATOM     32  C   UNL A   1      42.979  21.191  27.464  1.00  0.00     0.014 A 
ATOM     33  C   UNL A   1      43.845  22.891  25.432  1.00  0.00     0.010 A 
ATOM     34  C   UNL A   1      43.359  22.494  27.770  1.00  0.00     0.010 A 
ATOM     35  C   UNL A   1      43.808  23.354  26.759  1.00  0.00    -0.014 A 
BRANCH  35  36
ATOM     36  C   UNL A   1      44.231  24.739  27.084  1.00  0.00     0.031 A 
ATOM     37  C   UNL A   1      45.660  25.168  26.897  1.00  0.00     0.074 A 
ATOM     38  C   UNL A   1      43.322  25.608  27.569  1.00  0.00     0.049 A 
ATOM     39  N   UNL A   1      46.185  26.360  27.035  1.00  0.00    -0.248 NA
ATOM     40  C   UNL A   1      46.630  24.125  26.533  1.00  0.00     0.031 C 
ATOM     41  C   UNL A   1      41.920  25.293  27.853  1.00  0.00     0.029 A 
ATOM     42  N   UNL A   1      43.436  26.937  27.888  1.00  0.00    -0.354 N 
ATOM     43  C   UNL A   1      47.543  26.206  26.782  1.00  0.00     0.074 A 
ATOM     44  C   UNL A   1      47.772  24.797  26.548  1.00  0.00     0.031 C 
ATOM     45  C   UNL A   1      41.288  26.412  28.237  1.00  0.00     0.029 A 
ATOM     46  C   UNL A   1      42.244  27.515  28.260  1.00  0.00     0.049 A 
ATOM     47  H   UNL A   1      44.287  27.430  27.854  1.00  0.00     0.167 HD
ATOM     48  C   UNL A   1      48.511  27.154  26.724  1.00  0.00     0.031 A 
ATOM     49  C   UNL A   1      41.947  28.794  28.558  1.00  0.00     0.031 A 
ATOM     50  C   UNL A   1      48.279  28.553  26.968  1.00  0.00     0.049 A 
ATOM     51  C   UNL A   1      43.032  29.832  28.483  1.00  0.00     0.074 A 
ATOM     52  C   UNL A   1      49.174  29.604  26.880  1.00  0.00     0.029 A 
ATOM     53  N   UNL A   1      47.063  29.095  27.359  1.00  0.00    -0.354 N 
ATOM     54  N   UNL A   1      44.294  29.684  28.155  1.00  0.00    -0.248 NA
ATOM     55  C   UNL A   1      42.645  31.212  28.798  1.00  0.00     0.031 C 
ATOM     56  C   UNL A   1      48.514  30.774  27.275  1.00  0.00     0.029 A 
ATOM     57  C   UNL A   1      47.189  30.462  27.544  1.00  0.00     0.049 A 
ATOM     58  H   UNL A   1      46.232  28.584  27.488  1.00  0.00     0.167 HD
ATOM     59  C   UNL A   1      44.846  30.961  28.191  1.00  0.00     0.074 A 
ATOM     60  C   UNL A   1      43.775  31.865  28.564  1.00  0.00     0.031 C 
ATOM     61  C   UNL A   1      46.119  31.349  27.932  1.00  0.00     0.031 A 
BRANCH  48  62
ATOM     62  C   UNL A   1      49.911  26.689  26.409  1.00  0.00    -0.014 A 
ATOM     63  C   UNL A   1      50.410  26.711  25.091  1.00  0.00     0.010 A 
ATOM     64  C   UNL A   1      50.738  26.210  27.440  1.00  0.00     0.010 A 
ATOM     65  C   UNL A   1      51.678  26.197  24.803  1.00  0.00     0.020 A 
ATOM     66  C   UNL A   1      52.021  25.727  27.161  1.00  0.00     0.020 A 
ATOM     67  C   UNL A   1      52.471  25.697  25.840  1.00  0.00     0.054 A 
BRANCH  67  68
ATOM     68  S   UNL A   1      54.100  25.010  25.437  1.00  0.00     0.124 S 
ATOM     69  O   UNL A   1      53.756  23.658  25.005  1.00  0.00    -0.237 OA
ATOM     70  O   UNL A   1      54.573  25.903  24.382  1.00  0.00    -0.237 OA
ATOM     71  O   UNL A   1      54.834  25.096  26.696  1.00  0.00    -0.744 OA
ENDBRANCH  67  68
ENDBRANCH  48  62
BRANCH  49  72
ATOM     72  C   UNL A   1      40.543  29.167  28.877  1.00  0.00    -0.014 A 
ATOM     73  C   UNL A   1      40.153  29.379  30.212  1.00  0.00     0.010 A 
ATOM     74  C   UNL A   1      39.601  29.360  27.851  1.00  0.00     0.010 A 
ATOM     75  C   UNL A   1      38.848  29.777  30.516  1.00  0.00     0.020 A 
ATOM     76  C   UNL A   1      38.302  29.784  28.148  1.00  0.00     0.020 A 
ATOM     77  C   UNL A   1      37.933  29.986  29.480  1.00  0.00     0.054 A 
BRANCH  77  78
ATOM     78  S   UNL A   1      36.270  30.582  29.894  1.00  0.00     0.124 S 
ATOM     79  O   UNL A   1      35.982  29.853  31.125  1.00  0.00    -0.237 OA
ATOM     80  O   UNL A   1      36.481  32.020  30.045  1.00  0.00    -0.237 OA
ATOM     81  O   UNL A   1      35.470  30.196  28.735  1.00  0.00    -0.744 OA
ENDBRANCH  77  78
ENDBRANCH  49  72
BRANCH  61  82
ATOM     82  C   UNL A   1      46.417  32.824  28.008  1.00  0.00    -0.014 A 
ATOM     83  C   UNL A   1      46.292  33.660  26.885  1.00  0.00     0.010 A 
ATOM     84  C   UNL A   1      46.810  33.385  29.238  1.00  0.00     0.010 A 
ATOM     85  C   UNL A   1      46.607  35.018  26.976  1.00  0.00     0.020 A 
ATOM     86  C   UNL A   1      47.092  34.749  29.342  1.00  0.00     0.020 A 
ATOM     87  C   UNL A   1      47.011  35.553  28.204  1.00  0.00     0.054 A 
BRANCH  87  88
ATOM     88  S   UNL A   1      47.404  37.321  28.302  1.00  0.00     0.124 S 
ATOM     89  O   UNL A   1      47.698  37.643  26.909  1.00  0.00    -0.237 OA
ATOM     90  O   UNL A   1      46.171  37.896  28.834  1.00  0.00    -0.237 OA
ATOM     91  O   UNL A   1      48.549  37.371  29.209  1.00  0.00    -0.744 OA
ENDBRANCH  87  88
ENDBRANCH  61  82
ENDBRANCH  35  36
ENDBRANCH  27  30
ENDBRANCH  25  26
ENDBRANCH  24  25
ENDBRANCH   1  24
TORSDOF 19
ENDMDL
