MODEL 1
REMARK VINA RESULT:     -10.5      0.000      0.000
REMARK SMILES CC[C@@H]([NH3+])C(=O)N1CC[C@H](C(=O)NCCCCNC(=O)c2ccc(-c3c4nc(c(-c5ccc(S(=O)(=O)[O-])cc5)c5ccc([nH]5)c(-c5ccc(S(=O)(=O)[O-])cc5)c5nc(c(-c6ccc(S(=O)(=O)[O-])cc6)c6ccc3[nH]6)C=C5)C=C4)cc2)[C@@H]1C
REMARK SMILES IDX 15 1 14 2 13 3 11 4 12 5 10 7 7 8 8 9 81 10 9 11 82 12 5 13
REMARK SMILES IDX 6 14 3 15 2 16 1 17 4 18 16 22 17 23 18 24 19 25 20 27 21 28
REMARK SMILES IDX 22 29 80 30 23 31 79 32 24 33 25 34 26 35 73 36 27 37 78 38
REMARK SMILES IDX 72 39 74 40 28 41 77 42 71 43 70 44 29 46 59 47 40 48 58 49
REMARK SMILES IDX 41 50 44 51 57 52 75 53 42 54 43 55 56 57 76 58 45 59 30 60
REMARK SMILES IDX 31 61 39 62 32 63 38 64 33 65 34 66 35 67 36 68 37 69 60 70
REMARK SMILES IDX 61 71 69 72 62 73 68 74 63 75 64 76 65 77 66 78 67 79 46 80
REMARK SMILES IDX 47 81 55 82 48 83 54 84 49 85 50 86 51 87 52 88 53 89
REMARK H PARENT 13 6 4 19 4 20 4 21 18 26 74 45 44 56
REMARK Flexibility Score: inf
ROOT
ATOM      1  C   UNL A   1      32.003  27.267  26.064  1.00  0.00     0.023 C 
ENDROOT
BRANCH   1   2
ATOM      2  C   UNL A   1      31.490  26.008  25.377  1.00  0.00     0.116 C 
BRANCH   2   3
ATOM      3  N   UNL A   1      30.931  25.031  26.289  1.00  0.00    -0.356 N 
ATOM      4  C   UNL A   1      31.479  23.879  26.781  1.00  0.00     0.225 C 
ATOM      5  O   UNL A   1      30.787  23.251  27.580  1.00  0.00    -0.275 OA
ATOM      6  H   UNL A   1      30.017  25.226  26.601  1.00  0.00     0.163 HD
BRANCH   4   7
ATOM      7  C   UNL A   1      32.831  23.390  26.246  1.00  0.00     0.102 C 
ATOM      8  N   UNL A   1      33.764  21.213  25.827  1.00  0.00    -0.334 N 
ATOM      9  C   UNL A   1      33.857  21.434  27.247  1.00  0.00     0.121 C 
ATOM     10  C   UNL A   1      32.874  22.212  25.219  1.00  0.00     0.094 C 
ATOM     11  C   UNL A   1      33.803  22.941  27.353  1.00  0.00     0.037 C 
ATOM     12  C   UNL A   1      31.540  21.544  24.882  1.00  0.00     0.032 C 
BRANCH   8  13
ATOM     13  C   UNL A   1      34.477  20.183  25.257  1.00  0.00     0.280 C 
ATOM     14  O   UNL A   1      35.624  20.373  24.831  1.00  0.00    -0.268 OA
BRANCH  13  15
ATOM     15  C   UNL A   1      33.789  18.831  24.930  1.00  0.00     0.270 C 
BRANCH  15  16
ATOM     16  C   UNL A   1      34.654  17.723  24.330  1.00  0.00     0.072 C 
ATOM     17  C   UNL A   1      33.968  16.998  23.176  1.00  0.00     0.011 C 
ENDBRANCH  15  16
BRANCH  15  18
ATOM     18  N   UNL A   1      33.048  18.380  26.132  1.00  0.00    -0.347 N 
ATOM     19  H   UNL A   1      33.096  19.101  26.852  1.00  0.00     0.345 HD
ATOM     20  H   UNL A   1      33.464  17.518  26.485  1.00  0.00     0.345 HD
ATOM     21  H   UNL A   1      32.072  18.211  25.887  1.00  0.00     0.345 HD
ENDBRANCH  15  18
ENDBRANCH  13  15
ENDBRANCH   8  13
ENDBRANCH   4   7
ENDBRANCH   2   3
ENDBRANCH   1   2
BRANCH   1  22
ATOM     22  C   UNL A   1      33.460  27.229  26.520  1.00  0.00     0.023 C 
BRANCH  22  23
ATOM     23  C   UNL A   1      34.309  28.440  26.147  1.00  0.00     0.116 C 
BRANCH  23  24
ATOM     24  N   UNL A   1      33.871  29.669  26.791  1.00  0.00    -0.352 N 
ATOM     25  C   UNL A   1      34.509  30.445  27.729  1.00  0.00     0.251 C 
ATOM     26  H   UNL A   1      32.983  29.992  26.514  1.00  0.00     0.163 HD
ATOM     27  O   UNL A   1      33.914  31.384  28.252  1.00  0.00    -0.269 OA
BRANCH  25  28
ATOM     28  C   UNL A   1      35.897  30.129  28.130  1.00  0.00     0.039 A 
ATOM     29  C   UNL A   1      36.131  29.574  29.390  1.00  0.00     0.014 A 
ATOM     30  C   UNL A   1      36.963  30.363  27.258  1.00  0.00     0.014 A 
ATOM     31  C   UNL A   1      37.425  29.189  29.747  1.00  0.00     0.010 A 
ATOM     32  C   UNL A   1      38.232  29.893  27.578  1.00  0.00     0.010 A 
ATOM     33  C   UNL A   1      38.482  29.312  28.830  1.00  0.00    -0.014 A 
BRANCH  33  34
ATOM     34  C   UNL A   1      39.862  28.874  29.170  1.00  0.00     0.031 A 
ATOM     35  C   UNL A   1      40.799  29.832  29.860  1.00  0.00     0.074 A 
ATOM     36  C   UNL A   1      40.290  27.648  28.807  1.00  0.00     0.049 A 
ATOM     37  N   UNL A   1      42.059  29.670  30.173  1.00  0.00    -0.248 NA
ATOM     38  C   UNL A   1      40.262  31.157  30.215  1.00  0.00     0.031 C 
ATOM     39  C   UNL A   1      39.497  26.643  28.092  1.00  0.00     0.029 A 
ATOM     40  N   UNL A   1      41.508  27.037  28.984  1.00  0.00    -0.354 N 
ATOM     41  C   UNL A   1      42.469  30.876  30.730  1.00  0.00     0.074 A 
ATOM     42  C   UNL A   1      41.341  31.778  30.668  1.00  0.00     0.031 C 
ATOM     43  C   UNL A   1      40.239  25.538  27.916  1.00  0.00     0.029 A 
ATOM     44  C   UNL A   1      41.570  25.762  28.469  1.00  0.00     0.049 A 
ATOM     45  H   UNL A   1      42.266  27.471  29.439  1.00  0.00     0.167 HD
ATOM     46  C   UNL A   1      43.669  31.199  31.266  1.00  0.00     0.031 A 
ATOM     47  C   UNL A   1      42.586  24.877  28.442  1.00  0.00     0.031 A 
ATOM     48  C   UNL A   1      44.776  30.287  31.368  1.00  0.00     0.049 A 
ATOM     49  C   UNL A   1      43.902  25.254  29.072  1.00  0.00     0.074 A 
ATOM     50  C   UNL A   1      46.008  30.496  31.961  1.00  0.00     0.029 A 
ATOM     51  N   UNL A   1      44.781  28.993  30.873  1.00  0.00    -0.354 N 
ATOM     52  N   UNL A   1      44.244  26.377  29.658  1.00  0.00    -0.248 NA
ATOM     53  C   UNL A   1      44.962  24.236  29.058  1.00  0.00     0.031 C 
ATOM     54  C   UNL A   1      46.777  29.341  31.786  1.00  0.00     0.029 A 
ATOM     55  C   UNL A   1      46.001  28.395  31.137  1.00  0.00     0.049 A 
ATOM     56  H   UNL A   1      44.030  28.562  30.405  1.00  0.00     0.167 HD
ATOM     57  C   UNL A   1      45.542  26.183  30.119  1.00  0.00     0.074 A 
ATOM     58  C   UNL A   1      45.919  24.833  29.754  1.00  0.00     0.031 C 
ATOM     59  C   UNL A   1      46.350  27.043  30.786  1.00  0.00     0.031 A 
BRANCH  46  60
ATOM     60  C   UNL A   1      43.851  32.595  31.801  1.00  0.00    -0.014 A 
ATOM     61  C   UNL A   1      44.255  33.648  30.962  1.00  0.00     0.010 A 
ATOM     62  C   UNL A   1      43.540  32.871  33.146  1.00  0.00     0.010 A 
ATOM     63  C   UNL A   1      44.365  34.948  31.460  1.00  0.00     0.020 A 
ATOM     64  C   UNL A   1      43.621  34.176  33.641  1.00  0.00     0.020 A 
ATOM     65  C   UNL A   1      44.042  35.205  32.796  1.00  0.00     0.054 A 
BRANCH  65  66
ATOM     66  S   UNL A   1      44.130  36.914  33.397  1.00  0.00     0.124 S 
ATOM     67  O   UNL A   1      42.788  37.112  33.938  1.00  0.00    -0.237 OA
ATOM     68  O   UNL A   1      45.202  36.850  34.387  1.00  0.00    -0.237 OA
ATOM     69  O   UNL A   1      44.438  37.690  32.198  1.00  0.00    -0.744 OA
ENDBRANCH  65  66
ENDBRANCH  46  60
BRANCH  47  70
ATOM     70  C   UNL A   1      42.409  23.539  27.809  1.00  0.00    -0.014 A 
ATOM     71  C   UNL A   1      41.854  22.471  28.537  1.00  0.00     0.010 A 
ATOM     72  C   UNL A   1      42.828  23.316  26.485  1.00  0.00     0.010 A 
ATOM     73  C   UNL A   1      41.767  21.194  27.970  1.00  0.00     0.020 A 
ATOM     74  C   UNL A   1      42.712  22.050  25.904  1.00  0.00     0.020 A 
ATOM     75  C   UNL A   1      42.203  20.991  26.658  1.00  0.00     0.054 A 
BRANCH  75  76
ATOM     76  S   UNL A   1      42.076  19.331  25.939  1.00  0.00     0.124 S 
ATOM     77  O   UNL A   1      42.639  18.499  26.998  1.00  0.00    -0.237 OA
ATOM     78  O   UNL A   1      40.639  19.189  25.718  1.00  0.00    -0.237 OA
ATOM     79  O   UNL A   1      42.879  19.424  24.722  1.00  0.00    -0.744 OA
ENDBRANCH  75  76
ENDBRANCH  47  70
BRANCH  59  80
ATOM     80  C   UNL A   1      47.694  26.532  31.232  1.00  0.00    -0.014 A 
ATOM     81  C   UNL A   1      48.839  26.675  30.429  1.00  0.00     0.010 A 
ATOM     82  C   UNL A   1      47.817  25.944  32.505  1.00  0.00     0.010 A 
ATOM     83  C   UNL A   1      50.076  26.201  30.876  1.00  0.00     0.020 A 
ATOM     84  C   UNL A   1      49.056  25.499  32.967  1.00  0.00     0.020 A 
ATOM     85  C   UNL A   1      50.175  25.614  32.141  1.00  0.00     0.054 A 
BRANCH  85  86
ATOM     86  S   UNL A   1      51.797  25.037  32.712  1.00  0.00     0.124 S 
ATOM     87  O   UNL A   1      52.701  25.693  31.771  1.00  0.00    -0.237 OA
ATOM     88  O   UNL A   1      51.850  25.533  34.084  1.00  0.00    -0.237 OA
ATOM     89  O   UNL A   1      51.712  23.583  32.584  1.00  0.00    -0.744 OA
ENDBRANCH  85  86
ENDBRANCH  59  80
ENDBRANCH  33  34
ENDBRANCH  25  28
ENDBRANCH  23  24
ENDBRANCH  22  23
ENDBRANCH   1  22
TORSDOF 18
ENDMDL
MODEL 2
REMARK VINA RESULT:     -10.2      3.783      6.693
REMARK SMILES CC[C@@H]([NH3+])C(=O)N1CC[C@H](C(=O)NCCCCNC(=O)c2ccc(-c3c4nc(c(-c5ccc(S(=O)(=O)[O-])cc5)c5ccc([nH]5)c(-c5ccc(S(=O)(=O)[O-])cc5)c5nc(c(-c6ccc(S(=O)(=O)[O-])cc6)c6ccc3[nH]6)C=C5)C=C4)cc2)[C@@H]1C
REMARK SMILES IDX 15 1 14 2 13 3 11 4 12 5 10 7 7 8 8 9 81 10 9 11 82 12 5 13
REMARK SMILES IDX 6 14 3 15 2 16 1 17 4 18 16 22 17 23 18 24 19 25 20 27 21 28
REMARK SMILES IDX 22 29 80 30 23 31 79 32 24 33 25 34 26 35 73 36 27 37 78 38
REMARK SMILES IDX 72 39 74 40 28 41 77 42 71 43 70 44 29 46 59 47 40 48 58 49
REMARK SMILES IDX 41 50 44 51 57 52 75 53 42 54 43 55 56 57 76 58 45 59 30 60
REMARK SMILES IDX 31 61 39 62 32 63 38 64 33 65 34 66 35 67 36 68 37 69 60 70
REMARK SMILES IDX 61 71 69 72 62 73 68 74 63 75 64 76 65 77 66 78 67 79 46 80
REMARK SMILES IDX 47 81 55 82 48 83 54 84 49 85 50 86 51 87 52 88 53 89
REMARK H PARENT 13 6 4 19 4 20 4 21 18 26 74 45 44 56
REMARK Flexibility Score: inf
ROOT
ATOM      1  C   UNL A   1      36.704  33.648  28.513  1.00  0.00     0.023 C 
ENDROOT
BRANCH   1   2
ATOM      2  C   UNL A   1      37.204  33.272  29.903  1.00  0.00     0.116 C 
BRANCH   2   3
ATOM      3  N   UNL A   1      36.749  34.165  30.949  1.00  0.00    -0.356 N 
ATOM      4  C   UNL A   1      37.218  34.329  32.223  1.00  0.00     0.225 C 
ATOM      5  O   UNL A   1      36.662  35.197  32.893  1.00  0.00    -0.275 OA
ATOM      6  H   UNL A   1      35.987  34.739  30.706  1.00  0.00     0.163 HD
BRANCH   4   7
ATOM      7  C   UNL A   1      38.295  33.382  32.766  1.00  0.00     0.102 C 
ATOM      8  N   UNL A   1      38.398  31.883  34.644  1.00  0.00    -0.334 N 
ATOM      9  C   UNL A   1      38.611  33.208  35.164  1.00  0.00     0.121 C 
ATOM     10  C   UNL A   1      37.889  31.958  33.267  1.00  0.00     0.094 C 
ATOM     11  C   UNL A   1      39.089  33.969  33.948  1.00  0.00     0.037 C 
ATOM     12  C   UNL A   1      36.395  31.630  33.274  1.00  0.00     0.032 C 
BRANCH   8  13
ATOM     13  C   UNL A   1      38.687  30.793  35.434  1.00  0.00     0.280 C 
ATOM     14  O   UNL A   1      37.858  30.375  36.254  1.00  0.00    -0.268 OA
BRANCH  13  15
ATOM     15  C   UNL A   1      40.123  30.207  35.479  1.00  0.00     0.270 C 
BRANCH  15  16
ATOM     16  C   UNL A   1      40.845  30.003  34.148  1.00  0.00     0.072 C 
ATOM     17  C   UNL A   1      40.193  28.930  33.281  1.00  0.00     0.011 C 
ENDBRANCH  15  16
BRANCH  15  18
ATOM     18  N   UNL A   1      40.924  31.003  36.439  1.00  0.00    -0.347 N 
ATOM     19  H   UNL A   1      41.482  31.688  35.931  1.00  0.00     0.345 HD
ATOM     20  H   UNL A   1      41.541  30.383  36.964  1.00  0.00     0.345 HD
ATOM     21  H   UNL A   1      40.299  31.485  37.085  1.00  0.00     0.345 HD
ENDBRANCH  15  18
ENDBRANCH  13  15
ENDBRANCH   8  13
ENDBRANCH   4   7
ENDBRANCH   2   3
ENDBRANCH   1   2
BRANCH   1  22
ATOM     22  C   UNL A   1      35.188  33.634  28.326  1.00  0.00     0.023 C 
BRANCH  22  23
ATOM     23  C   UNL A   1      34.431  32.555  29.092  1.00  0.00     0.116 C 
BRANCH  23  24
ATOM     24  N   UNL A   1      33.912  31.499  28.235  1.00  0.00    -0.352 N 
ATOM     25  C   UNL A   1      34.545  30.392  27.723  1.00  0.00     0.251 C 
ATOM     26  H   UNL A   1      32.965  31.593  27.983  1.00  0.00     0.163 HD
ATOM     27  O   UNL A   1      33.966  29.681  26.906  1.00  0.00    -0.269 OA
BRANCH  25  28
ATOM     28  C   UNL A   1      35.931  30.077  28.132  1.00  0.00     0.039 A 
ATOM     29  C   UNL A   1      36.172  29.643  29.437  1.00  0.00     0.014 A 
ATOM     30  C   UNL A   1      36.987  30.193  27.225  1.00  0.00     0.014 A 
ATOM     31  C   UNL A   1      37.461  29.258  29.811  1.00  0.00     0.010 A 
ATOM     32  C   UNL A   1      38.248  29.720  27.570  1.00  0.00     0.010 A 
ATOM     33  C   UNL A   1      38.505  29.259  28.870  1.00  0.00    -0.014 A 
BRANCH  33  34
ATOM     34  C   UNL A   1      39.878  28.816  29.231  1.00  0.00     0.031 A 
ATOM     35  C   UNL A   1      40.803  29.767  29.947  1.00  0.00     0.074 A 
ATOM     36  C   UNL A   1      40.313  27.593  28.864  1.00  0.00     0.049 A 
ATOM     37  N   UNL A   1      42.057  29.601  30.281  1.00  0.00    -0.248 NA
ATOM     38  C   UNL A   1      40.261  31.089  30.304  1.00  0.00     0.031 C 
ATOM     39  C   UNL A   1      39.532  26.596  28.124  1.00  0.00     0.029 A 
ATOM     40  N   UNL A   1      41.526  26.980  29.057  1.00  0.00    -0.354 N 
ATOM     41  C   UNL A   1      42.458  30.801  30.857  1.00  0.00     0.074 A 
ATOM     42  C   UNL A   1      41.331  31.705  30.784  1.00  0.00     0.031 C 
ATOM     43  C   UNL A   1      40.276  25.492  27.952  1.00  0.00     0.029 A 
ATOM     44  C   UNL A   1      41.597  25.711  28.531  1.00  0.00     0.049 A 
ATOM     45  H   UNL A   1      42.277  27.409  29.529  1.00  0.00     0.167 HD
ATOM     46  C   UNL A   1      43.647  31.118  31.418  1.00  0.00     0.031 A 
ATOM     47  C   UNL A   1      42.613  24.825  28.514  1.00  0.00     0.031 A 
ATOM     48  C   UNL A   1      44.752  30.205  31.531  1.00  0.00     0.049 A 
ATOM     49  C   UNL A   1      43.918  25.194  29.172  1.00  0.00     0.074 A 
ATOM     50  C   UNL A   1      45.973  30.407  32.148  1.00  0.00     0.029 A 
ATOM     51  N   UNL A   1      44.766  28.915  31.024  1.00  0.00    -0.354 N 
ATOM     52  N   UNL A   1      44.249  26.311  29.774  1.00  0.00    -0.248 NA
ATOM     53  C   UNL A   1      44.977  24.176  29.166  1.00  0.00     0.031 C 
ATOM     54  C   UNL A   1      46.745  29.254  31.976  1.00  0.00     0.029 A 
ATOM     55  C   UNL A   1      45.980  28.314  31.304  1.00  0.00     0.049 A 
ATOM     56  H   UNL A   1      44.023  28.490  30.538  1.00  0.00     0.167 HD
ATOM     57  C   UNL A   1      45.539  26.112  30.256  1.00  0.00     0.074 A 
ATOM     58  C   UNL A   1      45.922  24.766  29.885  1.00  0.00     0.031 C 
ATOM     59  C   UNL A   1      46.335  26.965  30.947  1.00  0.00     0.031 A 
BRANCH  46  60
ATOM     60  C   UNL A   1      43.821  32.509  31.970  1.00  0.00    -0.014 A 
ATOM     61  C   UNL A   1      43.266  32.875  33.209  1.00  0.00     0.010 A 
ATOM     62  C   UNL A   1      44.615  33.439  31.273  1.00  0.00     0.010 A 
ATOM     63  C   UNL A   1      43.484  34.151  33.733  1.00  0.00     0.020 A 
ATOM     64  C   UNL A   1      44.859  34.708  31.808  1.00  0.00     0.020 A 
ATOM     65  C   UNL A   1      44.283  35.058  33.031  1.00  0.00     0.054 A 
BRANCH  65  66
ATOM     66  S   UNL A   1      44.603  36.684  33.768  1.00  0.00     0.124 S 
ATOM     67  O   UNL A   1      43.250  37.207  33.941  1.00  0.00    -0.237 OA
ATOM     68  O   UNL A   1      45.306  36.343  35.002  1.00  0.00    -0.237 OA
ATOM     69  O   UNL A   1      45.412  37.369  32.763  1.00  0.00    -0.744 OA
ENDBRANCH  65  66
ENDBRANCH  46  60
BRANCH  47  70
ATOM     70  C   UNL A   1      42.447  23.493  27.865  1.00  0.00    -0.014 A 
ATOM     71  C   UNL A   1      42.035  22.377  28.616  1.00  0.00     0.010 A 
ATOM     72  C   UNL A   1      42.735  23.325  26.499  1.00  0.00     0.010 A 
ATOM     73  C   UNL A   1      41.961  21.111  28.025  1.00  0.00     0.020 A 
ATOM     74  C   UNL A   1      42.631  22.068  25.897  1.00  0.00     0.020 A 
ATOM     75  C   UNL A   1      42.266  20.964  26.670  1.00  0.00     0.054 A 
BRANCH  75  76
ATOM     76  S   UNL A   1      42.159  19.315  25.920  1.00  0.00     0.124 S 
ATOM     77  O   UNL A   1      43.012  19.462  24.745  1.00  0.00    -0.237 OA
ATOM     78  O   UNL A   1      42.677  18.451  26.977  1.00  0.00    -0.237 OA
ATOM     79  O   UNL A   1      40.733  19.159  25.643  1.00  0.00    -0.744 OA
ENDBRANCH  75  76
ENDBRANCH  47  70
BRANCH  59  80
ATOM     80  C   UNL A   1      47.670  26.449  31.411  1.00  0.00    -0.014 A 
ATOM     81  C   UNL A   1      47.855  25.949  32.712  1.00  0.00     0.010 A 
ATOM     82  C   UNL A   1      48.746  26.418  30.505  1.00  0.00     0.010 A 
ATOM     83  C   UNL A   1      49.105  25.465  33.110  1.00  0.00     0.020 A 
ATOM     84  C   UNL A   1      49.987  25.907  30.889  1.00  0.00     0.020 A 
ATOM     85  C   UNL A   1      50.163  25.450  32.196  1.00  0.00     0.054 A 
BRANCH  85  86
ATOM     86  S   UNL A   1      51.766  24.787  32.726  1.00  0.00     0.124 S 
ATOM     87  O   UNL A   1      52.699  25.749  32.145  1.00  0.00    -0.237 OA
ATOM     88  O   UNL A   1      51.660  24.815  34.182  1.00  0.00    -0.237 OA
ATOM     89  O   UNL A   1      51.800  23.450  32.135  1.00  0.00    -0.744 OA
ENDBRANCH  85  86
ENDBRANCH  59  80
ENDBRANCH  33  34
ENDBRANCH  25  28
ENDBRANCH  23  24
ENDBRANCH  22  23
ENDBRANCH   1  22
TORSDOF 18
ENDMDL
MODEL 3
REMARK VINA RESULT:      -9.9      4.468     10.081
REMARK SMILES CC[C@@H]([NH3+])C(=O)N1CC[C@H](C(=O)NCCCCNC(=O)c2ccc(-c3c4nc(c(-c5ccc(S(=O)(=O)[O-])cc5)c5ccc([nH]5)c(-c5ccc(S(=O)(=O)[O-])cc5)c5nc(c(-c6ccc(S(=O)(=O)[O-])cc6)c6ccc3[nH]6)C=C5)C=C4)cc2)[C@@H]1C
REMARK SMILES IDX 15 1 14 2 13 3 11 4 12 5 10 7 7 8 8 9 81 10 9 11 82 12 5 13
REMARK SMILES IDX 6 14 3 15 2 16 1 17 4 18 16 22 17 23 18 24 19 25 20 27 21 28
REMARK SMILES IDX 22 29 80 30 23 31 79 32 24 33 25 34 26 35 73 36 27 37 78 38
REMARK SMILES IDX 72 39 74 40 28 41 77 42 71 43 70 44 29 46 59 47 40 48 58 49
REMARK SMILES IDX 41 50 44 51 57 52 75 53 42 54 43 55 56 57 76 58 45 59 30 60
REMARK SMILES IDX 31 61 39 62 32 63 38 64 33 65 34 66 35 67 36 68 37 69 60 70
REMARK SMILES IDX 61 71 69 72 62 73 68 74 63 75 64 76 65 77 66 78 67 79 46 80
REMARK SMILES IDX 47 81 55 82 48 83 54 84 49 85 50 86 51 87 52 88 53 89
REMARK H PARENT 13 6 4 19 4 20 4 21 18 26 74 45 44 56
REMARK Flexibility Score: inf
ROOT
ATOM      1  C   UNL A   1      38.737  24.664  26.816  1.00  0.00     0.023 C 
ENDROOT
BRANCH   1   2
ATOM      2  C   UNL A   1      37.518  23.884  26.341  1.00  0.00     0.116 C 
BRANCH   2   3
ATOM      3  N   UNL A   1      37.546  23.558  24.929  1.00  0.00    -0.356 N 
ATOM      4  C   UNL A   1      36.512  23.329  24.064  1.00  0.00     0.225 C 
ATOM      5  O   UNL A   1      36.827  23.109  22.896  1.00  0.00    -0.275 OA
ATOM      6  H   UNL A   1      38.445  23.491  24.534  1.00  0.00     0.163 HD
BRANCH   4   7
ATOM      7  C   UNL A   1      35.076  23.250  24.596  1.00  0.00     0.102 C 
ATOM      8  N   UNL A   1      33.401  21.524  24.612  1.00  0.00    -0.334 N 
ATOM      9  C   UNL A   1      33.396  22.090  23.289  1.00  0.00     0.121 C 
ATOM     10  C   UNL A   1      34.600  21.962  25.343  1.00  0.00     0.094 C 
ATOM     11  C   UNL A   1      34.006  23.456  23.509  1.00  0.00     0.037 C 
ATOM     12  C   UNL A   1      35.590  20.798  25.408  1.00  0.00     0.032 C 
BRANCH   8  13
ATOM     13  C   UNL A   1      32.357  20.718  25.006  1.00  0.00     0.280 C 
ATOM     14  O   UNL A   1      31.332  21.212  25.494  1.00  0.00    -0.268 OA
BRANCH  13  15
ATOM     15  C   UNL A   1      32.525  19.176  25.059  1.00  0.00     0.270 C 
BRANCH  15  16
ATOM     16  C   UNL A   1      33.381  18.520  23.975  1.00  0.00     0.072 C 
ATOM     17  C   UNL A   1      32.567  18.095  22.757  1.00  0.00     0.011 C 
ENDBRANCH  15  16
BRANCH  15  18
ATOM     18  N   UNL A   1      32.958  18.798  26.425  1.00  0.00    -0.347 N 
ATOM     19  H   UNL A   1      32.358  18.053  26.778  1.00  0.00     0.345 HD
ATOM     20  H   UNL A   1      32.891  19.610  27.039  1.00  0.00     0.345 HD
ATOM     21  H   UNL A   1      33.924  18.472  26.397  1.00  0.00     0.345 HD
ENDBRANCH  15  18
ENDBRANCH  13  15
ENDBRANCH   8  13
ENDBRANCH   4   7
ENDBRANCH   2   3
ENDBRANCH   1   2
BRANCH   1  22
ATOM     22  C   UNL A   1      40.081  24.207  26.249  1.00  0.00     0.023 C 
BRANCH  22  23
ATOM     23  C   UNL A   1      40.928  25.288  25.587  1.00  0.00     0.116 C 
BRANCH  23  24
ATOM     24  N   UNL A   1      42.343  24.953  25.527  1.00  0.00    -0.352 N 
ATOM     25  C   UNL A   1      43.387  25.407  26.297  1.00  0.00     0.251 C 
ATOM     26  H   UNL A   1      42.589  24.305  24.829  1.00  0.00     0.163 HD
ATOM     27  O   UNL A   1      44.540  25.101  26.004  1.00  0.00    -0.269 OA
BRANCH  25  28
ATOM     28  C   UNL A   1      43.124  26.287  27.456  1.00  0.00     0.039 A 
ATOM     29  C   UNL A   1      43.556  27.614  27.414  1.00  0.00     0.014 A 
ATOM     30  C   UNL A   1      42.436  25.808  28.575  1.00  0.00     0.014 A 
ATOM     31  C   UNL A   1      43.237  28.479  28.462  1.00  0.00     0.010 A 
ATOM     32  C   UNL A   1      42.039  26.694  29.571  1.00  0.00     0.010 A 
ATOM     33  C   UNL A   1      42.444  28.036  29.535  1.00  0.00    -0.014 A 
BRANCH  33  34
ATOM     34  C   UNL A   1      42.057  28.947  30.644  1.00  0.00     0.031 A 
ATOM     35  C   UNL A   1      42.851  28.941  31.925  1.00  0.00     0.074 A 
ATOM     36  C   UNL A   1      40.963  29.728  30.527  1.00  0.00     0.049 A 
ATOM     37  N   UNL A   1      42.632  29.601  33.033  1.00  0.00    -0.248 NA
ATOM     38  C   UNL A   1      44.026  28.053  31.981  1.00  0.00     0.031 C 
ATOM     39  C   UNL A   1      40.080  29.791  29.358  1.00  0.00     0.029 A 
ATOM     40  N   UNL A   1      40.401  30.617  31.410  1.00  0.00    -0.354 N 
ATOM     41  C   UNL A   1      43.619  29.187  33.921  1.00  0.00     0.074 A 
ATOM     42  C   UNL A   1      44.407  28.183  33.243  1.00  0.00     0.031 C 
ATOM     43  C   UNL A   1      39.107  30.688  29.587  1.00  0.00     0.029 A 
ATOM     44  C   UNL A   1      39.270  31.237  30.929  1.00  0.00     0.049 A 
ATOM     45  H   UNL A   1      40.772  30.795  32.304  1.00  0.00     0.167 HD
ATOM     46  C   UNL A   1      43.862  29.619  35.180  1.00  0.00     0.031 A 
ATOM     47  C   UNL A   1      38.455  32.142  31.506  1.00  0.00     0.031 A 
ATOM     48  C   UNL A   1      43.105  30.648  35.838  1.00  0.00     0.049 A 
ATOM     49  C   UNL A   1      38.767  32.626  32.899  1.00  0.00     0.074 A 
ATOM     50  C   UNL A   1      43.319  31.208  37.085  1.00  0.00     0.029 A 
ATOM     51  N   UNL A   1      41.996  31.280  35.299  1.00  0.00    -0.354 N 
ATOM     52  N   UNL A   1      39.749  32.271  33.694  1.00  0.00    -0.248 NA
ATOM     53  C   UNL A   1      37.874  33.647  33.464  1.00  0.00     0.031 C 
ATOM     54  C   UNL A   1      42.311  32.148  37.320  1.00  0.00     0.029 A 
ATOM     55  C   UNL A   1      41.507  32.216  36.194  1.00  0.00     0.049 A 
ATOM     56  H   UNL A   1      41.613  31.093  34.411  1.00  0.00     0.167 HD
ATOM     57  C   UNL A   1      39.615  33.058  34.833  1.00  0.00     0.074 A 
ATOM     58  C   UNL A   1      38.466  33.913  34.620  1.00  0.00     0.031 C 
ATOM     59  C   UNL A   1      40.376  33.074  35.955  1.00  0.00     0.031 A 
BRANCH  46  60
ATOM     60  C   UNL A   1      45.004  28.989  35.935  1.00  0.00    -0.014 A 
ATOM     61  C   UNL A   1      46.298  29.536  35.884  1.00  0.00     0.010 A 
ATOM     62  C   UNL A   1      44.761  27.881  36.767  1.00  0.00     0.010 A 
ATOM     63  C   UNL A   1      47.334  28.975  36.634  1.00  0.00     0.020 A 
ATOM     64  C   UNL A   1      45.788  27.334  37.542  1.00  0.00     0.020 A 
ATOM     65  C   UNL A   1      47.071  27.880  37.462  1.00  0.00     0.054 A 
BRANCH  65  66
ATOM     66  S   UNL A   1      48.420  27.214  38.475  1.00  0.00     0.124 S 
ATOM     67  O   UNL A   1      49.518  27.154  37.513  1.00  0.00    -0.237 OA
ATOM     68  O   UNL A   1      48.560  28.221  39.524  1.00  0.00    -0.237 OA
ATOM     69  O   UNL A   1      47.913  25.919  38.923  1.00  0.00    -0.744 OA
ENDBRANCH  65  66
ENDBRANCH  46  60
BRANCH  47  70
ATOM     70  C   UNL A   1      37.268  32.669  30.774  1.00  0.00    -0.014 A 
ATOM     71  C   UNL A   1      37.415  33.668  29.795  1.00  0.00     0.010 A 
ATOM     72  C   UNL A   1      35.977  32.199  31.077  1.00  0.00     0.010 A 
ATOM     73  C   UNL A   1      36.293  34.222  29.169  1.00  0.00     0.020 A 
ATOM     74  C   UNL A   1      34.856  32.726  30.431  1.00  0.00     0.020 A 
ATOM     75  C   UNL A   1      35.019  33.750  29.496  1.00  0.00     0.054 A 
BRANCH  75  76
ATOM     76  S   UNL A   1      33.577  34.477  28.670  1.00  0.00     0.124 S 
ATOM     77  O   UNL A   1      32.676  34.720  29.792  1.00  0.00    -0.237 OA
ATOM     78  O   UNL A   1      34.138  35.667  28.037  1.00  0.00    -0.237 OA
ATOM     79  O   UNL A   1      33.152  33.430  27.743  1.00  0.00    -0.744 OA
ENDBRANCH  75  76
ENDBRANCH  47  70
BRANCH  59  80
ATOM     80  C   UNL A   1      40.040  34.094  37.010  1.00  0.00    -0.014 A 
ATOM     81  C   UNL A   1      39.252  33.766  38.127  1.00  0.00     0.010 A 
ATOM     82  C   UNL A   1      40.571  35.393  36.901  1.00  0.00     0.010 A 
ATOM     83  C   UNL A   1      38.968  34.733  39.096  1.00  0.00     0.020 A 
ATOM     84  C   UNL A   1      40.315  36.352  37.883  1.00  0.00     0.020 A 
ATOM     85  C   UNL A   1      39.499  36.020  38.966  1.00  0.00     0.054 A 
BRANCH  85  86
ATOM     86  S   UNL A   1      39.143  37.247  40.253  1.00  0.00     0.124 S 
ATOM     87  O   UNL A   1      38.354  36.468  41.204  1.00  0.00    -0.237 OA
ATOM     88  O   UNL A   1      40.476  37.631  40.708  1.00  0.00    -0.237 OA
ATOM     89  O   UNL A   1      38.409  38.292  39.541  1.00  0.00    -0.744 OA
ENDBRANCH  85  86
ENDBRANCH  59  80
ENDBRANCH  33  34
ENDBRANCH  25  28
ENDBRANCH  23  24
ENDBRANCH  22  23
ENDBRANCH   1  22
TORSDOF 18
ENDMDL
