MODEL 1
REMARK VINA RESULT:     -13.1      0.000      0.000
REMARK SMILES Cc1ccn2c([C@@H]3CCCC[C@@H]3C(=O)NCCCCNC(=O)c3ccc(-c4c5nc(c(-c6ccc(S(=O)(=O)[O-])cc6)c6ccc([nH]6)c(-c6ccc(S(=O)(=O)[O-])cc6)c6nc(c(-c7ccc(S(=O)(=O)[O-])cc7)c7ccc4[nH]7)C=C6)C=C5)cc3)nnc2c1
REMARK SMILES IDX 18 1 17 2 16 3 15 4 13 5 14 6 12 8 7 9 8 10 9 11 11 12 10 13
REMARK SMILES IDX 6 14 1 15 2 16 3 17 86 18 4 19 85 20 5 21 84 22 83 23 19 24
REMARK SMILES IDX 20 25 21 26 22 28 23 29 24 30 82 31 25 32 81 33 26 34 27 35
REMARK SMILES IDX 28 36 75 37 29 38 80 39 74 40 76 41 30 42 79 43 73 44 72 45
REMARK SMILES IDX 31 47 61 48 42 49 60 50 43 51 46 52 59 53 77 54 44 55 45 56
REMARK SMILES IDX 58 58 78 59 47 60 32 61 33 62 41 63 34 64 40 65 35 66 36 67
REMARK SMILES IDX 37 68 38 69 39 70 62 71 63 72 71 73 64 74 70 75 65 76 66 77
REMARK SMILES IDX 67 78 68 79 69 80 48 81 49 82 57 83 50 84 56 85 51 86 52 87
REMARK SMILES IDX 53 88 54 89 55 90
REMARK H PARENT 15 7 20 27 76 46 46 57
REMARK Flexibility Score: inf
ROOT
ATOM      1  C   UNL A   1      38.761  22.178  26.113  1.00  0.00     0.023 C 
ENDROOT
BRANCH   1   2
ATOM      2  C   UNL A   1      38.171  23.591  26.135  1.00  0.00     0.023 C 
BRANCH   2   3
ATOM      3  C   UNL A   1      36.760  23.729  25.582  1.00  0.00     0.116 C 
BRANCH   3   4
ATOM      4  N   UNL A   1      35.759  23.122  26.438  1.00  0.00    -0.356 N 
ATOM      5  C   UNL A   1      34.955  22.055  26.198  1.00  0.00     0.223 C 
ATOM      6  O   UNL A   1      34.466  21.497  27.180  1.00  0.00    -0.275 OA
ATOM      7  H   UNL A   1      35.645  23.545  27.320  1.00  0.00     0.163 HD
BRANCH   5   8
ATOM      8  C   UNL A   1      34.774  21.541  24.776  1.00  0.00     0.089 C 
ATOM      9  C   UNL A   1      33.508  22.041  24.046  1.00  0.00     0.071 C 
ATOM     10  C   UNL A   1      32.193  21.546  24.646  1.00  0.00     0.012 C 
ATOM     11  C   UNL A   1      32.202  20.018  24.782  1.00  0.00     0.001 C 
ATOM     12  C   UNL A   1      34.748  20.002  24.842  1.00  0.00     0.014 C 
ATOM     13  C   UNL A   1      33.454  19.475  25.469  1.00  0.00     0.001 C 
BRANCH   9  14
ATOM     14  C   UNL A   1      33.542  23.487  23.631  1.00  0.00     0.141 A 
ATOM     15  C   UNL A   1      33.460  28.505  26.109  1.00  0.00     0.044 C 
ATOM     16  C   UNL A   1      33.368  27.175  25.422  1.00  0.00    -0.046 A 
ATOM     17  C   UNL A   1      32.803  26.070  26.190  1.00  0.00     0.022 A 
ATOM     18  C   UNL A   1      33.787  26.978  24.153  1.00  0.00     0.053 A 
ATOM     19  C   UNL A   1      32.778  24.838  25.656  1.00  0.00     0.095 A 
ATOM     20  C   UNL A   1      33.742  25.674  23.584  1.00  0.00     0.161 A 
ATOM     21  N   UNL A   1      33.303  24.624  24.385  1.00  0.00    -0.286 N 
ATOM     22  N   UNL A   1      34.048  25.223  22.391  1.00  0.00    -0.130 NA
ATOM     23  N   UNL A   1      33.918  23.860  22.417  1.00  0.00    -0.134 NA
ENDBRANCH   9  14
ENDBRANCH   5   8
ENDBRANCH   3   4
ENDBRANCH   2   3
ENDBRANCH   1   2
BRANCH   1  24
ATOM     24  C   UNL A   1      40.081  21.983  26.865  1.00  0.00     0.116 C 
BRANCH  24  25
ATOM     25  N   UNL A   1      41.277  22.057  26.052  1.00  0.00    -0.352 N 
ATOM     26  C   UNL A   1      42.300  22.962  25.945  1.00  0.00     0.251 C 
ATOM     27  H   UNL A   1      41.376  21.291  25.442  1.00  0.00     0.163 HD
ATOM     28  O   UNL A   1      43.292  22.587  25.314  1.00  0.00    -0.269 OA
BRANCH  26  29
ATOM     29  C   UNL A   1      42.257  24.360  26.459  1.00  0.00     0.039 A 
ATOM     30  C   UNL A   1      42.801  24.787  27.667  1.00  0.00     0.014 A 
ATOM     31  C   UNL A   1      41.526  25.288  25.692  1.00  0.00     0.014 A 
ATOM     32  C   UNL A   1      42.493  26.043  28.174  1.00  0.00     0.010 A 
ATOM     33  C   UNL A   1      41.253  26.568  26.175  1.00  0.00     0.010 A 
ATOM     34  C   UNL A   1      41.682  26.920  27.449  1.00  0.00    -0.014 A 
BRANCH  34  35
ATOM     35  C   UNL A   1      41.356  28.191  28.089  1.00  0.00     0.031 A 
ATOM     36  C   UNL A   1      42.361  29.281  27.935  1.00  0.00     0.074 A 
ATOM     37  C   UNL A   1      40.233  28.421  28.795  1.00  0.00     0.049 A 
ATOM     38  N   UNL A   1      43.079  29.836  28.859  1.00  0.00    -0.248 NA
ATOM     39  C   UNL A   1      42.666  29.742  26.576  1.00  0.00     0.031 C 
ATOM     40  C   UNL A   1      39.014  27.614  28.882  1.00  0.00     0.029 A 
ATOM     41  N   UNL A   1      39.932  29.519  29.543  1.00  0.00    -0.354 N 
ATOM     42  C   UNL A   1      43.846  30.811  28.227  1.00  0.00     0.074 A 
ATOM     43  C   UNL A   1      43.615  30.650  26.810  1.00  0.00     0.031 C 
ATOM     44  C   UNL A   1      38.032  28.357  29.444  1.00  0.00     0.029 A 
ATOM     45  C   UNL A   1      38.597  29.617  29.895  1.00  0.00     0.049 A 
ATOM     46  H   UNL A   1      40.606  30.185  29.810  1.00  0.00     0.167 HD
ATOM     47  C   UNL A   1      44.545  31.763  28.907  1.00  0.00     0.031 A 
ATOM     48  C   UNL A   1      37.995  30.694  30.454  1.00  0.00     0.031 A 
ATOM     49  C   UNL A   1      44.687  31.446  30.301  1.00  0.00     0.049 A 
ATOM     50  C   UNL A   1      39.045  31.495  31.127  1.00  0.00     0.074 A 
ATOM     51  C   UNL A   1      45.329  30.445  31.002  1.00  0.00     0.029 A 
ATOM     52  N   UNL A   1      43.822  32.034  31.192  1.00  0.00    -0.354 N 
ATOM     53  N   UNL A   1      39.687  31.097  32.189  1.00  0.00    -0.248 NA
ATOM     54  C   UNL A   1      39.664  32.593  30.402  1.00  0.00     0.031 C 
ATOM     55  C   UNL A   1      44.483  30.171  32.114  1.00  0.00     0.029 A 
ATOM     56  C   UNL A   1      43.398  31.050  32.049  1.00  0.00     0.049 A 
ATOM     57  H   UNL A   1      43.557  32.983  31.211  1.00  0.00     0.167 HD
ATOM     58  C   UNL A   1      40.974  31.585  32.031  1.00  0.00     0.074 A 
ATOM     59  C   UNL A   1      40.869  32.591  30.977  1.00  0.00     0.031 C 
ATOM     60  C   UNL A   1      42.051  30.943  32.575  1.00  0.00     0.031 A 
BRANCH  47  61
ATOM     61  C   UNL A   1      44.927  33.104  28.343  1.00  0.00    -0.014 A 
ATOM     62  C   UNL A   1      44.200  34.276  28.628  1.00  0.00     0.010 A 
ATOM     63  C   UNL A   1      46.164  33.261  27.685  1.00  0.00     0.010 A 
ATOM     64  C   UNL A   1      44.655  35.541  28.246  1.00  0.00     0.020 A 
ATOM     65  C   UNL A   1      46.652  34.530  27.335  1.00  0.00     0.020 A 
ATOM     66  C   UNL A   1      45.887  35.662  27.613  1.00  0.00     0.054 A 
BRANCH  66  67
ATOM     67  S   UNL A   1      46.495  37.327  27.242  1.00  0.00     0.124 S 
ATOM     68  O   UNL A   1      47.647  37.432  28.133  1.00  0.00    -0.237 OA
ATOM     69  O   UNL A   1      46.805  37.238  25.818  1.00  0.00    -0.237 OA
ATOM     70  O   UNL A   1      45.364  38.189  27.579  1.00  0.00    -0.744 OA
ENDBRANCH  66  67
ENDBRANCH  47  61
BRANCH  48  71
ATOM     71  C   UNL A   1      36.703  31.292  30.031  1.00  0.00    -0.014 A 
ATOM     72  C   UNL A   1      36.543  31.762  28.711  1.00  0.00     0.010 A 
ATOM     73  C   UNL A   1      35.769  31.704  31.000  1.00  0.00     0.010 A 
ATOM     74  C   UNL A   1      35.557  32.697  28.393  1.00  0.00     0.020 A 
ATOM     75  C   UNL A   1      34.780  32.649  30.687  1.00  0.00     0.020 A 
ATOM     76  C   UNL A   1      34.713  33.173  29.396  1.00  0.00     0.054 A 
BRANCH  76  77
ATOM     77  S   UNL A   1      33.622  34.567  29.002  1.00  0.00     0.124 S 
ATOM     78  O   UNL A   1      34.542  35.495  28.352  1.00  0.00    -0.237 OA
ATOM     79  O   UNL A   1      32.627  33.952  28.127  1.00  0.00    -0.237 OA
ATOM     80  O   UNL A   1      33.121  34.994  30.307  1.00  0.00    -0.744 OA
ENDBRANCH  76  77
ENDBRANCH  48  71
BRANCH  60  81
ATOM     81  C   UNL A   1      41.808  29.832  33.578  1.00  0.00    -0.014 A 
ATOM     82  C   UNL A   1      41.980  30.122  34.945  1.00  0.00     0.010 A 
ATOM     83  C   UNL A   1      41.598  28.488  33.206  1.00  0.00     0.010 A 
ATOM     84  C   UNL A   1      41.970  29.107  35.905  1.00  0.00     0.020 A 
ATOM     85  C   UNL A   1      41.556  27.467  34.168  1.00  0.00     0.020 A 
ATOM     86  C   UNL A   1      41.768  27.782  35.510  1.00  0.00     0.054 A 
BRANCH  86  87
ATOM     87  S   UNL A   1      41.812  26.489  36.781  1.00  0.00     0.124 S 
ATOM     88  O   UNL A   1      41.902  25.272  35.978  1.00  0.00    -0.237 OA
ATOM     89  O   UNL A   1      43.013  26.824  37.542  1.00  0.00    -0.237 OA
ATOM     90  O   UNL A   1      40.554  26.662  37.505  1.00  0.00    -0.744 OA
ENDBRANCH  86  87
ENDBRANCH  60  81
ENDBRANCH  34  35
ENDBRANCH  26  29
ENDBRANCH  24  25
ENDBRANCH   1  24
TORSDOF 15
ENDMDL
MODEL 2
REMARK VINA RESULT:     -12.5      1.181      1.684
REMARK SMILES Cc1ccn2c([C@@H]3CCCC[C@@H]3C(=O)NCCCCNC(=O)c3ccc(-c4c5nc(c(-c6ccc(S(=O)(=O)[O-])cc6)c6ccc([nH]6)c(-c6ccc(S(=O)(=O)[O-])cc6)c6nc(c(-c7ccc(S(=O)(=O)[O-])cc7)c7ccc4[nH]7)C=C6)C=C5)cc3)nnc2c1
REMARK SMILES IDX 18 1 17 2 16 3 15 4 13 5 14 6 12 8 7 9 8 10 9 11 11 12 10 13
REMARK SMILES IDX 6 14 1 15 2 16 3 17 86 18 4 19 85 20 5 21 84 22 83 23 19 24
REMARK SMILES IDX 20 25 21 26 22 28 23 29 24 30 82 31 25 32 81 33 26 34 27 35
REMARK SMILES IDX 28 36 75 37 29 38 80 39 74 40 76 41 30 42 79 43 73 44 72 45
REMARK SMILES IDX 31 47 61 48 42 49 60 50 43 51 46 52 59 53 77 54 44 55 45 56
REMARK SMILES IDX 58 58 78 59 47 60 32 61 33 62 41 63 34 64 40 65 35 66 36 67
REMARK SMILES IDX 37 68 38 69 39 70 62 71 63 72 71 73 64 74 70 75 65 76 66 77
REMARK SMILES IDX 67 78 68 79 69 80 48 81 49 82 57 83 50 84 56 85 51 86 52 87
REMARK SMILES IDX 53 88 54 89 55 90
REMARK H PARENT 15 7 20 27 76 46 46 57
REMARK Flexibility Score: inf
ROOT
ATOM      1  C   UNL A   1      38.617  22.259  26.119  1.00  0.00     0.023 C 
ENDROOT
BRANCH   1   2
ATOM      2  C   UNL A   1      38.162  23.721  26.117  1.00  0.00     0.023 C 
BRANCH   2   3
ATOM      3  C   UNL A   1      36.678  23.954  25.878  1.00  0.00     0.116 C 
BRANCH   3   4
ATOM      4  N   UNL A   1      35.836  23.173  26.764  1.00  0.00    -0.356 N 
ATOM      5  C   UNL A   1      34.830  22.313  26.458  1.00  0.00     0.223 C 
ATOM      6  O   UNL A   1      34.517  21.496  27.322  1.00  0.00    -0.275 OA
ATOM      7  H   UNL A   1      36.020  23.281  27.724  1.00  0.00     0.163 HD
BRANCH   5   8
ATOM      8  C   UNL A   1      34.215  22.324  25.065  1.00  0.00     0.089 C 
ATOM      9  C   UNL A   1      32.684  22.114  25.015  1.00  0.00     0.071 C 
ATOM     10  C   UNL A   1      32.219  20.732  25.468  1.00  0.00     0.012 C 
ATOM     11  C   UNL A   1      32.968  19.632  24.705  1.00  0.00     0.001 C 
ATOM     12  C   UNL A   1      34.906  21.218  24.247  1.00  0.00     0.014 C 
ATOM     13  C   UNL A   1      34.484  19.817  24.699  1.00  0.00     0.001 C 
BRANCH   9  14
ATOM     14  C   UNL A   1      31.865  23.280  25.500  1.00  0.00     0.141 A 
ATOM     15  C   UNL A   1      29.207  27.676  23.279  1.00  0.00     0.044 C 
ATOM     16  C   UNL A   1      30.007  26.571  23.902  1.00  0.00    -0.046 A 
ATOM     17  C   UNL A   1      31.087  26.002  23.101  1.00  0.00     0.022 A 
ATOM     18  C   UNL A   1      29.758  26.099  25.143  1.00  0.00     0.053 A 
ATOM     19  C   UNL A   1      31.777  24.951  23.575  1.00  0.00     0.095 A 
ATOM     20  C   UNL A   1      30.504  24.998  25.647  1.00  0.00     0.161 A 
ATOM     21  N   UNL A   1      31.449  24.408  24.813  1.00  0.00    -0.286 N 
ATOM     22  N   UNL A   1      30.488  24.380  26.805  1.00  0.00    -0.130 NA
ATOM     23  N   UNL A   1      31.341  23.312  26.716  1.00  0.00    -0.134 NA
ENDBRANCH   9  14
ENDBRANCH   5   8
ENDBRANCH   3   4
ENDBRANCH   2   3
ENDBRANCH   1   2
BRANCH   1  24
ATOM     24  C   UNL A   1      39.977  21.972  26.761  1.00  0.00     0.116 C 
BRANCH  24  25
ATOM     25  N   UNL A   1      41.123  22.133  25.890  1.00  0.00    -0.352 N 
ATOM     26  C   UNL A   1      42.135  23.052  25.810  1.00  0.00     0.251 C 
ATOM     27  H   UNL A   1      41.188  21.428  25.207  1.00  0.00     0.163 HD
ATOM     28  O   UNL A   1      43.089  22.748  25.089  1.00  0.00    -0.269 OA
BRANCH  26  29
ATOM     29  C   UNL A   1      42.118  24.396  26.456  1.00  0.00     0.039 A 
ATOM     30  C   UNL A   1      42.554  24.669  27.749  1.00  0.00     0.014 A 
ATOM     31  C   UNL A   1      41.527  25.439  25.717  1.00  0.00     0.014 A 
ATOM     32  C   UNL A   1      42.267  25.889  28.346  1.00  0.00     0.010 A 
ATOM     33  C   UNL A   1      41.278  26.683  26.296  1.00  0.00     0.010 A 
ATOM     34  C   UNL A   1      41.590  26.884  27.636  1.00  0.00    -0.014 A 
BRANCH  34  35
ATOM     35  C   UNL A   1      41.270  28.107  28.365  1.00  0.00     0.031 A 
ATOM     36  C   UNL A   1      42.291  29.192  28.306  1.00  0.00     0.074 A 
ATOM     37  C   UNL A   1      40.141  28.299  29.072  1.00  0.00     0.049 A 
ATOM     38  N   UNL A   1      43.003  29.668  29.276  1.00  0.00    -0.248 NA
ATOM     39  C   UNL A   1      42.620  29.749  26.988  1.00  0.00     0.031 C 
ATOM     40  C   UNL A   1      38.911  27.505  29.084  1.00  0.00     0.029 A 
ATOM     41  N   UNL A   1      39.844  29.343  29.897  1.00  0.00    -0.354 N 
ATOM     42  C   UNL A   1      43.791  30.677  28.728  1.00  0.00     0.074 A 
ATOM     43  C   UNL A   1      43.576  30.625  27.301  1.00  0.00     0.031 C 
ATOM     44  C   UNL A   1      37.931  28.217  29.688  1.00  0.00     0.029 A 
ATOM     45  C   UNL A   1      38.506  29.432  30.239  1.00  0.00     0.049 A 
ATOM     46  H   UNL A   1      40.523  29.978  30.220  1.00  0.00     0.167 HD
ATOM     47  C   UNL A   1      44.493  31.565  29.486  1.00  0.00     0.031 A 
ATOM     48  C   UNL A   1      37.910  30.473  30.869  1.00  0.00     0.031 A 
ATOM     49  C   UNL A   1      44.613  31.144  30.854  1.00  0.00     0.049 A 
ATOM     50  C   UNL A   1      38.961  31.207  31.613  1.00  0.00     0.074 A 
ATOM     51  C   UNL A   1      45.233  30.085  31.486  1.00  0.00     0.029 A 
ATOM     52  N   UNL A   1      43.743  31.676  31.776  1.00  0.00    -0.354 N 
ATOM     53  N   UNL A   1      39.584  30.723  32.650  1.00  0.00    -0.248 NA
ATOM     54  C   UNL A   1      39.603  32.348  30.979  1.00  0.00     0.031 C 
ATOM     55  C   UNL A   1      44.369  29.740  32.565  1.00  0.00     0.029 A 
ATOM     56  C   UNL A   1      43.296  30.636  32.552  1.00  0.00     0.049 A 
ATOM     57  H   UNL A   1      43.490  32.624  31.862  1.00  0.00     0.167 HD
ATOM     58  C   UNL A   1      40.879  31.204  32.544  1.00  0.00     0.074 A 
ATOM     59  C   UNL A   1      40.800  32.286  31.567  1.00  0.00     0.031 C 
ATOM     60  C   UNL A   1      41.941  30.509  33.053  1.00  0.00     0.031 A 
BRANCH  47  61
ATOM     61  C   UNL A   1      44.899  32.940  29.028  1.00  0.00    -0.014 A 
ATOM     62  C   UNL A   1      46.060  33.168  28.265  1.00  0.00     0.010 A 
ATOM     63  C   UNL A   1      43.999  34.018  29.164  1.00  0.00     0.010 A 
ATOM     64  C   UNL A   1      46.340  34.414  27.697  1.00  0.00     0.020 A 
ATOM     65  C   UNL A   1      44.248  35.261  28.562  1.00  0.00     0.020 A 
ATOM     66  C   UNL A   1      45.424  35.450  27.837  1.00  0.00     0.054 A 
BRANCH  66  67
ATOM     67  S   UNL A   1      45.767  37.012  26.985  1.00  0.00     0.124 S 
ATOM     68  O   UNL A   1      46.504  36.557  25.809  1.00  0.00    -0.237 OA
ATOM     69  O   UNL A   1      44.426  37.529  26.728  1.00  0.00    -0.237 OA
ATOM     70  O   UNL A   1      46.549  37.770  27.959  1.00  0.00    -0.744 OA
ENDBRANCH  66  67
ENDBRANCH  47  61
BRANCH  48  71
ATOM     71  C   UNL A   1      36.631  31.117  30.476  1.00  0.00    -0.014 A 
ATOM     72  C   UNL A   1      36.339  31.329  29.113  1.00  0.00     0.010 A 
ATOM     73  C   UNL A   1      35.875  31.819  31.433  1.00  0.00     0.010 A 
ATOM     74  C   UNL A   1      35.406  32.289  28.715  1.00  0.00     0.020 A 
ATOM     75  C   UNL A   1      34.941  32.789  31.040  1.00  0.00     0.020 A 
ATOM     76  C   UNL A   1      34.750  33.049  29.682  1.00  0.00     0.054 A 
BRANCH  76  77
ATOM     77  S   UNL A   1      33.743  34.451  29.125  1.00  0.00     0.124 S 
ATOM     78  O   UNL A   1      33.111  34.881  30.369  1.00  0.00    -0.237 OA
ATOM     79  O   UNL A   1      34.744  35.364  28.581  1.00  0.00    -0.237 OA
ATOM     80  O   UNL A   1      32.841  33.858  28.138  1.00  0.00    -0.744 OA
ENDBRANCH  76  77
ENDBRANCH  48  71
BRANCH  60  81
ATOM     81  C   UNL A   1      41.670  29.329  33.966  1.00  0.00    -0.014 A 
ATOM     82  C   UNL A   1      41.793  29.524  35.355  1.00  0.00     0.010 A 
ATOM     83  C   UNL A   1      41.483  28.014  33.495  1.00  0.00     0.010 A 
ATOM     84  C   UNL A   1      41.756  28.445  36.242  1.00  0.00     0.020 A 
ATOM     85  C   UNL A   1      41.415  26.928  34.381  1.00  0.00     0.020 A 
ATOM     86  C   UNL A   1      41.577  27.150  35.749  1.00  0.00     0.054 A 
BRANCH  86  87
ATOM     87  S   UNL A   1      41.586  25.772  36.928  1.00  0.00     0.124 S 
ATOM     88  O   UNL A   1      41.598  24.610  36.042  1.00  0.00    -0.237 OA
ATOM     89  O   UNL A   1      42.819  25.996  37.678  1.00  0.00    -0.237 OA
ATOM     90  O   UNL A   1      40.355  25.954  37.694  1.00  0.00    -0.744 OA
ENDBRANCH  86  87
ENDBRANCH  60  81
ENDBRANCH  34  35
ENDBRANCH  26  29
ENDBRANCH  24  25
ENDBRANCH   1  24
TORSDOF 15
ENDMDL
MODEL 3
REMARK VINA RESULT:     -12.3      2.972      9.507
REMARK SMILES Cc1ccn2c([C@@H]3CCCC[C@@H]3C(=O)NCCCCNC(=O)c3ccc(-c4c5nc(c(-c6ccc(S(=O)(=O)[O-])cc6)c6ccc([nH]6)c(-c6ccc(S(=O)(=O)[O-])cc6)c6nc(c(-c7ccc(S(=O)(=O)[O-])cc7)c7ccc4[nH]7)C=C6)C=C5)cc3)nnc2c1
REMARK SMILES IDX 18 1 17 2 16 3 15 4 13 5 14 6 12 8 7 9 8 10 9 11 11 12 10 13
REMARK SMILES IDX 6 14 1 15 2 16 3 17 86 18 4 19 85 20 5 21 84 22 83 23 19 24
REMARK SMILES IDX 20 25 21 26 22 28 23 29 24 30 82 31 25 32 81 33 26 34 27 35
REMARK SMILES IDX 28 36 75 37 29 38 80 39 74 40 76 41 30 42 79 43 73 44 72 45
REMARK SMILES IDX 31 47 61 48 42 49 60 50 43 51 46 52 59 53 77 54 44 55 45 56
REMARK SMILES IDX 58 58 78 59 47 60 32 61 33 62 41 63 34 64 40 65 35 66 36 67
REMARK SMILES IDX 37 68 38 69 39 70 62 71 63 72 71 73 64 74 70 75 65 76 66 77
REMARK SMILES IDX 67 78 68 79 69 80 48 81 49 82 57 83 50 84 56 85 51 86 52 87
REMARK SMILES IDX 53 88 54 89 55 90
REMARK H PARENT 15 7 20 27 76 46 46 57
REMARK Flexibility Score: inf
ROOT
ATOM      1  C   UNL A   1      35.125  31.370  27.658  1.00  0.00     0.023 C 
ENDROOT
BRANCH   1   2
ATOM      2  C   UNL A   1      33.792  30.716  27.285  1.00  0.00     0.023 C 
BRANCH   2   3
ATOM      3  C   UNL A   1      33.791  29.195  27.233  1.00  0.00     0.116 C 
BRANCH   3   4
ATOM      4  N   UNL A   1      34.060  28.678  25.905  1.00  0.00    -0.356 N 
ATOM      5  C   UNL A   1      33.188  28.324  24.927  1.00  0.00     0.223 C 
ATOM      6  O   UNL A   1      33.632  28.273  23.780  1.00  0.00    -0.275 OA
ATOM      7  H   UNL A   1      35.012  28.566  25.681  1.00  0.00     0.163 HD
BRANCH   5   8
ATOM      8  C   UNL A   1      31.717  28.110  25.257  1.00  0.00     0.089 C 
ATOM      9  C   UNL A   1      31.114  26.776  24.763  1.00  0.00     0.071 C 
ATOM     10  C   UNL A   1      31.038  26.638  23.244  1.00  0.00     0.012 C 
ATOM     11  C   UNL A   1      30.322  27.847  22.627  1.00  0.00     0.001 C 
ATOM     12  C   UNL A   1      30.931  29.282  24.640  1.00  0.00     0.014 C 
ATOM     13  C   UNL A   1      30.864  29.190  23.113  1.00  0.00     0.001 C 
BRANCH   9  14
ATOM     14  C   UNL A   1      31.569  25.554  25.515  1.00  0.00     0.141 A 
ATOM     15  C   UNL A   1      36.241  22.516  26.029  1.00  0.00     0.044 C 
ATOM     16  C   UNL A   1      34.949  23.248  25.818  1.00  0.00    -0.046 A 
ATOM     17  C   UNL A   1      34.825  24.033  24.593  1.00  0.00     0.022 A 
ATOM     18  C   UNL A   1      33.932  23.206  26.706  1.00  0.00     0.053 A 
ATOM     19  C   UNL A   1      33.726  24.779  24.395  1.00  0.00     0.095 A 
ATOM     20  C   UNL A   1      32.762  23.984  26.483  1.00  0.00     0.161 A 
ATOM     21  N   UNL A   1      32.725  24.808  25.362  1.00  0.00    -0.286 N 
ATOM     22  N   UNL A   1      31.640  24.098  27.153  1.00  0.00    -0.130 NA
ATOM     23  N   UNL A   1      30.892  25.073  26.547  1.00  0.00    -0.134 NA
ENDBRANCH   9  14
ENDBRANCH   5   8
ENDBRANCH   3   4
ENDBRANCH   2   3
ENDBRANCH   1   2
BRANCH   1  24
ATOM     24  C   UNL A   1      35.040  32.726  28.366  1.00  0.00     0.116 C 
BRANCH  24  25
ATOM     25  N   UNL A   1      34.601  32.681  29.745  1.00  0.00    -0.352 N 
ATOM     26  C   UNL A   1      35.184  32.275  30.916  1.00  0.00     0.251 C 
ATOM     27  H   UNL A   1      33.683  33.015  29.867  1.00  0.00     0.163 HD
ATOM     28  O   UNL A   1      34.602  32.604  31.954  1.00  0.00    -0.269 OA
BRANCH  26  29
ATOM     29  C   UNL A   1      36.398  31.416  31.010  1.00  0.00     0.039 A 
ATOM     30  C   UNL A   1      37.710  31.877  30.978  1.00  0.00     0.014 A 
ATOM     31  C   UNL A   1      36.180  30.025  31.042  1.00  0.00     0.014 A 
ATOM     32  C   UNL A   1      38.765  30.988  30.818  1.00  0.00     0.010 A 
ATOM     33  C   UNL A   1      37.240  29.126  30.928  1.00  0.00     0.010 A 
ATOM     34  C   UNL A   1      38.529  29.613  30.749  1.00  0.00    -0.014 A 
BRANCH  34  35
ATOM     35  C   UNL A   1      39.690  28.760  30.511  1.00  0.00     0.031 A 
ATOM     36  C   UNL A   1      40.558  28.489  31.692  1.00  0.00     0.074 A 
ATOM     37  C   UNL A   1      40.011  28.228  29.318  1.00  0.00     0.049 A 
ATOM     38  N   UNL A   1      41.784  28.860  31.879  1.00  0.00    -0.248 NA
ATOM     39  C   UNL A   1      39.956  27.800  32.840  1.00  0.00     0.031 C 
ATOM     40  C   UNL A   1      39.209  28.145  28.095  1.00  0.00     0.029 A 
ATOM     41  N   UNL A   1      41.150  27.555  28.987  1.00  0.00    -0.354 N 
ATOM     42  C   UNL A   1      42.165  28.349  33.117  1.00  0.00     0.074 A 
ATOM     43  C   UNL A   1      40.973  27.779  33.702  1.00  0.00     0.031 C 
ATOM     44  C   UNL A   1      39.789  27.267  27.244  1.00  0.00     0.029 A 
ATOM     45  C   UNL A   1      41.070  26.859  27.794  1.00  0.00     0.049 A 
ATOM     46  H   UNL A   1      41.958  27.565  29.549  1.00  0.00     0.167 HD
ATOM     47  C   UNL A   1      43.458  28.328  33.547  1.00  0.00     0.031 A 
ATOM     48  C   UNL A   1      41.970  25.956  27.335  1.00  0.00     0.031 A 
ATOM     49  C   UNL A   1      44.308  29.183  32.765  1.00  0.00     0.049 A 
ATOM     50  C   UNL A   1      43.268  26.242  27.991  1.00  0.00     0.074 A 
ATOM     51  C   UNL A   1      44.377  30.546  32.558  1.00  0.00     0.029 A 
ATOM     52  N   UNL A   1      45.063  28.611  31.770  1.00  0.00    -0.354 N 
ATOM     53  N   UNL A   1      43.975  27.311  27.757  1.00  0.00    -0.248 NA
ATOM     54  C   UNL A   1      43.613  25.521  29.206  1.00  0.00     0.031 C 
ATOM     55  C   UNL A   1      44.759  30.694  31.194  1.00  0.00     0.029 A 
ATOM     56  C   UNL A   1      44.941  29.414  30.663  1.00  0.00     0.049 A 
ATOM     57  H   UNL A   1      45.592  27.783  31.838  1.00  0.00     0.167 HD
ATOM     58  C   UNL A   1      44.546  27.634  28.978  1.00  0.00     0.074 A 
ATOM     59  C   UNL A   1      44.384  26.436  29.798  1.00  0.00     0.031 C 
ATOM     60  C   UNL A   1      44.856  28.925  29.300  1.00  0.00     0.031 A 
BRANCH  47  61
ATOM     61  C   UNL A   1      44.003  27.359  34.560  1.00  0.00    -0.014 A 
ATOM     62  C   UNL A   1      43.997  25.966  34.350  1.00  0.00     0.010 A 
ATOM     63  C   UNL A   1      44.742  27.838  35.662  1.00  0.00     0.010 A 
ATOM     64  C   UNL A   1      44.657  25.085  35.210  1.00  0.00     0.020 A 
ATOM     65  C   UNL A   1      45.445  26.965  36.508  1.00  0.00     0.020 A 
ATOM     66  C   UNL A   1      45.390  25.592  36.278  1.00  0.00     0.054 A 
BRANCH  66  67
ATOM     67  S   UNL A   1      46.328  24.425  37.298  1.00  0.00     0.124 S 
ATOM     68  O   UNL A   1      47.502  24.175  36.466  1.00  0.00    -0.237 OA
ATOM     69  O   UNL A   1      46.570  25.196  38.514  1.00  0.00    -0.237 OA
ATOM     70  O   UNL A   1      45.418  23.293  37.451  1.00  0.00    -0.744 OA
ENDBRANCH  66  67
ENDBRANCH  47  61
BRANCH  48  71
ATOM     71  C   UNL A   1      41.656  24.620  26.766  1.00  0.00    -0.014 A 
ATOM     72  C   UNL A   1      40.643  23.829  27.343  1.00  0.00     0.010 A 
ATOM     73  C   UNL A   1      42.567  23.997  25.892  1.00  0.00     0.010 A 
ATOM     74  C   UNL A   1      40.607  22.447  27.148  1.00  0.00     0.020 A 
ATOM     75  C   UNL A   1      42.540  22.608  25.697  1.00  0.00     0.020 A 
ATOM     76  C   UNL A   1      41.588  21.839  26.366  1.00  0.00     0.054 A 
BRANCH  76  77
ATOM     77  S   UNL A   1      41.658  20.026  26.344  1.00  0.00     0.124 S 
ATOM     78  O   UNL A   1      40.277  19.676  26.026  1.00  0.00    -0.237 OA
ATOM     79  O   UNL A   1      42.632  19.760  25.290  1.00  0.00    -0.237 OA
ATOM     80  O   UNL A   1      42.095  19.682  27.696  1.00  0.00    -0.744 OA
ENDBRANCH  76  77
ENDBRANCH  48  71
BRANCH  60  81
ATOM     81  C   UNL A   1      44.813  29.979  28.210  1.00  0.00    -0.014 A 
ATOM     82  C   UNL A   1      46.035  30.450  27.694  1.00  0.00     0.010 A 
ATOM     83  C   UNL A   1      43.629  30.638  27.820  1.00  0.00     0.010 A 
ATOM     84  C   UNL A   1      46.079  31.555  26.839  1.00  0.00     0.020 A 
ATOM     85  C   UNL A   1      43.663  31.730  26.938  1.00  0.00     0.020 A 
ATOM     86  C   UNL A   1      44.893  32.195  26.473  1.00  0.00     0.054 A 
BRANCH  86  87
ATOM     87  S   UNL A   1      44.999  33.656  25.403  1.00  0.00     0.124 S 
ATOM     88  O   UNL A   1      44.471  33.149  24.138  1.00  0.00    -0.237 OA
ATOM     89  O   UNL A   1      44.147  34.623  26.090  1.00  0.00    -0.237 OA
ATOM     90  O   UNL A   1      46.423  33.985  25.393  1.00  0.00    -0.744 OA
ENDBRANCH  86  87
ENDBRANCH  60  81
ENDBRANCH  34  35
ENDBRANCH  26  29
ENDBRANCH  24  25
ENDBRANCH   1  24
TORSDOF 15
ENDMDL
