MODEL 1
REMARK VINA RESULT:      -9.9      0.000      0.000
REMARK SMILES O=C(COCC(=O)/[NH+]=C1\S[C@@H]2CS(=O)(=O)C[C@H]2N1c1ccc(Cl)cc1)NCCCCNC(=O)c1ccc(-c2c3nc(c(-c4ccc(S(=O)(=O)[O-])cc4)c4ccc([nH]4)c(-c4ccc(S(=O)(=O)[O-])cc4)c4nc(c(-c5ccc(S(=O)(=O)[O-])cc5)c5ccc2[nH]5)C=C4)C=C3)cc1
REMARK SMILES IDX 28 1 27 2 26 3 2 4 1 5 3 7 4 8 5 9 6 10 7 11 8 12 9 13 10 15
REMARK SMILES IDX 18 16 11 17 17 18 12 19 16 20 13 21 14 22 15 23 19 24 20 25
REMARK SMILES IDX 25 26 21 27 24 28 22 29 23 30 29 31 30 32 31 33 32 34 33 36
REMARK SMILES IDX 34 37 35 38 93 39 36 40 92 41 37 42 38 43 39 44 86 45 40 46
REMARK SMILES IDX 91 47 85 48 87 49 41 50 90 51 84 52 83 53 42 55 72 56 53 57
REMARK SMILES IDX 71 58 54 59 57 60 70 61 88 62 55 63 56 64 69 66 89 67 58 68
REMARK SMILES IDX 43 69 44 70 52 71 45 72 51 73 46 74 47 75 48 76 49 77 50 78
REMARK SMILES IDX 73 79 74 80 82 81 75 82 81 83 76 84 77 85 78 86 79 87 80 88
REMARK SMILES IDX 59 89 60 90 68 91 61 92 67 93 62 94 63 95 64 96 65 97 66 98
REMARK H PARENT 26 6 8 14 31 35 87 54 57 65
REMARK Flexibility Score: inf
ROOT
ATOM      1  C   UNL A   1      42.570  20.355  26.178  1.00  0.00     0.023 C 
ENDROOT
BRANCH   1   2
ATOM      2  C   UNL A   1      43.036  21.790  25.939  1.00  0.00     0.116 C 
BRANCH   2   3
ATOM      3  N   UNL A   1      43.898  21.916  24.777  1.00  0.00    -0.354 N 
ATOM      4  C   UNL A   1      44.598  23.010  24.352  1.00  0.00     0.246 C 
ATOM      5  O   UNL A   1      45.325  22.916  23.365  1.00  0.00    -0.272 OA
ATOM      6  H   UNL A   1      43.988  21.107  24.222  1.00  0.00     0.163 HD
BRANCH   4   7
ATOM      7  C   UNL A   1      44.454  24.328  25.116  1.00  0.00     0.260 C 
BRANCH   7   8
ATOM      8  O   UNL A   1      45.437  25.290  24.766  1.00  0.00    -0.359 OA
BRANCH   8   9
ATOM      9  C   UNL A   1      46.086  25.852  25.902  1.00  0.00     0.288 C 
BRANCH   9  10
ATOM     10  C   UNL A   1      47.352  25.139  26.411  1.00  0.00     0.333 C 
ATOM     11  O   UNL A   1      47.264  24.014  26.901  1.00  0.00    -0.244 OA
ATOM     12  N   UNL A   1      48.558  25.793  26.359  1.00  0.00    -0.202 N 
ATOM     13  C   UNL A   1      49.074  26.221  25.257  1.00  0.00     0.319 C 
ATOM     14  H   UNL A   1      49.051  25.941  27.199  1.00  0.00     0.316 HD
ATOM     15  S   UNL A   1      48.286  26.182  23.646  1.00  0.00    -0.029 SA
ATOM     16  N   UNL A   1      50.331  26.832  25.122  1.00  0.00    -0.217 N 
ATOM     17  C   UNL A   1      49.284  27.605  23.159  1.00  0.00     0.120 C 
ATOM     18  C   UNL A   1      50.644  27.179  23.727  1.00  0.00     0.212 C 
ATOM     19  C   UNL A   1      49.469  27.960  21.709  1.00  0.00     0.156 C 
ATOM     20  C   UNL A   1      51.557  28.333  23.397  1.00  0.00     0.188 C 
ATOM     21  S   UNL A   1      51.104  28.704  21.697  1.00  0.00     0.155 S 
ATOM     22  O   UNL A   1      50.971  30.141  21.571  1.00  0.00    -0.229 OA
ATOM     23  O   UNL A   1      51.948  27.922  20.823  1.00  0.00    -0.229 OA
BRANCH  16  24
ATOM     24  C   UNL A   1      51.369  26.647  26.049  1.00  0.00     0.128 A 
ATOM     25  C   UNL A   1      51.294  27.186  27.342  1.00  0.00     0.053 A 
ATOM     26  C   UNL A   1      52.496  25.868  25.736  1.00  0.00     0.053 A 
ATOM     27  C   UNL A   1      52.305  26.961  28.284  1.00  0.00     0.025 A 
ATOM     28  C   UNL A   1      53.510  25.638  26.675  1.00  0.00     0.025 A 
ATOM     29  C   UNL A   1      53.409  26.186  27.947  1.00  0.00     0.041 A 
ATOM     30  Cl  UNL A   1      54.638  25.891  29.112  1.00  0.00    -0.084 Cl
ENDBRANCH  16  24
ENDBRANCH   9  10
ENDBRANCH   8   9
ENDBRANCH   7   8
ENDBRANCH   4   7
ENDBRANCH   2   3
ENDBRANCH   1   2
BRANCH   1  31
ATOM     31  C   UNL A   1      41.365  20.208  27.112  1.00  0.00     0.023 C 
BRANCH  31  32
ATOM     32  C   UNL A   1      40.562  21.481  27.359  1.00  0.00     0.116 C 
BRANCH  32  33
ATOM     33  N   UNL A   1      39.473  21.661  26.411  1.00  0.00    -0.352 N 
ATOM     34  C   UNL A   1      38.753  22.796  26.121  1.00  0.00     0.251 C 
ATOM     35  H   UNL A   1      39.215  20.856  25.907  1.00  0.00     0.163 HD
ATOM     36  O   UNL A   1      37.776  22.720  25.381  1.00  0.00    -0.269 OA
BRANCH  34  37
ATOM     37  C   UNL A   1      39.132  24.096  26.723  1.00  0.00     0.039 A 
ATOM     38  C   UNL A   1      38.661  24.408  28.000  1.00  0.00     0.014 A 
ATOM     39  C   UNL A   1      39.951  25.001  26.041  1.00  0.00     0.014 A 
ATOM     40  C   UNL A   1      39.063  25.595  28.618  1.00  0.00     0.010 A 
ATOM     41  C   UNL A   1      40.416  26.143  26.690  1.00  0.00     0.010 A 
ATOM     42  C   UNL A   1      39.976  26.456  27.985  1.00  0.00    -0.014 A 
BRANCH  42  43
ATOM     43  C   UNL A   1      40.488  27.670  28.674  1.00  0.00     0.031 A 
ATOM     44  C   UNL A   1      41.906  27.727  29.180  1.00  0.00     0.074 A 
ATOM     45  C   UNL A   1      39.658  28.711  28.888  1.00  0.00     0.049 A 
ATOM     46  N   UNL A   1      42.524  28.707  29.789  1.00  0.00    -0.248 NA
ATOM     47  C   UNL A   1      42.727  26.521  28.999  1.00  0.00     0.031 C 
ATOM     48  C   UNL A   1      38.250  28.767  28.486  1.00  0.00     0.029 A 
ATOM     49  N   UNL A   1      39.878  29.927  29.488  1.00  0.00    -0.354 N 
ATOM     50  C   UNL A   1      43.799  28.230  30.080  1.00  0.00     0.074 A 
ATOM     51  C   UNL A   1      43.844  26.857  29.627  1.00  0.00     0.031 C 
ATOM     52  C   UNL A   1      37.750  29.972  28.801  1.00  0.00     0.029 A 
ATOM     53  C   UNL A   1      38.782  30.758  29.471  1.00  0.00     0.049 A 
ATOM     54  H   UNL A   1      40.740  30.179  29.892  1.00  0.00     0.167 HD
ATOM     55  C   UNL A   1      44.840  28.878  30.656  1.00  0.00     0.031 A 
ATOM     56  C   UNL A   1      38.625  32.012  29.935  1.00  0.00     0.031 A 
ATOM     57  C   UNL A   1      44.788  30.246  31.108  1.00  0.00     0.049 A 
ATOM     58  C   UNL A   1      39.789  32.704  30.589  1.00  0.00     0.074 A 
ATOM     59  C   UNL A   1      45.808  31.014  31.642  1.00  0.00     0.029 A 
ATOM     60  N   UNL A   1      43.654  31.043  31.095  1.00  0.00    -0.354 N 
ATOM     61  N   UNL A   1      41.011  32.266  30.776  1.00  0.00    -0.248 NA
ATOM     62  C   UNL A   1      39.552  34.066  31.084  1.00  0.00     0.031 C 
ATOM     63  C   UNL A   1      45.273  32.250  32.018  1.00  0.00     0.029 A 
ATOM     64  C   UNL A   1      43.937  32.282  31.649  1.00  0.00     0.049 A 
ATOM     65  H   UNL A   1      42.776  30.770  30.744  1.00  0.00     0.167 HD
ATOM     66  C   UNL A   1      41.698  33.311  31.383  1.00  0.00     0.074 A 
ATOM     67  C   UNL A   1      40.759  34.407  31.513  1.00  0.00     0.031 C 
ATOM     68  C   UNL A   1      42.991  33.361  31.791  1.00  0.00     0.031 A 
BRANCH  55  69
ATOM     69  C   UNL A   1      46.118  28.102  30.858  1.00  0.00    -0.014 A 
ATOM     70  C   UNL A   1      46.385  27.421  32.061  1.00  0.00     0.010 A 
ATOM     71  C   UNL A   1      47.063  28.037  29.817  1.00  0.00     0.010 A 
ATOM     72  C   UNL A   1      47.595  26.744  32.242  1.00  0.00     0.020 A 
ATOM     73  C   UNL A   1      48.259  27.332  29.980  1.00  0.00     0.020 A 
ATOM     74  C   UNL A   1      48.528  26.709  31.201  1.00  0.00     0.054 A 
BRANCH  74  75
ATOM     75  S   UNL A   1      50.090  25.828  31.464  1.00  0.00     0.124 S 
ATOM     76  O   UNL A   1      49.830  25.123  32.718  1.00  0.00    -0.237 OA
ATOM     77  O   UNL A   1      50.185  24.983  30.277  1.00  0.00    -0.237 OA
ATOM     78  O   UNL A   1      51.083  26.896  31.547  1.00  0.00    -0.744 OA
ENDBRANCH  74  75
ENDBRANCH  55  69
BRANCH  56  79
ATOM     79  C   UNL A   1      37.321  32.712  29.758  1.00  0.00    -0.014 A 
ATOM     80  C   UNL A   1      36.370  32.711  30.794  1.00  0.00     0.010 A 
ATOM     81  C   UNL A   1      37.030  33.397  28.565  1.00  0.00     0.010 A 
ATOM     82  C   UNL A   1      35.148  33.372  30.635  1.00  0.00     0.020 A 
ATOM     83  C   UNL A   1      35.822  34.085  28.414  1.00  0.00     0.020 A 
ATOM     84  C   UNL A   1      34.885  34.061  29.449  1.00  0.00     0.054 A 
BRANCH  84  85
ATOM     85  S   UNL A   1      33.320  34.965  29.295  1.00  0.00     0.124 S 
ATOM     86  O   UNL A   1      32.763  34.840  30.638  1.00  0.00    -0.237 OA
ATOM     87  O   UNL A   1      33.767  36.303  28.915  1.00  0.00    -0.237 OA
ATOM     88  O   UNL A   1      32.605  34.236  28.250  1.00  0.00    -0.744 OA
ENDBRANCH  84  85
ENDBRANCH  56  79
BRANCH  68  89
ATOM     89  C   UNL A   1      43.475  34.656  32.393  1.00  0.00    -0.014 A 
ATOM     90  C   UNL A   1      43.532  34.844  33.785  1.00  0.00     0.010 A 
ATOM     91  C   UNL A   1      43.903  35.696  31.546  1.00  0.00     0.010 A 
ATOM     92  C   UNL A   1      43.958  36.065  34.319  1.00  0.00     0.020 A 
ATOM     93  C   UNL A   1      44.364  36.904  32.075  1.00  0.00     0.020 A 
ATOM     94  C   UNL A   1      44.369  37.088  33.458  1.00  0.00     0.054 A 
BRANCH  94  95
ATOM     95  S   UNL A   1      44.932  38.656  34.175  1.00  0.00     0.124 S 
ATOM     96  O   UNL A   1      44.061  38.788  35.340  1.00  0.00    -0.237 OA
ATOM     97  O   UNL A   1      46.338  38.387  34.469  1.00  0.00    -0.237 OA
ATOM     98  O   UNL A   1      44.699  39.628  33.109  1.00  0.00    -0.744 OA
ENDBRANCH  94  95
ENDBRANCH  68  89
ENDBRANCH  42  43
ENDBRANCH  34  37
ENDBRANCH  32  33
ENDBRANCH  31  32
ENDBRANCH   1  31
TORSDOF 18
ENDMDL
MODEL 2
REMARK VINA RESULT:      -9.7      0.615      7.925
REMARK SMILES O=C(COCC(=O)/[NH+]=C1\S[C@@H]2CS(=O)(=O)C[C@H]2N1c1ccc(Cl)cc1)NCCCCNC(=O)c1ccc(-c2c3nc(c(-c4ccc(S(=O)(=O)[O-])cc4)c4ccc([nH]4)c(-c4ccc(S(=O)(=O)[O-])cc4)c4nc(c(-c5ccc(S(=O)(=O)[O-])cc5)c5ccc2[nH]5)C=C4)C=C3)cc1
REMARK SMILES IDX 28 1 27 2 26 3 2 4 1 5 3 7 4 8 5 9 6 10 7 11 8 12 9 13 10 15
REMARK SMILES IDX 18 16 11 17 17 18 12 19 16 20 13 21 14 22 15 23 19 24 20 25
REMARK SMILES IDX 25 26 21 27 24 28 22 29 23 30 29 31 30 32 31 33 32 34 33 36
REMARK SMILES IDX 34 37 35 38 93 39 36 40 92 41 37 42 38 43 39 44 86 45 40 46
REMARK SMILES IDX 91 47 85 48 87 49 41 50 90 51 84 52 83 53 42 55 72 56 53 57
REMARK SMILES IDX 71 58 54 59 57 60 70 61 88 62 55 63 56 64 69 66 89 67 58 68
REMARK SMILES IDX 43 69 44 70 52 71 45 72 51 73 46 74 47 75 48 76 49 77 50 78
REMARK SMILES IDX 73 79 74 80 82 81 75 82 81 83 76 84 77 85 78 86 79 87 80 88
REMARK SMILES IDX 59 89 60 90 68 91 61 92 67 93 62 94 63 95 64 96 65 97 66 98
REMARK H PARENT 26 6 8 14 31 35 87 54 57 65
REMARK Flexibility Score: inf
ROOT
ATOM      1  C   UNL A   1      42.560  20.343  26.091  1.00  0.00     0.023 C 
ENDROOT
BRANCH   1   2
ATOM      2  C   UNL A   1      43.112  21.766  26.044  1.00  0.00     0.116 C 
BRANCH   2   3
ATOM      3  N   UNL A   1      43.914  22.019  24.859  1.00  0.00    -0.354 N 
ATOM      4  C   UNL A   1      44.663  23.122  24.560  1.00  0.00     0.246 C 
ATOM      5  O   UNL A   1      45.324  23.141  23.523  1.00  0.00    -0.272 OA
ATOM      6  H   UNL A   1      43.917  21.302  24.184  1.00  0.00     0.163 HD
BRANCH   4   7
ATOM      7  C   UNL A   1      44.653  24.312  25.522  1.00  0.00     0.260 C 
BRANCH   7   8
ATOM      8  O   UNL A   1      45.485  25.382  25.101  1.00  0.00    -0.359 OA
BRANCH   8   9
ATOM      9  C   UNL A   1      46.287  25.903  26.155  1.00  0.00     0.288 C 
BRANCH   9  10
ATOM     10  C   UNL A   1      47.574  25.133  26.505  1.00  0.00     0.333 C 
ATOM     11  O   UNL A   1      47.497  24.002  26.981  1.00  0.00    -0.244 OA
ATOM     12  N   UNL A   1      48.791  25.744  26.329  1.00  0.00    -0.202 N 
ATOM     13  C   UNL A   1      49.196  26.177  25.183  1.00  0.00     0.319 C 
ATOM     14  H   UNL A   1      49.381  25.855  27.110  1.00  0.00     0.316 HD
ATOM     15  S   UNL A   1      48.231  26.202  23.671  1.00  0.00    -0.029 SA
ATOM     16  N   UNL A   1      50.453  26.744  24.918  1.00  0.00    -0.217 N 
ATOM     17  C   UNL A   1      49.223  27.598  23.100  1.00  0.00     0.120 C 
ATOM     18  C   UNL A   1      50.621  27.110  23.503  1.00  0.00     0.212 C 
ATOM     19  C   UNL A   1      49.257  27.978  21.645  1.00  0.00     0.156 C 
ATOM     20  C   UNL A   1      51.535  28.237  23.092  1.00  0.00     0.188 C 
ATOM     21  S   UNL A   1      50.908  28.662  21.462  1.00  0.00     0.155 S 
ATOM     22  O   UNL A   1      50.819  30.106  21.377  1.00  0.00    -0.229 OA
ATOM     23  O   UNL A   1      51.618  27.870  20.483  1.00  0.00    -0.229 OA
BRANCH  16  24
ATOM     24  C   UNL A   1      51.580  26.501  25.718  1.00  0.00     0.128 A 
ATOM     25  C   UNL A   1      52.353  25.342  25.552  1.00  0.00     0.053 A 
ATOM     26  C   UNL A   1      52.011  27.435  26.676  1.00  0.00     0.053 A 
ATOM     27  C   UNL A   1      53.507  25.121  26.314  1.00  0.00     0.025 A 
ATOM     28  C   UNL A   1      53.165  27.222  27.440  1.00  0.00     0.025 A 
ATOM     29  C   UNL A   1      53.909  26.064  27.255  1.00  0.00     0.041 A 
ATOM     30  Cl  UNL A   1      55.338  25.803  28.173  1.00  0.00    -0.084 Cl
ENDBRANCH  16  24
ENDBRANCH   9  10
ENDBRANCH   8   9
ENDBRANCH   7   8
ENDBRANCH   4   7
ENDBRANCH   2   3
ENDBRANCH   1   2
BRANCH   1  31
ATOM     31  C   UNL A   1      41.210  20.191  26.798  1.00  0.00     0.023 C 
BRANCH  31  32
ATOM     32  C   UNL A   1      40.483  21.493  27.121  1.00  0.00     0.116 C 
BRANCH  32  33
ATOM     33  N   UNL A   1      39.352  21.747  26.243  1.00  0.00    -0.352 N 
ATOM     34  C   UNL A   1      38.653  22.914  26.042  1.00  0.00     0.251 C 
ATOM     35  H   UNL A   1      39.043  20.974  25.718  1.00  0.00     0.163 HD
ATOM     36  O   UNL A   1      37.636  22.900  25.354  1.00  0.00    -0.269 OA
BRANCH  34  37
ATOM     37  C   UNL A   1      39.103  24.174  26.680  1.00  0.00     0.039 A 
ATOM     38  C   UNL A   1      38.696  24.448  27.988  1.00  0.00     0.014 A 
ATOM     39  C   UNL A   1      39.926  25.079  26.002  1.00  0.00     0.014 A 
ATOM     40  C   UNL A   1      39.165  25.593  28.636  1.00  0.00     0.010 A 
ATOM     41  C   UNL A   1      40.458  26.175  26.676  1.00  0.00     0.010 A 
ATOM     42  C   UNL A   1      40.083  26.449  28.001  1.00  0.00    -0.014 A 
BRANCH  42  43
ATOM     43  C   UNL A   1      40.665  27.614  28.717  1.00  0.00     0.031 A 
ATOM     44  C   UNL A   1      39.834  28.839  28.995  1.00  0.00     0.074 A 
ATOM     45  C   UNL A   1      41.963  27.589  29.079  1.00  0.00     0.049 A 
ATOM     46  N   UNL A   1      40.171  29.939  29.619  1.00  0.00    -0.248 NA
ATOM     47  C   UNL A   1      38.454  28.839  28.487  1.00  0.00     0.031 C 
ATOM     48  C   UNL A   1      42.889  26.480  28.833  1.00  0.00     0.029 A 
ATOM     49  N   UNL A   1      42.729  28.516  29.741  1.00  0.00    -0.354 N 
ATOM     50  C   UNL A   1      39.054  30.767  29.563  1.00  0.00     0.074 A 
ATOM     51  C   UNL A   1      38.049  30.061  28.799  1.00  0.00     0.031 C 
ATOM     52  C   UNL A   1      44.079  26.770  29.382  1.00  0.00     0.029 A 
ATOM     53  C   UNL A   1      44.019  28.101  29.977  1.00  0.00     0.049 A 
ATOM     54  H   UNL A   1      42.387  29.396  30.021  1.00  0.00     0.167 HD
ATOM     55  C   UNL A   1      38.875  31.994  30.109  1.00  0.00     0.031 A 
ATOM     56  C   UNL A   1      45.039  28.717  30.606  1.00  0.00     0.031 A 
ATOM     57  C   UNL A   1      39.881  32.694  30.868  1.00  0.00     0.049 A 
ATOM     58  C   UNL A   1      44.822  30.087  31.187  1.00  0.00     0.074 A 
ATOM     59  C   UNL A   1      39.774  33.909  31.521  1.00  0.00     0.029 A 
ATOM     60  N   UNL A   1      41.179  32.250  31.063  1.00  0.00    -0.354 N 
ATOM     61  N   UNL A   1      43.731  30.816  31.198  1.00  0.00    -0.248 NA
ATOM     62  C   UNL A   1      45.974  30.711  31.850  1.00  0.00     0.031 C 
ATOM     63  C   UNL A   1      41.029  34.235  32.047  1.00  0.00     0.029 A 
ATOM     64  C   UNL A   1      41.898  33.186  31.790  1.00  0.00     0.049 A 
ATOM     65  H   UNL A   1      41.540  31.395  30.733  1.00  0.00     0.167 HD
ATOM     66  C   UNL A   1      44.057  31.973  31.897  1.00  0.00     0.074 A 
ATOM     67  C   UNL A   1      45.440  31.836  32.308  1.00  0.00     0.031 C 
ATOM     68  C   UNL A   1      43.280  33.049  32.179  1.00  0.00     0.031 A 
BRANCH  55  69
ATOM     69  C   UNL A   1      37.546  32.671  29.879  1.00  0.00    -0.014 A 
ATOM     70  C   UNL A   1      37.324  33.496  28.761  1.00  0.00     0.010 A 
ATOM     71  C   UNL A   1      36.494  32.465  30.791  1.00  0.00     0.010 A 
ATOM     72  C   UNL A   1      36.099  34.148  28.590  1.00  0.00     0.020 A 
ATOM     73  C   UNL A   1      35.255  33.087  30.606  1.00  0.00     0.020 A 
ATOM     74  C   UNL A   1      35.074  33.944  29.519  1.00  0.00     0.054 A 
BRANCH  74  75
ATOM     75  S   UNL A   1      33.497  34.806  29.276  1.00  0.00     0.124 S 
ATOM     76  O   UNL A   1      32.932  34.783  30.623  1.00  0.00    -0.237 OA
ATOM     77  O   UNL A   1      33.920  36.118  28.794  1.00  0.00    -0.237 OA
ATOM     78  O   UNL A   1      32.797  33.980  28.295  1.00  0.00    -0.744 OA
ENDBRANCH  74  75
ENDBRANCH  55  69
BRANCH  56  79
ATOM     79  C   UNL A   1      46.348  28.023  30.755  1.00  0.00    -0.014 A 
ATOM     80  C   UNL A   1      47.315  28.105  29.737  1.00  0.00     0.010 A 
ATOM     81  C   UNL A   1      46.645  27.293  31.921  1.00  0.00     0.010 A 
ATOM     82  C   UNL A   1      48.547  27.460  29.876  1.00  0.00     0.020 A 
ATOM     83  C   UNL A   1      47.888  26.673  32.077  1.00  0.00     0.020 A 
ATOM     84  C   UNL A   1      48.829  26.754  31.049  1.00  0.00     0.054 A 
BRANCH  84  85
ATOM     85  S   UNL A   1      50.461  25.983  31.231  1.00  0.00     0.124 S 
ATOM     86  O   UNL A   1      51.109  26.865  32.195  1.00  0.00    -0.237 OA
ATOM     87  O   UNL A   1      50.124  24.648  31.719  1.00  0.00    -0.237 OA
ATOM     88  O   UNL A   1      51.010  26.022  29.877  1.00  0.00    -0.744 OA
ENDBRANCH  84  85
ENDBRANCH  56  79
BRANCH  68  89
ATOM     89  C   UNL A   1      43.902  34.154  32.995  1.00  0.00    -0.014 A 
ATOM     90  C   UNL A   1      43.726  34.227  34.389  1.00  0.00     0.010 A 
ATOM     91  C   UNL A   1      44.696  35.124  32.356  1.00  0.00     0.010 A 
ATOM     92  C   UNL A   1      44.290  35.278  35.119  1.00  0.00     0.020 A 
ATOM     93  C   UNL A   1      45.291  36.155  33.087  1.00  0.00     0.020 A 
ATOM     94  C   UNL A   1      45.066  36.238  34.462  1.00  0.00     0.054 A 
BRANCH  94  95
ATOM     95  S   UNL A   1      45.799  37.582  35.434  1.00  0.00     0.124 S 
ATOM     96  O   UNL A   1      47.004  36.951  35.966  1.00  0.00    -0.237 OA
ATOM     97  O   UNL A   1      46.022  38.619  34.429  1.00  0.00    -0.237 OA
ATOM     98  O   UNL A   1      44.770  37.894  36.425  1.00  0.00    -0.744 OA
ENDBRANCH  94  95
ENDBRANCH  68  89
ENDBRANCH  42  43
ENDBRANCH  34  37
ENDBRANCH  32  33
ENDBRANCH  31  32
ENDBRANCH   1  31
TORSDOF 18
ENDMDL
MODEL 3
REMARK VINA RESULT:      -9.6      5.123     13.428
REMARK SMILES O=C(COCC(=O)/[NH+]=C1\S[C@@H]2CS(=O)(=O)C[C@H]2N1c1ccc(Cl)cc1)NCCCCNC(=O)c1ccc(-c2c3nc(c(-c4ccc(S(=O)(=O)[O-])cc4)c4ccc([nH]4)c(-c4ccc(S(=O)(=O)[O-])cc4)c4nc(c(-c5ccc(S(=O)(=O)[O-])cc5)c5ccc2[nH]5)C=C4)C=C3)cc1
REMARK SMILES IDX 28 1 27 2 26 3 2 4 1 5 3 7 4 8 5 9 6 10 7 11 8 12 9 13 10 15
REMARK SMILES IDX 18 16 11 17 17 18 12 19 16 20 13 21 14 22 15 23 19 24 20 25
REMARK SMILES IDX 25 26 21 27 24 28 22 29 23 30 29 31 30 32 31 33 32 34 33 36
REMARK SMILES IDX 34 37 35 38 93 39 36 40 92 41 37 42 38 43 39 44 86 45 40 46
REMARK SMILES IDX 91 47 85 48 87 49 41 50 90 51 84 52 83 53 42 55 72 56 53 57
REMARK SMILES IDX 71 58 54 59 57 60 70 61 88 62 55 63 56 64 69 66 89 67 58 68
REMARK SMILES IDX 43 69 44 70 52 71 45 72 51 73 46 74 47 75 48 76 49 77 50 78
REMARK SMILES IDX 73 79 74 80 82 81 75 82 81 83 76 84 77 85 78 86 79 87 80 88
REMARK SMILES IDX 59 89 60 90 68 91 61 92 67 93 62 94 63 95 64 96 65 97 66 98
REMARK H PARENT 26 6 8 14 31 35 87 54 57 65
REMARK Flexibility Score: inf
ROOT
ATOM      1  C   UNL A   1      39.074  33.855  29.182  1.00  0.00     0.023 C 
ENDROOT
BRANCH   1   2
ATOM      2  C   UNL A   1      39.943  35.066  29.516  1.00  0.00     0.116 C 
BRANCH   2   3
ATOM      3  N   UNL A   1      41.364  34.787  29.404  1.00  0.00    -0.354 N 
ATOM      4  C   UNL A   1      42.360  35.613  28.966  1.00  0.00     0.246 C 
ATOM      5  O   UNL A   1      43.525  35.221  28.988  1.00  0.00    -0.272 OA
ATOM      6  H   UNL A   1      41.646  33.884  29.679  1.00  0.00     0.163 HD
BRANCH   4   7
ATOM      7  C   UNL A   1      41.998  37.008  28.450  1.00  0.00     0.260 C 
BRANCH   7   8
ATOM      8  O   UNL A   1      43.106  37.716  27.916  1.00  0.00    -0.359 OA
BRANCH   8   9
ATOM      9  C   UNL A   1      43.339  38.954  28.578  1.00  0.00     0.288 C 
BRANCH   9  10
ATOM     10  C   UNL A   1      43.796  40.140  27.708  1.00  0.00     0.333 C 
ATOM     11  O   UNL A   1      43.559  40.139  26.502  1.00  0.00    -0.244 OA
ATOM     12  N   UNL A   1      44.511  41.161  28.286  1.00  0.00    -0.202 N 
ATOM     13  C   UNL A   1      44.051  41.871  29.260  1.00  0.00     0.319 C 
ATOM     14  H   UNL A   1      45.412  41.359  27.943  1.00  0.00     0.316 HD
ATOM     15  S   UNL A   1      42.504  41.591  30.123  1.00  0.00    -0.029 SA
ATOM     16  N   UNL A   1      44.696  42.972  29.847  1.00  0.00    -0.217 N 
ATOM     17  C   UNL A   1      43.211  42.389  31.580  1.00  0.00     0.120 C 
ATOM     18  C   UNL A   1      43.896  43.591  30.917  1.00  0.00     0.212 C 
ATOM     19  C   UNL A   1      42.328  42.901  32.686  1.00  0.00     0.156 C 
ATOM     20  C   UNL A   1      44.555  44.316  32.063  1.00  0.00     0.188 C 
ATOM     21  S   UNL A   1      43.268  44.295  33.317  1.00  0.00     0.155 S 
ATOM     22  O   UNL A   1      43.876  43.926  34.580  1.00  0.00    -0.229 OA
ATOM     23  O   UNL A   1      42.465  45.487  33.162  1.00  0.00    -0.229 OA
BRANCH  16  24
ATOM     24  C   UNL A   1      45.677  43.722  29.182  1.00  0.00     0.128 A 
ATOM     25  C   UNL A   1      47.018  43.313  29.164  1.00  0.00     0.053 A 
ATOM     26  C   UNL A   1      45.344  44.882  28.460  1.00  0.00     0.053 A 
ATOM     27  C   UNL A   1      47.990  44.033  28.458  1.00  0.00     0.025 A 
ATOM     28  C   UNL A   1      46.311  45.606  27.751  1.00  0.00     0.025 A 
ATOM     29  C   UNL A   1      47.632  45.176  27.754  1.00  0.00     0.041 A 
ATOM     30  Cl  UNL A   1      48.822  46.046  26.868  1.00  0.00    -0.084 Cl
ENDBRANCH  16  24
ENDBRANCH   9  10
ENDBRANCH   8   9
ENDBRANCH   7   8
ENDBRANCH   4   7
ENDBRANCH   2   3
ENDBRANCH   1   2
BRANCH   1  31
ATOM     31  C   UNL A   1      37.611  33.963  29.618  1.00  0.00     0.023 C 
BRANCH  31  32
ATOM     32  C   UNL A   1      36.691  32.849  29.127  1.00  0.00     0.116 C 
BRANCH  32  33
ATOM     33  N   UNL A   1      36.141  32.045  30.207  1.00  0.00    -0.352 N 
ATOM     34  C   UNL A   1      36.601  30.860  30.729  1.00  0.00     0.251 C 
ATOM     35  H   UNL A   1      35.322  32.401  30.622  1.00  0.00     0.163 HD
ATOM     36  O   UNL A   1      35.921  30.259  31.557  1.00  0.00    -0.269 OA
BRANCH  34  37
ATOM     37  C   UNL A   1      37.891  30.292  30.272  1.00  0.00     0.039 A 
ATOM     38  C   UNL A   1      38.079  30.064  28.906  1.00  0.00     0.014 A 
ATOM     39  C   UNL A   1      38.914  29.991  31.176  1.00  0.00     0.014 A 
ATOM     40  C   UNL A   1      39.312  29.599  28.443  1.00  0.00     0.010 A 
ATOM     41  C   UNL A   1      40.168  29.606  30.705  1.00  0.00     0.010 A 
ATOM     42  C   UNL A   1      40.382  29.401  29.334  1.00  0.00    -0.014 A 
BRANCH  42  43
ATOM     43  C   UNL A   1      41.726  29.002  28.839  1.00  0.00     0.031 A 
ATOM     44  C   UNL A   1      42.849  30.005  28.772  1.00  0.00     0.074 A 
ATOM     45  C   UNL A   1      41.926  27.742  28.404  1.00  0.00     0.049 A 
ATOM     46  N   UNL A   1      44.087  29.830  28.383  1.00  0.00    -0.248 NA
ATOM     47  C   UNL A   1      42.537  31.385  29.172  1.00  0.00     0.031 C 
ATOM     48  C   UNL A   1      40.911  26.686  28.376  1.00  0.00     0.029 A 
ATOM     49  N   UNL A   1      43.052  27.131  27.910  1.00  0.00    -0.354 N 
ATOM     50  C   UNL A   1      44.694  31.079  28.474  1.00  0.00     0.074 A 
ATOM     51  C   UNL A   1      43.674  32.009  28.903  1.00  0.00     0.031 C 
ATOM     52  C   UNL A   1      41.473  25.547  27.942  1.00  0.00     0.029 A 
ATOM     53  C   UNL A   1      42.872  25.799  27.614  1.00  0.00     0.049 A 
ATOM     54  H   UNL A   1      43.907  27.601  27.779  1.00  0.00     0.167 HD
ATOM     55  C   UNL A   1      45.984  31.417  28.236  1.00  0.00     0.031 A 
ATOM     56  C   UNL A   1      43.737  24.881  27.139  1.00  0.00     0.031 A 
ATOM     57  C   UNL A   1      46.997  30.486  27.805  1.00  0.00     0.049 A 
ATOM     58  C   UNL A   1      45.158  25.286  26.864  1.00  0.00     0.074 A 
ATOM     59  C   UNL A   1      48.346  30.716  27.603  1.00  0.00     0.029 A 
ATOM     60  N   UNL A   1      46.769  29.154  27.495  1.00  0.00    -0.354 N 
ATOM     61  N   UNL A   1      45.734  26.452  27.038  1.00  0.00    -0.248 NA
ATOM     62  C   UNL A   1      46.049  24.244  26.337  1.00  0.00     0.031 C 
ATOM     63  C   UNL A   1      48.920  29.543  27.101  1.00  0.00     0.029 A 
ATOM     64  C   UNL A   1      47.944  28.559  27.063  1.00  0.00     0.049 A 
ATOM     65  H   UNL A   1      45.900  28.697  27.569  1.00  0.00     0.167 HD
ATOM     66  C   UNL A   1      47.064  26.275  26.672  1.00  0.00     0.074 A 
ATOM     67  C   UNL A   1      47.208  24.886  26.285  1.00  0.00     0.031 C 
ATOM     68  C   UNL A   1      48.075  27.179  26.662  1.00  0.00     0.031 A 
BRANCH  55  69
ATOM     69  C   UNL A   1      46.367  32.867  28.408  1.00  0.00    -0.014 A 
ATOM     70  C   UNL A   1      46.739  33.386  29.663  1.00  0.00     0.010 A 
ATOM     71  C   UNL A   1      46.372  33.722  27.291  1.00  0.00     0.010 A 
ATOM     72  C   UNL A   1      47.049  34.742  29.807  1.00  0.00     0.020 A 
ATOM     73  C   UNL A   1      46.715  35.071  27.423  1.00  0.00     0.020 A 
ATOM     74  C   UNL A   1      47.029  35.577  28.687  1.00  0.00     0.054 A 
BRANCH  74  75
ATOM     75  S   UNL A   1      47.430  37.332  28.904  1.00  0.00     0.124 S 
ATOM     76  O   UNL A   1      48.858  37.354  28.595  1.00  0.00    -0.237 OA
ATOM     77  O   UNL A   1      46.566  37.982  27.922  1.00  0.00    -0.237 OA
ATOM     78  O   UNL A   1      47.092  37.596  30.300  1.00  0.00    -0.744 OA
ENDBRANCH  74  75
ENDBRANCH  55  69
BRANCH  56  79
ATOM     79  C   UNL A   1      43.289  23.476  26.934  1.00  0.00    -0.014 A 
ATOM     80  C   UNL A   1      43.084  22.979  25.634  1.00  0.00     0.010 A 
ATOM     81  C   UNL A   1      43.083  22.620  28.032  1.00  0.00     0.010 A 
ATOM     82  C   UNL A   1      42.670  21.658  25.437  1.00  0.00     0.020 A 
ATOM     83  C   UNL A   1      42.699  21.289  27.837  1.00  0.00     0.020 A 
ATOM     84  C   UNL A   1      42.488  20.820  26.539  1.00  0.00     0.054 A 
BRANCH  84  85
ATOM     85  S   UNL A   1      42.015  19.092  26.251  1.00  0.00     0.124 S 
ATOM     86  O   UNL A   1      42.250  18.490  27.559  1.00  0.00    -0.237 OA
ATOM     87  O   UNL A   1      40.615  19.213  25.851  1.00  0.00    -0.237 OA
ATOM     88  O   UNL A   1      42.923  18.662  25.190  1.00  0.00    -0.744 OA
ENDBRANCH  84  85
ENDBRANCH  56  79
BRANCH  68  89
ATOM     89  C   UNL A   1      49.438  26.687  26.244  1.00  0.00    -0.014 A 
ATOM     90  C   UNL A   1      50.254  25.950  27.122  1.00  0.00     0.010 A 
ATOM     91  C   UNL A   1      49.898  26.947  24.940  1.00  0.00     0.010 A 
ATOM     92  C   UNL A   1      51.526  25.529  26.720  1.00  0.00     0.020 A 
ATOM     93  C   UNL A   1      51.153  26.497  24.523  1.00  0.00     0.020 A 
ATOM     94  C   UNL A   1      51.968  25.808  25.423  1.00  0.00     0.054 A 
BRANCH  94  95
ATOM     95  S   UNL A   1      53.614  25.238  24.921  1.00  0.00     0.124 S 
ATOM     96  O   UNL A   1      54.482  26.245  25.525  1.00  0.00    -0.237 OA
ATOM     97  O   UNL A   1      53.686  23.905  25.517  1.00  0.00    -0.237 OA
ATOM     98  O   UNL A   1      53.558  25.258  23.460  1.00  0.00    -0.744 OA
ENDBRANCH  94  95
ENDBRANCH  68  89
ENDBRANCH  42  43
ENDBRANCH  34  37
ENDBRANCH  32  33
ENDBRANCH  31  32
ENDBRANCH   1  31
TORSDOF 18
ENDMDL
