MODEL 1
REMARK VINA RESULT:     -10.2      0.000      0.000
REMARK SMILES C[C@H]([NH3+])CC(=O)N1CC(C(=O)NCCCCNC(=O)c2ccc(-c3c4nc(c(-c5ccc(S(=O)(=O)[O-])cc5)c5ccc([nH]5)c(-c5ccc(S(=O)(=O)[O-])cc5)c5nc(c(-c6ccc(S(=O)(=O)[O-])cc6)c6ccc3[nH]6)C=C5)C=C4)cc2)C1
REMARK SMILES IDX 14 1 13 2 12 3 10 4 11 5 9 7 5 8 6 9 7 10 8 11 80 12 4 13
REMARK SMILES IDX 2 14 1 15 3 16 15 20 16 21 17 22 18 23 19 25 20 26 21 27
REMARK SMILES IDX 79 28 22 29 78 30 23 31 24 32 25 33 72 34 26 35 77 36 71 37
REMARK SMILES IDX 73 38 27 39 76 40 70 41 69 42 28 44 58 45 39 46 57 47 40 48
REMARK SMILES IDX 43 49 56 50 74 51 41 52 42 53 55 55 75 56 44 57 29 58 30 59
REMARK SMILES IDX 38 60 31 61 37 62 32 63 33 64 34 65 35 66 36 67 59 68 60 69
REMARK SMILES IDX 68 70 61 71 67 72 62 73 63 74 64 75 65 76 66 77 45 78 46 79
REMARK SMILES IDX 54 80 47 81 53 82 48 83 49 84 50 85 51 86 52 87
REMARK H PARENT 12 6 3 17 3 18 3 19 17 24 73 43 43 54
REMARK Flexibility Score: inf
ROOT
ATOM      1  C   UNL A   1      34.642  24.308  25.282  1.00  0.00     0.023 C 
ENDROOT
BRANCH   1   2
ATOM      2  C   UNL A   1      33.301  24.026  25.961  1.00  0.00     0.116 C 
BRANCH   2   3
ATOM      3  N   UNL A   1      32.203  23.984  25.014  1.00  0.00    -0.356 N 
ATOM      4  C   UNL A   1      31.856  23.056  24.064  1.00  0.00     0.226 C 
ATOM      5  O   UNL A   1      30.815  23.301  23.434  1.00  0.00    -0.275 OA
ATOM      6  H   UNL A   1      31.600  24.761  25.060  1.00  0.00     0.163 HD
BRANCH   4   7
ATOM      7  C   UNL A   1      32.678  21.799  23.777  1.00  0.00     0.117 C 
ATOM      8  C   UNL A   1      32.546  18.398  23.553  1.00  0.00     0.228 C 
ATOM      9  O   UNL A   1      32.461  17.895  22.428  1.00  0.00    -0.275 OA
ATOM     10  N   UNL A   1      32.559  19.748  23.709  1.00  0.00    -0.341 N 
ATOM     11  C   UNL A   1      32.207  20.776  22.743  1.00  0.00     0.134 C 
ATOM     12  C   UNL A   1      32.799  20.666  24.797  1.00  0.00     0.134 C 
BRANCH   8  13
ATOM     13  C   UNL A   1      32.470  17.500  24.781  1.00  0.00     0.164 C 
BRANCH  13  14
ATOM     14  C   UNL A   1      33.288  16.205  24.804  1.00  0.00     0.187 C 
ATOM     15  C   UNL A   1      32.488  15.087  25.485  1.00  0.00     0.075 C 
BRANCH  14  16
ATOM     16  N   UNL A   1      34.529  16.367  25.572  1.00  0.00    -0.355 N 
ATOM     17  H   UNL A   1      34.759  15.489  26.037  1.00  0.00     0.344 HD
ATOM     18  H   UNL A   1      34.404  17.100  26.271  1.00  0.00     0.344 HD
ATOM     19  H   UNL A   1      35.289  16.626  24.941  1.00  0.00     0.344 HD
ENDBRANCH  14  16
ENDBRANCH  13  14
ENDBRANCH   8  13
ENDBRANCH   4   7
ENDBRANCH   2   3
ENDBRANCH   1   2
BRANCH   1  20
ATOM     20  C   UNL A   1      35.734  23.263  25.529  1.00  0.00     0.023 C 
BRANCH  20  21
ATOM     21  C   UNL A   1      37.145  23.668  25.113  1.00  0.00     0.116 C 
BRANCH  21  22
ATOM     22  N   UNL A   1      38.165  22.719  25.532  1.00  0.00    -0.352 N 
ATOM     23  C   UNL A   1      39.278  22.945  26.309  1.00  0.00     0.251 C 
ATOM     24  H   UNL A   1      38.041  21.793  25.220  1.00  0.00     0.163 HD
ATOM     25  O   UNL A   1      40.102  22.052  26.485  1.00  0.00    -0.269 OA
BRANCH  23  26
ATOM     26  C   UNL A   1      39.493  24.285  26.893  1.00  0.00     0.039 A 
ATOM     27  C   UNL A   1      39.019  24.549  28.182  1.00  0.00     0.014 A 
ATOM     28  C   UNL A   1      40.208  25.259  26.192  1.00  0.00     0.014 A 
ATOM     29  C   UNL A   1      39.337  25.760  28.802  1.00  0.00     0.010 A 
ATOM     30  C   UNL A   1      40.575  26.438  26.833  1.00  0.00     0.010 A 
ATOM     31  C   UNL A   1      40.157  26.695  28.149  1.00  0.00    -0.014 A 
BRANCH  31  32
ATOM     32  C   UNL A   1      40.620  27.936  28.820  1.00  0.00     0.031 A 
ATOM     33  C   UNL A   1      41.976  27.977  29.469  1.00  0.00     0.074 A 
ATOM     34  C   UNL A   1      39.782  28.987  28.937  1.00  0.00     0.049 A 
ATOM     35  N   UNL A   1      42.495  28.903  30.234  1.00  0.00    -0.248 NA
ATOM     36  C   UNL A   1      42.848  26.813  29.251  1.00  0.00     0.031 C 
ATOM     37  C   UNL A   1      38.431  29.063  28.378  1.00  0.00     0.029 A 
ATOM     38  N   UNL A   1      39.939  30.185  29.589  1.00  0.00    -0.354 N 
ATOM     39  C   UNL A   1      43.742  28.420  30.614  1.00  0.00     0.074 A 
ATOM     40  C   UNL A   1      43.887  27.109  30.020  1.00  0.00     0.031 C 
ATOM     41  C   UNL A   1      37.887  30.247  28.701  1.00  0.00     0.029 A 
ATOM     42  C   UNL A   1      38.830  30.996  29.528  1.00  0.00     0.049 A 
ATOM     43  H   UNL A   1      40.767  30.441  30.054  1.00  0.00     0.167 HD
ATOM     44  C   UNL A   1      44.685  29.018  31.380  1.00  0.00     0.031 A 
ATOM     45  C   UNL A   1      38.587  32.196  30.089  1.00  0.00     0.031 A 
ATOM     46  C   UNL A   1      44.547  30.330  31.953  1.00  0.00     0.049 A 
ATOM     47  C   UNL A   1      39.647  32.840  30.940  1.00  0.00     0.074 A 
ATOM     48  C   UNL A   1      45.469  31.043  32.700  1.00  0.00     0.029 A 
ATOM     49  N   UNL A   1      43.420  31.127  31.842  1.00  0.00    -0.354 N 
ATOM     50  N   UNL A   1      40.838  32.386  31.253  1.00  0.00    -0.248 NA
ATOM     51  C   UNL A   1      39.334  34.158  31.510  1.00  0.00     0.031 C 
ATOM     52  C   UNL A   1      44.884  32.258  33.072  1.00  0.00     0.029 A 
ATOM     53  C   UNL A   1      43.616  32.320  32.518  1.00  0.00     0.049 A 
ATOM     54  H   UNL A   1      42.600  30.883  31.354  1.00  0.00     0.167 HD
ATOM     55  C   UNL A   1      41.425  33.375  32.033  1.00  0.00     0.074 A 
ATOM     56  C   UNL A   1      40.464  34.453  32.141  1.00  0.00     0.031 C 
ATOM     57  C   UNL A   1      42.653  33.388  32.607  1.00  0.00     0.031 A 
BRANCH  44  58
ATOM     58  C   UNL A   1      45.950  28.249  31.647  1.00  0.00    -0.014 A 
ATOM     59  C   UNL A   1      47.078  28.400  30.821  1.00  0.00     0.010 A 
ATOM     60  C   UNL A   1      46.022  27.385  32.755  1.00  0.00     0.010 A 
ATOM     61  C   UNL A   1      48.240  27.667  31.071  1.00  0.00     0.020 A 
ATOM     62  C   UNL A   1      47.192  26.668  33.023  1.00  0.00     0.020 A 
ATOM     63  C   UNL A   1      48.287  26.800  32.167  1.00  0.00     0.054 A 
BRANCH  63  64
ATOM     64  S   UNL A   1      49.812  25.866  32.475  1.00  0.00     0.124 S 
ATOM     65  O   UNL A   1      49.520  25.232  33.759  1.00  0.00    -0.237 OA
ATOM     66  O   UNL A   1      49.875  24.963  31.329  1.00  0.00    -0.237 OA
ATOM     67  O   UNL A   1      50.846  26.897  32.511  1.00  0.00    -0.744 OA
ENDBRANCH  63  64
ENDBRANCH  44  58
BRANCH  45  68
ATOM     68  C   UNL A   1      37.281  32.873  29.860  1.00  0.00    -0.014 A 
ATOM     69  C   UNL A   1      37.094  33.688  28.731  1.00  0.00     0.010 A 
ATOM     70  C   UNL A   1      36.215  32.692  30.760  1.00  0.00     0.010 A 
ATOM     71  C   UNL A   1      35.868  34.322  28.511  1.00  0.00     0.020 A 
ATOM     72  C   UNL A   1      34.980  33.304  30.531  1.00  0.00     0.020 A 
ATOM     73  C   UNL A   1      34.817  34.125  29.412  1.00  0.00     0.054 A 
BRANCH  73  74
ATOM     74  S   UNL A   1      33.216  34.909  29.076  1.00  0.00     0.124 S 
ATOM     75  O   UNL A   1      33.619  36.212  28.560  1.00  0.00    -0.237 OA
ATOM     76  O   UNL A   1      32.614  34.001  28.103  1.00  0.00    -0.237 OA
ATOM     77  O   UNL A   1      32.564  34.924  30.385  1.00  0.00    -0.744 OA
ENDBRANCH  73  74
ENDBRANCH  45  68
BRANCH  57  78
ATOM     78  C   UNL A   1      43.052  34.619  33.372  1.00  0.00    -0.014 A 
ATOM     79  C   UNL A   1      42.785  34.740  34.746  1.00  0.00     0.010 A 
ATOM     80  C   UNL A   1      43.780  35.632  32.720  1.00  0.00     0.010 A 
ATOM     81  C   UNL A   1      43.230  35.860  35.455  1.00  0.00     0.020 A 
ATOM     82  C   UNL A   1      44.244  36.742  33.429  1.00  0.00     0.020 A 
ATOM     83  C   UNL A   1      43.960  36.852  34.791  1.00  0.00     0.054 A 
BRANCH  83  84
ATOM     84  S   UNL A   1      44.592  38.260  35.746  1.00  0.00     0.124 S 
ATOM     85  O   UNL A   1      46.031  38.158  35.521  1.00  0.00    -0.237 OA
ATOM     86  O   UNL A   1      43.935  39.400  35.111  1.00  0.00    -0.237 OA
ATOM     87  O   UNL A   1      44.152  37.977  37.111  1.00  0.00    -0.744 OA
ENDBRANCH  83  84
ENDBRANCH  57  78
ENDBRANCH  31  32
ENDBRANCH  23  26
ENDBRANCH  21  22
ENDBRANCH  20  21
ENDBRANCH   1  20
TORSDOF 17
ENDMDL
MODEL 2
REMARK VINA RESULT:     -10.1      1.964      3.646
REMARK SMILES C[C@H]([NH3+])CC(=O)N1CC(C(=O)NCCCCNC(=O)c2ccc(-c3c4nc(c(-c5ccc(S(=O)(=O)[O-])cc5)c5ccc([nH]5)c(-c5ccc(S(=O)(=O)[O-])cc5)c5nc(c(-c6ccc(S(=O)(=O)[O-])cc6)c6ccc3[nH]6)C=C5)C=C4)cc2)C1
REMARK SMILES IDX 14 1 13 2 12 3 10 4 11 5 9 7 5 8 6 9 7 10 8 11 80 12 4 13
REMARK SMILES IDX 2 14 1 15 3 16 15 20 16 21 17 22 18 23 19 25 20 26 21 27
REMARK SMILES IDX 79 28 22 29 78 30 23 31 24 32 25 33 72 34 26 35 77 36 71 37
REMARK SMILES IDX 73 38 27 39 76 40 70 41 69 42 28 44 58 45 39 46 57 47 40 48
REMARK SMILES IDX 43 49 56 50 74 51 41 52 42 53 55 55 75 56 44 57 29 58 30 59
REMARK SMILES IDX 38 60 31 61 37 62 32 63 33 64 34 65 35 66 36 67 59 68 60 69
REMARK SMILES IDX 68 70 61 71 67 72 62 73 63 74 64 75 65 76 66 77 45 78 46 79
REMARK SMILES IDX 54 80 47 81 53 82 48 83 49 84 50 85 51 86 52 87
REMARK H PARENT 12 6 3 17 3 18 3 19 17 24 73 43 43 54
REMARK Flexibility Score: inf
ROOT
ATOM      1  C   UNL A   1      34.590  24.180  25.229  1.00  0.00     0.023 C 
ENDROOT
BRANCH   1   2
ATOM      2  C   UNL A   1      33.393  24.349  26.166  1.00  0.00     0.116 C 
BRANCH   2   3
ATOM      3  N   UNL A   1      32.528  23.185  26.170  1.00  0.00    -0.356 N 
ATOM      4  C   UNL A   1      31.358  22.919  25.503  1.00  0.00     0.226 C 
ATOM      5  O   UNL A   1      30.879  21.790  25.696  1.00  0.00    -0.275 OA
ATOM      6  H   UNL A   1      32.834  22.456  26.757  1.00  0.00     0.163 HD
BRANCH   4   7
ATOM      7  C   UNL A   1      30.667  23.927  24.584  1.00  0.00     0.117 C 
ATOM      8  C   UNL A   1      31.053  26.895  22.948  1.00  0.00     0.228 C 
ATOM      9  O   UNL A   1      31.326  26.861  21.743  1.00  0.00    -0.275 OA
ATOM     10  N   UNL A   1      30.930  25.746  23.663  1.00  0.00    -0.341 N 
ATOM     11  C   UNL A   1      31.343  24.401  23.296  1.00  0.00     0.134 C 
ATOM     12  C   UNL A   1      30.482  25.390  24.989  1.00  0.00     0.134 C 
BRANCH   8  13
ATOM     13  C   UNL A   1      31.019  28.236  23.668  1.00  0.00     0.164 C 
BRANCH  13  14
ATOM     14  C   UNL A   1      30.213  29.386  23.056  1.00  0.00     0.187 C 
ATOM     15  C   UNL A   1      28.772  28.936  22.786  1.00  0.00     0.075 C 
BRANCH  14  16
ATOM     16  N   UNL A   1      30.775  29.811  21.768  1.00  0.00    -0.355 N 
ATOM     17  H   UNL A   1      31.601  29.252  21.556  1.00  0.00     0.344 HD
ATOM     18  H   UNL A   1      31.035  30.797  21.818  1.00  0.00     0.344 HD
ATOM     19  H   UNL A   1      30.078  29.680  21.033  1.00  0.00     0.344 HD
ENDBRANCH  14  16
ENDBRANCH  13  14
ENDBRANCH   8  13
ENDBRANCH   4   7
ENDBRANCH   2   3
ENDBRANCH   1   2
BRANCH   1  20
ATOM     20  C   UNL A   1      35.830  23.539  25.859  1.00  0.00     0.023 C 
BRANCH  20  21
ATOM     21  C   UNL A   1      37.124  23.677  25.062  1.00  0.00     0.116 C 
BRANCH  21  22
ATOM     22  N   UNL A   1      38.149  22.724  25.459  1.00  0.00    -0.352 N 
ATOM     23  C   UNL A   1      39.261  22.939  26.240  1.00  0.00     0.251 C 
ATOM     24  H   UNL A   1      38.032  21.805  25.125  1.00  0.00     0.163 HD
ATOM     25  O   UNL A   1      40.091  22.048  26.396  1.00  0.00    -0.269 OA
BRANCH  23  26
ATOM     26  C   UNL A   1      39.468  24.268  26.856  1.00  0.00     0.039 A 
ATOM     27  C   UNL A   1      38.973  24.505  28.141  1.00  0.00     0.014 A 
ATOM     28  C   UNL A   1      40.196  25.255  26.186  1.00  0.00     0.014 A 
ATOM     29  C   UNL A   1      39.283  25.704  28.791  1.00  0.00     0.010 A 
ATOM     30  C   UNL A   1      40.554  26.420  26.857  1.00  0.00     0.010 A 
ATOM     31  C   UNL A   1      40.114  26.650  28.171  1.00  0.00    -0.014 A 
BRANCH  31  32
ATOM     32  C   UNL A   1      40.567  27.877  28.875  1.00  0.00     0.031 A 
ATOM     33  C   UNL A   1      41.906  27.898  29.558  1.00  0.00     0.074 A 
ATOM     34  C   UNL A   1      39.733  28.930  28.989  1.00  0.00     0.049 A 
ATOM     35  N   UNL A   1      42.412  28.807  30.352  1.00  0.00    -0.248 NA
ATOM     36  C   UNL A   1      42.777  26.732  29.342  1.00  0.00     0.031 C 
ATOM     37  C   UNL A   1      38.397  29.024  28.397  1.00  0.00     0.029 A 
ATOM     38  N   UNL A   1      39.880  30.117  29.665  1.00  0.00    -0.354 N 
ATOM     39  C   UNL A   1      43.646  28.310  30.755  1.00  0.00     0.074 A 
ATOM     40  C   UNL A   1      43.798  27.008  30.143  1.00  0.00     0.031 C 
ATOM     41  C   UNL A   1      37.852  30.207  28.727  1.00  0.00     0.029 A 
ATOM     42  C   UNL A   1      38.778  30.935  29.590  1.00  0.00     0.049 A 
ATOM     43  H   UNL A   1      40.698  30.360  30.156  1.00  0.00     0.167 HD
ATOM     44  C   UNL A   1      44.572  28.889  31.555  1.00  0.00     0.031 A 
ATOM     45  C   UNL A   1      38.528  32.128  30.165  1.00  0.00     0.031 A 
ATOM     46  C   UNL A   1      44.428  30.192  32.147  1.00  0.00     0.049 A 
ATOM     47  C   UNL A   1      39.570  32.750  31.054  1.00  0.00     0.074 A 
ATOM     48  C   UNL A   1      45.335  30.886  32.929  1.00  0.00     0.029 A 
ATOM     49  N   UNL A   1      43.308  30.998  32.021  1.00  0.00    -0.354 N 
ATOM     50  N   UNL A   1      40.749  32.283  31.388  1.00  0.00    -0.248 NA
ATOM     51  C   UNL A   1      39.250  34.060  31.638  1.00  0.00     0.031 C 
ATOM     52  C   UNL A   1      44.748  32.098  33.307  1.00  0.00     0.029 A 
ATOM     53  C   UNL A   1      43.494  32.178  32.722  1.00  0.00     0.049 A 
ATOM     54  H   UNL A   1      42.500  30.767  31.509  1.00  0.00     0.167 HD
ATOM     55  C   UNL A   1      41.323  33.255  32.201  1.00  0.00     0.074 A 
ATOM     56  C   UNL A   1      40.365  34.337  32.302  1.00  0.00     0.031 C 
ATOM     57  C   UNL A   1      42.536  33.250  32.805  1.00  0.00     0.031 A 
BRANCH  44  58
ATOM     58  C   UNL A   1      45.825  28.108  31.840  1.00  0.00    -0.014 A 
ATOM     59  C   UNL A   1      46.965  28.242  31.027  1.00  0.00     0.010 A 
ATOM     60  C   UNL A   1      45.875  27.248  32.953  1.00  0.00     0.010 A 
ATOM     61  C   UNL A   1      48.116  27.498  31.294  1.00  0.00     0.020 A 
ATOM     62  C   UNL A   1      47.034  26.520  33.238  1.00  0.00     0.020 A 
ATOM     63  C   UNL A   1      48.140  26.635  32.395  1.00  0.00     0.054 A 
BRANCH  63  64
ATOM     64  S   UNL A   1      49.651  25.686  32.726  1.00  0.00     0.124 S 
ATOM     65  O   UNL A   1      50.618  26.749  32.993  1.00  0.00    -0.237 OA
ATOM     66  O   UNL A   1      49.276  24.873  33.880  1.00  0.00    -0.237 OA
ATOM     67  O   UNL A   1      49.869  24.942  31.488  1.00  0.00    -0.744 OA
ENDBRANCH  63  64
ENDBRANCH  44  58
BRANCH  45  68
ATOM     68  C   UNL A   1      37.232  32.816  29.915  1.00  0.00    -0.014 A 
ATOM     69  C   UNL A   1      36.170  32.677  30.824  1.00  0.00     0.010 A 
ATOM     70  C   UNL A   1      37.061  33.625  28.778  1.00  0.00     0.010 A 
ATOM     71  C   UNL A   1      34.952  33.325  30.595  1.00  0.00     0.020 A 
ATOM     72  C   UNL A   1      35.853  34.295  28.557  1.00  0.00     0.020 A 
ATOM     73  C   UNL A   1      34.802  34.132  29.463  1.00  0.00     0.054 A 
BRANCH  73  74
ATOM     74  S   UNL A   1      33.235  35.010  29.215  1.00  0.00     0.124 S 
ATOM     75  O   UNL A   1      32.664  34.999  30.557  1.00  0.00    -0.237 OA
ATOM     76  O   UNL A   1      33.675  36.314  28.725  1.00  0.00    -0.237 OA
ATOM     77  O   UNL A   1      32.537  34.188  28.228  1.00  0.00    -0.744 OA
ENDBRANCH  73  74
ENDBRANCH  45  68
BRANCH  57  78
ATOM     78  C   UNL A   1      42.923  34.466  33.601  1.00  0.00    -0.014 A 
ATOM     79  C   UNL A   1      42.731  34.515  34.992  1.00  0.00     0.010 A 
ATOM     80  C   UNL A   1      43.565  35.538  32.956  1.00  0.00     0.010 A 
ATOM     81  C   UNL A   1      43.165  35.624  35.724  1.00  0.00     0.020 A 
ATOM     82  C   UNL A   1      44.019  36.638  33.686  1.00  0.00     0.020 A 
ATOM     83  C   UNL A   1      43.810  36.677  35.066  1.00  0.00     0.054 A 
BRANCH  83  84
ATOM     84  S   UNL A   1      44.432  38.072  36.047  1.00  0.00     0.124 S 
ATOM     85  O   UNL A   1      44.063  39.215  35.216  1.00  0.00    -0.237 OA
ATOM     86  O   UNL A   1      43.690  37.941  37.299  1.00  0.00    -0.237 OA
ATOM     87  O   UNL A   1      45.866  37.811  36.149  1.00  0.00    -0.744 OA
ENDBRANCH  83  84
ENDBRANCH  57  78
ENDBRANCH  31  32
ENDBRANCH  23  26
ENDBRANCH  21  22
ENDBRANCH  20  21
ENDBRANCH   1  20
TORSDOF 17
ENDMDL
MODEL 3
REMARK VINA RESULT:     -10.0      3.026      9.306
REMARK SMILES C[C@H]([NH3+])CC(=O)N1CC(C(=O)NCCCCNC(=O)c2ccc(-c3c4nc(c(-c5ccc(S(=O)(=O)[O-])cc5)c5ccc([nH]5)c(-c5ccc(S(=O)(=O)[O-])cc5)c5nc(c(-c6ccc(S(=O)(=O)[O-])cc6)c6ccc3[nH]6)C=C5)C=C4)cc2)C1
REMARK SMILES IDX 14 1 13 2 12 3 10 4 11 5 9 7 5 8 6 9 7 10 8 11 80 12 4 13
REMARK SMILES IDX 2 14 1 15 3 16 15 20 16 21 17 22 18 23 19 25 20 26 21 27
REMARK SMILES IDX 79 28 22 29 78 30 23 31 24 32 25 33 72 34 26 35 77 36 71 37
REMARK SMILES IDX 73 38 27 39 76 40 70 41 69 42 28 44 58 45 39 46 57 47 40 48
REMARK SMILES IDX 43 49 56 50 74 51 41 52 42 53 55 55 75 56 44 57 29 58 30 59
REMARK SMILES IDX 38 60 31 61 37 62 32 63 33 64 34 65 35 66 36 67 59 68 60 69
REMARK SMILES IDX 68 70 61 71 67 72 62 73 63 74 64 75 65 76 66 77 45 78 46 79
REMARK SMILES IDX 54 80 47 81 53 82 48 83 49 84 50 85 51 86 52 87
REMARK H PARENT 12 6 3 17 3 18 3 19 17 24 73 43 43 54
REMARK Flexibility Score: inf
ROOT
ATOM      1  C   UNL A   1      31.751  28.575  25.069  1.00  0.00     0.023 C 
ENDROOT
BRANCH   1   2
ATOM      2  C   UNL A   1      31.311  27.724  23.876  1.00  0.00     0.116 C 
BRANCH   2   3
ATOM      3  N   UNL A   1      32.426  27.340  23.032  1.00  0.00    -0.356 N 
ATOM      4  C   UNL A   1      33.125  26.163  22.929  1.00  0.00     0.226 C 
ATOM      5  O   UNL A   1      34.013  26.145  22.062  1.00  0.00    -0.275 OA
ATOM      6  H   UNL A   1      32.737  28.050  22.426  1.00  0.00     0.163 HD
BRANCH   4   7
ATOM      7  C   UNL A   1      32.853  24.944  23.811  1.00  0.00     0.117 C 
ATOM      8  C   UNL A   1      34.317  22.567  25.771  1.00  0.00     0.228 C 
ATOM      9  O   UNL A   1      34.293  22.732  26.996  1.00  0.00    -0.275 OA
ATOM     10  N   UNL A   1      33.789  23.500  24.937  1.00  0.00    -0.341 N 
ATOM     11  C   UNL A   1      33.406  24.871  25.235  1.00  0.00     0.134 C 
ATOM     12  C   UNL A   1      33.495  23.585  23.525  1.00  0.00     0.134 C 
BRANCH   8  13
ATOM     13  C   UNL A   1      35.089  21.390  25.191  1.00  0.00     0.164 C 
BRANCH  13  14
ATOM     14  C   UNL A   1      34.312  20.166  24.695  1.00  0.00     0.187 C 
ATOM     15  C   UNL A   1      32.956  20.076  25.406  1.00  0.00     0.075 C 
BRANCH  14  16
ATOM     16  N   UNL A   1      35.029  18.918  24.990  1.00  0.00    -0.355 N 
ATOM     17  H   UNL A   1      35.887  19.132  25.499  1.00  0.00     0.344 HD
ATOM     18  H   UNL A   1      35.261  18.445  24.116  1.00  0.00     0.344 HD
ATOM     19  H   UNL A   1      34.437  18.312  25.559  1.00  0.00     0.344 HD
ENDBRANCH  14  16
ENDBRANCH  13  14
ENDBRANCH   8  13
ENDBRANCH   4   7
ENDBRANCH   2   3
ENDBRANCH   1   2
BRANCH   1  20
ATOM     20  C   UNL A   1      33.256  28.577  25.352  1.00  0.00     0.023 C 
BRANCH  20  21
ATOM     21  C   UNL A   1      33.653  28.649  26.823  1.00  0.00     0.116 C 
BRANCH  21  22
ATOM     22  N   UNL A   1      33.577  29.993  27.375  1.00  0.00    -0.352 N 
ATOM     23  C   UNL A   1      34.530  30.679  28.093  1.00  0.00     0.251 C 
ATOM     24  H   UNL A   1      32.734  30.475  27.214  1.00  0.00     0.163 HD
ATOM     25  O   UNL A   1      34.268  31.774  28.582  1.00  0.00    -0.269 OA
BRANCH  23  26
ATOM     26  C   UNL A   1      35.858  30.065  28.306  1.00  0.00     0.039 A 
ATOM     27  C   UNL A   1      36.806  30.123  27.281  1.00  0.00     0.014 A 
ATOM     28  C   UNL A   1      36.181  29.482  29.534  1.00  0.00     0.014 A 
ATOM     29  C   UNL A   1      38.109  29.675  27.517  1.00  0.00     0.010 A 
ATOM     30  C   UNL A   1      37.493  29.093  29.787  1.00  0.00     0.010 A 
ATOM     31  C   UNL A   1      38.474  29.199  28.786  1.00  0.00    -0.014 A 
BRANCH  31  32
ATOM     32  C   UNL A   1      39.875  28.831  29.113  1.00  0.00     0.031 A 
ATOM     33  C   UNL A   1      40.807  29.861  29.688  1.00  0.00     0.074 A 
ATOM     34  C   UNL A   1      40.337  27.604  28.796  1.00  0.00     0.049 A 
ATOM     35  N   UNL A   1      42.097  29.783  29.891  1.00  0.00    -0.248 NA
ATOM     36  C   UNL A   1      40.214  31.157  30.055  1.00  0.00     0.031 C 
ATOM     37  C   UNL A   1      39.543  26.523  28.208  1.00  0.00     0.029 A 
ATOM     38  N   UNL A   1      41.597  27.069  28.903  1.00  0.00    -0.354 N 
ATOM     39  C   UNL A   1      42.477  31.028  30.380  1.00  0.00     0.074 A 
ATOM     40  C   UNL A   1      41.286  31.850  30.414  1.00  0.00     0.031 C 
ATOM     41  C   UNL A   1      40.331  25.453  28.016  1.00  0.00     0.029 A 
ATOM     42  C   UNL A   1      41.694  25.784  28.423  1.00  0.00     0.049 A 
ATOM     43  H   UNL A   1      42.359  27.558  29.288  1.00  0.00     0.167 HD
ATOM     44  C   UNL A   1      43.703  31.446  30.775  1.00  0.00     0.031 A 
ATOM     45  C   UNL A   1      42.759  24.968  28.303  1.00  0.00     0.031 A 
ATOM     46  C   UNL A   1      44.881  30.621  30.759  1.00  0.00     0.049 A 
ATOM     47  C   UNL A   1      44.113  25.456  28.743  1.00  0.00     0.074 A 
ATOM     48  C   UNL A   1      46.158  30.938  31.188  1.00  0.00     0.029 A 
ATOM     49  N   UNL A   1      44.928  29.317  30.292  1.00  0.00    -0.354 N 
ATOM     50  N   UNL A   1      44.444  26.622  29.243  1.00  0.00    -0.248 NA
ATOM     51  C   UNL A   1      45.235  24.516  28.606  1.00  0.00     0.031 C 
ATOM     52  C   UNL A   1      46.986  29.837  30.947  1.00  0.00     0.029 A 
ATOM     53  C   UNL A   1      46.214  28.819  30.410  1.00  0.00     0.049 A 
ATOM     54  H   UNL A   1      44.159  28.818  29.931  1.00  0.00     0.167 HD
ATOM     55  C   UNL A   1      45.806  26.547  29.506  1.00  0.00     0.074 A 
ATOM     56  C   UNL A   1      46.238  25.220  29.116  1.00  0.00     0.031 C 
ATOM     57  C   UNL A   1      46.625  27.493  30.027  1.00  0.00     0.031 A 
BRANCH  44  58
ATOM     58  C   UNL A   1      43.830  32.867  31.251  1.00  0.00    -0.014 A 
ATOM     59  C   UNL A   1      43.677  33.192  32.611  1.00  0.00     0.010 A 
ATOM     60  C   UNL A   1      44.134  33.888  30.332  1.00  0.00     0.010 A 
ATOM     61  C   UNL A   1      43.780  34.518  33.037  1.00  0.00     0.020 A 
ATOM     62  C   UNL A   1      44.264  35.212  30.758  1.00  0.00     0.020 A 
ATOM     63  C   UNL A   1      44.066  35.521  32.105  1.00  0.00     0.054 A 
BRANCH  63  64
ATOM     64  S   UNL A   1      44.205  37.235  32.686  1.00  0.00     0.124 S 
ATOM     65  O   UNL A   1      43.869  37.987  31.479  1.00  0.00    -0.237 OA
ATOM     66  O   UNL A   1      43.216  37.294  33.759  1.00  0.00    -0.237 OA
ATOM     67  O   UNL A   1      45.596  37.341  33.119  1.00  0.00    -0.744 OA
ENDBRANCH  63  64
ENDBRANCH  44  58
BRANCH  45  68
ATOM     68  C   UNL A   1      42.589  23.601  27.742  1.00  0.00    -0.014 A 
ATOM     69  C   UNL A   1      42.882  23.347  26.392  1.00  0.00     0.010 A 
ATOM     70  C   UNL A   1      42.149  22.543  28.559  1.00  0.00     0.010 A 
ATOM     71  C   UNL A   1      42.726  22.062  25.862  1.00  0.00     0.020 A 
ATOM     72  C   UNL A   1      42.015  21.252  28.040  1.00  0.00     0.020 A 
ATOM     73  C   UNL A   1      42.295  21.022  26.691  1.00  0.00     0.054 A 
BRANCH  73  74
ATOM     74  S   UNL A   1      42.156  19.351  25.999  1.00  0.00     0.124 S 
ATOM     75  O   UNL A   1      40.729  19.258  25.712  1.00  0.00    -0.237 OA
ATOM     76  O   UNL A   1      43.034  19.415  24.833  1.00  0.00    -0.237 OA
ATOM     77  O   UNL A   1      42.638  18.494  27.081  1.00  0.00    -0.744 OA
ENDBRANCH  73  74
ENDBRANCH  45  68
BRANCH  57  78
ATOM     78  C   UNL A   1      48.066  27.123  30.247  1.00  0.00    -0.014 A 
ATOM     79  C   UNL A   1      49.052  27.442  29.297  1.00  0.00     0.010 A 
ATOM     80  C   UNL A   1      48.448  26.523  31.461  1.00  0.00     0.010 A 
ATOM     81  C   UNL A   1      50.396  27.156  29.554  1.00  0.00     0.020 A 
ATOM     82  C   UNL A   1      49.792  26.255  31.730  1.00  0.00     0.020 A 
ATOM     83  C   UNL A   1      50.758  26.567  30.771  1.00  0.00     0.054 A 
BRANCH  83  84
ATOM     84  S   UNL A   1      52.515  26.274  31.113  1.00  0.00     0.124 S 
ATOM     85  O   UNL A   1      52.474  25.019  31.858  1.00  0.00    -0.237 OA
ATOM     86  O   UNL A   1      53.094  26.191  29.774  1.00  0.00    -0.237 OA
ATOM     87  O   UNL A   1      52.917  27.446  31.887  1.00  0.00    -0.744 OA
ENDBRANCH  83  84
ENDBRANCH  57  78
ENDBRANCH  31  32
ENDBRANCH  23  26
ENDBRANCH  21  22
ENDBRANCH  20  21
ENDBRANCH   1  20
TORSDOF 17
ENDMDL
