MODEL 1
REMARK VINA RESULT:     -11.2      0.000      0.000
REMARK SMILES O=C(CCS(=O)(=O)N1CCN(C(=O)[C@@H]2CCCO2)CC1)NCCCCNC(=O)c1ccc(-c2c3nc(c(-c4ccc(S(=O)(=O)[O-])cc4)c4ccc([nH]4)c(-c4ccc(S(=O)(=O)[O-])cc4)c4nc(c(-c5ccc(S(=O)(=O)[O-])cc5)c5ccc2[nH]5)C=C4)C=C3)cc1
REMARK SMILES IDX 23 1 22 2 21 3 1 4 2 5 3 7 4 8 5 9 6 10 7 11 8 12 9 13 20 14
REMARK SMILES IDX 10 15 19 16 11 17 12 18 13 19 14 20 15 21 18 22 16 23 17 24
REMARK SMILES IDX 24 25 25 26 26 27 27 28 28 30 29 31 30 32 88 33 31 34 87 35
REMARK SMILES IDX 32 36 33 37 34 38 81 39 35 40 86 41 80 42 82 43 36 44 85 45
REMARK SMILES IDX 79 46 78 47 37 49 67 50 48 51 66 52 49 53 52 54 65 55 83 56
REMARK SMILES IDX 50 57 51 58 64 60 84 61 53 62 38 63 39 64 47 65 40 66 46 67
REMARK SMILES IDX 41 68 42 69 43 70 44 71 45 72 68 73 69 74 77 75 70 76 76 77
REMARK SMILES IDX 71 78 72 79 73 80 74 81 75 82 54 83 55 84 63 85 56 86 62 87
REMARK SMILES IDX 57 88 58 89 59 90 60 91 61 92
REMARK H PARENT 21 6 26 29 82 48 52 59
REMARK Flexibility Score: inf
ROOT
ATOM      1  C   UNL A   1      33.872  31.005  27.564  1.00  0.00     0.023 C 
ENDROOT
BRANCH   1   2
ATOM      2  C   UNL A   1      34.848  29.850  27.338  1.00  0.00     0.116 C 
BRANCH   2   3
ATOM      3  N   UNL A   1      34.224  28.592  26.939  1.00  0.00    -0.356 N 
ATOM      4  O   UNL A   1      33.606  29.277  24.834  1.00  0.00    -0.275 OA
ATOM      5  C   UNL A   1      33.703  28.387  25.677  1.00  0.00     0.221 C 
ATOM      6  H   UNL A   1      34.173  27.862  27.597  1.00  0.00     0.163 HD
BRANCH   5   7
ATOM      7  C   UNL A   1      33.402  26.936  25.341  1.00  0.00     0.117 C 
BRANCH   7   8
ATOM      8  C   UNL A   1      33.906  26.438  23.980  1.00  0.00     0.164 C 
BRANCH   8   9
ATOM      9  S   UNL A   1      32.983  25.078  23.211  1.00  0.00     0.214 S 
ATOM     10  O   UNL A   1      33.607  24.817  21.927  1.00  0.00    -0.212 OA
ATOM     11  O   UNL A   1      32.842  24.035  24.198  1.00  0.00    -0.212 OA
BRANCH   9  12
ATOM     12  N   UNL A   1      31.459  25.668  22.902  1.00  0.00    -0.198 NA
ATOM     13  C   UNL A   1      30.179  25.249  23.540  1.00  0.00     0.123 C 
ATOM     14  C   UNL A   1      31.272  26.829  22.070  1.00  0.00     0.123 C 
ATOM     15  C   UNL A   1      29.350  26.479  24.094  1.00  0.00     0.136 C 
ATOM     16  C   UNL A   1      30.955  27.964  23.012  1.00  0.00     0.136 C 
ATOM     17  N   UNL A   1      29.583  27.772  23.389  1.00  0.00    -0.338 N 
ATOM     18  C   UNL A   1      28.585  28.649  22.999  1.00  0.00     0.251 C 
ATOM     19  O   UNL A   1      27.395  28.375  23.169  1.00  0.00    -0.272 OA
BRANCH  18  20
ATOM     20  C   UNL A   1      28.987  29.995  22.285  1.00  0.00     0.207 C 
ATOM     21  C   UNL A   1      28.670  31.255  23.087  1.00  0.00     0.044 C 
ATOM     22  O   UNL A   1      28.430  30.188  20.972  1.00  0.00    -0.368 OA
ATOM     23  C   UNL A   1      28.478  32.318  22.029  1.00  0.00     0.032 C 
ATOM     24  C   UNL A   1      28.000  31.550  20.818  1.00  0.00     0.161 C 
ENDBRANCH  18  20
ENDBRANCH   9  12
ENDBRANCH   8   9
ENDBRANCH   7   8
ENDBRANCH   5   7
ENDBRANCH   2   3
ENDBRANCH   1   2
BRANCH   1  25
ATOM     25  C   UNL A   1      34.307  32.079  28.570  1.00  0.00     0.023 C 
BRANCH  25  26
ATOM     26  C   UNL A   1      35.709  31.921  29.160  1.00  0.00     0.116 C 
BRANCH  26  27
ATOM     27  N   UNL A   1      35.699  31.217  30.435  1.00  0.00    -0.352 N 
ATOM     28  C   UNL A   1      36.608  30.338  30.982  1.00  0.00     0.251 C 
ATOM     29  H   UNL A   1      34.913  31.399  31.001  1.00  0.00     0.163 HD
ATOM     30  O   UNL A   1      36.294  29.706  31.988  1.00  0.00    -0.269 OA
BRANCH  28  31
ATOM     31  C   UNL A   1      37.943  30.120  30.370  1.00  0.00     0.039 A 
ATOM     32  C   UNL A   1      39.085  30.324  31.153  1.00  0.00     0.014 A 
ATOM     33  C   UNL A   1      38.088  29.774  29.026  1.00  0.00     0.014 A 
ATOM     34  C   UNL A   1      40.357  30.105  30.613  1.00  0.00     0.010 A 
ATOM     35  C   UNL A   1      39.354  29.490  28.505  1.00  0.00     0.010 A 
ATOM     36  C   UNL A   1      40.505  29.645  29.294  1.00  0.00    -0.014 A 
BRANCH  36  37
ATOM     37  C   UNL A   1      41.844  29.296  28.741  1.00  0.00     0.031 A 
ATOM     38  C   UNL A   1      42.152  27.891  28.290  1.00  0.00     0.074 A 
ATOM     39  C   UNL A   1      42.813  30.234  28.697  1.00  0.00     0.049 A 
ATOM     40  N   UNL A   1      43.277  27.399  27.830  1.00  0.00    -0.248 NA
ATOM     41  C   UNL A   1      41.064  26.906  28.386  1.00  0.00     0.031 C 
ATOM     42  C   UNL A   1      42.662  31.626  29.129  1.00  0.00     0.029 A 
ATOM     43  N   UNL A   1      44.118  30.161  28.274  1.00  0.00    -0.354 N 
ATOM     44  C   UNL A   1      43.036  26.048  27.597  1.00  0.00     0.074 A 
ATOM     45  C   UNL A   1      41.672  25.790  28.007  1.00  0.00     0.031 C 
ATOM     46  C   UNL A   1      43.817  32.279  28.925  1.00  0.00     0.029 A 
ATOM     47  C   UNL A   1      44.807  31.347  28.395  1.00  0.00     0.049 A 
ATOM     48  H   UNL A   1      44.524  29.338  27.920  1.00  0.00     0.167 HD
ATOM     49  C   UNL A   1      43.867  25.112  27.076  1.00  0.00     0.031 A 
ATOM     50  C   UNL A   1      46.091  31.653  28.122  1.00  0.00     0.031 A 
ATOM     51  C   UNL A   1      45.225  25.369  26.669  1.00  0.00     0.049 A 
ATOM     52  C   UNL A   1      47.003  30.589  27.576  1.00  0.00     0.074 A 
ATOM     53  C   UNL A   1      46.125  24.498  26.081  1.00  0.00     0.029 A 
ATOM     54  N   UNL A   1      45.883  26.581  26.814  1.00  0.00    -0.354 N 
ATOM     55  N   UNL A   1      46.735  29.335  27.298  1.00  0.00    -0.248 NA
ATOM     56  C   UNL A   1      48.392  30.983  27.297  1.00  0.00     0.031 C 
ATOM     57  C   UNL A   1      47.347  25.162  25.930  1.00  0.00     0.029 A 
ATOM     58  C   UNL A   1      47.187  26.471  26.357  1.00  0.00     0.049 A 
ATOM     59  H   UNL A   1      45.483  27.401  27.187  1.00  0.00     0.167 HD
ATOM     60  C   UNL A   1      47.911  28.801  26.782  1.00  0.00     0.074 A 
ATOM     61  C   UNL A   1      48.887  29.871  26.771  1.00  0.00     0.031 C 
ATOM     62  C   UNL A   1      48.156  27.539  26.350  1.00  0.00     0.031 A 
BRANCH  49  63
ATOM     63  C   UNL A   1      43.337  23.708  26.930  1.00  0.00    -0.014 A 
ATOM     64  C   UNL A   1      43.145  22.879  28.050  1.00  0.00     0.010 A 
ATOM     65  C   UNL A   1      42.973  23.227  25.658  1.00  0.00     0.010 A 
ATOM     66  C   UNL A   1      42.642  21.583  27.898  1.00  0.00     0.020 A 
ATOM     67  C   UNL A   1      42.440  21.943  25.503  1.00  0.00     0.020 A 
ATOM     68  C   UNL A   1      42.294  21.123  26.624  1.00  0.00     0.054 A 
BRANCH  68  69
ATOM     69  S   UNL A   1      41.624  19.445  26.460  1.00  0.00     0.124 S 
ATOM     70  O   UNL A   1      41.890  18.885  27.782  1.00  0.00    -0.237 OA
ATOM     71  O   UNL A   1      40.218  19.691  26.154  1.00  0.00    -0.237 OA
ATOM     72  O   UNL A   1      42.404  18.864  25.370  1.00  0.00    -0.744 OA
ENDBRANCH  68  69
ENDBRANCH  49  63
BRANCH  50  73
ATOM     73  C   UNL A   1      46.592  33.037  28.356  1.00  0.00    -0.014 A 
ATOM     74  C   UNL A   1      47.154  33.395  29.595  1.00  0.00     0.010 A 
ATOM     75  C   UNL A   1      46.514  34.006  27.339  1.00  0.00     0.010 A 
ATOM     76  C   UNL A   1      47.611  34.697  29.818  1.00  0.00     0.020 A 
ATOM     77  C   UNL A   1      46.998  35.301  27.547  1.00  0.00     0.020 A 
ATOM     78  C   UNL A   1      47.534  35.641  28.790  1.00  0.00     0.054 A 
BRANCH  78  79
ATOM     79  S   UNL A   1      48.179  37.311  29.087  1.00  0.00     0.124 S 
ATOM     80  O   UNL A   1      48.935  37.567  27.866  1.00  0.00    -0.237 OA
ATOM     81  O   UNL A   1      46.957  38.096  29.253  1.00  0.00    -0.237 OA
ATOM     82  O   UNL A   1      48.980  37.158  30.300  1.00  0.00    -0.744 OA
ENDBRANCH  78  79
ENDBRANCH  50  73
BRANCH  62  83
ATOM     83  C   UNL A   1      49.525  27.246  25.791  1.00  0.00    -0.014 A 
ATOM     84  C   UNL A   1      50.565  26.767  26.606  1.00  0.00     0.010 A 
ATOM     85  C   UNL A   1      49.756  27.404  24.411  1.00  0.00     0.010 A 
ATOM     86  C   UNL A   1      51.820  26.483  26.058  1.00  0.00     0.020 A 
ATOM     87  C   UNL A   1      50.998  27.090  23.855  1.00  0.00     0.020 A 
ATOM     88  C   UNL A   1      52.028  26.645  24.685  1.00  0.00     0.054 A 
BRANCH  88  89
ATOM     89  S   UNL A   1      53.652  26.227  23.993  1.00  0.00     0.124 S 
ATOM     90  O   UNL A   1      54.472  27.347  24.443  1.00  0.00    -0.237 OA
ATOM     91  O   UNL A   1      53.944  24.940  24.619  1.00  0.00    -0.237 OA
ATOM     92  O   UNL A   1      53.411  26.171  22.551  1.00  0.00    -0.744 OA
ENDBRANCH  88  89
ENDBRANCH  62  83
ENDBRANCH  36  37
ENDBRANCH  28  31
ENDBRANCH  26  27
ENDBRANCH  25  26
ENDBRANCH   1  25
TORSDOF 18
ENDMDL
MODEL 2
REMARK VINA RESULT:     -11.2      6.612     12.011
REMARK SMILES O=C(CCS(=O)(=O)N1CCN(C(=O)[C@@H]2CCCO2)CC1)NCCCCNC(=O)c1ccc(-c2c3nc(c(-c4ccc(S(=O)(=O)[O-])cc4)c4ccc([nH]4)c(-c4ccc(S(=O)(=O)[O-])cc4)c4nc(c(-c5ccc(S(=O)(=O)[O-])cc5)c5ccc2[nH]5)C=C4)C=C3)cc1
REMARK SMILES IDX 23 1 22 2 21 3 1 4 2 5 3 7 4 8 5 9 6 10 7 11 8 12 9 13 20 14
REMARK SMILES IDX 10 15 19 16 11 17 12 18 13 19 14 20 15 21 18 22 16 23 17 24
REMARK SMILES IDX 24 25 25 26 26 27 27 28 28 30 29 31 30 32 88 33 31 34 87 35
REMARK SMILES IDX 32 36 33 37 34 38 81 39 35 40 86 41 80 42 82 43 36 44 85 45
REMARK SMILES IDX 79 46 78 47 37 49 67 50 48 51 66 52 49 53 52 54 65 55 83 56
REMARK SMILES IDX 50 57 51 58 64 60 84 61 53 62 38 63 39 64 47 65 40 66 46 67
REMARK SMILES IDX 41 68 42 69 43 70 44 71 45 72 68 73 69 74 77 75 70 76 76 77
REMARK SMILES IDX 71 78 72 79 73 80 74 81 75 82 54 83 55 84 63 85 56 86 62 87
REMARK SMILES IDX 57 88 58 89 59 90 60 91 61 92
REMARK H PARENT 21 6 26 29 82 48 52 59
REMARK Flexibility Score: inf
ROOT
ATOM      1  C   UNL A   1      38.255  23.134  25.616  1.00  0.00     0.023 C 
ENDROOT
BRANCH   1   2
ATOM      2  C   UNL A   1      36.795  22.694  25.726  1.00  0.00     0.116 C 
BRANCH   2   3
ATOM      3  N   UNL A   1      35.817  23.744  25.453  1.00  0.00    -0.356 N 
ATOM      4  O   UNL A   1      34.416  23.240  27.205  1.00  0.00    -0.275 OA
ATOM      5  C   UNL A   1      34.725  23.973  26.266  1.00  0.00     0.221 C 
ATOM      6  H   UNL A   1      35.942  24.310  24.658  1.00  0.00     0.163 HD
BRANCH   5   7
ATOM      7  C   UNL A   1      34.014  25.293  26.021  1.00  0.00     0.117 C 
BRANCH   7   8
ATOM      8  C   UNL A   1      32.893  25.274  24.974  1.00  0.00     0.164 C 
BRANCH   8   9
ATOM      9  S   UNL A   1      31.287  24.616  25.503  1.00  0.00     0.214 S 
ATOM     10  O   UNL A   1      31.386  24.358  26.928  1.00  0.00    -0.212 OA
ATOM     11  O   UNL A   1      30.264  25.485  24.971  1.00  0.00    -0.212 OA
BRANCH   9  12
ATOM     12  N   UNL A   1      31.118  23.143  24.752  1.00  0.00    -0.198 NA
ATOM     13  C   UNL A   1      30.969  22.883  23.292  1.00  0.00     0.123 C 
ATOM     14  C   UNL A   1      31.296  21.915  25.485  1.00  0.00     0.123 C 
ATOM     15  C   UNL A   1      31.997  21.801  22.764  1.00  0.00     0.136 C 
ATOM     16  C   UNL A   1      32.647  21.384  25.078  1.00  0.00     0.136 C 
ATOM     17  N   UNL A   1      32.452  20.807  23.778  1.00  0.00    -0.338 N 
ATOM     18  C   UNL A   1      32.548  19.443  23.558  1.00  0.00     0.251 C 
ATOM     19  O   UNL A   1      32.197  18.945  22.486  1.00  0.00    -0.272 OA
BRANCH  18  20
ATOM     20  C   UNL A   1      33.072  18.517  24.721  1.00  0.00     0.207 C 
ATOM     21  C   UNL A   1      34.159  17.531  24.300  1.00  0.00     0.044 C 
ATOM     22  O   UNL A   1      32.062  17.755  25.405  1.00  0.00    -0.368 OA
ATOM     23  C   UNL A   1      34.001  16.384  25.273  1.00  0.00     0.032 C 
ATOM     24  C   UNL A   1      32.538  16.422  25.653  1.00  0.00     0.161 C 
ENDBRANCH  18  20
ENDBRANCH   9  12
ENDBRANCH   8   9
ENDBRANCH   7   8
ENDBRANCH   5   7
ENDBRANCH   2   3
ENDBRANCH   1   2
BRANCH   1  25
ATOM     25  C   UNL A   1      39.241  22.474  26.589  1.00  0.00     0.023 C 
BRANCH  25  26
ATOM     26  C   UNL A   1      40.320  23.385  27.175  1.00  0.00     0.116 C 
BRANCH  26  27
ATOM     27  N   UNL A   1      41.103  24.053  26.143  1.00  0.00    -0.352 N 
ATOM     28  C   UNL A   1      41.460  25.376  26.005  1.00  0.00     0.251 C 
ATOM     29  H   UNL A   1      41.431  23.462  25.428  1.00  0.00     0.163 HD
ATOM     30  O   UNL A   1      41.954  25.751  24.943  1.00  0.00    -0.269 OA
BRANCH  28  31
ATOM     31  C   UNL A   1      41.239  26.359  27.095  1.00  0.00     0.039 A 
ATOM     32  C   UNL A   1      40.278  26.078  28.072  1.00  0.00     0.014 A 
ATOM     33  C   UNL A   1      41.921  27.577  27.135  1.00  0.00     0.014 A 
ATOM     34  C   UNL A   1      40.062  26.976  29.125  1.00  0.00     0.010 A 
ATOM     35  C   UNL A   1      41.755  28.440  28.222  1.00  0.00     0.010 A 
ATOM     36  C   UNL A   1      40.827  28.147  29.235  1.00  0.00    -0.014 A 
BRANCH  36  37
ATOM     37  C   UNL A   1      40.692  29.054  30.410  1.00  0.00     0.031 A 
ATOM     38  C   UNL A   1      41.569  28.883  31.624  1.00  0.00     0.074 A 
ATOM     39  C   UNL A   1      39.733  30.003  30.413  1.00  0.00     0.049 A 
ATOM     40  N   UNL A   1      41.555  29.549  32.753  1.00  0.00    -0.248 NA
ATOM     41  C   UNL A   1      42.579  27.816  31.572  1.00  0.00     0.031 C 
ATOM     42  C   UNL A   1      38.794  30.260  29.317  1.00  0.00     0.029 A 
ATOM     43  N   UNL A   1      39.382  30.926  31.368  1.00  0.00    -0.354 N 
ATOM     44  C   UNL A   1      42.539  28.972  33.549  1.00  0.00     0.074 A 
ATOM     45  C   UNL A   1      43.101  27.875  32.790  1.00  0.00     0.031 C 
ATOM     46  C   UNL A   1      37.995  31.286  29.651  1.00  0.00     0.029 A 
ATOM     47  C   UNL A   1      38.327  31.731  31.001  1.00  0.00     0.049 A 
ATOM     48  H   UNL A   1      39.840  31.004  32.236  1.00  0.00     0.167 HD
ATOM     49  C   UNL A   1      42.949  29.330  34.791  1.00  0.00     0.031 A 
ATOM     50  C   UNL A   1      37.689  32.710  31.672  1.00  0.00     0.031 A 
ATOM     51  C   UNL A   1      42.389  30.421  35.547  1.00  0.00     0.049 A 
ATOM     52  C   UNL A   1      38.141  33.067  33.062  1.00  0.00     0.074 A 
ATOM     53  C   UNL A   1      42.775  30.893  36.790  1.00  0.00     0.029 A 
ATOM     54  N   UNL A   1      41.320  31.205  35.140  1.00  0.00    -0.354 N 
ATOM     55  N   UNL A   1      39.120  32.554  33.769  1.00  0.00    -0.248 NA
ATOM     56  C   UNL A   1      37.407  34.144  33.743  1.00  0.00     0.031 C 
ATOM     57  C   UNL A   1      41.900  31.917  37.163  1.00  0.00     0.029 A 
ATOM     58  C   UNL A   1      41.013  32.135  36.121  1.00  0.00     0.049 A 
ATOM     59  H   UNL A   1      40.848  31.115  34.280  1.00  0.00     0.167 HD
ATOM     60  C   UNL A   1      39.139  33.267  34.963  1.00  0.00     0.074 A 
ATOM     61  C   UNL A   1      38.085  34.256  34.877  1.00  0.00     0.031 C 
ATOM     62  C   UNL A   1      39.962  33.117  36.031  1.00  0.00     0.031 A 
BRANCH  49  63
ATOM     63  C   UNL A   1      44.053  28.520  35.425  1.00  0.00    -0.014 A 
ATOM     64  C   UNL A   1      45.399  28.915  35.324  1.00  0.00     0.010 A 
ATOM     65  C   UNL A   1      43.735  27.376  36.181  1.00  0.00     0.010 A 
ATOM     66  C   UNL A   1      46.409  28.159  35.927  1.00  0.00     0.020 A 
ATOM     67  C   UNL A   1      44.737  26.634  36.813  1.00  0.00     0.020 A 
ATOM     68  C   UNL A   1      46.070  27.021  36.667  1.00  0.00     0.054 A 
BRANCH  68  69
ATOM     69  S   UNL A   1      47.400  26.072  37.455  1.00  0.00     0.124 S 
ATOM     70  O   UNL A   1      46.660  24.972  38.069  1.00  0.00    -0.237 OA
ATOM     71  O   UNL A   1      48.245  25.704  36.323  1.00  0.00    -0.237 OA
ATOM     72  O   UNL A   1      47.996  27.020  38.393  1.00  0.00    -0.744 OA
ENDBRANCH  68  69
ENDBRANCH  49  63
BRANCH  50  73
ATOM     73  C   UNL A   1      36.551  33.431  31.034  1.00  0.00    -0.014 A 
ATOM     74  C   UNL A   1      35.362  33.664  31.747  1.00  0.00     0.010 A 
ATOM     75  C   UNL A   1      36.652  33.893  29.709  1.00  0.00     0.010 A 
ATOM     76  C   UNL A   1      34.290  34.329  31.143  1.00  0.00     0.020 A 
ATOM     77  C   UNL A   1      35.595  34.585  29.111  1.00  0.00     0.020 A 
ATOM     78  C   UNL A   1      34.415  34.788  29.829  1.00  0.00     0.054 A 
BRANCH  78  79
ATOM     79  S   UNL A   1      33.030  35.691  29.083  1.00  0.00     0.124 S 
ATOM     80  O   UNL A   1      32.262  36.095  30.256  1.00  0.00    -0.237 OA
ATOM     81  O   UNL A   1      33.707  36.769  28.365  1.00  0.00    -0.237 OA
ATOM     82  O   UNL A   1      32.390  34.692  28.229  1.00  0.00    -0.744 OA
ENDBRANCH  78  79
ENDBRANCH  50  73
BRANCH  62  83
ATOM     83  C   UNL A   1      39.785  34.069  37.187  1.00  0.00    -0.014 A 
ATOM     84  C   UNL A   1      40.330  35.365  37.162  1.00  0.00     0.010 A 
ATOM     85  C   UNL A   1      39.012  33.675  38.295  1.00  0.00     0.010 A 
ATOM     86  C   UNL A   1      40.134  36.236  38.238  1.00  0.00     0.020 A 
ATOM     87  C   UNL A   1      38.786  34.553  39.358  1.00  0.00     0.020 A 
ATOM     88  C   UNL A   1      39.361  35.825  39.329  1.00  0.00     0.054 A 
BRANCH  88  89
ATOM     89  S   UNL A   1      39.084  36.990  40.691  1.00  0.00     0.124 S 
ATOM     90  O   UNL A   1      38.268  38.018  40.051  1.00  0.00    -0.237 OA
ATOM     91  O   UNL A   1      38.397  36.167  41.682  1.00  0.00    -0.237 OA
ATOM     92  O   UNL A   1      40.433  37.412  41.067  1.00  0.00    -0.744 OA
ENDBRANCH  88  89
ENDBRANCH  62  83
ENDBRANCH  36  37
ENDBRANCH  28  31
ENDBRANCH  26  27
ENDBRANCH  25  26
ENDBRANCH   1  25
TORSDOF 18
ENDMDL
MODEL 3
REMARK VINA RESULT:     -11.1      6.096     11.194
REMARK SMILES O=C(CCS(=O)(=O)N1CCN(C(=O)[C@@H]2CCCO2)CC1)NCCCCNC(=O)c1ccc(-c2c3nc(c(-c4ccc(S(=O)(=O)[O-])cc4)c4ccc([nH]4)c(-c4ccc(S(=O)(=O)[O-])cc4)c4nc(c(-c5ccc(S(=O)(=O)[O-])cc5)c5ccc2[nH]5)C=C4)C=C3)cc1
REMARK SMILES IDX 23 1 22 2 21 3 1 4 2 5 3 7 4 8 5 9 6 10 7 11 8 12 9 13 20 14
REMARK SMILES IDX 10 15 19 16 11 17 12 18 13 19 14 20 15 21 18 22 16 23 17 24
REMARK SMILES IDX 24 25 25 26 26 27 27 28 28 30 29 31 30 32 88 33 31 34 87 35
REMARK SMILES IDX 32 36 33 37 34 38 81 39 35 40 86 41 80 42 82 43 36 44 85 45
REMARK SMILES IDX 79 46 78 47 37 49 67 50 48 51 66 52 49 53 52 54 65 55 83 56
REMARK SMILES IDX 50 57 51 58 64 60 84 61 53 62 38 63 39 64 47 65 40 66 46 67
REMARK SMILES IDX 41 68 42 69 43 70 44 71 45 72 68 73 69 74 77 75 70 76 76 77
REMARK SMILES IDX 71 78 72 79 73 80 74 81 75 82 54 83 55 84 63 85 56 86 62 87
REMARK SMILES IDX 57 88 58 89 59 90 60 91 61 92
REMARK H PARENT 21 6 26 29 82 48 52 59
REMARK Flexibility Score: inf
ROOT
ATOM      1  C   UNL A   1      38.019  23.442  26.258  1.00  0.00     0.023 C 
ENDROOT
BRANCH   1   2
ATOM      2  C   UNL A   1      37.217  23.155  24.989  1.00  0.00     0.116 C 
BRANCH   2   3
ATOM      3  N   UNL A   1      35.829  23.603  25.027  1.00  0.00    -0.356 N 
ATOM      4  O   UNL A   1      35.027  21.828  26.249  1.00  0.00    -0.275 OA
ATOM      5  C   UNL A   1      34.846  22.923  25.719  1.00  0.00     0.221 C 
ATOM      6  H   UNL A   1      35.584  24.422  24.540  1.00  0.00     0.163 HD
BRANCH   5   7
ATOM      7  C   UNL A   1      33.556  23.701  25.922  1.00  0.00     0.117 C 
BRANCH   7   8
ATOM      8  C   UNL A   1      32.733  23.990  24.660  1.00  0.00     0.164 C 
BRANCH   8   9
ATOM      9  S   UNL A   1      33.113  25.523  23.767  1.00  0.00     0.214 S 
ATOM     10  O   UNL A   1      33.571  26.484  24.754  1.00  0.00    -0.212 OA
ATOM     11  O   UNL A   1      33.930  25.174  22.630  1.00  0.00    -0.212 OA
BRANCH   9  12
ATOM     12  N   UNL A   1      31.665  26.086  23.174  1.00  0.00    -0.198 NA
ATOM     13  C   UNL A   1      30.305  25.532  23.431  1.00  0.00     0.123 C 
ATOM     14  C   UNL A   1      31.593  27.341  22.470  1.00  0.00     0.123 C 
ATOM     15  C   UNL A   1      29.283  26.640  23.914  1.00  0.00     0.136 C 
ATOM     16  C   UNL A   1      30.984  28.323  23.440  1.00  0.00     0.136 C 
ATOM     17  N   UNL A   1      29.580  28.026  23.449  1.00  0.00    -0.338 N 
ATOM     18  C   UNL A   1      28.639  28.906  22.940  1.00  0.00     0.251 C 
ATOM     19  O   UNL A   1      27.465  28.562  22.785  1.00  0.00    -0.272 OA
BRANCH  18  20
ATOM     20  C   UNL A   1      29.098  30.352  22.514  1.00  0.00     0.207 C 
ATOM     21  C   UNL A   1      28.639  31.463  23.454  1.00  0.00     0.044 C 
ATOM     22  O   UNL A   1      28.721  30.751  21.183  1.00  0.00    -0.368 OA
ATOM     23  C   UNL A   1      28.565  32.682  22.563  1.00  0.00     0.032 C 
ATOM     24  C   UNL A   1      28.279  32.118  21.189  1.00  0.00     0.161 C 
ENDBRANCH  18  20
ENDBRANCH   9  12
ENDBRANCH   8   9
ENDBRANCH   7   8
ENDBRANCH   5   7
ENDBRANCH   2   3
ENDBRANCH   1   2
BRANCH   1  25
ATOM     25  C   UNL A   1      39.268  22.580  26.486  1.00  0.00     0.023 C 
BRANCH  25  26
ATOM     26  C   UNL A   1      40.475  23.292  27.097  1.00  0.00     0.116 C 
BRANCH  26  27
ATOM     27  N   UNL A   1      41.292  23.961  26.093  1.00  0.00    -0.352 N 
ATOM     28  C   UNL A   1      41.660  25.282  25.972  1.00  0.00     0.251 C 
ATOM     29  H   UNL A   1      41.639  23.371  25.384  1.00  0.00     0.163 HD
ATOM     30  O   UNL A   1      42.188  25.660  24.927  1.00  0.00    -0.269 OA
BRANCH  28  31
ATOM     31  C   UNL A   1      41.412  26.262  27.059  1.00  0.00     0.039 A 
ATOM     32  C   UNL A   1      40.439  25.969  28.021  1.00  0.00     0.014 A 
ATOM     33  C   UNL A   1      42.081  27.486  27.112  1.00  0.00     0.014 A 
ATOM     34  C   UNL A   1      40.196  26.863  29.071  1.00  0.00     0.010 A 
ATOM     35  C   UNL A   1      41.888  28.346  28.197  1.00  0.00     0.010 A 
ATOM     36  C   UNL A   1      40.948  28.042  29.195  1.00  0.00    -0.014 A 
BRANCH  36  37
ATOM     37  C   UNL A   1      40.784  28.946  30.368  1.00  0.00     0.031 A 
ATOM     38  C   UNL A   1      41.638  28.778  31.599  1.00  0.00     0.074 A 
ATOM     39  C   UNL A   1      39.819  29.890  30.354  1.00  0.00     0.049 A 
ATOM     40  N   UNL A   1      41.598  29.441  32.729  1.00  0.00    -0.248 NA
ATOM     41  C   UNL A   1      42.655  27.716  31.565  1.00  0.00     0.031 C 
ATOM     42  C   UNL A   1      38.901  30.143  29.241  1.00  0.00     0.029 A 
ATOM     43  N   UNL A   1      39.445  30.809  31.304  1.00  0.00    -0.354 N 
ATOM     44  C   UNL A   1      42.570  28.868  33.543  1.00  0.00     0.074 A 
ATOM     45  C   UNL A   1      43.153  27.776  32.793  1.00  0.00     0.031 C 
ATOM     46  C   UNL A   1      38.090  31.164  29.561  1.00  0.00     0.029 A 
ATOM     47  C   UNL A   1      38.393  31.608  30.918  1.00  0.00     0.049 A 
ATOM     48  H   UNL A   1      39.886  30.887  32.181  1.00  0.00     0.167 HD
ATOM     49  C   UNL A   1      42.954  29.226  34.793  1.00  0.00     0.031 A 
ATOM     50  C   UNL A   1      37.736  32.582  31.579  1.00  0.00     0.031 A 
ATOM     51  C   UNL A   1      42.373  30.312  35.540  1.00  0.00     0.049 A 
ATOM     52  C   UNL A   1      38.159  32.939  32.978  1.00  0.00     0.074 A 
ATOM     53  C   UNL A   1      42.732  30.784  36.791  1.00  0.00     0.029 A 
ATOM     54  N   UNL A   1      41.307  31.091  35.114  1.00  0.00    -0.354 N 
ATOM     55  N   UNL A   1      39.126  32.430  33.702  1.00  0.00    -0.248 NA
ATOM     56  C   UNL A   1      37.405  34.010  33.646  1.00  0.00     0.031 C 
ATOM     57  C   UNL A   1      41.844  31.803  37.149  1.00  0.00     0.029 A 
ATOM     58  C   UNL A   1      40.976  32.017  36.091  1.00  0.00     0.049 A 
ATOM     59  H   UNL A   1      40.853  31.000  34.245  1.00  0.00     0.167 HD
ATOM     60  C   UNL A   1      39.119  33.141  34.898  1.00  0.00     0.074 A 
ATOM     61  C   UNL A   1      38.061  34.124  34.794  1.00  0.00     0.031 C 
ATOM     62  C   UNL A   1      39.921  32.994  35.982  1.00  0.00     0.031 A 
BRANCH  49  63
ATOM     63  C   UNL A   1      44.050  28.421  35.447  1.00  0.00    -0.014 A 
ATOM     64  C   UNL A   1      43.789  27.599  36.559  1.00  0.00     0.010 A 
ATOM     65  C   UNL A   1      45.350  28.445  34.909  1.00  0.00     0.010 A 
ATOM     66  C   UNL A   1      44.814  26.852  37.146  1.00  0.00     0.020 A 
ATOM     67  C   UNL A   1      46.372  27.675  35.473  1.00  0.00     0.020 A 
ATOM     68  C   UNL A   1      46.100  26.896  36.600  1.00  0.00     0.054 A 
BRANCH  68  69
ATOM     69  S   UNL A   1      47.405  25.899  37.370  1.00  0.00     0.124 S 
ATOM     70  O   UNL A   1      46.723  25.370  38.549  1.00  0.00    -0.237 OA
ATOM     71  O   UNL A   1      47.715  24.920  36.333  1.00  0.00    -0.237 OA
ATOM     72  O   UNL A   1      48.465  26.866  37.648  1.00  0.00    -0.744 OA
ENDBRANCH  68  69
ENDBRANCH  49  63
BRANCH  50  73
ATOM     73  C   UNL A   1      36.607  33.298  30.920  1.00  0.00    -0.014 A 
ATOM     74  C   UNL A   1      35.369  33.436  31.573  1.00  0.00     0.010 A 
ATOM     75  C   UNL A   1      36.764  33.850  29.635  1.00  0.00     0.010 A 
ATOM     76  C   UNL A   1      34.306  34.096  30.948  1.00  0.00     0.020 A 
ATOM     77  C   UNL A   1      35.714  34.538  29.019  1.00  0.00     0.020 A 
ATOM     78  C   UNL A   1      34.487  34.645  29.676  1.00  0.00     0.054 A 
BRANCH  78  79
ATOM     79  S   UNL A   1      33.109  35.540  28.906  1.00  0.00     0.124 S 
ATOM     80  O   UNL A   1      33.796  36.638  28.234  1.00  0.00    -0.237 OA
ATOM     81  O   UNL A   1      32.525  34.526  28.031  1.00  0.00    -0.237 OA
ATOM     82  O   UNL A   1      32.274  35.926  30.042  1.00  0.00    -0.744 OA
ENDBRANCH  78  79
ENDBRANCH  50  73
BRANCH  62  83
ATOM     83  C   UNL A   1      39.716  33.942  37.136  1.00  0.00    -0.014 A 
ATOM     84  C   UNL A   1      38.810  33.656  38.172  1.00  0.00     0.010 A 
ATOM     85  C   UNL A   1      40.487  35.118  37.208  1.00  0.00     0.010 A 
ATOM     86  C   UNL A   1      38.655  34.543  39.241  1.00  0.00     0.020 A 
ATOM     87  C   UNL A   1      40.358  35.991  38.291  1.00  0.00     0.020 A 
ATOM     88  C   UNL A   1      39.431  35.705  39.295  1.00  0.00     0.054 A 
BRANCH  88  89
ATOM     89  S   UNL A   1      39.242  36.816  40.716  1.00  0.00     0.124 S 
ATOM     90  O   UNL A   1      38.368  37.853  40.177  1.00  0.00    -0.237 OA
ATOM     91  O   UNL A   1      38.642  35.947  41.724  1.00  0.00    -0.237 OA
ATOM     92  O   UNL A   1      40.610  37.244  41.007  1.00  0.00    -0.744 OA
ENDBRANCH  88  89
ENDBRANCH  62  83
ENDBRANCH  36  37
ENDBRANCH  28  31
ENDBRANCH  26  27
ENDBRANCH  25  26
ENDBRANCH   1  25
TORSDOF 18
ENDMDL
