MODEL 1
REMARK VINA RESULT:     -14.1      0.000      0.000
REMARK SMILES Cc1c(C(=O)NCCCCNC(=O)c2ccc(-c3c4nc(c(-c5ccc(S(=O)(=O)[O-])cc5)c5ccc([nH]5)c(-c5ccc(S(=O)(=O)[O-])cc5)c5nc(c(-c6ccc(S(=O)(=O)[O-])cc6)c6ccc3[nH]6)C=C5)C=C4)cc2)oc2c1/C(=N/NC(=O)C(c1ccccc1)c1ccccc1)CCC2
REMARK SMILES IDX 8 1 7 2 6 3 4 4 5 5 3 7 1 8 2 9 76 10 74 11 75 12 77 13
REMARK SMILES IDX 97 14 78 15 95 16 96 17 79 18 80 19 81 21 82 22 83 23 84 24
REMARK SMILES IDX 88 25 85 26 87 27 86 28 89 29 90 30 94 31 91 32 93 33 92 34
REMARK SMILES IDX 9 35 10 36 11 37 12 38 13 40 14 41 15 42 73 43 16 44 72 45
REMARK SMILES IDX 17 46 18 47 19 48 66 49 20 50 71 51 65 52 67 53 21 54 70 55
REMARK SMILES IDX 64 56 63 57 22 59 52 60 33 61 51 62 34 63 37 64 50 65 68 66
REMARK SMILES IDX 35 67 36 68 49 70 69 71 38 72 23 73 24 74 32 75 25 76 31 77
REMARK SMILES IDX 26 78 27 79 28 80 29 81 30 82 53 83 54 84 62 85 55 86 61 87
REMARK SMILES IDX 56 88 57 89 58 90 59 91 60 92 39 93 40 94 48 95 41 96 47 97
REMARK SMILES IDX 42 98 43 99 44 100 45 101 46 102
REMARK H PARENT 6 6 79 20 11 39 67 58 37 69
REMARK Flexibility Score: inf
ROOT
ATOM      1  C   UNL A   1      36.398  20.920  24.716  1.00  0.00     0.023 C 
ENDROOT
BRANCH   1   2
ATOM      2  C   UNL A   1      35.067  20.757  25.467  1.00  0.00     0.116 C 
BRANCH   2   3
ATOM      3  N   UNL A   1      34.121  19.884  24.770  1.00  0.00    -0.349 N 
ATOM      4  C   UNL A   1      32.915  20.188  24.150  1.00  0.00     0.287 C 
ATOM      5  O   UNL A   1      32.340  19.292  23.538  1.00  0.00    -0.266 OA
ATOM      6  H   UNL A   1      34.379  18.935  24.734  1.00  0.00     0.163 HD
BRANCH   4   7
ATOM      7  C   UNL A   1      32.428  21.549  24.225  1.00  0.00     0.195 A 
ATOM      8  C   UNL A   1      33.934  23.035  22.714  1.00  0.00     0.049 C 
ATOM      9  C   UNL A   1      32.839  22.768  23.682  1.00  0.00     0.010 A 
ATOM     10  C   UNL A   1      32.091  23.757  24.396  1.00  0.00     0.043 A 
ATOM     11  O   UNL A   1      31.369  21.759  25.051  1.00  0.00    -0.455 OA
ATOM     12  C   UNL A   1      31.293  23.063  25.271  1.00  0.00     0.114 A 
ATOM     13  C   UNL A   1      32.099  25.211  24.437  1.00  0.00     0.072 C 
ATOM     14  C   UNL A   1      30.518  23.501  26.440  1.00  0.00     0.076 C 
ATOM     15  N   UNL A   1      32.580  25.748  23.353  1.00  0.00    -0.177 NA
ATOM     16  C   UNL A   1      31.558  25.698  25.790  1.00  0.00     0.059 C 
ATOM     17  C   UNL A   1      30.300  24.989  26.315  1.00  0.00     0.014 C 
BRANCH  15  18
ATOM     18  N   UNL A   1      32.758  26.993  22.808  1.00  0.00    -0.246 N 
ATOM     19  C   UNL A   1      32.255  28.268  22.993  1.00  0.00     0.252 C 
ATOM     20  H   UNL A   1      33.427  26.974  22.085  1.00  0.00     0.193 HD
ATOM     21  O   UNL A   1      32.563  29.148  22.177  1.00  0.00    -0.272 OA
BRANCH  19  22
ATOM     22  C   UNL A   1      31.359  28.596  24.180  1.00  0.00     0.140 C 
BRANCH  22  23
ATOM     23  C   UNL A   1      32.265  29.292  25.285  1.00  0.00    -0.031 A 
ATOM     24  C   UNL A   1      33.567  28.871  25.590  1.00  0.00     0.005 A 
ATOM     25  C   UNL A   1      31.812  30.418  26.035  1.00  0.00     0.005 A 
ATOM     26  C   UNL A   1      34.303  29.474  26.639  1.00  0.00     0.000 A 
ATOM     27  C   UNL A   1      32.505  30.972  27.115  1.00  0.00     0.000 A 
ATOM     28  C   UNL A   1      33.760  30.493  27.424  1.00  0.00     0.000 A 
ENDBRANCH  22  23
BRANCH  22  29
ATOM     29  C   UNL A   1      30.001  29.186  23.601  1.00  0.00    -0.031 A 
ATOM     30  C   UNL A   1      29.703  30.578  23.703  1.00  0.00     0.005 A 
ATOM     31  C   UNL A   1      28.976  28.393  23.060  1.00  0.00     0.005 A 
ATOM     32  C   UNL A   1      28.418  31.103  23.539  1.00  0.00     0.000 A 
ATOM     33  C   UNL A   1      27.689  28.936  22.835  1.00  0.00     0.000 A 
ATOM     34  C   UNL A   1      27.397  30.270  23.128  1.00  0.00     0.000 A 
ENDBRANCH  22  29
ENDBRANCH  19  22
ENDBRANCH  15  18
ENDBRANCH   4   7
ENDBRANCH   2   3
ENDBRANCH   1   2
BRANCH   1  35
ATOM     35  C   UNL A   1      36.890  22.368  24.620  1.00  0.00     0.023 C 
BRANCH  35  36
ATOM     36  C   UNL A   1      37.646  22.861  25.849  1.00  0.00     0.116 C 
BRANCH  36  37
ATOM     37  N   UNL A   1      38.742  21.976  26.237  1.00  0.00    -0.352 N 
ATOM     38  C   UNL A   1      40.055  22.324  26.518  1.00  0.00     0.251 C 
ATOM     39  H   UNL A   1      38.522  21.020  26.308  1.00  0.00     0.163 HD
ATOM     40  O   UNL A   1      40.954  21.512  26.401  1.00  0.00    -0.269 OA
BRANCH  38  41
ATOM     41  C   UNL A   1      40.332  23.699  26.979  1.00  0.00     0.039 A 
ATOM     42  C   UNL A   1      39.539  24.775  26.572  1.00  0.00     0.014 A 
ATOM     43  C   UNL A   1      41.399  23.890  27.853  1.00  0.00     0.014 A 
ATOM     44  C   UNL A   1      39.776  26.033  27.128  1.00  0.00     0.010 A 
ATOM     45  C   UNL A   1      41.555  25.097  28.491  1.00  0.00     0.010 A 
ATOM     46  C   UNL A   1      40.773  26.182  28.107  1.00  0.00    -0.014 A 
BRANCH  46  47
ATOM     47  C   UNL A   1      40.931  27.441  28.829  1.00  0.00     0.031 A 
ATOM     48  C   UNL A   1      41.980  28.347  28.287  1.00  0.00     0.074 A 
ATOM     49  C   UNL A   1      40.058  27.876  29.762  1.00  0.00     0.049 A 
ATOM     50  N   UNL A   1      43.122  28.631  28.818  1.00  0.00    -0.248 NA
ATOM     51  C   UNL A   1      41.801  28.904  26.936  1.00  0.00     0.031 C 
ATOM     52  C   UNL A   1      38.790  27.264  30.177  1.00  0.00     0.029 A 
ATOM     53  N   UNL A   1      40.066  29.044  30.462  1.00  0.00    -0.354 N 
ATOM     54  C   UNL A   1      43.715  29.573  27.984  1.00  0.00     0.074 A 
ATOM     55  C   UNL A   1      42.953  29.557  26.761  1.00  0.00     0.031 C 
ATOM     56  C   UNL A   1      38.051  28.171  30.854  1.00  0.00     0.029 A 
ATOM     57  C   UNL A   1      38.858  29.358  31.073  1.00  0.00     0.049 A 
ATOM     58  H   UNL A   1      40.862  29.619  30.527  1.00  0.00     0.167 HD
ATOM     59  C   UNL A   1      44.642  30.459  28.452  1.00  0.00     0.031 A 
ATOM     60  C   UNL A   1      38.534  30.524  31.689  1.00  0.00     0.031 A 
ATOM     61  C   UNL A   1      45.056  30.127  29.792  1.00  0.00     0.049 A 
ATOM     62  C   UNL A   1      39.809  31.198  32.036  1.00  0.00     0.074 A 
ATOM     63  C   UNL A   1      45.661  29.038  30.386  1.00  0.00     0.029 A 
ATOM     64  N   UNL A   1      44.476  30.848  30.810  1.00  0.00    -0.354 N 
ATOM     65  N   UNL A   1      40.648  30.728  32.916  1.00  0.00    -0.248 NA
ATOM     66  C   UNL A   1      40.369  32.148  31.088  1.00  0.00     0.031 C 
ATOM     67  C   UNL A   1      45.010  28.904  31.647  1.00  0.00     0.029 A 
ATOM     68  C   UNL A   1      44.108  29.962  31.788  1.00  0.00     0.049 A 
ATOM     69  H   UNL A   1      44.349  31.825  30.832  1.00  0.00     0.167 HD
ATOM     70  C   UNL A   1      41.901  30.959  32.368  1.00  0.00     0.074 A 
ATOM     71  C   UNL A   1      41.671  31.929  31.299  1.00  0.00     0.031 C 
ATOM     72  C   UNL A   1      42.954  30.134  32.645  1.00  0.00     0.031 A 
BRANCH  59  73
ATOM     73  C   UNL A   1      44.884  31.837  27.885  1.00  0.00    -0.014 A 
ATOM     74  C   UNL A   1      46.216  32.246  27.656  1.00  0.00     0.010 A 
ATOM     75  C   UNL A   1      43.892  32.836  27.832  1.00  0.00     0.010 A 
ATOM     76  C   UNL A   1      46.543  33.593  27.460  1.00  0.00     0.020 A 
ATOM     77  C   UNL A   1      44.203  34.177  27.591  1.00  0.00     0.020 A 
ATOM     78  C   UNL A   1      45.533  34.552  27.442  1.00  0.00     0.054 A 
BRANCH  78  79
ATOM     79  S   UNL A   1      45.976  36.299  27.285  1.00  0.00     0.124 S 
ATOM     80  O   UNL A   1      46.940  36.464  28.368  1.00  0.00    -0.237 OA
ATOM     81  O   UNL A   1      46.523  36.358  25.933  1.00  0.00    -0.237 OA
ATOM     82  O   UNL A   1      44.702  36.992  27.468  1.00  0.00    -0.744 OA
ENDBRANCH  78  79
ENDBRANCH  59  73
BRANCH  60  83
ATOM     83  C   UNL A   1      37.221  31.213  31.756  1.00  0.00    -0.014 A 
ATOM     84  C   UNL A   1      36.702  31.660  32.987  1.00  0.00     0.010 A 
ATOM     85  C   UNL A   1      36.620  31.698  30.577  1.00  0.00     0.010 A 
ATOM     86  C   UNL A   1      35.672  32.615  33.034  1.00  0.00     0.020 A 
ATOM     87  C   UNL A   1      35.588  32.645  30.617  1.00  0.00     0.020 A 
ATOM     88  C   UNL A   1      35.139  33.122  31.847  1.00  0.00     0.054 A 
BRANCH  88  89
ATOM     89  S   UNL A   1      33.959  34.505  31.914  1.00  0.00     0.124 S 
ATOM     90  O   UNL A   1      33.473  34.567  30.539  1.00  0.00    -0.237 OA
ATOM     91  O   UNL A   1      32.991  34.049  32.907  1.00  0.00    -0.237 OA
ATOM     92  O   UNL A   1      34.783  35.639  32.332  1.00  0.00    -0.744 OA
ENDBRANCH  88  89
ENDBRANCH  60  83
BRANCH  72  93
ATOM     93  C   UNL A   1      42.832  29.169  33.802  1.00  0.00    -0.014 A 
ATOM     94  C   UNL A   1      43.242  29.450  35.120  1.00  0.00     0.010 A 
ATOM     95  C   UNL A   1      42.140  27.968  33.560  1.00  0.00     0.010 A 
ATOM     96  C   UNL A   1      43.001  28.534  36.156  1.00  0.00     0.020 A 
ATOM     97  C   UNL A   1      41.876  27.065  34.590  1.00  0.00     0.020 A 
ATOM     98  C   UNL A   1      42.322  27.343  35.881  1.00  0.00     0.054 A 
BRANCH  98  99
ATOM     99  S   UNL A   1      41.994  26.167  37.223  1.00  0.00     0.124 S 
ATOM    100  O   UNL A   1      43.105  26.414  38.138  1.00  0.00    -0.237 OA
ATOM    101  O   UNL A   1      40.678  26.580  37.704  1.00  0.00    -0.237 OA
ATOM    102  O   UNL A   1      42.020  24.864  36.559  1.00  0.00    -0.744 OA
ENDBRANCH  98  99
ENDBRANCH  72  93
ENDBRANCH  46  47
ENDBRANCH  38  41
ENDBRANCH  36  37
ENDBRANCH  35  36
ENDBRANCH   1  35
TORSDOF 18
ENDMDL
MODEL 2
REMARK VINA RESULT:     -13.9      1.328      2.771
REMARK SMILES Cc1c(C(=O)NCCCCNC(=O)c2ccc(-c3c4nc(c(-c5ccc(S(=O)(=O)[O-])cc5)c5ccc([nH]5)c(-c5ccc(S(=O)(=O)[O-])cc5)c5nc(c(-c6ccc(S(=O)(=O)[O-])cc6)c6ccc3[nH]6)C=C5)C=C4)cc2)oc2c1/C(=N/NC(=O)C(c1ccccc1)c1ccccc1)CCC2
REMARK SMILES IDX 8 1 7 2 6 3 4 4 5 5 3 7 1 8 2 9 76 10 74 11 75 12 77 13
REMARK SMILES IDX 97 14 78 15 95 16 96 17 79 18 80 19 81 21 82 22 83 23 84 24
REMARK SMILES IDX 88 25 85 26 87 27 86 28 89 29 90 30 94 31 91 32 93 33 92 34
REMARK SMILES IDX 9 35 10 36 11 37 12 38 13 40 14 41 15 42 73 43 16 44 72 45
REMARK SMILES IDX 17 46 18 47 19 48 66 49 20 50 71 51 65 52 67 53 21 54 70 55
REMARK SMILES IDX 64 56 63 57 22 59 52 60 33 61 51 62 34 63 37 64 50 65 68 66
REMARK SMILES IDX 35 67 36 68 49 70 69 71 38 72 23 73 24 74 32 75 25 76 31 77
REMARK SMILES IDX 26 78 27 79 28 80 29 81 30 82 53 83 54 84 62 85 55 86 61 87
REMARK SMILES IDX 56 88 57 89 58 90 59 91 60 92 39 93 40 94 48 95 41 96 47 97
REMARK SMILES IDX 42 98 43 99 44 100 45 101 46 102
REMARK H PARENT 6 6 79 20 11 39 67 58 37 69
REMARK Flexibility Score: inf
ROOT
ATOM      1  C   UNL A   1      36.253  21.084  24.522  1.00  0.00     0.023 C 
ENDROOT
BRANCH   1   2
ATOM      2  C   UNL A   1      35.443  20.724  25.778  1.00  0.00     0.116 C 
BRANCH   2   3
ATOM      3  N   UNL A   1      34.261  19.912  25.483  1.00  0.00    -0.349 N 
ATOM      4  C   UNL A   1      32.999  20.298  25.048  1.00  0.00     0.287 C 
ATOM      5  O   UNL A   1      32.192  19.416  24.770  1.00  0.00    -0.266 OA
ATOM      6  H   UNL A   1      34.379  18.944  25.611  1.00  0.00     0.163 HD
BRANCH   4   7
ATOM      7  C   UNL A   1      32.723  21.711  24.907  1.00  0.00     0.195 A 
ATOM      8  C   UNL A   1      32.114  22.658  27.252  1.00  0.00     0.049 C 
ATOM      9  C   UNL A   1      32.314  22.722  25.780  1.00  0.00     0.010 A 
ATOM     10  C   UNL A   1      31.947  23.813  24.930  1.00  0.00     0.043 A 
ATOM     11  O   UNL A   1      32.799  22.211  23.646  1.00  0.00    -0.455 OA
ATOM     12  C   UNL A   1      32.184  23.384  23.648  1.00  0.00     0.114 A 
ATOM     13  C   UNL A   1      31.332  25.113  25.146  1.00  0.00     0.072 C 
ATOM     14  C   UNL A   1      31.763  23.923  22.347  1.00  0.00     0.076 C 
ATOM     15  N   UNL A   1      31.499  25.561  26.358  1.00  0.00    -0.177 NA
ATOM     16  C   UNL A   1      30.620  25.573  23.865  1.00  0.00     0.059 C 
ATOM     17  C   UNL A   1      31.389  25.371  22.549  1.00  0.00     0.014 C 
BRANCH  15  18
ATOM     18  N   UNL A   1      31.234  26.690  27.087  1.00  0.00    -0.246 N 
ATOM     19  C   UNL A   1      31.783  27.949  27.254  1.00  0.00     0.252 C 
ATOM     20  H   UNL A   1      30.432  26.573  27.647  1.00  0.00     0.193 HD
ATOM     21  O   UNL A   1      31.329  28.676  28.147  1.00  0.00    -0.272 OA
BRANCH  19  22
ATOM     22  C   UNL A   1      32.904  28.444  26.350  1.00  0.00     0.140 C 
BRANCH  22  23
ATOM     23  C   UNL A   1      32.281  28.704  24.912  1.00  0.00    -0.031 A 
ATOM     24  C   UNL A   1      33.020  28.613  23.724  1.00  0.00     0.005 A 
ATOM     25  C   UNL A   1      30.903  29.033  24.733  1.00  0.00     0.005 A 
ATOM     26  C   UNL A   1      32.435  28.932  22.474  1.00  0.00     0.000 A 
ATOM     27  C   UNL A   1      30.340  29.415  23.512  1.00  0.00     0.000 A 
ATOM     28  C   UNL A   1      31.114  29.370  22.372  1.00  0.00     0.000 A 
ENDBRANCH  22  23
BRANCH  22  29
ATOM     29  C   UNL A   1      33.757  29.494  27.185  1.00  0.00    -0.031 A 
ATOM     30  C   UNL A   1      33.301  30.834  27.362  1.00  0.00     0.005 A 
ATOM     31  C   UNL A   1      35.033  29.223  27.704  1.00  0.00     0.005 A 
ATOM     32  C   UNL A   1      34.132  31.882  27.771  1.00  0.00     0.000 A 
ATOM     33  C   UNL A   1      35.856  30.273  28.177  1.00  0.00     0.000 A 
ATOM     34  C   UNL A   1      35.428  31.603  28.156  1.00  0.00     0.000 A 
ENDBRANCH  22  29
ENDBRANCH  19  22
ENDBRANCH  15  18
ENDBRANCH   4   7
ENDBRANCH   2   3
ENDBRANCH   1   2
BRANCH   1  35
ATOM     35  C   UNL A   1      36.704  22.548  24.465  1.00  0.00     0.023 C 
BRANCH  35  36
ATOM     36  C   UNL A   1      37.524  23.002  25.668  1.00  0.00     0.116 C 
BRANCH  36  37
ATOM     37  N   UNL A   1      38.503  22.008  26.099  1.00  0.00    -0.352 N 
ATOM     38  C   UNL A   1      39.834  22.214  26.428  1.00  0.00     0.251 C 
ATOM     39  H   UNL A   1      38.179  21.081  26.164  1.00  0.00     0.163 HD
ATOM     40  O   UNL A   1      40.644  21.309  26.346  1.00  0.00    -0.269 OA
BRANCH  38  41
ATOM     41  C   UNL A   1      40.240  23.555  26.895  1.00  0.00     0.039 A 
ATOM     42  C   UNL A   1      39.641  24.712  26.392  1.00  0.00     0.014 A 
ATOM     43  C   UNL A   1      41.229  23.631  27.873  1.00  0.00     0.014 A 
ATOM     44  C   UNL A   1      39.983  25.943  26.951  1.00  0.00     0.010 A 
ATOM     45  C   UNL A   1      41.476  24.825  28.507  1.00  0.00     0.010 A 
ATOM     46  C   UNL A   1      40.885  25.991  28.027  1.00  0.00    -0.014 A 
BRANCH  46  47
ATOM     47  C   UNL A   1      41.133  27.239  28.743  1.00  0.00     0.031 A 
ATOM     48  C   UNL A   1      42.329  27.997  28.287  1.00  0.00     0.074 A 
ATOM     49  C   UNL A   1      40.240  27.799  29.586  1.00  0.00     0.049 A 
ATOM     50  N   UNL A   1      43.446  28.152  28.916  1.00  0.00    -0.248 NA
ATOM     51  C   UNL A   1      42.342  28.538  26.918  1.00  0.00     0.031 C 
ATOM     52  C   UNL A   1      38.875  27.356  29.892  1.00  0.00     0.029 A 
ATOM     53  N   UNL A   1      40.330  28.974  30.268  1.00  0.00    -0.354 N 
ATOM     54  C   UNL A   1      44.223  28.995  28.127  1.00  0.00     0.074 A 
ATOM     55  C   UNL A   1      43.576  29.041  26.839  1.00  0.00     0.031 C 
ATOM     56  C   UNL A   1      38.196  28.363  30.486  1.00  0.00     0.029 A 
ATOM     57  C   UNL A   1      39.120  29.449  30.761  1.00  0.00     0.049 A 
ATOM     58  H   UNL A   1      41.182  29.450  30.398  1.00  0.00     0.167 HD
ATOM     59  C   UNL A   1      45.206  29.772  28.665  1.00  0.00     0.031 A 
ATOM     60  C   UNL A   1      38.890  30.660  31.330  1.00  0.00     0.031 A 
ATOM     61  C   UNL A   1      45.456  29.426  30.042  1.00  0.00     0.049 A 
ATOM     62  C   UNL A   1      40.202  31.182  31.782  1.00  0.00     0.074 A 
ATOM     63  C   UNL A   1      45.866  28.286  30.704  1.00  0.00     0.029 A 
ATOM     64  N   UNL A   1      44.881  30.237  30.993  1.00  0.00    -0.354 N 
ATOM     65  N   UNL A   1      40.894  30.636  32.742  1.00  0.00    -0.248 NA
ATOM     66  C   UNL A   1      40.957  32.033  30.877  1.00  0.00     0.031 C 
ATOM     67  C   UNL A   1      45.094  28.264  31.902  1.00  0.00     0.029 A 
ATOM     68  C   UNL A   1      44.321  29.427  31.945  1.00  0.00     0.049 A 
ATOM     69  H   UNL A   1      44.874  31.222  30.990  1.00  0.00     0.167 HD
ATOM     70  C   UNL A   1      42.210  30.699  32.307  1.00  0.00     0.074 A 
ATOM     71  C   UNL A   1      42.198  31.663  31.208  1.00  0.00     0.031 C 
ATOM     72  C   UNL A   1      43.125  29.759  32.691  1.00  0.00     0.031 A 
BRANCH  59  73
ATOM     73  C   UNL A   1      45.666  31.097  28.105  1.00  0.00    -0.014 A 
ATOM     74  C   UNL A   1      44.748  32.169  28.073  1.00  0.00     0.010 A 
ATOM     75  C   UNL A   1      46.854  31.252  27.364  1.00  0.00     0.010 A 
ATOM     76  C   UNL A   1      44.974  33.301  27.280  1.00  0.00     0.020 A 
ATOM     77  C   UNL A   1      47.110  32.398  26.606  1.00  0.00     0.020 A 
ATOM     78  C   UNL A   1      46.150  33.401  26.541  1.00  0.00     0.054 A 
BRANCH  78  79
ATOM     79  S   UNL A   1      46.388  34.821  25.446  1.00  0.00     0.124 S 
ATOM     80  O   UNL A   1      45.437  34.538  24.375  1.00  0.00    -0.237 OA
ATOM     81  O   UNL A   1      46.048  35.943  26.318  1.00  0.00    -0.237 OA
ATOM     82  O   UNL A   1      47.798  34.733  25.074  1.00  0.00    -0.744 OA
ENDBRANCH  78  79
ENDBRANCH  59  73
BRANCH  60  83
ATOM     83  C   UNL A   1      37.671  31.505  31.267  1.00  0.00    -0.014 A 
ATOM     84  C   UNL A   1      36.524  31.175  32.014  1.00  0.00     0.010 A 
ATOM     85  C   UNL A   1      37.739  32.797  30.706  1.00  0.00     0.010 A 
ATOM     86  C   UNL A   1      35.519  32.128  32.257  1.00  0.00     0.020 A 
ATOM     87  C   UNL A   1      36.737  33.749  30.939  1.00  0.00     0.020 A 
ATOM     88  C   UNL A   1      35.646  33.418  31.739  1.00  0.00     0.054 A 
BRANCH  88  89
ATOM     89  S   UNL A   1      34.452  34.701  32.230  1.00  0.00     0.124 S 
ATOM     90  O   UNL A   1      33.435  33.927  32.934  1.00  0.00    -0.237 OA
ATOM     91  O   UNL A   1      35.262  35.587  33.061  1.00  0.00    -0.237 OA
ATOM     92  O   UNL A   1      34.022  35.275  30.955  1.00  0.00    -0.744 OA
ENDBRANCH  88  89
ENDBRANCH  60  83
BRANCH  72  93
ATOM     93  C   UNL A   1      42.782  28.845  33.845  1.00  0.00    -0.014 A 
ATOM     94  C   UNL A   1      42.362  29.290  35.114  1.00  0.00     0.010 A 
ATOM     95  C   UNL A   1      42.756  27.464  33.578  1.00  0.00     0.010 A 
ATOM     96  C   UNL A   1      41.967  28.371  36.100  1.00  0.00     0.020 A 
ATOM     97  C   UNL A   1      42.343  26.548  34.546  1.00  0.00     0.020 A 
ATOM     98  C   UNL A   1      41.965  27.003  35.808  1.00  0.00     0.054 A 
BRANCH  98  99
ATOM     99  S   UNL A   1      41.438  25.817  37.076  1.00  0.00     0.124 S 
ATOM    100  O   UNL A   1      40.408  26.561  37.796  1.00  0.00    -0.237 OA
ATOM    101  O   UNL A   1      40.961  24.685  36.286  1.00  0.00    -0.237 OA
ATOM    102  O   UNL A   1      42.659  25.558  37.839  1.00  0.00    -0.744 OA
ENDBRANCH  98  99
ENDBRANCH  72  93
ENDBRANCH  46  47
ENDBRANCH  38  41
ENDBRANCH  36  37
ENDBRANCH  35  36
ENDBRANCH   1  35
TORSDOF 18
ENDMDL
MODEL 3
REMARK VINA RESULT:     -13.2      2.605      6.921
REMARK SMILES Cc1c(C(=O)NCCCCNC(=O)c2ccc(-c3c4nc(c(-c5ccc(S(=O)(=O)[O-])cc5)c5ccc([nH]5)c(-c5ccc(S(=O)(=O)[O-])cc5)c5nc(c(-c6ccc(S(=O)(=O)[O-])cc6)c6ccc3[nH]6)C=C5)C=C4)cc2)oc2c1/C(=N/NC(=O)C(c1ccccc1)c1ccccc1)CCC2
REMARK SMILES IDX 8 1 7 2 6 3 4 4 5 5 3 7 1 8 2 9 76 10 74 11 75 12 77 13
REMARK SMILES IDX 97 14 78 15 95 16 96 17 79 18 80 19 81 21 82 22 83 23 84 24
REMARK SMILES IDX 88 25 85 26 87 27 86 28 89 29 90 30 94 31 91 32 93 33 92 34
REMARK SMILES IDX 9 35 10 36 11 37 12 38 13 40 14 41 15 42 73 43 16 44 72 45
REMARK SMILES IDX 17 46 18 47 19 48 66 49 20 50 71 51 65 52 67 53 21 54 70 55
REMARK SMILES IDX 64 56 63 57 22 59 52 60 33 61 51 62 34 63 37 64 50 65 68 66
REMARK SMILES IDX 35 67 36 68 49 70 69 71 38 72 23 73 24 74 32 75 25 76 31 77
REMARK SMILES IDX 26 78 27 79 28 80 29 81 30 82 53 83 54 84 62 85 55 86 61 87
REMARK SMILES IDX 56 88 57 89 58 90 59 91 60 92 39 93 40 94 48 95 41 96 47 97
REMARK SMILES IDX 42 98 43 99 44 100 45 101 46 102
REMARK H PARENT 6 6 79 20 11 39 67 58 37 69
REMARK Flexibility Score: inf
ROOT
ATOM      1  C   UNL A   1      38.359  21.773  25.617  1.00  0.00     0.023 C 
ENDROOT
BRANCH   1   2
ATOM      2  C   UNL A   1      36.837  21.832  25.833  1.00  0.00     0.116 C 
BRANCH   2   3
ATOM      3  N   UNL A   1      36.155  20.601  25.429  1.00  0.00    -0.349 N 
ATOM      4  C   UNL A   1      34.884  20.417  24.899  1.00  0.00     0.287 C 
ATOM      5  O   UNL A   1      34.568  19.286  24.541  1.00  0.00    -0.266 OA
ATOM      6  H   UNL A   1      36.679  19.776  25.550  1.00  0.00     0.163 HD
BRANCH   4   7
ATOM      7  C   UNL A   1      34.024  21.572  24.760  1.00  0.00     0.195 A 
ATOM      8  C   UNL A   1      35.309  23.384  23.408  1.00  0.00     0.049 C 
ATOM      9  C   UNL A   1      34.167  22.838  24.188  1.00  0.00     0.010 A 
ATOM     10  C   UNL A   1      33.043  23.585  24.664  1.00  0.00     0.043 A 
ATOM     11  O   UNL A   1      32.809  21.487  25.364  1.00  0.00    -0.455 OA
ATOM     12  C   UNL A   1      32.322  22.717  25.445  1.00  0.00     0.114 A 
ATOM     13  C   UNL A   1      32.628  24.975  24.571  1.00  0.00     0.072 C 
ATOM     14  C   UNL A   1      31.240  22.946  26.413  1.00  0.00     0.076 C 
ATOM     15  N   UNL A   1      33.138  25.592  23.544  1.00  0.00    -0.177 NA
ATOM     16  C   UNL A   1      31.716  25.328  25.756  1.00  0.00     0.059 C 
ATOM     17  C   UNL A   1      30.635  24.296  26.114  1.00  0.00     0.014 C 
BRANCH  15  18
ATOM     18  N   UNL A   1      33.056  26.812  22.926  1.00  0.00    -0.246 N 
ATOM     19  C   UNL A   1      32.298  27.964  23.041  1.00  0.00     0.252 C 
ATOM     20  H   UNL A   1      33.717  26.890  22.200  1.00  0.00     0.193 HD
ATOM     21  O   UNL A   1      32.420  28.839  22.173  1.00  0.00    -0.272 OA
BRANCH  19  22
ATOM     22  C   UNL A   1      31.350  28.168  24.215  1.00  0.00     0.140 C 
BRANCH  22  23
ATOM     23  C   UNL A   1      32.148  28.952  25.344  1.00  0.00    -0.031 A 
ATOM     24  C   UNL A   1      31.681  30.132  25.938  1.00  0.00     0.005 A 
ATOM     25  C   UNL A   1      33.401  28.487  25.845  1.00  0.00     0.005 A 
ATOM     26  C   UNL A   1      32.468  30.835  26.883  1.00  0.00     0.000 A 
ATOM     27  C   UNL A   1      34.212  29.211  26.724  1.00  0.00     0.000 A 
ATOM     28  C   UNL A   1      33.744  30.399  27.245  1.00  0.00     0.000 A 
ENDBRANCH  22  23
BRANCH  22  29
ATOM     29  C   UNL A   1      29.942  28.600  23.617  1.00  0.00    -0.031 A 
ATOM     30  C   UNL A   1      29.656  29.968  23.327  1.00  0.00     0.005 A 
ATOM     31  C   UNL A   1      28.868  27.714  23.435  1.00  0.00     0.005 A 
ATOM     32  C   UNL A   1      28.361  30.460  23.136  1.00  0.00     0.000 A 
ATOM     33  C   UNL A   1      27.565  28.204  23.180  1.00  0.00     0.000 A 
ATOM     34  C   UNL A   1      27.304  29.574  23.089  1.00  0.00     0.000 A 
ENDBRANCH  22  29
ENDBRANCH  19  22
ENDBRANCH  15  18
ENDBRANCH   4   7
ENDBRANCH   2   3
ENDBRANCH   1   2
BRANCH   1  35
ATOM     35  C   UNL A   1      38.885  20.385  25.239  1.00  0.00     0.023 C 
BRANCH  35  36
ATOM     36  C   UNL A   1      39.611  19.657  26.365  1.00  0.00     0.116 C 
BRANCH  36  37
ATOM     37  N   UNL A   1      40.853  19.024  25.927  1.00  0.00    -0.352 N 
ATOM     38  C   UNL A   1      42.065  19.636  25.649  1.00  0.00     0.251 C 
ATOM     39  H   UNL A   1      40.826  18.046  25.818  1.00  0.00     0.163 HD
ATOM     40  O   UNL A   1      42.870  19.114  24.900  1.00  0.00    -0.269 OA
BRANCH  38  41
ATOM     41  C   UNL A   1      42.361  20.931  26.295  1.00  0.00     0.039 A 
ATOM     42  C   UNL A   1      42.508  22.100  25.546  1.00  0.00     0.014 A 
ATOM     43  C   UNL A   1      42.470  20.955  27.683  1.00  0.00     0.014 A 
ATOM     44  C   UNL A   1      42.672  23.312  26.218  1.00  0.00     0.010 A 
ATOM     45  C   UNL A   1      42.509  22.157  28.348  1.00  0.00     0.010 A 
ATOM     46  C   UNL A   1      42.649  23.337  27.622  1.00  0.00    -0.014 A 
BRANCH  46  47
ATOM     47  C   UNL A   1      42.647  24.602  28.349  1.00  0.00     0.031 A 
ATOM     48  C   UNL A   1      41.432  25.438  28.151  1.00  0.00     0.074 A 
ATOM     49  C   UNL A   1      43.546  24.907  29.309  1.00  0.00     0.049 A 
ATOM     50  N   UNL A   1      41.340  26.544  27.492  1.00  0.00    -0.248 NA
ATOM     51  C   UNL A   1      40.137  24.924  28.628  1.00  0.00     0.031 C 
ATOM     52  C   UNL A   1      44.608  24.059  29.863  1.00  0.00     0.029 A 
ATOM     53  N   UNL A   1      43.619  26.021  30.088  1.00  0.00    -0.354 N 
ATOM     54  C   UNL A   1      40.030  26.986  27.654  1.00  0.00     0.074 A 
ATOM     55  C   UNL A   1      39.298  25.867  28.192  1.00  0.00     0.031 C 
ATOM     56  C   UNL A   1      45.043  24.585  31.031  1.00  0.00     0.029 A 
ATOM     57  C   UNL A   1      44.422  25.885  31.215  1.00  0.00     0.049 A 
ATOM     58  H   UNL A   1      43.140  26.854  29.873  1.00  0.00     0.167 HD
ATOM     59  C   UNL A   1      39.704  28.307  27.553  1.00  0.00     0.031 A 
ATOM     60  C   UNL A   1      44.547  26.767  32.239  1.00  0.00     0.031 A 
ATOM     61  C   UNL A   1      40.807  29.084  27.048  1.00  0.00     0.049 A 
ATOM     62  C   UNL A   1      44.086  28.084  31.735  1.00  0.00     0.074 A 
ATOM     63  C   UNL A   1      41.553  29.083  25.886  1.00  0.00     0.029 A 
ATOM     64  N   UNL A   1      41.548  29.775  27.980  1.00  0.00    -0.354 N 
ATOM     65  N   UNL A   1      44.717  28.754  30.813  1.00  0.00    -0.248 NA
ATOM     66  C   UNL A   1      42.691  28.447  31.925  1.00  0.00     0.031 C 
ATOM     67  C   UNL A   1      42.888  29.347  26.310  1.00  0.00     0.029 A 
ATOM     68  C   UNL A   1      42.871  29.574  27.689  1.00  0.00     0.049 A 
ATOM     69  H   UNL A   1      41.191  30.317  28.721  1.00  0.00     0.167 HD
ATOM     70  C   UNL A   1      43.714  29.285  30.015  1.00  0.00     0.074 A 
ATOM     71  C   UNL A   1      42.493  29.154  30.808  1.00  0.00     0.031 C 
ATOM     72  C   UNL A   1      43.921  29.519  28.684  1.00  0.00     0.031 A 
BRANCH  59  73
ATOM     73  C   UNL A   1      38.554  28.971  28.272  1.00  0.00    -0.014 A 
ATOM     74  C   UNL A   1      37.886  30.037  27.631  1.00  0.00     0.010 A 
ATOM     75  C   UNL A   1      38.285  28.780  29.641  1.00  0.00     0.010 A 
ATOM     76  C   UNL A   1      37.054  30.911  28.342  1.00  0.00     0.020 A 
ATOM     77  C   UNL A   1      37.421  29.619  30.350  1.00  0.00     0.020 A 
ATOM     78  C   UNL A   1      36.838  30.702  29.703  1.00  0.00     0.054 A 
BRANCH  78  79
ATOM     79  S   UNL A   1      35.841  31.891  30.632  1.00  0.00     0.124 S 
ATOM     80  O   UNL A   1      35.518  31.136  31.838  1.00  0.00    -0.237 OA
ATOM     81  O   UNL A   1      36.772  33.003  30.808  1.00  0.00    -0.237 OA
ATOM     82  O   UNL A   1      34.716  32.163  29.741  1.00  0.00    -0.744 OA
ENDBRANCH  78  79
ENDBRANCH  59  73
BRANCH  60  83
ATOM     83  C   UNL A   1      44.775  26.499  33.681  1.00  0.00    -0.014 A 
ATOM     84  C   UNL A   1      45.193  27.526  34.549  1.00  0.00     0.010 A 
ATOM     85  C   UNL A   1      44.296  25.306  34.261  1.00  0.00     0.010 A 
ATOM     86  C   UNL A   1      45.061  27.395  35.943  1.00  0.00     0.020 A 
ATOM     87  C   UNL A   1      44.169  25.167  35.649  1.00  0.00     0.020 A 
ATOM     88  C   UNL A   1      44.525  26.224  36.482  1.00  0.00     0.054 A 
BRANCH  88  89
ATOM     89  S   UNL A   1      44.163  26.144  38.264  1.00  0.00     0.124 S 
ATOM     90  O   UNL A   1      44.690  24.832  38.629  1.00  0.00    -0.237 OA
ATOM     91  O   UNL A   1      44.898  27.290  38.790  1.00  0.00    -0.237 OA
ATOM     92  O   UNL A   1      42.707  26.265  38.325  1.00  0.00    -0.744 OA
ENDBRANCH  88  89
ENDBRANCH  60  83
BRANCH  72  93
ATOM     93  C   UNL A   1      45.339  29.506  28.161  1.00  0.00    -0.014 A 
ATOM     94  C   UNL A   1      46.042  30.653  27.738  1.00  0.00     0.010 A 
ATOM     95  C   UNL A   1      46.033  28.285  28.231  1.00  0.00     0.010 A 
ATOM     96  C   UNL A   1      47.390  30.566  27.359  1.00  0.00     0.020 A 
ATOM     97  C   UNL A   1      47.380  28.197  27.877  1.00  0.00     0.020 A 
ATOM     98  C   UNL A   1      48.050  29.334  27.428  1.00  0.00     0.054 A 
BRANCH  98  99
ATOM     99  S   UNL A   1      49.798  29.225  26.954  1.00  0.00     0.124 S 
ATOM    100  O   UNL A   1      49.724  28.762  25.571  1.00  0.00    -0.237 OA
ATOM    101  O   UNL A   1      50.270  30.596  27.135  1.00  0.00    -0.237 OA
ATOM    102  O   UNL A   1      50.355  28.258  27.900  1.00  0.00    -0.744 OA
ENDBRANCH  98  99
ENDBRANCH  72  93
ENDBRANCH  46  47
ENDBRANCH  38  41
ENDBRANCH  36  37
ENDBRANCH  35  36
ENDBRANCH   1  35
TORSDOF 18
ENDMDL
