MODEL 1
REMARK VINA RESULT:      -9.5      0.000      0.000
REMARK SMILES CCC[C@@H]([NH2+]Cc1cc(Cl)cs1)C(=O)NCCCCNC(=O)c1ccc(-c2c3nc(c(-c4ccc(S(=O)(=O)[O-])cc4)c4ccc([nH]4)c(-c4ccc(S(=O)(=O)[O-])cc4)c4nc(c(-c5ccc(S(=O)(=O)[O-])cc5)c5ccc2[nH]5)C=C4)C=C3)cc1
REMARK SMILES IDX 17 1 16 2 15 3 13 4 14 5 4 7 3 8 2 9 1 10 5 11 6 14 7 15
REMARK SMILES IDX 8 16 12 17 9 18 11 19 10 20 18 21 19 22 20 23 21 24 22 26
REMARK SMILES IDX 23 27 24 28 82 29 25 30 81 31 26 32 27 33 28 34 75 35 29 36
REMARK SMILES IDX 80 37 74 38 76 39 30 40 79 41 73 42 72 43 31 45 61 46 42 47
REMARK SMILES IDX 60 48 43 49 46 50 59 51 77 52 44 53 45 54 58 56 78 57 47 58
REMARK SMILES IDX 32 59 33 60 41 61 34 62 40 63 35 64 36 65 37 66 38 67 39 68
REMARK SMILES IDX 62 69 63 70 71 71 64 72 70 73 65 74 66 75 67 76 68 77 69 78
REMARK SMILES IDX 48 79 49 80 57 81 50 82 56 83 51 84 52 85 53 86 54 87 55 88
REMARK H PARENT 15 6 5 12 5 13 20 25 76 44 46 55
REMARK Flexibility Score: inf
ROOT
ATOM      1  C   UNL A   1      33.598  28.143  24.363  1.00  0.00     0.023 C 
ENDROOT
BRANCH   1   2
ATOM      2  C   UNL A   1      32.535  28.407  23.297  1.00  0.00     0.116 C 
BRANCH   2   3
ATOM      3  N   UNL A   1      32.819  27.669  22.082  1.00  0.00    -0.351 N 
ATOM      4  C   UNL A   1      32.849  26.322  21.869  1.00  0.00     0.278 C 
ATOM      5  O   UNL A   1      33.132  25.924  20.734  1.00  0.00    -0.268 OA
ATOM      6  H   UNL A   1      33.023  28.222  21.293  1.00  0.00     0.163 HD
BRANCH   4   7
ATOM      7  C   UNL A   1      32.504  25.316  22.992  1.00  0.00     0.272 C 
BRANCH   7   8
ATOM      8  C   UNL A   1      30.990  25.016  23.015  1.00  0.00     0.075 C 
BRANCH   8   9
ATOM      9  C   UNL A   1      30.213  25.533  24.229  1.00  0.00     0.003 C 
ATOM     10  C   UNL A   1      29.186  26.597  23.887  1.00  0.00     0.004 C 
ENDBRANCH   8   9
ENDBRANCH   7   8
BRANCH   7  11
ATOM     11  N   UNL A   1      33.336  24.090  22.887  1.00  0.00    -0.332 N 
ATOM     12  H   UNL A   1      33.418  23.841  21.901  1.00  0.00     0.347 HD
ATOM     13  H   UNL A   1      32.871  23.366  23.434  1.00  0.00     0.347 HD
BRANCH  11  14
ATOM     14  C   UNL A   1      34.690  24.246  23.441  1.00  0.00     0.309 C 
BRANCH  14  15
ATOM     15  C   UNL A   1      35.144  23.062  24.245  1.00  0.00     0.060 A 
ATOM     16  C   UNL A   1      36.160  22.173  23.944  1.00  0.00     0.041 A 
ATOM     17  S   UNL A   1      34.382  22.660  25.731  1.00  0.00    -0.141 S 
ATOM     18  C   UNL A   1      36.354  21.209  24.971  1.00  0.00     0.052 A 
ATOM     19  C   UNL A   1      35.482  21.381  26.018  1.00  0.00     0.085 A 
ATOM     20  Cl  UNL A   1      37.555  19.996  24.891  1.00  0.00    -0.083 Cl
ENDBRANCH  14  15
ENDBRANCH  11  14
ENDBRANCH   7  11
ENDBRANCH   4   7
ENDBRANCH   2   3
ENDBRANCH   1   2
BRANCH   1  21
ATOM     21  C   UNL A   1      33.040  27.911  25.766  1.00  0.00     0.023 C 
BRANCH  21  22
ATOM     22  C   UNL A   1      33.973  28.318  26.898  1.00  0.00     0.116 C 
BRANCH  22  23
ATOM     23  N   UNL A   1      33.738  29.677  27.360  1.00  0.00    -0.352 N 
ATOM     24  C   UNL A   1      34.572  30.487  28.092  1.00  0.00     0.251 C 
ATOM     25  H   UNL A   1      32.869  30.067  27.117  1.00  0.00     0.163 HD
ATOM     26  O   UNL A   1      34.159  31.555  28.534  1.00  0.00    -0.269 OA
BRANCH  24  27
ATOM     27  C   UNL A   1      35.957  30.049  28.362  1.00  0.00     0.039 A 
ATOM     28  C   UNL A   1      36.922  30.200  27.364  1.00  0.00     0.014 A 
ATOM     29  C   UNL A   1      36.303  29.506  29.603  1.00  0.00     0.014 A 
ATOM     30  C   UNL A   1      38.245  29.841  27.627  1.00  0.00     0.010 A 
ATOM     31  C   UNL A   1      37.636  29.233  29.890  1.00  0.00     0.010 A 
ATOM     32  C   UNL A   1      38.617  29.375  28.900  1.00  0.00    -0.014 A 
BRANCH  32  33
ATOM     33  C   UNL A   1      40.019  28.986  29.196  1.00  0.00     0.031 A 
ATOM     34  C   UNL A   1      40.942  29.969  29.868  1.00  0.00     0.074 A 
ATOM     35  C   UNL A   1      40.473  27.773  28.826  1.00  0.00     0.049 A 
ATOM     36  N   UNL A   1      42.204  29.832  30.186  1.00  0.00    -0.248 NA
ATOM     37  C   UNL A   1      40.381  31.290  30.202  1.00  0.00     0.031 C 
ATOM     38  C   UNL A   1      39.691  26.747  28.130  1.00  0.00     0.029 A 
ATOM     39  N   UNL A   1      41.707  27.194  28.987  1.00  0.00    -0.354 N 
ATOM     40  C   UNL A   1      42.588  31.048  30.741  1.00  0.00     0.074 A 
ATOM     41  C   UNL A   1      41.447  31.931  30.658  1.00  0.00     0.031 C 
ATOM     42  C   UNL A   1      40.452  25.655  27.957  1.00  0.00     0.029 A 
ATOM     43  C   UNL A   1      41.786  25.913  28.493  1.00  0.00     0.049 A 
ATOM     44  H   UNL A   1      42.465  27.653  29.416  1.00  0.00     0.167 HD
ATOM     45  C   UNL A   1      43.774  31.392  31.296  1.00  0.00     0.031 A 
ATOM     46  C   UNL A   1      42.815  25.044  28.475  1.00  0.00     0.031 A 
ATOM     47  C   UNL A   1      44.903  30.506  31.390  1.00  0.00     0.049 A 
ATOM     48  C   UNL A   1      44.126  25.452  29.093  1.00  0.00     0.074 A 
ATOM     49  C   UNL A   1      46.135  30.740  31.977  1.00  0.00     0.029 A 
ATOM     50  N   UNL A   1      44.941  29.215  30.883  1.00  0.00    -0.354 N 
ATOM     51  N   UNL A   1      44.450  26.585  29.670  1.00  0.00    -0.248 NA
ATOM     52  C   UNL A   1      45.202  24.453  29.076  1.00  0.00     0.031 C 
ATOM     53  C   UNL A   1      46.934  29.609  31.778  1.00  0.00     0.029 A 
ATOM     54  C   UNL A   1      46.179  28.646  31.127  1.00  0.00     0.049 A 
ATOM     55  H   UNL A   1      44.195  28.769  30.420  1.00  0.00     0.167 HD
ATOM     56  C   UNL A   1      45.759  26.423  30.112  1.00  0.00     0.074 A 
ATOM     57  C   UNL A   1      46.156  25.076  29.753  1.00  0.00     0.031 C 
ATOM     58  C   UNL A   1      46.560  27.307  30.759  1.00  0.00     0.031 A 
BRANCH  45  59
ATOM     59  C   UNL A   1      43.906  32.791  31.841  1.00  0.00    -0.014 A 
ATOM     60  C   UNL A   1      44.116  33.889  30.986  1.00  0.00     0.010 A 
ATOM     61  C   UNL A   1      43.789  33.017  33.225  1.00  0.00     0.010 A 
ATOM     62  C   UNL A   1      44.253  35.178  31.507  1.00  0.00     0.020 A 
ATOM     63  C   UNL A   1      43.893  34.310  33.746  1.00  0.00     0.020 A 
ATOM     64  C   UNL A   1      44.142  35.380  32.885  1.00  0.00     0.054 A 
BRANCH  64  65
ATOM     65  S   UNL A   1      44.300  37.067  33.531  1.00  0.00     0.124 S 
ATOM     66  O   UNL A   1      45.182  37.686  32.543  1.00  0.00    -0.237 OA
ATOM     67  O   UNL A   1      42.919  37.544  33.524  1.00  0.00    -0.237 OA
ATOM     68  O   UNL A   1      44.885  36.880  34.856  1.00  0.00    -0.744 OA
ENDBRANCH  64  65
ENDBRANCH  45  59
BRANCH  46  69
ATOM     69  C   UNL A   1      42.642  23.693  27.872  1.00  0.00    -0.014 A 
ATOM     70  C   UNL A   1      42.181  22.617  28.650  1.00  0.00     0.010 A 
ATOM     71  C   UNL A   1      42.940  23.475  26.514  1.00  0.00     0.010 A 
ATOM     72  C   UNL A   1      42.046  21.342  28.090  1.00  0.00     0.020 A 
ATOM     73  C   UNL A   1      42.775  22.210  25.942  1.00  0.00     0.020 A 
ATOM     74  C   UNL A   1      42.343  21.148  26.738  1.00  0.00     0.054 A 
BRANCH  74  75
ATOM     75  S   UNL A   1      42.120  19.495  26.023  1.00  0.00     0.124 S 
ATOM     76  O   UNL A   1      42.596  18.632  27.100  1.00  0.00    -0.237 OA
ATOM     77  O   UNL A   1      40.683  19.454  25.766  1.00  0.00    -0.237 OA
ATOM     78  O   UNL A   1      42.959  19.525  24.827  1.00  0.00    -0.744 OA
ENDBRANCH  74  75
ENDBRANCH  46  69
BRANCH  58  79
ATOM     79  C   UNL A   1      47.933  26.828  31.158  1.00  0.00    -0.014 A 
ATOM     80  C   UNL A   1      49.044  26.995  30.312  1.00  0.00     0.010 A 
ATOM     81  C   UNL A   1      48.114  26.223  32.415  1.00  0.00     0.010 A 
ATOM     82  C   UNL A   1      50.299  26.516  30.695  1.00  0.00     0.020 A 
ATOM     83  C   UNL A   1      49.374  25.773  32.815  1.00  0.00     0.020 A 
ATOM     84  C   UNL A   1      50.456  25.903  31.942  1.00  0.00     0.054 A 
BRANCH  84  85
ATOM     85  S   UNL A   1      52.097  25.298  32.419  1.00  0.00     0.124 S 
ATOM     86  O   UNL A   1      52.277  25.912  33.732  1.00  0.00    -0.237 OA
ATOM     87  O   UNL A   1      51.917  23.848  32.422  1.00  0.00    -0.237 OA
ATOM     88  O   UNL A   1      52.974  25.810  31.367  1.00  0.00    -0.744 OA
ENDBRANCH  84  85
ENDBRANCH  58  79
ENDBRANCH  32  33
ENDBRANCH  24  27
ENDBRANCH  22  23
ENDBRANCH  21  22
ENDBRANCH   1  21
TORSDOF 19
ENDMDL
MODEL 2
REMARK VINA RESULT:      -9.3      1.838      2.999
REMARK SMILES CCC[C@@H]([NH2+]Cc1cc(Cl)cs1)C(=O)NCCCCNC(=O)c1ccc(-c2c3nc(c(-c4ccc(S(=O)(=O)[O-])cc4)c4ccc([nH]4)c(-c4ccc(S(=O)(=O)[O-])cc4)c4nc(c(-c5ccc(S(=O)(=O)[O-])cc5)c5ccc2[nH]5)C=C4)C=C3)cc1
REMARK SMILES IDX 17 1 16 2 15 3 13 4 14 5 4 7 3 8 2 9 1 10 5 11 6 14 7 15
REMARK SMILES IDX 8 16 12 17 9 18 11 19 10 20 18 21 19 22 20 23 21 24 22 26
REMARK SMILES IDX 23 27 24 28 82 29 25 30 81 31 26 32 27 33 28 34 75 35 29 36
REMARK SMILES IDX 80 37 74 38 76 39 30 40 79 41 73 42 72 43 31 45 61 46 42 47
REMARK SMILES IDX 60 48 43 49 46 50 59 51 77 52 44 53 45 54 58 56 78 57 47 58
REMARK SMILES IDX 32 59 33 60 41 61 34 62 40 63 35 64 36 65 37 66 38 67 39 68
REMARK SMILES IDX 62 69 63 70 71 71 64 72 70 73 65 74 66 75 67 76 68 77 69 78
REMARK SMILES IDX 48 79 49 80 57 81 50 82 56 83 51 84 52 85 53 86 54 87 55 88
REMARK H PARENT 15 6 5 12 5 13 20 25 76 44 46 55
REMARK Flexibility Score: inf
ROOT
ATOM      1  C   UNL A   1      32.608  26.159  25.797  1.00  0.00     0.023 C 
ENDROOT
BRANCH   1   2
ATOM      2  C   UNL A   1      31.828  24.949  26.309  1.00  0.00     0.116 C 
BRANCH   2   3
ATOM      3  N   UNL A   1      30.952  24.420  25.282  1.00  0.00    -0.351 N 
ATOM      4  C   UNL A   1      31.235  24.063  23.997  1.00  0.00     0.278 C 
ATOM      5  O   UNL A   1      30.306  23.643  23.298  1.00  0.00    -0.268 OA
ATOM      6  H   UNL A   1      30.012  24.302  25.553  1.00  0.00     0.163 HD
BRANCH   4   7
ATOM      7  C   UNL A   1      32.672  24.141  23.432  1.00  0.00     0.272 C 
BRANCH   7   8
ATOM      8  C   UNL A   1      33.408  22.796  23.616  1.00  0.00     0.075 C 
BRANCH   8   9
ATOM      9  C   UNL A   1      34.456  22.742  24.731  1.00  0.00     0.003 C 
ATOM     10  C   UNL A   1      35.443  23.894  24.696  1.00  0.00     0.004 C 
ENDBRANCH   8   9
ENDBRANCH   7   8
BRANCH   7  11
ATOM     11  N   UNL A   1      32.670  24.611  22.023  1.00  0.00    -0.332 N 
ATOM     12  H   UNL A   1      31.702  24.649  21.699  1.00  0.00     0.347 HD
ATOM     13  H   UNL A   1      33.234  23.952  21.487  1.00  0.00     0.347 HD
BRANCH  11  14
ATOM     14  C   UNL A   1      33.272  25.941  21.843  1.00  0.00     0.309 C 
BRANCH  14  15
ATOM     15  C   UNL A   1      32.373  27.064  22.274  1.00  0.00     0.060 A 
ATOM     16  C   UNL A   1      30.992  27.109  22.228  1.00  0.00     0.041 A 
ATOM     17  S   UNL A   1      33.024  28.521  22.909  1.00  0.00    -0.141 S 
ATOM     18  C   UNL A   1      30.473  28.311  22.782  1.00  0.00     0.052 A 
ATOM     19  C   UNL A   1      31.466  29.151  23.226  1.00  0.00     0.085 A 
ATOM     20  Cl  UNL A   1      28.799  28.639  22.885  1.00  0.00    -0.083 Cl
ENDBRANCH  14  15
ENDBRANCH  11  14
ENDBRANCH   7  11
ENDBRANCH   4   7
ENDBRANCH   2   3
ENDBRANCH   1   2
BRANCH   1  21
ATOM     21  C   UNL A   1      32.442  27.421  26.643  1.00  0.00     0.023 C 
BRANCH  21  22
ATOM     22  C   UNL A   1      33.737  28.165  26.938  1.00  0.00     0.116 C 
BRANCH  22  23
ATOM     23  N   UNL A   1      33.518  29.557  27.296  1.00  0.00    -0.352 N 
ATOM     24  C   UNL A   1      34.362  30.411  27.962  1.00  0.00     0.251 C 
ATOM     25  H   UNL A   1      32.651  29.936  27.027  1.00  0.00     0.163 HD
ATOM     26  O   UNL A   1      33.962  31.515  28.323  1.00  0.00    -0.269 OA
BRANCH  24  27
ATOM     27  C   UNL A   1      35.744  29.981  28.261  1.00  0.00     0.039 A 
ATOM     28  C   UNL A   1      36.714  30.079  27.261  1.00  0.00     0.014 A 
ATOM     29  C   UNL A   1      36.082  29.498  29.528  1.00  0.00     0.014 A 
ATOM     30  C   UNL A   1      38.034  29.727  27.548  1.00  0.00     0.010 A 
ATOM     31  C   UNL A   1      37.411  29.233  29.835  1.00  0.00     0.010 A 
ATOM     32  C   UNL A   1      38.398  29.322  28.844  1.00  0.00    -0.014 A 
BRANCH  32  33
ATOM     33  C   UNL A   1      39.796  28.943  29.165  1.00  0.00     0.031 A 
ATOM     34  C   UNL A   1      40.701  29.930  29.856  1.00  0.00     0.074 A 
ATOM     35  C   UNL A   1      40.266  27.733  28.803  1.00  0.00     0.049 A 
ATOM     36  N   UNL A   1      41.957  29.801  30.198  1.00  0.00    -0.248 NA
ATOM     37  C   UNL A   1      40.125  31.247  30.181  1.00  0.00     0.031 C 
ATOM     38  C   UNL A   1      39.503  26.703  28.092  1.00  0.00     0.029 A 
ATOM     39  N   UNL A   1      41.500  27.161  28.986  1.00  0.00    -0.354 N 
ATOM     40  C   UNL A   1      42.323  31.019  30.760  1.00  0.00     0.074 A 
ATOM     41  C   UNL A   1      41.178  31.895  30.657  1.00  0.00     0.031 C 
ATOM     42  C   UNL A   1      40.275  25.616  27.932  1.00  0.00     0.029 A 
ATOM     43  C   UNL A   1      41.597  25.882  28.493  1.00  0.00     0.049 A 
ATOM     44  H   UNL A   1      42.247  27.625  29.430  1.00  0.00     0.167 HD
ATOM     45  C   UNL A   1      43.496  31.370  31.338  1.00  0.00     0.031 A 
ATOM     46  C   UNL A   1      42.632  25.020  28.492  1.00  0.00     0.031 A 
ATOM     47  C   UNL A   1      44.629  30.491  31.452  1.00  0.00     0.049 A 
ATOM     48  C   UNL A   1      43.927  25.435  29.136  1.00  0.00     0.074 A 
ATOM     49  C   UNL A   1      45.848  30.732  32.062  1.00  0.00     0.029 A 
ATOM     50  N   UNL A   1      44.685  29.202  30.944  1.00  0.00    -0.354 N 
ATOM     51  N   UNL A   1      44.233  26.570  29.720  1.00  0.00    -0.248 NA
ATOM     52  C   UNL A   1      45.010  24.443  29.138  1.00  0.00     0.031 C 
ATOM     53  C   UNL A   1      46.659  29.607  31.877  1.00  0.00     0.029 A 
ATOM     54  C   UNL A   1      45.922  28.640  31.211  1.00  0.00     0.049 A 
ATOM     55  H   UNL A   1      43.951  28.750  30.467  1.00  0.00     0.167 HD
ATOM     56  C   UNL A   1      45.535  26.415  30.186  1.00  0.00     0.074 A 
ATOM     57  C   UNL A   1      45.948  25.072  29.833  1.00  0.00     0.031 C 
ATOM     58  C   UNL A   1      46.319  27.303  30.849  1.00  0.00     0.031 A 
BRANCH  45  59
ATOM     59  C   UNL A   1      43.609  32.769  31.887  1.00  0.00    -0.014 A 
ATOM     60  C   UNL A   1      43.417  33.031  33.257  1.00  0.00     0.010 A 
ATOM     61  C   UNL A   1      43.943  33.834  31.030  1.00  0.00     0.010 A 
ATOM     62  C   UNL A   1      43.509  34.335  33.750  1.00  0.00     0.020 A 
ATOM     63  C   UNL A   1      44.068  35.135  31.526  1.00  0.00     0.020 A 
ATOM     64  C   UNL A   1      43.832  35.380  32.880  1.00  0.00     0.054 A 
BRANCH  64  65
ATOM     65  S   UNL A   1      43.968  37.058  33.552  1.00  0.00     0.124 S 
ATOM     66  O   UNL A   1      45.206  36.974  34.323  1.00  0.00    -0.237 OA
ATOM     67  O   UNL A   1      44.034  37.882  32.347  1.00  0.00    -0.237 OA
ATOM     68  O   UNL A   1      42.751  37.215  34.344  1.00  0.00    -0.744 OA
ENDBRANCH  64  65
ENDBRANCH  45  59
BRANCH  46  69
ATOM     69  C   UNL A   1      42.479  23.668  27.886  1.00  0.00    -0.014 A 
ATOM     70  C   UNL A   1      41.831  22.637  28.588  1.00  0.00     0.010 A 
ATOM     71  C   UNL A   1      42.982  23.404  26.598  1.00  0.00     0.010 A 
ATOM     72  C   UNL A   1      41.713  21.361  28.028  1.00  0.00     0.020 A 
ATOM     73  C   UNL A   1      42.838  22.139  26.022  1.00  0.00     0.020 A 
ATOM     74  C   UNL A   1      42.216  21.121  26.747  1.00  0.00     0.054 A 
BRANCH  74  75
ATOM     75  S   UNL A   1      42.015  19.469  26.024  1.00  0.00     0.124 S 
ATOM     76  O   UNL A   1      42.843  19.558  24.826  1.00  0.00    -0.237 OA
ATOM     77  O   UNL A   1      42.522  18.599  27.082  1.00  0.00    -0.237 OA
ATOM     78  O   UNL A   1      40.576  19.373  25.787  1.00  0.00    -0.744 OA
ENDBRANCH  74  75
ENDBRANCH  46  69
BRANCH  58  79
ATOM     79  C   UNL A   1      47.686  26.833  31.273  1.00  0.00    -0.014 A 
ATOM     80  C   UNL A   1      47.900  26.224  32.522  1.00  0.00     0.010 A 
ATOM     81  C   UNL A   1      48.771  26.985  30.391  1.00  0.00     0.010 A 
ATOM     82  C   UNL A   1      49.184  25.825  32.901  1.00  0.00     0.020 A 
ATOM     83  C   UNL A   1      50.051  26.555  30.752  1.00  0.00     0.020 A 
ATOM     84  C   UNL A   1      50.252  25.997  32.016  1.00  0.00     0.054 A 
BRANCH  84  85
ATOM     85  S   UNL A   1      51.907  25.462  32.528  1.00  0.00     0.124 S 
ATOM     86  O   UNL A   1      51.886  24.042  32.187  1.00  0.00    -0.237 OA
ATOM     87  O   UNL A   1      52.783  26.294  31.706  1.00  0.00    -0.237 OA
ATOM     88  O   UNL A   1      51.939  25.758  33.960  1.00  0.00    -0.744 OA
ENDBRANCH  84  85
ENDBRANCH  58  79
ENDBRANCH  32  33
ENDBRANCH  24  27
ENDBRANCH  22  23
ENDBRANCH  21  22
ENDBRANCH   1  21
TORSDOF 19
ENDMDL
MODEL 3
REMARK VINA RESULT:      -9.1      3.166      9.417
REMARK SMILES CCC[C@@H]([NH2+]Cc1cc(Cl)cs1)C(=O)NCCCCNC(=O)c1ccc(-c2c3nc(c(-c4ccc(S(=O)(=O)[O-])cc4)c4ccc([nH]4)c(-c4ccc(S(=O)(=O)[O-])cc4)c4nc(c(-c5ccc(S(=O)(=O)[O-])cc5)c5ccc2[nH]5)C=C4)C=C3)cc1
REMARK SMILES IDX 17 1 16 2 15 3 13 4 14 5 4 7 3 8 2 9 1 10 5 11 6 14 7 15
REMARK SMILES IDX 8 16 12 17 9 18 11 19 10 20 18 21 19 22 20 23 21 24 22 26
REMARK SMILES IDX 23 27 24 28 82 29 25 30 81 31 26 32 27 33 28 34 75 35 29 36
REMARK SMILES IDX 80 37 74 38 76 39 30 40 79 41 73 42 72 43 31 45 61 46 42 47
REMARK SMILES IDX 60 48 43 49 46 50 59 51 77 52 44 53 45 54 58 56 78 57 47 58
REMARK SMILES IDX 32 59 33 60 41 61 34 62 40 63 35 64 36 65 37 66 38 67 39 68
REMARK SMILES IDX 62 69 63 70 71 71 64 72 70 73 65 74 66 75 67 76 68 77 69 78
REMARK SMILES IDX 48 79 49 80 57 81 50 82 56 83 51 84 52 85 53 86 54 87 55 88
REMARK H PARENT 15 6 5 12 5 13 20 25 76 44 46 55
REMARK Flexibility Score: inf
ROOT
ATOM      1  C   UNL A   1      34.984  22.582  26.156  1.00  0.00     0.023 C 
ENDROOT
BRANCH   1   2
ATOM      2  C   UNL A   1      34.010  22.454  27.327  1.00  0.00     0.116 C 
BRANCH   2   3
ATOM      3  N   UNL A   1      32.722  21.959  26.882  1.00  0.00    -0.351 N 
ATOM      4  C   UNL A   1      31.747  22.590  26.166  1.00  0.00     0.278 C 
ATOM      5  O   UNL A   1      30.716  21.957  25.914  1.00  0.00    -0.268 OA
ATOM      6  H   UNL A   1      32.520  21.028  27.134  1.00  0.00     0.163 HD
BRANCH   4   7
ATOM      7  C   UNL A   1      31.928  24.036  25.651  1.00  0.00     0.272 C 
BRANCH   7   8
ATOM      8  C   UNL A   1      31.691  24.110  24.127  1.00  0.00     0.075 C 
BRANCH   8   9
ATOM      9  C   UNL A   1      32.924  23.926  23.238  1.00  0.00     0.003 C 
ATOM     10  C   UNL A   1      33.107  22.506  22.736  1.00  0.00     0.004 C 
ENDBRANCH   8   9
ENDBRANCH   7   8
BRANCH   7  11
ATOM     11  N   UNL A   1      31.081  24.988  26.415  1.00  0.00    -0.332 N 
ATOM     12  H   UNL A   1      31.677  25.740  26.764  1.00  0.00     0.347 HD
ATOM     13  H   UNL A   1      30.641  24.459  27.167  1.00  0.00     0.347 HD
BRANCH  11  14
ATOM     14  C   UNL A   1      29.999  25.586  25.617  1.00  0.00     0.309 C 
BRANCH  14  15
ATOM     15  C   UNL A   1      30.385  26.884  24.970  1.00  0.00     0.060 A 
ATOM     16  C   UNL A   1      29.910  27.413  23.783  1.00  0.00     0.041 A 
ATOM     17  S   UNL A   1      31.549  27.919  25.692  1.00  0.00    -0.141 S 
ATOM     18  C   UNL A   1      30.453  28.698  23.510  1.00  0.00     0.052 A 
ATOM     19  C   UNL A   1      31.328  29.111  24.486  1.00  0.00     0.085 A 
ATOM     20  Cl  UNL A   1      30.034  29.609  22.127  1.00  0.00    -0.083 Cl
ENDBRANCH  14  15
ENDBRANCH  11  14
ENDBRANCH   7  11
ENDBRANCH   4   7
ENDBRANCH   2   3
ENDBRANCH   1   2
BRANCH   1  21
ATOM     21  C   UNL A   1      35.480  24.005  25.901  1.00  0.00     0.023 C 
BRANCH  21  22
ATOM     22  C   UNL A   1      36.808  24.093  25.163  1.00  0.00     0.116 C 
BRANCH  22  23
ATOM     23  N   UNL A   1      37.673  22.952  25.421  1.00  0.00    -0.352 N 
ATOM     24  C   UNL A   1      38.873  22.923  26.086  1.00  0.00     0.251 C 
ATOM     25  H   UNL A   1      37.356  22.088  25.073  1.00  0.00     0.163 HD
ATOM     26  O   UNL A   1      39.554  21.901  26.083  1.00  0.00    -0.269 OA
BRANCH  24  27
ATOM     27  C   UNL A   1      39.348  24.136  26.783  1.00  0.00     0.039 A 
ATOM     28  C   UNL A   1      40.131  25.056  26.082  1.00  0.00     0.014 A 
ATOM     29  C   UNL A   1      39.007  24.371  28.118  1.00  0.00     0.014 A 
ATOM     30  C   UNL A   1      40.539  26.232  26.713  1.00  0.00     0.010 A 
ATOM     31  C   UNL A   1      39.341  25.582  28.714  1.00  0.00     0.010 A 
ATOM     32  C   UNL A   1      40.129  26.516  28.027  1.00  0.00    -0.014 A 
BRANCH  32  33
ATOM     33  C   UNL A   1      40.556  27.760  28.714  1.00  0.00     0.031 A 
ATOM     34  C   UNL A   1      41.941  27.855  29.301  1.00  0.00     0.074 A 
ATOM     35  C   UNL A   1      39.693  28.786  28.846  1.00  0.00     0.049 A 
ATOM     36  N   UNL A   1      42.493  28.841  29.960  1.00  0.00    -0.248 NA
ATOM     37  C   UNL A   1      42.811  26.675  29.151  1.00  0.00     0.031 C 
ATOM     38  C   UNL A   1      38.310  28.802  28.359  1.00  0.00     0.029 A 
ATOM     39  N   UNL A   1      39.851  30.018  29.430  1.00  0.00    -0.354 N 
ATOM     40  C   UNL A   1      43.761  28.395  30.315  1.00  0.00     0.074 A 
ATOM     41  C   UNL A   1      43.875  27.030  29.855  1.00  0.00     0.031 C 
ATOM     42  C   UNL A   1      37.762  29.997  28.633  1.00  0.00     0.029 A 
ATOM     43  C   UNL A   1      38.736  30.818  29.347  1.00  0.00     0.049 A 
ATOM     44  H   UNL A   1      40.686  30.303  29.867  1.00  0.00     0.167 HD
ATOM     45  C   UNL A   1      44.755  29.068  30.942  1.00  0.00     0.031 A 
ATOM     46  C   UNL A   1      38.522  32.070  29.794  1.00  0.00     0.031 A 
ATOM     47  C   UNL A   1      44.644  30.432  31.386  1.00  0.00     0.049 A 
ATOM     48  C   UNL A   1      39.640  32.797  30.493  1.00  0.00     0.074 A 
ATOM     49  C   UNL A   1      45.607  31.223  31.987  1.00  0.00     0.029 A 
ATOM     50  N   UNL A   1      43.499  31.209  31.277  1.00  0.00    -0.354 N 
ATOM     51  N   UNL A   1      40.855  32.380  30.762  1.00  0.00    -0.248 NA
ATOM     52  C   UNL A   1      39.362  34.172  30.928  1.00  0.00     0.031 C 
ATOM     53  C   UNL A   1      45.029  32.460  32.290  1.00  0.00     0.029 A 
ATOM     54  C   UNL A   1      43.726  32.464  31.817  1.00  0.00     0.049 A 
ATOM     55  H   UNL A   1      42.651  30.912  30.874  1.00  0.00     0.167 HD
ATOM     56  C   UNL A   1      41.496  33.454  31.371  1.00  0.00     0.074 A 
ATOM     57  C   UNL A   1      40.540  34.542  31.410  1.00  0.00     0.031 C 
ATOM     58  C   UNL A   1      42.762  33.535  31.853  1.00  0.00     0.031 A 
BRANCH  45  59
ATOM     59  C   UNL A   1      46.048  28.333  31.184  1.00  0.00    -0.014 A 
ATOM     60  C   UNL A   1      46.241  27.566  32.349  1.00  0.00     0.010 A 
ATOM     61  C   UNL A   1      47.073  28.383  30.223  1.00  0.00     0.010 A 
ATOM     62  C   UNL A   1      47.451  26.903  32.568  1.00  0.00     0.020 A 
ATOM     63  C   UNL A   1      48.273  27.694  30.424  1.00  0.00     0.020 A 
ATOM     64  C   UNL A   1      48.461  26.973  31.604  1.00  0.00     0.054 A 
BRANCH  64  65
ATOM     65  S   UNL A   1      50.011  26.082  31.906  1.00  0.00     0.124 S 
ATOM     66  O   UNL A   1      49.841  24.891  31.077  1.00  0.00    -0.237 OA
ATOM     67  O   UNL A   1      51.021  27.031  31.441  1.00  0.00    -0.237 OA
ATOM     68  O   UNL A   1      50.002  25.845  33.347  1.00  0.00    -0.744 OA
ENDBRANCH  64  65
ENDBRANCH  45  59
BRANCH  46  69
ATOM     69  C   UNL A   1      37.204  32.728  29.573  1.00  0.00    -0.014 A 
ATOM     70  C   UNL A   1      36.210  32.689  30.567  1.00  0.00     0.010 A 
ATOM     71  C   UNL A   1      36.935  33.397  28.365  1.00  0.00     0.010 A 
ATOM     72  C   UNL A   1      34.962  33.284  30.346  1.00  0.00     0.020 A 
ATOM     73  C   UNL A   1      35.701  34.019  28.153  1.00  0.00     0.020 A 
ATOM     74  C   UNL A   1      34.718  33.946  29.141  1.00  0.00     0.054 A 
BRANCH  74  75
ATOM     75  S   UNL A   1      33.107  34.745  28.895  1.00  0.00     0.124 S 
ATOM     76  O   UNL A   1      32.463  33.843  27.946  1.00  0.00    -0.237 OA
ATOM     77  O   UNL A   1      32.548  34.749  30.244  1.00  0.00    -0.237 OA
ATOM     78  O   UNL A   1      33.456  36.063  28.370  1.00  0.00    -0.744 OA
ENDBRANCH  74  75
ENDBRANCH  46  69
BRANCH  58  79
ATOM     79  C   UNL A   1      43.199  34.859  32.425  1.00  0.00    -0.014 A 
ATOM     80  C   UNL A   1      43.796  35.846  31.620  1.00  0.00     0.010 A 
ATOM     81  C   UNL A   1      42.984  35.125  33.789  1.00  0.00     0.010 A 
ATOM     82  C   UNL A   1      44.218  37.053  32.183  1.00  0.00     0.020 A 
ATOM     83  C   UNL A   1      43.374  36.344  34.348  1.00  0.00     0.020 A 
ATOM     84  C   UNL A   1      44.009  37.293  33.544  1.00  0.00     0.054 A 
BRANCH  84  85
ATOM     85  S   UNL A   1      44.557  38.872  34.248  1.00  0.00     0.124 S 
ATOM     86  O   UNL A   1      44.355  38.653  35.678  1.00  0.00    -0.237 OA
ATOM     87  O   UNL A   1      45.950  38.949  33.815  1.00  0.00    -0.237 OA
ATOM     88  O   UNL A   1      43.664  39.853  33.635  1.00  0.00    -0.744 OA
ENDBRANCH  84  85
ENDBRANCH  58  79
ENDBRANCH  32  33
ENDBRANCH  24  27
ENDBRANCH  22  23
ENDBRANCH  21  22
ENDBRANCH   1  21
TORSDOF 19
ENDMDL
