MODEL 1
REMARK VINA RESULT:     -11.6      0.000      0.000
REMARK SMILES O=C(NCCCCNC(=O)[C@@H](c1cccc(O)c1)[NH+]1CC[NH+](C2CCCC2)CC1)c1ccc(-c2c3nc(c(-c4ccc(S(=O)(=O)[O-])cc4)c4ccc([nH]4)c(-c4ccc(S(=O)(=O)[O-])cc4)c4nc(c(-c5ccc(S(=O)(=O)[O-])cc5)c5ccc2[nH]5)C=C4)C=C3)cc1
REMARK SMILES IDX 5 1 4 2 3 3 1 4 2 5 30 7 31 8 89 9 32 10 88 11 33 12 34 13
REMARK SMILES IDX 35 14 82 15 36 16 87 17 81 18 83 19 37 20 86 21 80 22 79 23
REMARK SMILES IDX 38 25 68 26 49 27 67 28 50 29 53 30 66 31 84 32 51 33 52 34
REMARK SMILES IDX 65 36 85 37 54 38 39 39 40 40 48 41 41 42 47 43 42 44 43 45
REMARK SMILES IDX 44 46 45 47 46 48 69 49 70 50 78 51 71 52 77 53 72 54 73 55
REMARK SMILES IDX 74 56 75 57 76 58 55 59 56 60 64 61 57 62 63 63 58 64 59 65
REMARK SMILES IDX 60 66 61 67 62 68 6 69 7 70 8 71 9 72 10 74 11 75 12 76
REMARK SMILES IDX 13 77 18 78 14 79 16 80 15 81 17 82 19 84 20 85 29 86 21 88
REMARK SMILES IDX 28 89 22 90 23 92 24 93 27 94 25 95 26 96
REMARK H PARENT 3 6 83 24 53 35 8 73 17 83 19 87 22 91
REMARK Flexibility Score: inf
ROOT
ATOM      1  C   UNL A   1      37.779  20.663  25.213  1.00  0.00     0.023 C 
ENDROOT
BRANCH   1   2
ATOM      2  C   UNL A   1      39.115  20.990  25.858  1.00  0.00     0.116 C 
BRANCH   2   3
ATOM      3  N   UNL A   1      40.011  19.846  25.922  1.00  0.00    -0.352 N 
ATOM      4  O   UNL A   1      42.003  18.790  26.026  1.00  0.00    -0.269 OA
ATOM      5  C   UNL A   1      41.372  19.832  26.127  1.00  0.00     0.251 C 
ATOM      6  H   UNL A   1      39.586  18.964  25.805  1.00  0.00     0.163 HD
BRANCH   5   7
ATOM      7  C   UNL A   1      42.059  21.105  26.438  1.00  0.00     0.039 A 
ATOM      8  C   UNL A   1      42.364  21.433  27.760  1.00  0.00     0.014 A 
ATOM      9  C   UNL A   1      42.362  21.991  25.401  1.00  0.00     0.014 A 
ATOM     10  C   UNL A   1      42.833  22.705  28.059  1.00  0.00     0.010 A 
ATOM     11  C   UNL A   1      42.921  23.238  25.698  1.00  0.00     0.010 A 
ATOM     12  C   UNL A   1      43.131  23.617  27.033  1.00  0.00    -0.014 A 
BRANCH  12  13
ATOM     13  C   UNL A   1      43.718  24.931  27.394  1.00  0.00     0.031 A 
ATOM     14  C   UNL A   1      45.166  25.243  27.136  1.00  0.00     0.074 A 
ATOM     15  C   UNL A   1      42.900  25.872  27.907  1.00  0.00     0.049 A 
ATOM     16  N   UNL A   1      45.809  26.365  27.338  1.00  0.00    -0.248 NA
ATOM     17  C   UNL A   1      46.003  24.163  26.588  1.00  0.00     0.031 C 
ATOM     18  C   UNL A   1      41.479  25.676  28.211  1.00  0.00     0.029 A 
ATOM     19  N   UNL A   1      43.130  27.184  28.229  1.00  0.00    -0.354 N 
ATOM     20  C   UNL A   1      47.125  26.127  26.954  1.00  0.00     0.074 A 
ATOM     21  C   UNL A   1      47.194  24.744  26.532  1.00  0.00     0.031 C 
ATOM     22  C   UNL A   1      40.952  26.840  28.617  1.00  0.00     0.029 A 
ATOM     23  C   UNL A   1      42.005  27.845  28.661  1.00  0.00     0.049 A 
ATOM     24  H   UNL A   1      44.014  27.610  28.157  1.00  0.00     0.167 HD
ATOM     25  C   UNL A   1      48.174  26.986  26.948  1.00  0.00     0.031 A 
ATOM     26  C   UNL A   1      41.838  29.119  29.061  1.00  0.00     0.031 A 
ATOM     27  C   UNL A   1      48.098  28.360  27.374  1.00  0.00     0.049 A 
ATOM     28  C   UNL A   1      43.017  30.046  29.047  1.00  0.00     0.074 A 
ATOM     29  C   UNL A   1      49.107  29.308  27.412  1.00  0.00     0.029 A 
ATOM     30  N   UNL A   1      46.948  28.986  27.831  1.00  0.00    -0.354 N 
ATOM     31  N   UNL A   1      44.251  29.798  28.676  1.00  0.00    -0.248 NA
ATOM     32  C   UNL A   1      42.783  31.421  29.503  1.00  0.00     0.031 C 
ATOM     33  C   UNL A   1      48.573  30.497  27.924  1.00  0.00     0.029 A 
ATOM     34  C   UNL A   1      47.222  30.303  28.160  1.00  0.00     0.049 A 
ATOM     35  H   UNL A   1      46.064  28.558  27.909  1.00  0.00     0.167 HD
ATOM     36  C   UNL A   1      44.941  30.990  28.853  1.00  0.00     0.074 A 
ATOM     37  C   UNL A   1      43.980  31.964  29.331  1.00  0.00     0.031 C 
ATOM     38  C   UNL A   1      46.256  31.253  28.648  1.00  0.00     0.031 A 
BRANCH  25  39
ATOM     39  C   UNL A   1      49.505  26.459  26.479  1.00  0.00    -0.014 A 
ATOM     40  C   UNL A   1      49.952  26.689  25.165  1.00  0.00     0.010 A 
ATOM     41  C   UNL A   1      50.346  25.777  27.377  1.00  0.00     0.010 A 
ATOM     42  C   UNL A   1      51.202  26.220  24.750  1.00  0.00     0.020 A 
ATOM     43  C   UNL A   1      51.607  25.326  26.972  1.00  0.00     0.020 A 
ATOM     44  C   UNL A   1      52.020  25.538  25.655  1.00  0.00     0.054 A 
BRANCH  44  45
ATOM     45  S   UNL A   1      53.649  24.965  25.098  1.00  0.00     0.124 S 
ATOM     46  O   UNL A   1      53.753  25.589  23.782  1.00  0.00    -0.237 OA
ATOM     47  O   UNL A   1      54.546  25.500  26.118  1.00  0.00    -0.237 OA
ATOM     48  O   UNL A   1      53.521  23.509  25.088  1.00  0.00    -0.744 OA
ENDBRANCH  44  45
ENDBRANCH  25  39
BRANCH  26  49
ATOM     49  C   UNL A   1      40.501  29.574  29.527  1.00  0.00    -0.014 A 
ATOM     50  C   UNL A   1      40.204  29.657  30.898  1.00  0.00     0.010 A 
ATOM     51  C   UNL A   1      39.524  29.955  28.588  1.00  0.00     0.010 A 
ATOM     52  C   UNL A   1      38.947  30.095  31.322  1.00  0.00     0.020 A 
ATOM     53  C   UNL A   1      38.277  30.421  29.009  1.00  0.00     0.020 A 
ATOM     54  C   UNL A   1      37.991  30.474  30.373  1.00  0.00     0.054 A 
BRANCH  54  55
ATOM     55  S   UNL A   1      36.381  31.090  30.939  1.00  0.00     0.124 S 
ATOM     56  O   UNL A   1      35.979  30.054  31.886  1.00  0.00    -0.237 OA
ATOM     57  O   UNL A   1      36.721  32.385  31.523  1.00  0.00    -0.237 OA
ATOM     58  O   UNL A   1      35.594  31.158  29.710  1.00  0.00    -0.744 OA
ENDBRANCH  54  55
ENDBRANCH  26  49
BRANCH  38  59
ATOM     59  C   UNL A   1      46.716  32.654  28.932  1.00  0.00    -0.014 A 
ATOM     60  C   UNL A   1      46.677  33.646  27.935  1.00  0.00     0.010 A 
ATOM     61  C   UNL A   1      47.183  32.988  30.216  1.00  0.00     0.010 A 
ATOM     62  C   UNL A   1      47.138  34.936  28.204  1.00  0.00     0.020 A 
ATOM     63  C   UNL A   1      47.623  34.284  30.496  1.00  0.00     0.020 A 
ATOM     64  C   UNL A   1      47.615  35.244  29.481  1.00  0.00     0.054 A 
BRANCH  64  65
ATOM     65  S   UNL A   1      48.196  36.930  29.815  1.00  0.00     0.124 S 
ATOM     66  O   UNL A   1      47.413  37.713  28.864  1.00  0.00    -0.237 OA
ATOM     67  O   UNL A   1      47.849  37.120  31.221  1.00  0.00    -0.237 OA
ATOM     68  O   UNL A   1      49.629  36.862  29.538  1.00  0.00    -0.744 OA
ENDBRANCH  64  65
ENDBRANCH  38  59
ENDBRANCH  12  13
ENDBRANCH   5   7
ENDBRANCH   2   3
ENDBRANCH   1   2
BRANCH   1  69
ATOM     69  C   UNL A   1      37.125  21.826  24.467  1.00  0.00     0.023 C 
BRANCH  69  70
ATOM     70  C   UNL A   1      37.012  23.121  25.270  1.00  0.00     0.116 C 
BRANCH  70  71
ATOM     71  N   UNL A   1      36.089  22.995  26.378  1.00  0.00    -0.351 N 
ATOM     72  C   UNL A   1      34.725  22.964  26.365  1.00  0.00     0.283 C 
ATOM     73  H   UNL A   1      36.505  22.922  27.266  1.00  0.00     0.163 HD
ATOM     74  O   UNL A   1      34.151  22.896  27.460  1.00  0.00    -0.268 OA
BRANCH  72  75
ATOM     75  C   UNL A   1      33.904  22.963  25.038  1.00  0.00     0.306 C 
BRANCH  75  76
ATOM     76  C   UNL A   1      33.407  21.543  24.722  1.00  0.00     0.023 A 
ATOM     77  C   UNL A   1      32.865  21.166  23.480  1.00  0.00     0.011 A 
ATOM     78  C   UNL A   1      33.437  20.573  25.743  1.00  0.00     0.056 A 
ATOM     79  C   UNL A   1      32.371  19.875  23.266  1.00  0.00     0.004 A 
ATOM     80  C   UNL A   1      32.910  19.301  25.531  1.00  0.00     0.116 A 
ATOM     81  C   UNL A   1      32.384  18.940  24.297  1.00  0.00     0.046 A 
BRANCH  80  82
ATOM     82  O   UNL A   1      32.904  18.434  26.583  1.00  0.00    -0.508 OA
ATOM     83  H   UNL A   1      32.648  17.542  26.454  1.00  0.00     0.293 HD
ENDBRANCH  80  82
ENDBRANCH  75  76
BRANCH  75  84
ATOM     84  N   UNL A   1      32.861  24.036  25.003  1.00  0.00    -0.312 N 
ATOM     85  C   UNL A   1      31.563  23.695  25.622  1.00  0.00     0.325 C 
ATOM     86  C   UNL A   1      33.398  25.365  25.342  1.00  0.00     0.325 C 
ATOM     87  H   UNL A   1      32.594  24.102  24.021  1.00  0.00     0.349 HD
ATOM     88  C   UNL A   1      30.807  24.731  26.502  1.00  0.00     0.324 C 
ATOM     89  C   UNL A   1      32.722  26.122  26.491  1.00  0.00     0.324 C 
ATOM     90  N   UNL A   1      31.261  26.122  26.436  1.00  0.00    -0.323 N 
ATOM     91  H   UNL A   1      30.946  26.647  27.251  1.00  0.00     0.348 HD
BRANCH  90  92
ATOM     92  C   UNL A   1      30.609  26.919  25.394  1.00  0.00     0.184 C 
ATOM     93  C   UNL A   1      31.388  28.128  24.860  1.00  0.00     0.065 C 
ATOM     94  C   UNL A   1      30.099  26.241  24.110  1.00  0.00     0.065 C 
ATOM     95  C   UNL A   1      30.504  28.624  23.726  1.00  0.00     0.006 C 
ATOM     96  C   UNL A   1      29.977  27.355  23.067  1.00  0.00     0.006 C 
ENDBRANCH  90  92
ENDBRANCH  75  84
ENDBRANCH  72  75
ENDBRANCH  70  71
ENDBRANCH  69  70
ENDBRANCH   1  69
TORSDOF 18
ENDMDL
MODEL 2
REMARK VINA RESULT:     -11.2      3.126      8.181
REMARK SMILES O=C(NCCCCNC(=O)[C@@H](c1cccc(O)c1)[NH+]1CC[NH+](C2CCCC2)CC1)c1ccc(-c2c3nc(c(-c4ccc(S(=O)(=O)[O-])cc4)c4ccc([nH]4)c(-c4ccc(S(=O)(=O)[O-])cc4)c4nc(c(-c5ccc(S(=O)(=O)[O-])cc5)c5ccc2[nH]5)C=C4)C=C3)cc1
REMARK SMILES IDX 5 1 4 2 3 3 1 4 2 5 30 7 31 8 89 9 32 10 88 11 33 12 34 13
REMARK SMILES IDX 35 14 82 15 36 16 87 17 81 18 83 19 37 20 86 21 80 22 79 23
REMARK SMILES IDX 38 25 68 26 49 27 67 28 50 29 53 30 66 31 84 32 51 33 52 34
REMARK SMILES IDX 65 36 85 37 54 38 39 39 40 40 48 41 41 42 47 43 42 44 43 45
REMARK SMILES IDX 44 46 45 47 46 48 69 49 70 50 78 51 71 52 77 53 72 54 73 55
REMARK SMILES IDX 74 56 75 57 76 58 55 59 56 60 64 61 57 62 63 63 58 64 59 65
REMARK SMILES IDX 60 66 61 67 62 68 6 69 7 70 8 71 9 72 10 74 11 75 12 76
REMARK SMILES IDX 13 77 18 78 14 79 16 80 15 81 17 82 19 84 20 85 29 86 21 88
REMARK SMILES IDX 28 89 22 90 23 92 24 93 27 94 25 95 26 96
REMARK H PARENT 3 6 83 24 53 35 8 73 17 83 19 87 22 91
REMARK Flexibility Score: inf
ROOT
ATOM      1  C   UNL A   1      32.814  28.026  26.061  1.00  0.00     0.023 C 
ENDROOT
BRANCH   1   2
ATOM      2  C   UNL A   1      33.699  28.447  27.222  1.00  0.00     0.116 C 
BRANCH   2   3
ATOM      3  N   UNL A   1      33.508  29.837  27.608  1.00  0.00    -0.352 N 
ATOM      4  O   UNL A   1      34.045  31.796  28.592  1.00  0.00    -0.269 OA
ATOM      5  C   UNL A   1      34.403  30.689  28.214  1.00  0.00     0.251 C 
ATOM      6  H   UNL A   1      32.622  30.217  27.408  1.00  0.00     0.163 HD
BRANCH   5   7
ATOM      7  C   UNL A   1      35.793  30.229  28.430  1.00  0.00     0.039 A 
ATOM      8  C   UNL A   1      36.187  29.748  29.679  1.00  0.00     0.014 A 
ATOM      9  C   UNL A   1      36.713  30.318  27.382  1.00  0.00     0.014 A 
ATOM     10  C   UNL A   1      37.530  29.499  29.924  1.00  0.00     0.010 A 
ATOM     11  C   UNL A   1      38.051  29.978  27.607  1.00  0.00     0.010 A 
ATOM     12  C   UNL A   1      38.475  29.597  28.889  1.00  0.00    -0.014 A 
BRANCH  12  13
ATOM     13  C   UNL A   1      39.885  29.231  29.174  1.00  0.00     0.031 A 
ATOM     14  C   UNL A   1      40.438  27.882  28.808  1.00  0.00     0.074 A 
ATOM     15  C   UNL A   1      40.687  30.170  29.718  1.00  0.00     0.049 A 
ATOM     16  N   UNL A   1      41.662  27.437  28.934  1.00  0.00    -0.248 NA
ATOM     17  C   UNL A   1      39.502  26.903  28.231  1.00  0.00     0.031 C 
ATOM     18  C   UNL A   1      40.255  31.511  30.126  1.00  0.00     0.029 A 
ATOM     19  N   UNL A   1      42.030  30.158  29.988  1.00  0.00    -0.354 N 
ATOM     20  C   UNL A   1      41.645  26.128  28.466  1.00  0.00     0.074 A 
ATOM     21  C   UNL A   1      40.281  25.840  28.076  1.00  0.00     0.031 C 
ATOM     22  C   UNL A   1      41.323  32.210  30.536  1.00  0.00     0.029 A 
ATOM     23  C   UNL A   1      42.499  31.352  30.480  1.00  0.00     0.049 A 
ATOM     24  H   UNL A   1      42.602  29.370  29.844  1.00  0.00     0.167 HD
ATOM     25  C   UNL A   1      42.675  25.251  28.365  1.00  0.00     0.031 A 
ATOM     26  C   UNL A   1      43.738  31.718  30.857  1.00  0.00     0.031 A 
ATOM     27  C   UNL A   1      44.029  25.544  28.759  1.00  0.00     0.049 A 
ATOM     28  C   UNL A   1      44.856  30.726  30.737  1.00  0.00     0.074 A 
ATOM     29  C   UNL A   1      45.141  24.720  28.701  1.00  0.00     0.029 A 
ATOM     30  N   UNL A   1      44.460  26.755  29.278  1.00  0.00    -0.354 N 
ATOM     31  N   UNL A   1      44.816  29.494  30.288  1.00  0.00    -0.248 NA
ATOM     32  C   UNL A   1      46.185  31.172  31.172  1.00  0.00     0.031 C 
ATOM     33  C   UNL A   1      46.236  25.423  29.217  1.00  0.00     0.029 A 
ATOM     34  C   UNL A   1      45.816  26.700  29.553  1.00  0.00     0.049 A 
ATOM     35  H   UNL A   1      43.886  27.541  29.429  1.00  0.00     0.167 HD
ATOM     36  C   UNL A   1      46.116  29.017  30.385  1.00  0.00     0.074 A 
ATOM     37  C   UNL A   1      46.923  30.105  30.902  1.00  0.00     0.031 C 
ATOM     38  C   UNL A   1      46.599  27.787  30.081  1.00  0.00     0.031 A 
BRANCH  25  39
ATOM     39  C   UNL A   1      42.373  23.880  27.818  1.00  0.00    -0.014 A 
ATOM     40  C   UNL A   1      42.565  23.586  26.455  1.00  0.00     0.010 A 
ATOM     41  C   UNL A   1      41.948  22.856  28.684  1.00  0.00     0.010 A 
ATOM     42  C   UNL A   1      42.309  22.302  25.966  1.00  0.00     0.020 A 
ATOM     43  C   UNL A   1      41.713  21.565  28.202  1.00  0.00     0.020 A 
ATOM     44  C   UNL A   1      41.881  21.300  26.841  1.00  0.00     0.054 A 
BRANCH  44  45
ATOM     45  S   UNL A   1      41.583  19.635  26.184  1.00  0.00     0.124 S 
ATOM     46  O   UNL A   1      42.036  18.792  27.286  1.00  0.00    -0.237 OA
ATOM     47  O   UNL A   1      40.142  19.635  25.945  1.00  0.00    -0.237 OA
ATOM     48  O   UNL A   1      42.410  19.584  24.980  1.00  0.00    -0.744 OA
ENDBRANCH  44  45
ENDBRANCH  25  39
BRANCH  26  49
ATOM     49  C   UNL A   1      43.968  33.082  31.404  1.00  0.00    -0.014 A 
ATOM     50  C   UNL A   1      44.319  34.148  30.558  1.00  0.00     0.010 A 
ATOM     51  C   UNL A   1      43.806  33.321  32.781  1.00  0.00     0.010 A 
ATOM     52  C   UNL A   1      44.523  35.427  31.085  1.00  0.00     0.020 A 
ATOM     53  C   UNL A   1      43.979  34.603  33.305  1.00  0.00     0.020 A 
ATOM     54  C   UNL A   1      44.351  35.645  32.455  1.00  0.00     0.054 A 
BRANCH  54  55
ATOM     55  S   UNL A   1      44.569  37.320  33.116  1.00  0.00     0.124 S 
ATOM     56  O   UNL A   1      43.263  37.580  33.715  1.00  0.00    -0.237 OA
ATOM     57  O   UNL A   1      45.675  37.153  34.056  1.00  0.00    -0.237 OA
ATOM     58  O   UNL A   1      44.886  38.114  31.931  1.00  0.00    -0.744 OA
ENDBRANCH  54  55
ENDBRANCH  26  49
BRANCH  38  59
ATOM     59  C   UNL A   1      48.069  27.566  30.296  1.00  0.00    -0.014 A 
ATOM     60  C   UNL A   1      48.999  27.838  29.275  1.00  0.00     0.010 A 
ATOM     61  C   UNL A   1      48.529  27.093  31.537  1.00  0.00     0.010 A 
ATOM     62  C   UNL A   1      50.359  27.598  29.478  1.00  0.00     0.020 A 
ATOM     63  C   UNL A   1      49.892  26.874  31.752  1.00  0.00     0.020 A 
ATOM     64  C   UNL A   1      50.796  27.110  30.713  1.00  0.00     0.054 A 
BRANCH  64  65
ATOM     65  S   UNL A   1      52.570  26.819  30.962  1.00  0.00     0.124 S 
ATOM     66  O   UNL A   1      52.997  28.072  31.578  1.00  0.00    -0.237 OA
ATOM     67  O   UNL A   1      52.586  25.650  31.838  1.00  0.00    -0.237 OA
ATOM     68  O   UNL A   1      53.072  26.584  29.610  1.00  0.00    -0.744 OA
ENDBRANCH  64  65
ENDBRANCH  38  59
ENDBRANCH  12  13
ENDBRANCH   5   7
ENDBRANCH   2   3
ENDBRANCH   1   2
BRANCH   1  69
ATOM     69  C   UNL A   1      31.413  27.563  26.458  1.00  0.00     0.023 C 
BRANCH  69  70
ATOM     70  C   UNL A   1      31.173  26.060  26.329  1.00  0.00     0.116 C 
BRANCH  70  71
ATOM     71  N   UNL A   1      32.317  25.287  26.766  1.00  0.00    -0.351 N 
ATOM     72  C   UNL A   1      32.939  24.242  26.147  1.00  0.00     0.283 C 
ATOM     73  H   UNL A   1      32.700  25.554  27.632  1.00  0.00     0.163 HD
ATOM     74  O   UNL A   1      33.880  23.709  26.748  1.00  0.00    -0.268 OA
BRANCH  72  75
ATOM     75  C   UNL A   1      32.531  23.755  24.722  1.00  0.00     0.306 C 
BRANCH  75  76
ATOM     76  C   UNL A   1      32.891  24.819  23.673  1.00  0.00     0.023 A 
ATOM     77  C   UNL A   1      33.910  25.773  23.849  1.00  0.00     0.011 A 
ATOM     78  C   UNL A   1      32.126  24.890  22.493  1.00  0.00     0.056 A 
ATOM     79  C   UNL A   1      34.156  26.758  22.887  1.00  0.00     0.004 A 
ATOM     80  C   UNL A   1      32.355  25.898  21.557  1.00  0.00     0.116 A 
ATOM     81  C   UNL A   1      33.370  26.828  21.740  1.00  0.00     0.046 A 
BRANCH  80  82
ATOM     82  O   UNL A   1      31.532  25.953  20.472  1.00  0.00    -0.508 OA
ATOM     83  H   UNL A   1      31.499  26.730  19.948  1.00  0.00     0.293 HD
ENDBRANCH  80  82
ENDBRANCH  75  76
BRANCH  75  84
ATOM     84  N   UNL A   1      33.009  22.367  24.427  1.00  0.00    -0.312 N 
ATOM     85  C   UNL A   1      34.469  22.210  24.262  1.00  0.00     0.325 C 
ATOM     86  C   UNL A   1      32.349  21.347  25.258  1.00  0.00     0.325 C 
ATOM     87  H   UNL A   1      32.687  22.182  23.477  1.00  0.00     0.349 HD
ATOM     88  C   UNL A   1      35.210  20.986  24.875  1.00  0.00     0.324 C 
ATOM     89  C   UNL A   1      33.252  20.418  26.078  1.00  0.00     0.324 C 
ATOM     90  N   UNL A   1      34.384  19.868  25.335  1.00  0.00    -0.323 N 
ATOM     91  H   UNL A   1      34.898  19.283  25.993  1.00  0.00     0.348 HD
BRANCH  90  92
ATOM     92  C   UNL A   1      34.111  18.859  24.309  1.00  0.00     0.184 C 
ATOM     93  C   UNL A   1      34.892  17.543  24.409  1.00  0.00     0.065 C 
ATOM     94  C   UNL A   1      32.668  18.387  24.058  1.00  0.00     0.065 C 
ATOM     95  C   UNL A   1      34.273  16.698  23.306  1.00  0.00     0.006 C 
ATOM     96  C   UNL A   1      32.786  17.029  23.359  1.00  0.00     0.006 C 
ENDBRANCH  90  92
ENDBRANCH  75  84
ENDBRANCH  72  75
ENDBRANCH  70  71
ENDBRANCH  69  70
ENDBRANCH   1  69
TORSDOF 18
ENDMDL
MODEL 3
REMARK VINA RESULT:     -11.1      5.127     10.474
REMARK SMILES O=C(NCCCCNC(=O)[C@@H](c1cccc(O)c1)[NH+]1CC[NH+](C2CCCC2)CC1)c1ccc(-c2c3nc(c(-c4ccc(S(=O)(=O)[O-])cc4)c4ccc([nH]4)c(-c4ccc(S(=O)(=O)[O-])cc4)c4nc(c(-c5ccc(S(=O)(=O)[O-])cc5)c5ccc2[nH]5)C=C4)C=C3)cc1
REMARK SMILES IDX 5 1 4 2 3 3 1 4 2 5 30 7 31 8 89 9 32 10 88 11 33 12 34 13
REMARK SMILES IDX 35 14 82 15 36 16 87 17 81 18 83 19 37 20 86 21 80 22 79 23
REMARK SMILES IDX 38 25 68 26 49 27 67 28 50 29 53 30 66 31 84 32 51 33 52 34
REMARK SMILES IDX 65 36 85 37 54 38 39 39 40 40 48 41 41 42 47 43 42 44 43 45
REMARK SMILES IDX 44 46 45 47 46 48 69 49 70 50 78 51 71 52 77 53 72 54 73 55
REMARK SMILES IDX 74 56 75 57 76 58 55 59 56 60 64 61 57 62 63 63 58 64 59 65
REMARK SMILES IDX 60 66 61 67 62 68 6 69 7 70 8 71 9 72 10 74 11 75 12 76
REMARK SMILES IDX 13 77 18 78 14 79 16 80 15 81 17 82 19 84 20 85 29 86 21 88
REMARK SMILES IDX 28 89 22 90 23 92 24 93 27 94 25 95 26 96
REMARK H PARENT 3 6 83 24 53 35 8 73 17 83 19 87 22 91
REMARK Flexibility Score: inf
ROOT
ATOM      1  C   UNL A   1      32.947  28.449  25.411  1.00  0.00     0.023 C 
ENDROOT
BRANCH   1   2
ATOM      2  C   UNL A   1      34.011  29.188  26.205  1.00  0.00     0.116 C 
BRANCH   2   3
ATOM      3  N   UNL A   1      33.578  30.504  26.650  1.00  0.00    -0.352 N 
ATOM      4  O   UNL A   1      33.599  32.353  27.944  1.00  0.00    -0.269 OA
ATOM      5  C   UNL A   1      34.160  31.326  27.587  1.00  0.00     0.251 C 
ATOM      6  H   UNL A   1      32.761  30.851  26.223  1.00  0.00     0.163 HD
BRANCH   5   7
ATOM      7  C   UNL A   1      35.457  30.930  28.178  1.00  0.00     0.039 A 
ATOM      8  C   UNL A   1      35.552  29.769  28.947  1.00  0.00     0.014 A 
ATOM      9  C   UNL A   1      36.574  31.748  27.990  1.00  0.00     0.014 A 
ATOM     10  C   UNL A   1      36.720  29.508  29.650  1.00  0.00     0.010 A 
ATOM     11  C   UNL A   1      37.778  31.432  28.626  1.00  0.00     0.010 A 
ATOM     12  C   UNL A   1      37.851  30.326  29.487  1.00  0.00    -0.014 A 
BRANCH  12  13
ATOM     13  C   UNL A   1      39.106  29.955  30.186  1.00  0.00     0.031 A 
ATOM     14  C   UNL A   1      39.511  30.610  31.478  1.00  0.00     0.074 A 
ATOM     15  C   UNL A   1      39.853  28.962  29.664  1.00  0.00     0.049 A 
ATOM     16  N   UNL A   1      40.544  30.349  32.238  1.00  0.00    -0.248 NA
ATOM     17  C   UNL A   1      38.655  31.695  31.982  1.00  0.00     0.031 C 
ATOM     18  C   UNL A   1      39.563  28.263  28.407  1.00  0.00     0.029 A 
ATOM     19  N   UNL A   1      40.982  28.343  30.134  1.00  0.00    -0.354 N 
ATOM     20  C   UNL A   1      40.472  31.241  33.302  1.00  0.00     0.074 A 
ATOM     21  C   UNL A   1      39.307  32.070  33.075  1.00  0.00     0.031 C 
ATOM     22  C   UNL A   1      40.453  27.275  28.239  1.00  0.00     0.029 A 
ATOM     23  C   UNL A   1      41.410  27.308  29.337  1.00  0.00     0.049 A 
ATOM     24  H   UNL A   1      41.441  28.614  30.961  1.00  0.00     0.167 HD
ATOM     25  C   UNL A   1      41.298  31.354  34.371  1.00  0.00     0.031 A 
ATOM     26  C   UNL A   1      42.463  26.481  29.467  1.00  0.00     0.031 A 
ATOM     27  C   UNL A   1      42.459  30.528  34.588  1.00  0.00     0.049 A 
ATOM     28  C   UNL A   1      43.362  26.630  30.658  1.00  0.00     0.074 A 
ATOM     29  C   UNL A   1      43.362  30.569  35.637  1.00  0.00     0.029 A 
ATOM     30  N   UNL A   1      42.875  29.508  33.745  1.00  0.00    -0.354 N 
ATOM     31  N   UNL A   1      43.271  27.480  31.653  1.00  0.00    -0.248 NA
ATOM     32  C   UNL A   1      44.502  25.710  30.746  1.00  0.00     0.031 C 
ATOM     33  C   UNL A   1      44.343  29.596  35.410  1.00  0.00     0.029 A 
ATOM     34  C   UNL A   1      44.025  28.919  34.244  1.00  0.00     0.049 A 
ATOM     35  H   UNL A   1      42.420  29.242  32.913  1.00  0.00     0.167 HD
ATOM     36  C   UNL A   1      44.343  27.196  32.488  1.00  0.00     0.074 A 
ATOM     37  C   UNL A   1      45.047  26.074  31.898  1.00  0.00     0.031 C 
ATOM     38  C   UNL A   1      44.718  27.813  33.635  1.00  0.00     0.031 A 
BRANCH  25  39
ATOM     39  C   UNL A   1      40.985  32.422  35.387  1.00  0.00    -0.014 A 
ATOM     40  C   UNL A   1      40.178  32.143  36.505  1.00  0.00     0.010 A 
ATOM     41  C   UNL A   1      41.551  33.703  35.256  1.00  0.00     0.010 A 
ATOM     42  C   UNL A   1      39.919  33.135  37.456  1.00  0.00     0.020 A 
ATOM     43  C   UNL A   1      41.312  34.691  36.217  1.00  0.00     0.020 A 
ATOM     44  C   UNL A   1      40.484  34.403  37.304  1.00  0.00     0.054 A 
BRANCH  44  45
ATOM     45  S   UNL A   1      40.154  35.663  38.567  1.00  0.00     0.124 S 
ATOM     46  O   UNL A   1      38.982  35.111  39.243  1.00  0.00    -0.237 OA
ATOM     47  O   UNL A   1      41.386  35.666  39.351  1.00  0.00    -0.237 OA
ATOM     48  O   UNL A   1      39.910  36.878  37.792  1.00  0.00    -0.744 OA
ENDBRANCH  44  45
ENDBRANCH  25  39
BRANCH  26  49
ATOM     49  C   UNL A   1      42.727  25.456  28.421  1.00  0.00    -0.014 A 
ATOM     50  C   UNL A   1      43.601  25.722  27.354  1.00  0.00     0.010 A 
ATOM     51  C   UNL A   1      42.116  24.191  28.511  1.00  0.00     0.010 A 
ATOM     52  C   UNL A   1      43.847  24.746  26.384  1.00  0.00     0.020 A 
ATOM     53  C   UNL A   1      42.383  23.204  27.560  1.00  0.00     0.020 A 
ATOM     54  C   UNL A   1      43.235  23.494  26.494  1.00  0.00     0.054 A 
BRANCH  54  55
ATOM     55  S   UNL A   1      43.603  22.220  25.256  1.00  0.00     0.124 S 
ATOM     56  O   UNL A   1      42.585  21.216  25.545  1.00  0.00    -0.237 OA
ATOM     57  O   UNL A   1      43.442  22.942  23.996  1.00  0.00    -0.237 OA
ATOM     58  O   UNL A   1      44.976  21.830  25.568  1.00  0.00    -0.744 OA
ENDBRANCH  54  55
ENDBRANCH  26  49
BRANCH  38  59
ATOM     59  C   UNL A   1      45.939  27.273  34.324  1.00  0.00    -0.014 A 
ATOM     60  C   UNL A   1      45.837  26.244  35.278  1.00  0.00     0.010 A 
ATOM     61  C   UNL A   1      47.207  27.794  34.006  1.00  0.00     0.010 A 
ATOM     62  C   UNL A   1      46.977  25.774  35.934  1.00  0.00     0.020 A 
ATOM     63  C   UNL A   1      48.352  27.310  34.643  1.00  0.00     0.020 A 
ATOM     64  C   UNL A   1      48.226  26.316  35.617  1.00  0.00     0.054 A 
BRANCH  64  65
ATOM     65  S   UNL A   1      49.697  25.682  36.470  1.00  0.00     0.124 S 
ATOM     66  O   UNL A   1      50.623  25.474  35.360  1.00  0.00    -0.237 OA
ATOM     67  O   UNL A   1      50.041  26.773  37.378  1.00  0.00    -0.237 OA
ATOM     68  O   UNL A   1      49.219  24.465  37.121  1.00  0.00    -0.744 OA
ENDBRANCH  64  65
ENDBRANCH  38  59
ENDBRANCH  12  13
ENDBRANCH   5   7
ENDBRANCH   2   3
ENDBRANCH   1   2
BRANCH   1  69
ATOM     69  C   UNL A   1      32.027  27.558  26.244  1.00  0.00     0.023 C 
BRANCH  69  70
ATOM     70  C   UNL A   1      32.578  26.164  26.540  1.00  0.00     0.116 C 
BRANCH  70  71
ATOM     71  N   UNL A   1      31.559  25.274  27.052  1.00  0.00    -0.351 N 
ATOM     72  C   UNL A   1      30.958  24.210  26.444  1.00  0.00     0.283 C 
ATOM     73  H   UNL A   1      31.256  25.463  27.969  1.00  0.00     0.163 HD
ATOM     74  O   UNL A   1      30.070  23.624  27.077  1.00  0.00    -0.268 OA
BRANCH  72  75
ATOM     75  C   UNL A   1      31.389  23.704  25.032  1.00  0.00     0.306 C 
BRANCH  75  76
ATOM     76  C   UNL A   1      31.340  24.858  24.017  1.00  0.00     0.023 A 
ATOM     77  C   UNL A   1      30.217  25.685  23.832  1.00  0.00     0.011 A 
ATOM     78  C   UNL A   1      32.452  25.069  23.179  1.00  0.00     0.056 A 
ATOM     79  C   UNL A   1      30.204  26.682  22.851  1.00  0.00     0.004 A 
ATOM     80  C   UNL A   1      32.416  26.041  22.181  1.00  0.00     0.116 A 
ATOM     81  C   UNL A   1      31.303  26.856  22.015  1.00  0.00     0.046 A 
BRANCH  80  82
ATOM     82  O   UNL A   1      33.497  26.144  21.358  1.00  0.00    -0.508 OA
ATOM     83  H   UNL A   1      33.392  26.051  20.432  1.00  0.00     0.293 HD
ENDBRANCH  80  82
ENDBRANCH  75  76
BRANCH  75  84
ATOM     84  N   UNL A   1      32.666  22.923  25.062  1.00  0.00    -0.312 N 
ATOM     85  C   UNL A   1      33.254  22.701  26.399  1.00  0.00     0.325 C 
ATOM     86  C   UNL A   1      32.636  21.747  24.177  1.00  0.00     0.325 C 
ATOM     87  H   UNL A   1      33.358  23.547  24.648  1.00  0.00     0.349 HD
ATOM     88  C   UNL A   1      33.866  21.321  26.778  1.00  0.00     0.324 C 
ATOM     89  C   UNL A   1      32.945  20.385  24.809  1.00  0.00     0.324 C 
ATOM     90  N   UNL A   1      34.115  20.379  25.685  1.00  0.00    -0.323 N 
ATOM     91  H   UNL A   1      34.200  19.426  26.039  1.00  0.00     0.348 HD
BRANCH  90  92
ATOM     92  C   UNL A   1      35.439  20.505  25.071  1.00  0.00     0.184 C 
ATOM     93  C   UNL A   1      36.400  21.520  25.702  1.00  0.00     0.065 C 
ATOM     94  C   UNL A   1      36.323  19.259  24.885  1.00  0.00     0.065 C 
ATOM     95  C   UNL A   1      37.689  21.290  24.928  1.00  0.00     0.006 C 
ATOM     96  C   UNL A   1      37.755  19.780  24.733  1.00  0.00     0.006 C 
ENDBRANCH  90  92
ENDBRANCH  75  84
ENDBRANCH  72  75
ENDBRANCH  70  71
ENDBRANCH  69  70
ENDBRANCH   1  69
TORSDOF 18
ENDMDL
