MODEL 1
REMARK VINA RESULT:     -10.1      0.000      0.000
REMARK SMILES CC[C@H](NC(=O)c1ccc(C)nc1)C(=O)NCCCCNC(=O)c1ccc(-c2c3nc(c(-c4ccc(S(=O)(=O)[O-])cc4)c4ccc([nH]4)c(-c4ccc(S(=O)(=O)[O-])cc4)c4nc(c(-c5ccc(S(=O)(=O)[O-])cc5)c5ccc2[nH]5)C=C4)C=C3)cc1
REMARK SMILES IDX 19 1 18 2 17 3 16 4 14 5 15 6 3 8 2 9 1 10 4 11 5 12 6 14
REMARK SMILES IDX 7 15 8 16 13 17 9 18 12 19 10 20 11 21 20 22 21 23 22 24
REMARK SMILES IDX 23 26 24 27 25 28 83 29 26 30 82 31 27 32 28 33 29 34 76 35
REMARK SMILES IDX 30 36 81 37 75 38 77 39 31 40 80 41 74 42 73 43 32 45 62 46
REMARK SMILES IDX 43 47 61 48 44 49 47 50 60 51 78 52 45 53 46 54 59 56 79 57
REMARK SMILES IDX 48 58 33 59 34 60 42 61 35 62 41 63 36 64 37 65 38 66 39 67
REMARK SMILES IDX 40 68 63 69 64 70 72 71 65 72 71 73 66 74 67 75 68 76 69 77
REMARK SMILES IDX 70 78 49 79 50 80 58 81 51 82 57 83 52 84 53 85 54 86 55 87
REMARK SMILES IDX 56 88
REMARK H PARENT 16 7 4 13 21 25 77 44 47 55
REMARK Flexibility Score: inf
ROOT
ATOM      1  C   UNL A   1      32.690  27.730  26.842  1.00  0.00     0.023 C 
ENDROOT
BRANCH   1   2
ATOM      2  C   UNL A   1      31.388  27.513  26.074  1.00  0.00     0.023 C 
BRANCH   2   3
ATOM      3  C   UNL A   1      30.905  26.095  25.786  1.00  0.00     0.116 C 
BRANCH   3   4
ATOM      4  N   UNL A   1      31.389  25.034  26.636  1.00  0.00    -0.354 N 
ATOM      5  C   UNL A   1      31.983  23.856  26.326  1.00  0.00     0.242 C 
ATOM      6  O   UNL A   1      32.697  23.343  27.196  1.00  0.00    -0.273 OA
ATOM      7  H   UNL A   1      31.270  25.192  27.601  1.00  0.00     0.163 HD
BRANCH   5   8
ATOM      8  C   UNL A   1      31.885  23.198  24.942  1.00  0.00     0.171 C 
BRANCH   8   9
ATOM      9  C   UNL A   1      32.146  21.667  25.001  1.00  0.00     0.032 C 
ATOM     10  C   UNL A   1      32.380  20.942  23.680  1.00  0.00     0.006 C 
ENDBRANCH   8   9
BRANCH   8  11
ATOM     11  N   UNL A   1      32.683  23.794  23.860  1.00  0.00    -0.340 N 
ATOM     12  C   UNL A   1      34.002  24.153  23.731  1.00  0.00     0.253 C 
ATOM     13  H   UNL A   1      32.154  23.977  23.050  1.00  0.00     0.164 HD
ATOM     14  O   UNL A   1      34.223  25.043  22.904  1.00  0.00    -0.269 OA
BRANCH  12  15
ATOM     15  C   UNL A   1      35.165  23.472  24.361  1.00  0.00     0.058 A 
ATOM     16  C   UNL A   1      35.855  22.359  23.897  1.00  0.00     0.017 A 
ATOM     17  C   UNL A   1      35.715  24.104  25.477  1.00  0.00     0.125 A 
ATOM     18  C   UNL A   1      37.101  22.020  24.443  1.00  0.00     0.024 A 
ATOM     19  N   UNL A   1      36.906  23.780  26.050  1.00  0.00    -0.261 NA
ATOM     20  C   UNL A   1      37.610  22.773  25.494  1.00  0.00     0.037 A 
ATOM     21  C   UNL A   1      38.964  22.483  26.071  1.00  0.00     0.066 C 
ENDBRANCH  12  15
ENDBRANCH   8  11
ENDBRANCH   5   8
ENDBRANCH   3   4
ENDBRANCH   2   3
ENDBRANCH   1   2
BRANCH   1  22
ATOM     22  C   UNL A   1      33.665  28.784  26.344  1.00  0.00     0.116 C 
BRANCH  22  23
ATOM     23  N   UNL A   1      33.562  30.025  27.079  1.00  0.00    -0.352 N 
ATOM     24  C   UNL A   1      34.445  30.581  27.969  1.00  0.00     0.251 C 
ATOM     25  H   UNL A   1      32.741  30.544  26.918  1.00  0.00     0.163 HD
ATOM     26  O   UNL A   1      34.078  31.552  28.633  1.00  0.00    -0.269 OA
BRANCH  24  27
ATOM     27  C   UNL A   1      35.818  30.043  28.150  1.00  0.00     0.039 A 
ATOM     28  C   UNL A   1      36.153  29.496  29.394  1.00  0.00     0.014 A 
ATOM     29  C   UNL A   1      36.805  30.153  27.163  1.00  0.00     0.014 A 
ATOM     30  C   UNL A   1      37.460  29.074  29.650  1.00  0.00     0.010 A 
ATOM     31  C   UNL A   1      38.095  29.668  27.397  1.00  0.00     0.010 A 
ATOM     32  C   UNL A   1      38.448  29.161  28.656  1.00  0.00    -0.014 A 
BRANCH  32  33
ATOM     33  C   UNL A   1      39.860  28.808  28.967  1.00  0.00     0.031 A 
ATOM     34  C   UNL A   1      40.741  29.790  29.699  1.00  0.00     0.074 A 
ATOM     35  C   UNL A   1      40.353  27.607  28.609  1.00  0.00     0.049 A 
ATOM     36  N   UNL A   1      41.976  29.644  30.113  1.00  0.00    -0.248 NA
ATOM     37  C   UNL A   1      40.169  31.115  29.988  1.00  0.00     0.031 C 
ATOM     38  C   UNL A   1      39.620  26.576  27.870  1.00  0.00     0.029 A 
ATOM     39  N   UNL A   1      41.586  27.044  28.830  1.00  0.00    -0.354 N 
ATOM     40  C   UNL A   1      42.329  30.857  30.695  1.00  0.00     0.074 A 
ATOM     41  C   UNL A   1      41.199  31.744  30.536  1.00  0.00     0.031 C 
ATOM     42  C   UNL A   1      40.404  25.493  27.734  1.00  0.00     0.029 A 
ATOM     43  C   UNL A   1      41.700  25.759  28.354  1.00  0.00     0.049 A 
ATOM     44  H   UNL A   1      42.319  27.516  29.288  1.00  0.00     0.167 HD
ATOM     45  C   UNL A   1      43.480  31.199  31.325  1.00  0.00     0.031 A 
ATOM     46  C   UNL A   1      42.725  24.886  28.421  1.00  0.00     0.031 A 
ATOM     47  C   UNL A   1      44.598  30.312  31.504  1.00  0.00     0.049 A 
ATOM     48  C   UNL A   1      43.986  25.281  29.143  1.00  0.00     0.074 A 
ATOM     49  C   UNL A   1      45.785  30.548  32.176  1.00  0.00     0.029 A 
ATOM     50  N   UNL A   1      44.669  29.019  31.012  1.00  0.00    -0.354 N 
ATOM     51  N   UNL A   1      44.274  26.411  29.744  1.00  0.00    -0.248 NA
ATOM     52  C   UNL A   1      45.052  24.271  29.213  1.00  0.00     0.031 C 
ATOM     53  C   UNL A   1      46.591  29.411  32.054  1.00  0.00     0.029 A 
ATOM     54  C   UNL A   1      45.884  28.449  31.351  1.00  0.00     0.049 A 
ATOM     55  H   UNL A   1      43.959  28.571  30.496  1.00  0.00     0.167 HD
ATOM     56  C   UNL A   1      45.539  26.234  30.296  1.00  0.00     0.074 A 
ATOM     57  C   UNL A   1      45.955  24.886  29.964  1.00  0.00     0.031 C 
ATOM     58  C   UNL A   1      46.285  27.106  31.018  1.00  0.00     0.031 A 
BRANCH  45  59
ATOM     59  C   UNL A   1      43.586  32.603  31.862  1.00  0.00    -0.014 A 
ATOM     60  C   UNL A   1      43.250  32.901  33.195  1.00  0.00     0.010 A 
ATOM     61  C   UNL A   1      44.057  33.635  31.030  1.00  0.00     0.010 A 
ATOM     62  C   UNL A   1      43.335  34.212  33.671  1.00  0.00     0.020 A 
ATOM     63  C   UNL A   1      44.171  34.943  31.510  1.00  0.00     0.020 A 
ATOM     64  C   UNL A   1      43.789  35.227  32.823  1.00  0.00     0.054 A 
BRANCH  64  65
ATOM     65  S   UNL A   1      43.900  36.919  33.465  1.00  0.00     0.124 S 
ATOM     66  O   UNL A   1      42.597  37.080  34.110  1.00  0.00    -0.237 OA
ATOM     67  O   UNL A   1      45.043  36.843  34.378  1.00  0.00    -0.237 OA
ATOM     68  O   UNL A   1      44.111  37.731  32.275  1.00  0.00    -0.744 OA
ENDBRANCH  64  65
ENDBRANCH  45  59
BRANCH  46  69
ATOM     69  C   UNL A   1      42.585  23.529  27.826  1.00  0.00    -0.014 A 
ATOM     70  C   UNL A   1      43.058  23.268  26.527  1.00  0.00     0.010 A 
ATOM     71  C   UNL A   1      41.986  22.488  28.557  1.00  0.00     0.010 A 
ATOM     72  C   UNL A   1      42.913  21.999  25.961  1.00  0.00     0.020 A 
ATOM     73  C   UNL A   1      41.863  21.209  28.004  1.00  0.00     0.020 A 
ATOM     74  C   UNL A   1      42.316  20.977  26.704  1.00  0.00     0.054 A 
BRANCH  74  75
ATOM     75  S   UNL A   1      42.182  19.323  25.968  1.00  0.00     0.124 S 
ATOM     76  O   UNL A   1      40.746  19.216  25.725  1.00  0.00    -0.237 OA
ATOM     77  O   UNL A   1      43.019  19.437  24.777  1.00  0.00    -0.237 OA
ATOM     78  O   UNL A   1      42.708  18.443  27.009  1.00  0.00    -0.744 OA
ENDBRANCH  74  75
ENDBRANCH  46  69
BRANCH  58  79
ATOM     79  C   UNL A   1      47.611  26.617  31.538  1.00  0.00    -0.014 A 
ATOM     80  C   UNL A   1      48.799  26.802  30.810  1.00  0.00     0.010 A 
ATOM     81  C   UNL A   1      47.668  25.989  32.796  1.00  0.00     0.010 A 
ATOM     82  C   UNL A   1      50.015  26.328  31.311  1.00  0.00     0.020 A 
ATOM     83  C   UNL A   1      48.886  25.539  33.313  1.00  0.00     0.020 A 
ATOM     84  C   UNL A   1      50.049  25.694  32.558  1.00  0.00     0.054 A 
BRANCH  84  85
ATOM     85  S   UNL A   1      51.641  25.106  33.198  1.00  0.00     0.124 S 
ATOM     86  O   UNL A   1      51.436  23.661  33.239  1.00  0.00    -0.237 OA
ATOM     87  O   UNL A   1      52.589  25.578  32.193  1.00  0.00    -0.237 OA
ATOM     88  O   UNL A   1      51.751  25.757  34.502  1.00  0.00    -0.744 OA
ENDBRANCH  84  85
ENDBRANCH  58  79
ENDBRANCH  32  33
ENDBRANCH  24  27
ENDBRANCH  22  23
ENDBRANCH   1  22
TORSDOF 17
ENDMDL
MODEL 2
REMARK VINA RESULT:     -10.0      1.392      2.315
REMARK SMILES CC[C@H](NC(=O)c1ccc(C)nc1)C(=O)NCCCCNC(=O)c1ccc(-c2c3nc(c(-c4ccc(S(=O)(=O)[O-])cc4)c4ccc([nH]4)c(-c4ccc(S(=O)(=O)[O-])cc4)c4nc(c(-c5ccc(S(=O)(=O)[O-])cc5)c5ccc2[nH]5)C=C4)C=C3)cc1
REMARK SMILES IDX 19 1 18 2 17 3 16 4 14 5 15 6 3 8 2 9 1 10 4 11 5 12 6 14
REMARK SMILES IDX 7 15 8 16 13 17 9 18 12 19 10 20 11 21 20 22 21 23 22 24
REMARK SMILES IDX 23 26 24 27 25 28 83 29 26 30 82 31 27 32 28 33 29 34 76 35
REMARK SMILES IDX 30 36 81 37 75 38 77 39 31 40 80 41 74 42 73 43 32 45 62 46
REMARK SMILES IDX 43 47 61 48 44 49 47 50 60 51 78 52 45 53 46 54 59 56 79 57
REMARK SMILES IDX 48 58 33 59 34 60 42 61 35 62 41 63 36 64 37 65 38 66 39 67
REMARK SMILES IDX 40 68 63 69 64 70 72 71 65 72 71 73 66 74 67 75 68 76 69 77
REMARK SMILES IDX 70 78 49 79 50 80 58 81 51 82 57 83 52 84 53 85 54 86 55 87
REMARK SMILES IDX 56 88
REMARK H PARENT 16 7 4 13 21 25 77 44 47 55
REMARK Flexibility Score: inf
ROOT
ATOM      1  C   UNL A   1      32.262  28.297  26.398  1.00  0.00     0.023 C 
ENDROOT
BRANCH   1   2
ATOM      2  C   UNL A   1      31.576  27.030  26.906  1.00  0.00     0.023 C 
BRANCH   2   3
ATOM      3  C   UNL A   1      30.992  26.033  25.911  1.00  0.00     0.116 C 
BRANCH   3   4
ATOM      4  N   UNL A   1      29.820  26.432  25.169  1.00  0.00    -0.354 N 
ATOM      5  C   UNL A   1      29.697  26.926  23.913  1.00  0.00     0.242 C 
ATOM      6  O   UNL A   1      28.606  26.766  23.353  1.00  0.00    -0.273 OA
ATOM      7  H   UNL A   1      28.969  26.328  25.654  1.00  0.00     0.163 HD
BRANCH   5   8
ATOM      8  C   UNL A   1      30.856  27.574  23.142  1.00  0.00     0.171 C 
BRANCH   8   9
ATOM      9  C   UNL A   1      30.467  28.959  22.552  1.00  0.00     0.032 C 
ATOM     10  C   UNL A   1      29.867  29.986  23.507  1.00  0.00     0.006 C 
ENDBRANCH   8   9
BRANCH   8  11
ATOM     11  N   UNL A   1      31.506  26.760  22.104  1.00  0.00    -0.340 N 
ATOM     12  C   UNL A   1      32.703  26.091  22.024  1.00  0.00     0.253 C 
ATOM     13  H   UNL A   1      30.965  26.678  21.286  1.00  0.00     0.164 HD
ATOM     14  O   UNL A   1      33.136  25.929  20.879  1.00  0.00    -0.269 OA
BRANCH  12  15
ATOM     15  C   UNL A   1      33.415  25.424  23.147  1.00  0.00     0.058 A 
ATOM     16  C   UNL A   1      34.155  26.021  24.161  1.00  0.00     0.017 A 
ATOM     17  C   UNL A   1      33.206  24.051  23.278  1.00  0.00     0.125 A 
ATOM     18  C   UNL A   1      34.511  25.288  25.302  1.00  0.00     0.024 A 
ATOM     19  N   UNL A   1      33.567  23.305  24.358  1.00  0.00    -0.261 NA
ATOM     20  C   UNL A   1      34.171  23.944  25.380  1.00  0.00     0.037 A 
ATOM     21  C   UNL A   1      34.482  23.136  26.605  1.00  0.00     0.066 C 
ENDBRANCH  12  15
ENDBRANCH   8  11
ENDBRANCH   5   8
ENDBRANCH   3   4
ENDBRANCH   2   3
ENDBRANCH   1   2
BRANCH   1  22
ATOM     22  C   UNL A   1      33.606  28.688  26.989  1.00  0.00     0.116 C 
BRANCH  22  23
ATOM     23  N   UNL A   1      33.610  30.036  27.511  1.00  0.00    -0.352 N 
ATOM     24  C   UNL A   1      34.590  30.689  28.215  1.00  0.00     0.251 C 
ATOM     25  H   UNL A   1      32.795  30.560  27.336  1.00  0.00     0.163 HD
ATOM     26  O   UNL A   1      34.316  31.772  28.736  1.00  0.00    -0.269 OA
BRANCH  24  27
ATOM     27  C   UNL A   1      35.956  30.125  28.366  1.00  0.00     0.039 A 
ATOM     28  C   UNL A   1      36.308  29.572  29.601  1.00  0.00     0.014 A 
ATOM     29  C   UNL A   1      36.922  30.215  27.356  1.00  0.00     0.014 A 
ATOM     30  C   UNL A   1      37.612  29.124  29.828  1.00  0.00     0.010 A 
ATOM     31  C   UNL A   1      38.208  29.705  27.560  1.00  0.00     0.010 A 
ATOM     32  C   UNL A   1      38.579  29.193  28.812  1.00  0.00    -0.014 A 
BRANCH  32  33
ATOM     33  C   UNL A   1      39.991  28.813  29.090  1.00  0.00     0.031 A 
ATOM     34  C   UNL A   1      40.902  29.770  29.817  1.00  0.00     0.074 A 
ATOM     35  C   UNL A   1      40.457  27.607  28.707  1.00  0.00     0.049 A 
ATOM     36  N   UNL A   1      42.142  29.599  30.205  1.00  0.00    -0.248 NA
ATOM     37  C   UNL A   1      40.359  31.101  30.134  1.00  0.00     0.031 C 
ATOM     38  C   UNL A   1      39.693  26.599  27.971  1.00  0.00     0.029 A 
ATOM     39  N   UNL A   1      41.685  27.022  28.898  1.00  0.00    -0.354 N 
ATOM     40  C   UNL A   1      42.527  30.798  30.794  1.00  0.00     0.074 A 
ATOM     41  C   UNL A   1      41.408  31.706  30.669  1.00  0.00     0.031 C 
ATOM     42  C   UNL A   1      40.456  25.505  27.806  1.00  0.00     0.029 A 
ATOM     43  C   UNL A   1      41.767  25.741  28.404  1.00  0.00     0.049 A 
ATOM     44  H   UNL A   1      42.433  27.476  29.347  1.00  0.00     0.167 HD
ATOM     45  C   UNL A   1      43.695  31.113  31.406  1.00  0.00     0.031 A 
ATOM     46  C   UNL A   1      42.778  24.851  28.440  1.00  0.00     0.031 A 
ATOM     47  C   UNL A   1      44.802  30.206  31.552  1.00  0.00     0.049 A 
ATOM     48  C   UNL A   1      44.060  25.216  29.141  1.00  0.00     0.074 A 
ATOM     49  C   UNL A   1      46.005  30.414  32.204  1.00  0.00     0.029 A 
ATOM     50  N   UNL A   1      44.841  28.918  31.042  1.00  0.00    -0.354 N 
ATOM     51  N   UNL A   1      44.378  26.333  29.751  1.00  0.00    -0.248 NA
ATOM     52  C   UNL A   1      45.110  24.187  29.179  1.00  0.00     0.031 C 
ATOM     53  C   UNL A   1      46.790  29.265  32.051  1.00  0.00     0.029 A 
ATOM     54  C   UNL A   1      46.053  28.324  31.351  1.00  0.00     0.049 A 
ATOM     55  H   UNL A   1      44.114  28.488  30.536  1.00  0.00     0.167 HD
ATOM     56  C   UNL A   1      45.651  26.128  30.275  1.00  0.00     0.074 A 
ATOM     57  C   UNL A   1      46.038  24.779  29.919  1.00  0.00     0.031 C 
ATOM     58  C   UNL A   1      46.426  26.979  30.993  1.00  0.00     0.031 A 
BRANCH  45  59
ATOM     59  C   UNL A   1      43.835  32.509  31.957  1.00  0.00    -0.014 A 
ATOM     60  C   UNL A   1      43.508  32.800  33.294  1.00  0.00     0.010 A 
ATOM     61  C   UNL A   1      44.330  33.538  31.136  1.00  0.00     0.010 A 
ATOM     62  C   UNL A   1      43.624  34.104  33.785  1.00  0.00     0.020 A 
ATOM     63  C   UNL A   1      44.476  34.838  31.630  1.00  0.00     0.020 A 
ATOM     64  C   UNL A   1      44.101  35.116  32.947  1.00  0.00     0.054 A 
BRANCH  64  65
ATOM     65  S   UNL A   1      44.253  36.799  33.607  1.00  0.00     0.124 S 
ATOM     66  O   UNL A   1      42.899  37.317  33.417  1.00  0.00    -0.237 OA
ATOM     67  O   UNL A   1      44.642  36.565  34.999  1.00  0.00    -0.237 OA
ATOM     68  O   UNL A   1      45.277  37.410  32.772  1.00  0.00    -0.744 OA
ENDBRANCH  64  65
ENDBRANCH  45  59
BRANCH  46  69
ATOM     69  C   UNL A   1      42.605  23.504  27.831  1.00  0.00    -0.014 A 
ATOM     70  C   UNL A   1      43.197  23.200  26.592  1.00  0.00     0.010 A 
ATOM     71  C   UNL A   1      41.853  22.515  28.490  1.00  0.00     0.010 A 
ATOM     72  C   UNL A   1      43.021  21.942  26.011  1.00  0.00     0.020 A 
ATOM     73  C   UNL A   1      41.697  21.245  27.925  1.00  0.00     0.020 A 
ATOM     74  C   UNL A   1      42.272  20.972  26.682  1.00  0.00     0.054 A 
BRANCH  74  75
ATOM     75  S   UNL A   1      42.097  19.327  25.934  1.00  0.00     0.124 S 
ATOM     76  O   UNL A   1      42.922  19.450  24.736  1.00  0.00    -0.237 OA
ATOM     77  O   UNL A   1      42.620  18.447  26.976  1.00  0.00    -0.237 OA
ATOM     78  O   UNL A   1      40.660  19.213  25.696  1.00  0.00    -0.744 OA
ENDBRANCH  74  75
ENDBRANCH  46  69
BRANCH  58  79
ATOM     79  C   UNL A   1      47.753  26.462  31.481  1.00  0.00    -0.014 A 
ATOM     80  C   UNL A   1      47.886  25.858  32.743  1.00  0.00     0.010 A 
ATOM     81  C   UNL A   1      48.880  26.557  30.643  1.00  0.00     0.010 A 
ATOM     82  C   UNL A   1      49.133  25.396  33.176  1.00  0.00     0.020 A 
ATOM     83  C   UNL A   1      50.122  26.072  31.062  1.00  0.00     0.020 A 
ATOM     84  C   UNL A   1      50.244  25.512  32.334  1.00  0.00     0.054 A 
BRANCH  84  85
ATOM     85  S   UNL A   1      51.848  24.888  32.908  1.00  0.00     0.124 S 
ATOM     86  O   UNL A   1      52.782  25.644  32.079  1.00  0.00    -0.237 OA
ATOM     87  O   UNL A   1      51.842  25.237  34.327  1.00  0.00    -0.237 OA
ATOM     88  O   UNL A   1      51.782  23.456  32.627  1.00  0.00    -0.744 OA
ENDBRANCH  84  85
ENDBRANCH  58  79
ENDBRANCH  32  33
ENDBRANCH  24  27
ENDBRANCH  22  23
ENDBRANCH   1  22
TORSDOF 17
ENDMDL
MODEL 3
REMARK VINA RESULT:      -9.9      1.557      8.580
REMARK SMILES CC[C@H](NC(=O)c1ccc(C)nc1)C(=O)NCCCCNC(=O)c1ccc(-c2c3nc(c(-c4ccc(S(=O)(=O)[O-])cc4)c4ccc([nH]4)c(-c4ccc(S(=O)(=O)[O-])cc4)c4nc(c(-c5ccc(S(=O)(=O)[O-])cc5)c5ccc2[nH]5)C=C4)C=C3)cc1
REMARK SMILES IDX 19 1 18 2 17 3 16 4 14 5 15 6 3 8 2 9 1 10 4 11 5 12 6 14
REMARK SMILES IDX 7 15 8 16 13 17 9 18 12 19 10 20 11 21 20 22 21 23 22 24
REMARK SMILES IDX 23 26 24 27 25 28 83 29 26 30 82 31 27 32 28 33 29 34 76 35
REMARK SMILES IDX 30 36 81 37 75 38 77 39 31 40 80 41 74 42 73 43 32 45 62 46
REMARK SMILES IDX 43 47 61 48 44 49 47 50 60 51 78 52 45 53 46 54 59 56 79 57
REMARK SMILES IDX 48 58 33 59 34 60 42 61 35 62 41 63 36 64 37 65 38 66 39 67
REMARK SMILES IDX 40 68 63 69 64 70 72 71 65 72 71 73 66 74 67 75 68 76 69 77
REMARK SMILES IDX 70 78 49 79 50 80 58 81 51 82 57 83 52 84 53 85 54 86 55 87
REMARK SMILES IDX 56 88
REMARK H PARENT 16 7 4 13 21 25 77 44 47 55
REMARK Flexibility Score: inf
ROOT
ATOM      1  C   UNL A   1      32.559  27.944  26.007  1.00  0.00     0.023 C 
ENDROOT
BRANCH   1   2
ATOM      2  C   UNL A   1      31.427  27.045  26.502  1.00  0.00     0.023 C 
BRANCH   2   3
ATOM      3  C   UNL A   1      30.960  25.873  25.646  1.00  0.00     0.116 C 
BRANCH   3   4
ATOM      4  N   UNL A   1      30.071  24.910  26.253  1.00  0.00    -0.354 N 
ATOM      5  C   UNL A   1      30.301  23.647  26.684  1.00  0.00     0.242 C 
ATOM      6  O   UNL A   1      29.538  23.204  27.551  1.00  0.00    -0.273 OA
ATOM      7  H   UNL A   1      29.145  25.223  26.373  1.00  0.00     0.163 HD
BRANCH   5   8
ATOM      8  C   UNL A   1      31.497  22.800  26.223  1.00  0.00     0.171 C 
BRANCH   8   9
ATOM      9  C   UNL A   1      32.805  23.174  26.974  1.00  0.00     0.032 C 
ATOM     10  C   UNL A   1      33.396  22.134  27.919  1.00  0.00     0.006 C 
ENDBRANCH   8   9
BRANCH   8  11
ATOM     11  N   UNL A   1      31.756  22.740  24.777  1.00  0.00    -0.340 N 
ATOM     12  C   UNL A   1      32.564  21.965  23.982  1.00  0.00     0.253 C 
ATOM     13  H   UNL A   1      31.236  23.402  24.266  1.00  0.00     0.164 HD
ATOM     14  O   UNL A   1      32.899  22.485  22.913  1.00  0.00    -0.269 OA
BRANCH  12  15
ATOM     15  C   UNL A   1      32.925  20.541  24.216  1.00  0.00     0.058 A 
ATOM     16  C   UNL A   1      32.176  19.411  23.911  1.00  0.00     0.017 A 
ATOM     17  C   UNL A   1      34.223  20.303  24.671  1.00  0.00     0.125 A 
ATOM     18  C   UNL A   1      32.773  18.142  23.919  1.00  0.00     0.024 A 
ATOM     19  N   UNL A   1      34.821  19.082  24.722  1.00  0.00    -0.261 NA
ATOM     20  C   UNL A   1      34.105  18.021  24.297  1.00  0.00     0.037 A 
ATOM     21  C   UNL A   1      34.801  16.693  24.267  1.00  0.00     0.066 C 
ENDBRANCH  12  15
ENDBRANCH   8  11
ENDBRANCH   5   8
ENDBRANCH   3   4
ENDBRANCH   2   3
ENDBRANCH   1   2
BRANCH   1  22
ATOM     22  C   UNL A   1      33.670  28.320  26.973  1.00  0.00     0.116 C 
BRANCH  22  23
ATOM     23  N   UNL A   1      33.592  29.700  27.396  1.00  0.00    -0.352 N 
ATOM     24  C   UNL A   1      34.521  30.455  28.067  1.00  0.00     0.251 C 
ATOM     25  H   UNL A   1      32.753  30.165  27.171  1.00  0.00     0.163 HD
ATOM     26  O   UNL A   1      34.179  31.555  28.503  1.00  0.00    -0.269 OA
BRANCH  24  27
ATOM     27  C   UNL A   1      35.911  29.978  28.280  1.00  0.00     0.039 A 
ATOM     28  C   UNL A   1      36.262  29.517  29.553  1.00  0.00     0.014 A 
ATOM     29  C   UNL A   1      36.896  30.066  27.288  1.00  0.00     0.014 A 
ATOM     30  C   UNL A   1      37.583  29.157  29.834  1.00  0.00     0.010 A 
ATOM     31  C   UNL A   1      38.203  29.643  27.550  1.00  0.00     0.010 A 
ATOM     32  C   UNL A   1      38.570  29.223  28.837  1.00  0.00    -0.014 A 
BRANCH  32  33
ATOM     33  C   UNL A   1      39.993  28.940  29.168  1.00  0.00     0.031 A 
ATOM     34  C   UNL A   1      40.606  27.612  28.797  1.00  0.00     0.074 A 
ATOM     35  C   UNL A   1      40.744  29.872  29.788  1.00  0.00     0.049 A 
ATOM     36  N   UNL A   1      41.842  27.202  28.945  1.00  0.00    -0.248 NA
ATOM     37  C   UNL A   1      39.713  26.607  28.199  1.00  0.00     0.031 C 
ATOM     38  C   UNL A   1      40.269  31.185  30.230  1.00  0.00     0.029 A 
ATOM     39  N   UNL A   1      42.071  29.862  30.141  1.00  0.00    -0.354 N 
ATOM     40  C   UNL A   1      41.868  25.893  28.474  1.00  0.00     0.074 A 
ATOM     41  C   UNL A   1      40.517  25.561  28.083  1.00  0.00     0.031 C 
ATOM     42  C   UNL A   1      41.298  31.868  30.759  1.00  0.00     0.029 A 
ATOM     43  C   UNL A   1      42.498  31.036  30.715  1.00  0.00     0.049 A 
ATOM     44  H   UNL A   1      42.660  29.088  29.995  1.00  0.00     0.167 HD
ATOM     45  C   UNL A   1      42.922  25.049  28.355  1.00  0.00     0.031 A 
ATOM     46  C   UNL A   1      43.720  31.408  31.145  1.00  0.00     0.031 A 
ATOM     47  C   UNL A   1      44.271  25.384  28.724  1.00  0.00     0.049 A 
ATOM     48  C   UNL A   1      44.880  30.461  30.986  1.00  0.00     0.074 A 
ATOM     49  C   UNL A   1      45.416  24.617  28.590  1.00  0.00     0.029 A 
ATOM     50  N   UNL A   1      44.661  26.585  29.296  1.00  0.00    -0.354 N 
ATOM     51  N   UNL A   1      44.895  29.253  30.476  1.00  0.00    -0.248 NA
ATOM     52  C   UNL A   1      46.193  30.942  31.440  1.00  0.00     0.031 C 
ATOM     53  C   UNL A   1      46.491  25.339  29.121  1.00  0.00     0.029 A 
ATOM     54  C   UNL A   1      46.024  26.575  29.536  1.00  0.00     0.049 A 
ATOM     55  H   UNL A   1      44.056  27.335  29.502  1.00  0.00     0.167 HD
ATOM     56  C   UNL A   1      46.224  28.843  30.515  1.00  0.00     0.074 A 
ATOM     57  C   UNL A   1      46.982  29.935  31.088  1.00  0.00     0.031 C 
ATOM     58  C   UNL A   1      46.768  27.670  30.105  1.00  0.00     0.031 A 
BRANCH  45  59
ATOM     59  C   UNL A   1      42.650  23.672  27.809  1.00  0.00    -0.014 A 
ATOM     60  C   UNL A   1      42.245  22.620  28.651  1.00  0.00     0.010 A 
ATOM     61  C   UNL A   1      42.770  23.432  26.428  1.00  0.00     0.010 A 
ATOM     62  C   UNL A   1      42.016  21.343  28.131  1.00  0.00     0.020 A 
ATOM     63  C   UNL A   1      42.513  22.164  25.899  1.00  0.00     0.020 A 
ATOM     64  C   UNL A   1      42.158  21.121  26.758  1.00  0.00     0.054 A 
BRANCH  64  65
ATOM     65  S   UNL A   1      41.846  19.459  26.104  1.00  0.00     0.124 S 
ATOM     66  O   UNL A   1      42.695  19.443  24.912  1.00  0.00    -0.237 OA
ATOM     67  O   UNL A   1      42.291  18.593  27.198  1.00  0.00    -0.237 OA
ATOM     68  O   UNL A   1      40.413  19.447  25.848  1.00  0.00    -0.744 OA
ENDBRANCH  64  65
ENDBRANCH  45  59
BRANCH  46  69
ATOM     69  C   UNL A   1      43.922  32.763  31.728  1.00  0.00    -0.014 A 
ATOM     70  C   UNL A   1      43.777  32.972  33.112  1.00  0.00     0.010 A 
ATOM     71  C   UNL A   1      44.267  33.849  30.905  1.00  0.00     0.010 A 
ATOM     72  C   UNL A   1      43.951  34.247  33.658  1.00  0.00     0.020 A 
ATOM     73  C   UNL A   1      44.467  35.121  31.451  1.00  0.00     0.020 A 
ATOM     74  C   UNL A   1      44.295  35.313  32.823  1.00  0.00     0.054 A 
BRANCH  74  75
ATOM     75  S   UNL A   1      44.563  36.950  33.560  1.00  0.00     0.124 S 
ATOM     76  O   UNL A   1      45.743  36.720  34.388  1.00  0.00    -0.237 OA
ATOM     77  O   UNL A   1      44.770  37.796  32.386  1.00  0.00    -0.237 OA
ATOM     78  O   UNL A   1      43.323  37.203  34.290  1.00  0.00    -0.744 OA
ENDBRANCH  74  75
ENDBRANCH  46  69
BRANCH  58  79
ATOM     79  C   UNL A   1      48.262  27.522  30.220  1.00  0.00    -0.014 A 
ATOM     80  C   UNL A   1      49.122  27.929  29.186  1.00  0.00     0.010 A 
ATOM     81  C   UNL A   1      48.813  26.994  31.403  1.00  0.00     0.010 A 
ATOM     82  C   UNL A   1      50.505  27.771  29.315  1.00  0.00     0.020 A 
ATOM     83  C   UNL A   1      50.196  26.858  31.546  1.00  0.00     0.020 A 
ATOM     84  C   UNL A   1      51.033  27.231  30.492  1.00  0.00     0.054 A 
BRANCH  84  85
ATOM     85  S   UNL A   1      52.831  27.052  30.646  1.00  0.00     0.124 S 
ATOM     86  O   UNL A   1      53.269  27.179  29.259  1.00  0.00    -0.237 OA
ATOM     87  O   UNL A   1      53.193  28.163  31.523  1.00  0.00    -0.237 OA
ATOM     88  O   UNL A   1      52.998  25.724  31.233  1.00  0.00    -0.744 OA
ENDBRANCH  84  85
ENDBRANCH  58  79
ENDBRANCH  32  33
ENDBRANCH  24  27
ENDBRANCH  22  23
ENDBRANCH   1  22
TORSDOF 17
ENDMDL
