MODEL 1
REMARK VINA RESULT:     -11.8      0.000      0.000
REMARK SMILES O=C(NCCCCNC(=O)[C@@H]1CCCC[C@@H]1C(=O)Nc1cccc(C(F)(F)F)c1)c1ccc(-c2c3nc(c(-c4ccc(S(=O)(=O)[O-])cc4)c4ccc([nH]4)c(-c4ccc(S(=O)(=O)[O-])cc4)c4nc(c(-c5ccc(S(=O)(=O)[O-])cc5)c5ccc2[nH]5)C=C4)C=C3)cc1
REMARK SMILES IDX 5 1 4 2 3 3 1 4 2 5 30 7 31 8 89 9 32 10 88 11 33 12 34 13
REMARK SMILES IDX 35 14 82 15 36 16 87 17 81 18 83 19 37 20 86 21 80 22 79 23
REMARK SMILES IDX 38 25 68 26 49 27 67 28 50 29 53 30 66 31 84 32 51 33 52 34
REMARK SMILES IDX 65 36 85 37 54 38 39 39 40 40 48 41 41 42 47 43 42 44 43 45
REMARK SMILES IDX 44 46 45 47 46 48 69 49 70 50 78 51 71 52 77 53 72 54 73 55
REMARK SMILES IDX 74 56 75 57 76 58 55 59 56 60 64 61 57 62 63 63 58 64 59 65
REMARK SMILES IDX 60 66 61 67 62 68 6 69 7 70 8 71 9 72 10 74 11 75 12 76
REMARK SMILES IDX 16 77 13 78 15 79 14 80 17 81 18 82 19 83 20 85 21 86 29 87
REMARK SMILES IDX 22 88 24 89 23 90 25 91 26 92 27 93 28 94
REMARK H PARENT 3 6 83 24 53 35 8 73 19 84
REMARK Flexibility Score: inf
ROOT
ATOM      1  C   UNL A   1      38.477  19.587  24.871  1.00  0.00     0.023 C 
ENDROOT
BRANCH   1   2
ATOM      2  C   UNL A   1      39.532  19.851  25.942  1.00  0.00     0.116 C 
BRANCH   2   3
ATOM      3  N   UNL A   1      40.643  18.919  25.925  1.00  0.00    -0.352 N 
ATOM      4  O   UNL A   1      42.800  18.278  26.075  1.00  0.00    -0.269 OA
ATOM      5  C   UNL A   1      41.972  19.182  26.159  1.00  0.00     0.251 C 
ATOM      6  H   UNL A   1      40.418  17.982  25.722  1.00  0.00     0.163 HD
BRANCH   5   7
ATOM      7  C   UNL A   1      42.413  20.563  26.467  1.00  0.00     0.039 A 
ATOM      8  C   UNL A   1      42.538  21.013  27.786  1.00  0.00     0.014 A 
ATOM      9  C   UNL A   1      42.729  21.416  25.405  1.00  0.00     0.014 A 
ATOM     10  C   UNL A   1      42.903  22.337  28.038  1.00  0.00     0.010 A 
ATOM     11  C   UNL A   1      43.134  22.729  25.661  1.00  0.00     0.010 A 
ATOM     12  C   UNL A   1      43.214  23.207  26.978  1.00  0.00    -0.014 A 
BRANCH  12  13
ATOM     13  C   UNL A   1      43.719  24.579  27.250  1.00  0.00     0.031 A 
ATOM     14  C   UNL A   1      42.787  25.695  27.638  1.00  0.00     0.074 A 
ATOM     15  C   UNL A   1      45.036  24.826  27.099  1.00  0.00     0.049 A 
ATOM     16  N   UNL A   1      43.063  26.956  27.854  1.00  0.00    -0.248 NA
ATOM     17  C   UNL A   1      41.363  25.358  27.796  1.00  0.00     0.031 C 
ATOM     18  C   UNL A   1      46.040  23.834  26.704  1.00  0.00     0.029 A 
ATOM     19  N   UNL A   1      45.756  25.986  27.244  1.00  0.00    -0.354 N 
ATOM     20  C   UNL A   1      41.852  27.569  28.157  1.00  0.00     0.074 A 
ATOM     21  C   UNL A   1      40.834  26.541  28.085  1.00  0.00     0.031 C 
ATOM     22  C   UNL A   1      47.243  24.426  26.643  1.00  0.00     0.029 A 
ATOM     23  C   UNL A   1      47.090  25.844  26.946  1.00  0.00     0.049 A 
ATOM     24  H   UNL A   1      45.354  26.837  27.533  1.00  0.00     0.167 HD
ATOM     25  C   UNL A   1      41.613  28.866  28.466  1.00  0.00     0.031 A 
ATOM     26  C   UNL A   1      48.079  26.756  26.888  1.00  0.00     0.031 A 
ATOM     27  C   UNL A   1      42.630  29.885  28.544  1.00  0.00     0.049 A 
ATOM     28  C   UNL A   1      47.777  28.194  27.201  1.00  0.00     0.074 A 
ATOM     29  C   UNL A   1      42.488  31.210  28.925  1.00  0.00     0.029 A 
ATOM     30  N   UNL A   1      43.965  29.704  28.224  1.00  0.00    -0.354 N 
ATOM     31  N   UNL A   1      46.638  28.734  27.561  1.00  0.00    -0.248 NA
ATOM     32  C   UNL A   1      48.892  29.145  27.097  1.00  0.00     0.031 C 
ATOM     33  C   UNL A   1      43.726  31.843  28.778  1.00  0.00     0.029 A 
ATOM     34  C   UNL A   1      44.650  30.901  28.357  1.00  0.00     0.049 A 
ATOM     35  H   UNL A   1      44.369  28.851  27.944  1.00  0.00     0.167 HD
ATOM     36  C   UNL A   1      46.902  30.088  27.734  1.00  0.00     0.074 A 
ATOM     37  C   UNL A   1      48.313  30.279  27.467  1.00  0.00     0.031 C 
ATOM     38  C   UNL A   1      46.050  31.084  28.077  1.00  0.00     0.031 A 
BRANCH  25  39
ATOM     39  C   UNL A   1      40.193  29.288  28.734  1.00  0.00    -0.014 A 
ATOM     40  C   UNL A   1      39.770  29.638  30.028  1.00  0.00     0.010 A 
ATOM     41  C   UNL A   1      39.303  29.452  27.655  1.00  0.00     0.010 A 
ATOM     42  C   UNL A   1      38.481  30.136  30.239  1.00  0.00     0.020 A 
ATOM     43  C   UNL A   1      38.020  29.967  27.860  1.00  0.00     0.020 A 
ATOM     44  C   UNL A   1      37.614  30.300  29.153  1.00  0.00     0.054 A 
BRANCH  44  45
ATOM     45  S   UNL A   1      35.972  31.015  29.448  1.00  0.00     0.124 S 
ATOM     46  O   UNL A   1      35.826  30.844  30.892  1.00  0.00    -0.237 OA
ATOM     47  O   UNL A   1      36.134  32.393  28.993  1.00  0.00    -0.237 OA
ATOM     48  O   UNL A   1      35.083  30.193  28.632  1.00  0.00    -0.744 OA
ENDBRANCH  44  45
ENDBRANCH  25  39
BRANCH  26  49
ATOM     49  C   UNL A   1      49.447  26.343  26.471  1.00  0.00    -0.014 A 
ATOM     50  C   UNL A   1      49.903  26.585  25.164  1.00  0.00     0.010 A 
ATOM     51  C   UNL A   1      50.295  25.695  27.386  1.00  0.00     0.010 A 
ATOM     52  C   UNL A   1      51.177  26.161  24.772  1.00  0.00     0.020 A 
ATOM     53  C   UNL A   1      51.580  25.296  27.007  1.00  0.00     0.020 A 
ATOM     54  C   UNL A   1      52.005  25.517  25.696  1.00  0.00     0.054 A 
BRANCH  54  55
ATOM     55  S   UNL A   1      53.667  25.005  25.180  1.00  0.00     0.124 S 
ATOM     56  O   UNL A   1      53.577  23.551  25.273  1.00  0.00    -0.237 OA
ATOM     57  O   UNL A   1      53.763  25.548  23.828  1.00  0.00    -0.237 OA
ATOM     58  O   UNL A   1      54.539  25.644  26.163  1.00  0.00    -0.744 OA
ENDBRANCH  54  55
ENDBRANCH  26  49
BRANCH  38  59
ATOM     59  C   UNL A   1      46.622  32.470  28.190  1.00  0.00    -0.014 A 
ATOM     60  C   UNL A   1      47.125  32.945  29.415  1.00  0.00     0.010 A 
ATOM     61  C   UNL A   1      46.690  33.295  27.053  1.00  0.00     0.010 A 
ATOM     62  C   UNL A   1      47.660  34.232  29.507  1.00  0.00     0.020 A 
ATOM     63  C   UNL A   1      47.247  34.574  27.137  1.00  0.00     0.020 A 
ATOM     64  C   UNL A   1      47.716  35.040  28.367  1.00  0.00     0.054 A 
BRANCH  64  65
ATOM     65  S   UNL A   1      48.449  36.693  28.502  1.00  0.00     0.124 S 
ATOM     66  O   UNL A   1      48.281  37.210  27.146  1.00  0.00    -0.237 OA
ATOM     67  O   UNL A   1      47.623  37.330  29.524  1.00  0.00    -0.237 OA
ATOM     68  O   UNL A   1      49.830  36.428  28.902  1.00  0.00    -0.744 OA
ENDBRANCH  64  65
ENDBRANCH  38  59
ENDBRANCH  12  13
ENDBRANCH   5   7
ENDBRANCH   2   3
ENDBRANCH   1   2
BRANCH   1  69
ATOM     69  C   UNL A   1      37.142  20.322  25.037  1.00  0.00     0.023 C 
BRANCH  69  70
ATOM     70  C   UNL A   1      37.222  21.831  25.282  1.00  0.00     0.116 C 
BRANCH  70  71
ATOM     71  N   UNL A   1      36.345  22.287  26.352  1.00  0.00    -0.356 N 
ATOM     72  C   UNL A   1      35.237  23.088  26.337  1.00  0.00     0.223 C 
ATOM     73  H   UNL A   1      36.595  21.961  27.247  1.00  0.00     0.163 HD
ATOM     74  O   UNL A   1      34.596  23.203  27.381  1.00  0.00    -0.275 OA
BRANCH  72  75
ATOM     75  C   UNL A   1      34.798  23.778  25.056  1.00  0.00     0.091 C 
ATOM     76  C   UNL A   1      34.141  25.121  25.396  1.00  0.00     0.014 C 
ATOM     77  C   UNL A   1      33.914  22.893  24.150  1.00  0.00     0.091 C 
ATOM     78  C   UNL A   1      33.833  25.906  24.126  1.00  0.00     0.001 C 
ATOM     79  C   UNL A   1      33.522  23.699  22.883  1.00  0.00     0.014 C 
ATOM     80  C   UNL A   1      32.969  25.105  23.159  1.00  0.00     0.001 C 
BRANCH  77  81
ATOM     81  C   UNL A   1      32.629  22.361  24.800  1.00  0.00     0.228 C 
ATOM     82  O   UNL A   1      31.952  23.084  25.541  1.00  0.00    -0.274 OA
ATOM     83  N   UNL A   1      32.071  21.158  24.482  1.00  0.00    -0.326 N 
ATOM     84  H   UNL A   1      31.109  21.130  24.692  1.00  0.00     0.169 HD
BRANCH  83  85
ATOM     85  C   UNL A   1      32.525  19.950  23.930  1.00  0.00     0.041 A 
ATOM     86  C   UNL A   1      32.142  19.673  22.610  1.00  0.00     0.026 A 
ATOM     87  C   UNL A   1      33.201  18.964  24.633  1.00  0.00     0.039 A 
ATOM     88  C   UNL A   1      32.426  18.440  22.015  1.00  0.00     0.003 A 
ATOM     89  C   UNL A   1      33.442  17.696  24.068  1.00  0.00     0.058 A 
ATOM     90  C   UNL A   1      33.066  17.447  22.746  1.00  0.00     0.013 A 
BRANCH  89  91
ATOM     91  C   UNL A   1      34.029  16.615  24.931  1.00  0.00     0.416 C 
ATOM     92  F   UNL A   1      33.817  15.350  24.481  1.00  0.00    -0.166 F 
ATOM     93  F   UNL A   1      35.378  16.740  25.077  1.00  0.00    -0.166 F 
ATOM     94  F   UNL A   1      33.518  16.648  26.196  1.00  0.00    -0.166 F 
ENDBRANCH  89  91
ENDBRANCH  83  85
ENDBRANCH  77  81
ENDBRANCH  72  75
ENDBRANCH  70  71
ENDBRANCH  69  70
ENDBRANCH   1  69
TORSDOF 17
ENDMDL
MODEL 2
REMARK VINA RESULT:     -11.6      2.446      3.606
REMARK SMILES O=C(NCCCCNC(=O)[C@@H]1CCCC[C@@H]1C(=O)Nc1cccc(C(F)(F)F)c1)c1ccc(-c2c3nc(c(-c4ccc(S(=O)(=O)[O-])cc4)c4ccc([nH]4)c(-c4ccc(S(=O)(=O)[O-])cc4)c4nc(c(-c5ccc(S(=O)(=O)[O-])cc5)c5ccc2[nH]5)C=C4)C=C3)cc1
REMARK SMILES IDX 5 1 4 2 3 3 1 4 2 5 30 7 31 8 89 9 32 10 88 11 33 12 34 13
REMARK SMILES IDX 35 14 82 15 36 16 87 17 81 18 83 19 37 20 86 21 80 22 79 23
REMARK SMILES IDX 38 25 68 26 49 27 67 28 50 29 53 30 66 31 84 32 51 33 52 34
REMARK SMILES IDX 65 36 85 37 54 38 39 39 40 40 48 41 41 42 47 43 42 44 43 45
REMARK SMILES IDX 44 46 45 47 46 48 69 49 70 50 78 51 71 52 77 53 72 54 73 55
REMARK SMILES IDX 74 56 75 57 76 58 55 59 56 60 64 61 57 62 63 63 58 64 59 65
REMARK SMILES IDX 60 66 61 67 62 68 6 69 7 70 8 71 9 72 10 74 11 75 12 76
REMARK SMILES IDX 16 77 13 78 15 79 14 80 17 81 18 82 19 83 20 85 21 86 29 87
REMARK SMILES IDX 22 88 24 89 23 90 25 91 26 92 27 93 28 94
REMARK H PARENT 3 6 83 24 53 35 8 73 19 84
REMARK Flexibility Score: inf
ROOT
ATOM      1  C   UNL A   1      36.685  23.565  24.311  1.00  0.00     0.023 C 
ENDROOT
BRANCH   1   2
ATOM      2  C   UNL A   1      36.948  23.024  25.713  1.00  0.00     0.116 C 
BRANCH   2   3
ATOM      3  N   UNL A   1      37.860  21.897  25.756  1.00  0.00    -0.352 N 
ATOM      4  O   UNL A   1      39.809  20.835  26.153  1.00  0.00    -0.269 OA
ATOM      5  C   UNL A   1      39.155  21.874  26.216  1.00  0.00     0.251 C 
ATOM      6  H   UNL A   1      37.507  21.044  25.414  1.00  0.00     0.163 HD
BRANCH   5   7
ATOM      7  C   UNL A   1      39.777  23.110  26.745  1.00  0.00     0.039 A 
ATOM      8  C   UNL A   1      40.507  23.108  27.938  1.00  0.00     0.014 A 
ATOM      9  C   UNL A   1      39.642  24.293  26.011  1.00  0.00     0.014 A 
ATOM     10  C   UNL A   1      41.033  24.303  28.435  1.00  0.00     0.010 A 
ATOM     11  C   UNL A   1      40.205  25.480  26.489  1.00  0.00     0.010 A 
ATOM     12  C   UNL A   1      40.896  25.500  27.711  1.00  0.00    -0.014 A 
BRANCH  12  13
ATOM     13  C   UNL A   1      41.559  26.746  28.178  1.00  0.00     0.031 A 
ATOM     14  C   UNL A   1      40.763  27.896  28.735  1.00  0.00     0.074 A 
ATOM     15  C   UNL A   1      42.897  26.853  28.054  1.00  0.00     0.049 A 
ATOM     16  N   UNL A   1      41.186  29.069  29.133  1.00  0.00    -0.248 NA
ATOM     17  C   UNL A   1      39.308  27.712  28.854  1.00  0.00     0.031 C 
ATOM     18  C   UNL A   1      43.779  25.818  27.509  1.00  0.00     0.029 A 
ATOM     19  N   UNL A   1      43.749  27.884  28.363  1.00  0.00    -0.354 N 
ATOM     20  C   UNL A   1      40.054  29.771  29.534  1.00  0.00     0.074 A 
ATOM     21  C   UNL A   1      38.921  28.895  29.319  1.00  0.00     0.031 C 
ATOM     22  C   UNL A   1      45.044  26.264  27.525  1.00  0.00     0.029 A 
ATOM     23  C   UNL A   1      45.060  27.630  28.036  1.00  0.00     0.049 A 
ATOM     24  H   UNL A   1      43.449  28.725  28.778  1.00  0.00     0.167 HD
ATOM     25  C   UNL A   1      39.970  31.027  30.033  1.00  0.00     0.031 A 
ATOM     26  C   UNL A   1      46.151  28.416  28.105  1.00  0.00     0.031 A 
ATOM     27  C   UNL A   1      41.100  31.895  30.253  1.00  0.00     0.049 A 
ATOM     28  C   UNL A   1      46.020  29.817  28.630  1.00  0.00     0.074 A 
ATOM     29  C   UNL A   1      41.114  33.156  30.826  1.00  0.00     0.029 A 
ATOM     30  N   UNL A   1      42.407  31.604  29.897  1.00  0.00    -0.354 N 
ATOM     31  N   UNL A   1      44.950  30.430  29.075  1.00  0.00    -0.248 NA
ATOM     32  C   UNL A   1      47.242  30.633  28.658  1.00  0.00     0.031 C 
ATOM     33  C   UNL A   1      42.420  33.651  30.764  1.00  0.00     0.029 A 
ATOM     34  C   UNL A   1      43.228  32.678  30.200  1.00  0.00     0.049 A 
ATOM     35  H   UNL A   1      42.708  30.760  29.491  1.00  0.00     0.167 HD
ATOM     36  C   UNL A   1      45.373  31.702  29.444  1.00  0.00     0.074 A 
ATOM     37  C   UNL A   1      46.799  31.760  29.196  1.00  0.00     0.031 C 
ATOM     38  C   UNL A   1      44.643  32.731  29.938  1.00  0.00     0.031 A 
BRANCH  25  39
ATOM     39  C   UNL A   1      38.607  31.572  30.372  1.00  0.00    -0.014 A 
ATOM     40  C   UNL A   1      38.104  31.506  31.684  1.00  0.00     0.010 A 
ATOM     41  C   UNL A   1      37.874  32.267  29.392  1.00  0.00     0.010 A 
ATOM     42  C   UNL A   1      36.888  32.117  32.004  1.00  0.00     0.020 A 
ATOM     43  C   UNL A   1      36.667  32.894  29.713  1.00  0.00     0.020 A 
ATOM     44  C   UNL A   1      36.178  32.810  31.018  1.00  0.00     0.054 A 
BRANCH  44  45
ATOM     45  S   UNL A   1      34.639  33.653  31.481  1.00  0.00     0.124 S 
ATOM     46  O   UNL A   1      35.142  34.845  32.160  1.00  0.00    -0.237 OA
ATOM     47  O   UNL A   1      34.000  33.890  30.189  1.00  0.00    -0.237 OA
ATOM     48  O   UNL A   1      33.959  32.688  32.342  1.00  0.00    -0.744 OA
ENDBRANCH  44  45
ENDBRANCH  25  39
BRANCH  26  49
ATOM     49  C   UNL A   1      47.463  27.908  27.619  1.00  0.00    -0.014 A 
ATOM     50  C   UNL A   1      47.877  28.138  26.296  1.00  0.00     0.010 A 
ATOM     51  C   UNL A   1      48.300  27.182  28.486  1.00  0.00     0.010 A 
ATOM     52  C   UNL A   1      49.096  27.626  25.841  1.00  0.00     0.020 A 
ATOM     53  C   UNL A   1      49.532  26.694  28.042  1.00  0.00     0.020 A 
ATOM     54  C   UNL A   1      49.914  26.906  26.716  1.00  0.00     0.054 A 
BRANCH  54  55
ATOM     55  S   UNL A   1      51.507  26.279  26.117  1.00  0.00     0.124 S 
ATOM     56  O   UNL A   1      52.447  27.213  26.728  1.00  0.00    -0.237 OA
ATOM     57  O   UNL A   1      51.534  24.918  26.646  1.00  0.00    -0.237 OA
ATOM     58  O   UNL A   1      51.384  26.371  24.664  1.00  0.00    -0.744 OA
ENDBRANCH  54  55
ENDBRANCH  26  49
BRANCH  38  59
ATOM     59  C   UNL A   1      45.375  34.007  30.250  1.00  0.00    -0.014 A 
ATOM     60  C   UNL A   1      45.484  35.029  29.290  1.00  0.00     0.010 A 
ATOM     61  C   UNL A   1      45.930  34.203  31.528  1.00  0.00     0.010 A 
ATOM     62  C   UNL A   1      46.160  36.213  29.593  1.00  0.00     0.020 A 
ATOM     63  C   UNL A   1      46.585  35.396  31.842  1.00  0.00     0.020 A 
ATOM     64  C   UNL A   1      46.709  36.389  30.867  1.00  0.00     0.054 A 
BRANCH  64  65
ATOM     65  S   UNL A   1      47.550  37.950  31.250  1.00  0.00     0.124 S 
ATOM     66  O   UNL A   1      46.839  38.390  32.448  1.00  0.00    -0.237 OA
ATOM     67  O   UNL A   1      48.933  37.528  31.460  1.00  0.00    -0.237 OA
ATOM     68  O   UNL A   1      47.327  38.765  30.058  1.00  0.00    -0.744 OA
ENDBRANCH  64  65
ENDBRANCH  38  59
ENDBRANCH  12  13
ENDBRANCH   5   7
ENDBRANCH   2   3
ENDBRANCH   1   2
BRANCH   1  69
ATOM     69  C   UNL A   1      35.425  23.049  23.608  1.00  0.00     0.023 C 
BRANCH  69  70
ATOM     70  C   UNL A   1      34.144  23.860  23.824  1.00  0.00     0.116 C 
BRANCH  70  71
ATOM     71  N   UNL A   1      34.311  24.958  24.766  1.00  0.00    -0.356 N 
ATOM     72  C   UNL A   1      33.509  26.023  25.067  1.00  0.00     0.223 C 
ATOM     73  H   UNL A   1      35.152  24.929  25.277  1.00  0.00     0.163 HD
ATOM     74  O   UNL A   1      33.834  26.738  26.015  1.00  0.00    -0.275 OA
BRANCH  72  75
ATOM     75  C   UNL A   1      32.239  26.285  24.275  1.00  0.00     0.091 C 
ATOM     76  C   UNL A   1      31.765  27.722  24.524  1.00  0.00     0.014 C 
ATOM     77  C   UNL A   1      31.130  25.239  24.524  1.00  0.00     0.091 C 
ATOM     78  C   UNL A   1      30.584  28.063  23.622  1.00  0.00     0.001 C 
ATOM     79  C   UNL A   1      29.885  25.610  23.674  1.00  0.00     0.014 C 
ATOM     80  C   UNL A   1      29.437  27.073  23.790  1.00  0.00     0.001 C 
BRANCH  77  81
ATOM     81  C   UNL A   1      30.687  25.084  25.986  1.00  0.00     0.228 C 
ATOM     82  O   UNL A   1      29.964  25.935  26.518  1.00  0.00    -0.274 OA
ATOM     83  N   UNL A   1      30.906  23.956  26.720  1.00  0.00    -0.326 N 
ATOM     84  H   UNL A   1      30.270  23.872  27.467  1.00  0.00     0.169 HD
BRANCH  83  85
ATOM     85  C   UNL A   1      31.810  22.883  26.676  1.00  0.00     0.041 A 
ATOM     86  C   UNL A   1      32.849  22.891  27.618  1.00  0.00     0.026 A 
ATOM     87  C   UNL A   1      31.827  21.903  25.694  1.00  0.00     0.039 A 
ATOM     88  C   UNL A   1      33.877  21.945  27.572  1.00  0.00     0.003 A 
ATOM     89  C   UNL A   1      32.888  20.979  25.600  1.00  0.00     0.058 A 
ATOM     90  C   UNL A   1      33.904  20.995  26.558  1.00  0.00     0.013 A 
BRANCH  89  91
ATOM     91  C   UNL A   1      32.938  20.049  24.422  1.00  0.00     0.416 C 
ATOM     92  F   UNL A   1      34.146  19.462  24.211  1.00  0.00    -0.166 F 
ATOM     93  F   UNL A   1      32.039  19.030  24.524  1.00  0.00    -0.166 F 
ATOM     94  F   UNL A   1      32.631  20.693  23.258  1.00  0.00    -0.166 F 
ENDBRANCH  89  91
ENDBRANCH  83  85
ENDBRANCH  77  81
ENDBRANCH  72  75
ENDBRANCH  70  71
ENDBRANCH  69  70
ENDBRANCH   1  69
TORSDOF 17
ENDMDL
MODEL 3
REMARK VINA RESULT:     -11.5      5.979     10.912
REMARK SMILES O=C(NCCCCNC(=O)[C@@H]1CCCC[C@@H]1C(=O)Nc1cccc(C(F)(F)F)c1)c1ccc(-c2c3nc(c(-c4ccc(S(=O)(=O)[O-])cc4)c4ccc([nH]4)c(-c4ccc(S(=O)(=O)[O-])cc4)c4nc(c(-c5ccc(S(=O)(=O)[O-])cc5)c5ccc2[nH]5)C=C4)C=C3)cc1
REMARK SMILES IDX 5 1 4 2 3 3 1 4 2 5 30 7 31 8 89 9 32 10 88 11 33 12 34 13
REMARK SMILES IDX 35 14 82 15 36 16 87 17 81 18 83 19 37 20 86 21 80 22 79 23
REMARK SMILES IDX 38 25 68 26 49 27 67 28 50 29 53 30 66 31 84 32 51 33 52 34
REMARK SMILES IDX 65 36 85 37 54 38 39 39 40 40 48 41 41 42 47 43 42 44 43 45
REMARK SMILES IDX 44 46 45 47 46 48 69 49 70 50 78 51 71 52 77 53 72 54 73 55
REMARK SMILES IDX 74 56 75 57 76 58 55 59 56 60 64 61 57 62 63 63 58 64 59 65
REMARK SMILES IDX 60 66 61 67 62 68 6 69 7 70 8 71 9 72 10 74 11 75 12 76
REMARK SMILES IDX 16 77 13 78 15 79 14 80 17 81 18 82 19 83 20 85 21 86 29 87
REMARK SMILES IDX 22 88 24 89 23 90 25 91 26 92 27 93 28 94
REMARK H PARENT 3 6 83 24 53 35 8 73 19 84
REMARK Flexibility Score: inf
ROOT
ATOM      1  C   UNL A   1      32.642  28.241  27.241  1.00  0.00     0.023 C 
ENDROOT
BRANCH   1   2
ATOM      2  C   UNL A   1      33.485  29.308  26.550  1.00  0.00     0.116 C 
BRANCH   2   3
ATOM      3  N   UNL A   1      33.102  30.670  26.869  1.00  0.00    -0.352 N 
ATOM      4  O   UNL A   1      33.310  32.700  27.828  1.00  0.00    -0.269 OA
ATOM      5  C   UNL A   1      33.792  31.588  27.624  1.00  0.00     0.251 C 
ATOM      6  H   UNL A   1      32.242  30.974  26.499  1.00  0.00     0.163 HD
BRANCH   5   7
ATOM      7  C   UNL A   1      35.095  31.223  28.230  1.00  0.00     0.039 A 
ATOM      8  C   UNL A   1      36.247  31.981  27.997  1.00  0.00     0.014 A 
ATOM      9  C   UNL A   1      35.151  30.107  29.069  1.00  0.00     0.014 A 
ATOM     10  C   UNL A   1      37.468  31.576  28.540  1.00  0.00     0.010 A 
ATOM     11  C   UNL A   1      36.367  29.726  29.646  1.00  0.00     0.010 A 
ATOM     12  C   UNL A   1      37.539  30.449  29.378  1.00  0.00    -0.014 A 
BRANCH  12  13
ATOM     13  C   UNL A   1      38.814  30.089  30.053  1.00  0.00     0.031 A 
ATOM     14  C   UNL A   1      39.684  28.972  29.541  1.00  0.00     0.074 A 
ATOM     15  C   UNL A   1      39.165  30.754  31.172  1.00  0.00     0.049 A 
ATOM     16  N   UNL A   1      40.795  28.500  30.048  1.00  0.00    -0.248 NA
ATOM     17  C   UNL A   1      39.251  28.292  28.310  1.00  0.00     0.031 C 
ATOM     18  C   UNL A   1      38.396  31.842  31.783  1.00  0.00     0.029 A 
ATOM     19  N   UNL A   1      40.248  30.608  32.003  1.00  0.00    -0.354 N 
ATOM     20  C   UNL A   1      41.187  27.460  29.212  1.00  0.00     0.074 A 
ATOM     21  C   UNL A   1      40.187  27.361  28.170  1.00  0.00     0.031 C 
ATOM     22  C   UNL A   1      39.032  32.266  32.886  1.00  0.00     0.029 A 
ATOM     23  C   UNL A   1      40.224  31.452  33.088  1.00  0.00     0.049 A 
ATOM     24  H   UNL A   1      40.971  29.960  31.838  1.00  0.00     0.167 HD
ATOM     25  C   UNL A   1      42.279  26.664  29.308  1.00  0.00     0.031 A 
ATOM     26  C   UNL A   1      41.050  31.543  34.149  1.00  0.00     0.031 A 
ATOM     27  C   UNL A   1      43.277  26.770  30.342  1.00  0.00     0.049 A 
ATOM     28  C   UNL A   1      42.233  30.622  34.244  1.00  0.00     0.074 A 
ATOM     29  C   UNL A   1      44.457  26.053  30.472  1.00  0.00     0.029 A 
ATOM     30  N   UNL A   1      43.211  27.628  31.427  1.00  0.00    -0.354 N 
ATOM     31  N   UNL A   1      42.625  29.698  33.400  1.00  0.00    -0.248 NA
ATOM     32  C   UNL A   1      43.082  30.753  35.436  1.00  0.00     0.031 C 
ATOM     33  C   UNL A   1      45.073  26.438  31.667  1.00  0.00     0.029 A 
ATOM     34  C   UNL A   1      44.305  27.430  32.254  1.00  0.00     0.049 A 
ATOM     35  H   UNL A   1      42.493  28.282  31.588  1.00  0.00     0.167 HD
ATOM     36  C   UNL A   1      43.772  29.144  33.957  1.00  0.00     0.074 A 
ATOM     37  C   UNL A   1      44.025  29.854  35.194  1.00  0.00     0.031 C 
ATOM     38  C   UNL A   1      44.542  28.133  33.488  1.00  0.00     0.031 A 
BRANCH  25  39
ATOM     39  C   UNL A   1      42.467  25.582  28.277  1.00  0.00    -0.014 A 
ATOM     40  C   UNL A   1      43.262  25.794  27.137  1.00  0.00     0.010 A 
ATOM     41  C   UNL A   1      41.940  24.298  28.515  1.00  0.00     0.010 A 
ATOM     42  C   UNL A   1      43.518  24.744  26.250  1.00  0.00     0.020 A 
ATOM     43  C   UNL A   1      42.210  23.242  27.641  1.00  0.00     0.020 A 
ATOM     44  C   UNL A   1      42.993  23.473  26.509  1.00  0.00     0.054 A 
BRANCH  44  45
ATOM     45  S   UNL A   1      43.401  22.114  25.377  1.00  0.00     0.124 S 
ATOM     46  O   UNL A   1      42.303  21.181  25.622  1.00  0.00    -0.237 OA
ATOM     47  O   UNL A   1      43.390  22.767  24.071  1.00  0.00    -0.237 OA
ATOM     48  O   UNL A   1      44.713  21.663  25.834  1.00  0.00    -0.744 OA
ENDBRANCH  44  45
ENDBRANCH  25  39
BRANCH  26  49
ATOM     49  C   UNL A   1      40.758  32.518  35.234  1.00  0.00    -0.014 A 
ATOM     50  C   UNL A   1      41.309  33.810  35.206  1.00  0.00     0.010 A 
ATOM     51  C   UNL A   1      39.930  32.147  36.309  1.00  0.00     0.010 A 
ATOM     52  C   UNL A   1      41.057  34.707  36.248  1.00  0.00     0.020 A 
ATOM     53  C   UNL A   1      39.652  33.050  37.338  1.00  0.00     0.020 A 
ATOM     54  C   UNL A   1      40.232  34.320  37.309  1.00  0.00     0.054 A 
BRANCH  54  55
ATOM     55  S   UNL A   1      39.888  35.508  38.636  1.00  0.00     0.124 S 
ATOM     56  O   UNL A   1      38.909  34.785  39.441  1.00  0.00    -0.237 OA
ATOM     57  O   UNL A   1      41.201  35.690  39.249  1.00  0.00    -0.237 OA
ATOM     58  O   UNL A   1      39.375  36.675  37.922  1.00  0.00    -0.744 OA
ENDBRANCH  54  55
ENDBRANCH  26  49
BRANCH  38  59
ATOM     59  C   UNL A   1      45.736  27.738  34.312  1.00  0.00    -0.014 A 
ATOM     60  C   UNL A   1      45.633  26.744  35.302  1.00  0.00     0.010 A 
ATOM     61  C   UNL A   1      46.985  28.339  34.070  1.00  0.00     0.010 A 
ATOM     62  C   UNL A   1      46.750  26.380  36.057  1.00  0.00     0.020 A 
ATOM     63  C   UNL A   1      48.110  27.959  34.807  1.00  0.00     0.020 A 
ATOM     64  C   UNL A   1      47.982  26.992  35.806  1.00  0.00     0.054 A 
BRANCH  64  65
ATOM     65  S   UNL A   1      49.428  26.476  36.772  1.00  0.00     0.124 S 
ATOM     66  O   UNL A   1      48.807  25.861  37.942  1.00  0.00    -0.237 OA
ATOM     67  O   UNL A   1      50.109  25.555  35.866  1.00  0.00    -0.237 OA
ATOM     68  O   UNL A   1      50.138  27.727  37.028  1.00  0.00    -0.744 OA
ENDBRANCH  64  65
ENDBRANCH  38  59
ENDBRANCH  12  13
ENDBRANCH   5   7
ENDBRANCH   2   3
ENDBRANCH   1   2
BRANCH   1  69
ATOM     69  C   UNL A   1      31.537  27.596  26.398  1.00  0.00     0.023 C 
BRANCH  69  70
ATOM     70  C   UNL A   1      31.784  26.157  25.936  1.00  0.00     0.116 C 
BRANCH  70  71
ATOM     71  N   UNL A   1      33.190  25.865  25.693  1.00  0.00    -0.356 N 
ATOM     72  C   UNL A   1      33.806  24.786  25.123  1.00  0.00     0.223 C 
ATOM     73  H   UNL A   1      33.807  26.571  25.992  1.00  0.00     0.163 HD
ATOM     74  O   UNL A   1      35.017  24.858  24.915  1.00  0.00    -0.275 OA
BRANCH  72  75
ATOM     75  C   UNL A   1      33.005  23.556  24.729  1.00  0.00     0.091 C 
ATOM     76  C   UNL A   1      33.931  22.334  24.679  1.00  0.00     0.014 C 
ATOM     77  C   UNL A   1      32.190  23.741  23.431  1.00  0.00     0.091 C 
ATOM     78  C   UNL A   1      33.129  21.060  24.441  1.00  0.00     0.001 C 
ATOM     79  C   UNL A   1      31.423  22.426  23.124  1.00  0.00     0.014 C 
ATOM     80  C   UNL A   1      32.278  21.153  23.180  1.00  0.00     0.001 C 
BRANCH  77  81
ATOM     81  C   UNL A   1      33.006  24.124  22.188  1.00  0.00     0.228 C 
ATOM     82  O   UNL A   1      33.640  23.265  21.563  1.00  0.00    -0.274 OA
ATOM     83  N   UNL A   1      32.954  25.356  21.608  1.00  0.00    -0.326 N 
ATOM     84  H   UNL A   1      33.224  25.330  20.661  1.00  0.00     0.169 HD
BRANCH  83  85
ATOM     85  C   UNL A   1      32.609  26.652  22.021  1.00  0.00     0.041 A 
ATOM     86  C   UNL A   1      33.659  27.492  22.418  1.00  0.00     0.026 A 
ATOM     87  C   UNL A   1      31.309  27.109  22.190  1.00  0.00     0.039 A 
ATOM     88  C   UNL A   1      33.413  28.751  22.975  1.00  0.00     0.003 A 
ATOM     89  C   UNL A   1      31.044  28.350  22.803  1.00  0.00     0.058 A 
ATOM     90  C   UNL A   1      32.105  29.177  23.177  1.00  0.00     0.013 A 
BRANCH  89  91
ATOM     91  C   UNL A   1      29.620  28.718  23.110  1.00  0.00     0.416 C 
ATOM     92  F   UNL A   1      29.473  29.813  23.902  1.00  0.00    -0.166 F 
ATOM     93  F   UNL A   1      28.893  28.970  21.985  1.00  0.00    -0.166 F 
ATOM     94  F   UNL A   1      28.966  27.707  23.752  1.00  0.00    -0.166 F 
ENDBRANCH  89  91
ENDBRANCH  83  85
ENDBRANCH  77  81
ENDBRANCH  72  75
ENDBRANCH  70  71
ENDBRANCH  69  70
ENDBRANCH   1  69
TORSDOF 17
ENDMDL
