MODEL 1
REMARK VINA RESULT:     -11.1      0.000      0.000
REMARK SMILES Cc1ccc([C@H](Nc2ccc(Cl)c(Br)c2)C(=O)NCCCCNC(=O)c2ccc(-c3c4nc(c(-c5ccc(S(=O)(=O)[O-])cc5)c5ccc([nH]5)c(-c5ccc(S(=O)(=O)[O-])cc5)c5nc(c(-c6ccc(S(=O)(=O)[O-])cc6)c6ccc3[nH]6)C=C5)C=C4)cc2)s1
REMARK SMILES IDX 21 1 20 2 19 3 18 4 16 5 17 6 6 8 5 9 1 10 2 11 3 12 86 13
REMARK SMILES IDX 4 14 7 15 8 17 9 18 15 19 10 20 13 21 11 22 14 23 12 24
REMARK SMILES IDX 22 25 23 26 24 27 25 29 26 30 27 31 85 32 28 33 84 34 29 35
REMARK SMILES IDX 30 36 31 37 78 38 32 39 83 40 77 41 79 42 33 43 82 44 76 45
REMARK SMILES IDX 75 46 34 48 64 49 45 50 63 51 46 52 49 53 62 54 80 55 47 56
REMARK SMILES IDX 48 57 61 59 81 60 50 61 35 62 36 63 44 64 37 65 43 66 38 67
REMARK SMILES IDX 39 68 40 69 41 70 42 71 65 72 66 73 74 74 67 75 73 76 68 77
REMARK SMILES IDX 69 78 70 79 71 80 72 81 51 82 52 83 60 84 53 85 59 86 54 87
REMARK SMILES IDX 55 88 56 89 57 90 58 91
REMARK H PARENT 18 7 7 16 23 28 79 47 49 58
REMARK Flexibility Score: inf
ROOT
ATOM      1  C   UNL A   1      32.738  29.271  25.169  1.00  0.00     0.023 C 
ENDROOT
BRANCH   1   2
ATOM      2  C   UNL A   1      31.489  28.440  25.458  1.00  0.00     0.023 C 
BRANCH   2   3
ATOM      3  C   UNL A   1      31.557  27.594  26.725  1.00  0.00     0.116 C 
BRANCH   3   4
ATOM      4  N   UNL A   1      30.720  26.411  26.651  1.00  0.00    -0.354 N 
ATOM      5  C   UNL A   1      31.100  25.109  26.472  1.00  0.00     0.247 C 
ATOM      6  O   UNL A   1      30.223  24.242  26.561  1.00  0.00    -0.272 OA
ATOM      7  H   UNL A   1      29.753  26.566  26.742  1.00  0.00     0.163 HD
BRANCH   5   8
ATOM      8  C   UNL A   1      32.580  24.729  26.204  1.00  0.00     0.210 C 
BRANCH   8   9
ATOM      9  C   UNL A   1      32.911  25.144  24.764  1.00  0.00     0.037 A 
ATOM     10  C   UNL A   1      32.416  25.577  20.881  1.00  0.00     0.056 C 
ATOM     11  C   UNL A   1      32.815  25.550  22.316  1.00  0.00     0.002 A 
ATOM     12  C   UNL A   1      33.885  26.186  22.906  1.00  0.00     0.015 A 
ATOM     13  S   UNL A   1      31.920  24.636  23.452  1.00  0.00    -0.143 S 
ATOM     14  C   UNL A   1      33.958  25.928  24.302  1.00  0.00     0.018 A 
ENDBRANCH   8   9
BRANCH   8  15
ATOM     15  N   UNL A   1      32.885  23.316  26.517  1.00  0.00    -0.369 N 
ATOM     16  H   UNL A   1      32.255  22.870  27.128  1.00  0.00     0.161 HD
BRANCH  15  17
ATOM     17  C   UNL A   1      33.932  22.535  26.070  1.00  0.00     0.036 A 
ATOM     18  C   UNL A   1      35.281  22.894  26.131  1.00  0.00     0.027 A 
ATOM     19  C   UNL A   1      33.640  21.257  25.566  1.00  0.00     0.043 A 
ATOM     20  C   UNL A   1      36.299  22.009  25.743  1.00  0.00     0.024 A 
ATOM     21  C   UNL A   1      34.647  20.374  25.144  1.00  0.00     0.038 A 
ATOM     22  C   UNL A   1      35.985  20.747  25.247  1.00  0.00     0.055 A 
ATOM     23  Br  UNL A   1      34.101  18.693  24.443  1.00  0.00    -0.049 Br
ATOM     24  Cl  UNL A   1      37.288  19.716  24.781  1.00  0.00    -0.083 Cl
ENDBRANCH  15  17
ENDBRANCH   8  15
ENDBRANCH   5   8
ENDBRANCH   3   4
ENDBRANCH   2   3
ENDBRANCH   1   2
BRANCH   1  25
ATOM     25  C   UNL A   1      33.752  29.347  26.302  1.00  0.00     0.116 C 
BRANCH  25  26
ATOM     26  N   UNL A   1      33.707  30.599  27.043  1.00  0.00    -0.352 N 
ATOM     27  C   UNL A   1      34.635  31.087  27.937  1.00  0.00     0.251 C 
ATOM     28  H   UNL A   1      32.917  31.166  26.888  1.00  0.00     0.163 HD
ATOM     29  O   UNL A   1      34.437  32.132  28.545  1.00  0.00    -0.269 OA
BRANCH  27  30
ATOM     30  C   UNL A   1      35.852  30.288  28.184  1.00  0.00     0.039 A 
ATOM     31  C   UNL A   1      36.002  29.607  29.395  1.00  0.00     0.014 A 
ATOM     32  C   UNL A   1      36.896  30.343  27.259  1.00  0.00     0.014 A 
ATOM     33  C   UNL A   1      37.258  29.132  29.754  1.00  0.00     0.010 A 
ATOM     34  C   UNL A   1      38.137  29.798  27.594  1.00  0.00     0.010 A 
ATOM     35  C   UNL A   1      38.343  29.240  28.867  1.00  0.00    -0.014 A 
BRANCH  35  36
ATOM     36  C   UNL A   1      39.694  28.803  29.300  1.00  0.00     0.031 A 
ATOM     37  C   UNL A   1      40.496  29.638  30.265  1.00  0.00     0.074 A 
ATOM     38  C   UNL A   1      40.169  27.614  28.881  1.00  0.00     0.049 A 
ATOM     39  N   UNL A   1      41.698  29.422  30.734  1.00  0.00    -0.248 NA
ATOM     40  C   UNL A   1      39.870  30.871  30.777  1.00  0.00     0.031 C 
ATOM     41  C   UNL A   1      39.455  26.689  27.998  1.00  0.00     0.029 A 
ATOM     42  N   UNL A   1      41.341  26.962  29.169  1.00  0.00    -0.354 N 
ATOM     43  C   UNL A   1      41.977  30.488  31.581  1.00  0.00     0.074 A 
ATOM     44  C   UNL A   1      40.830  31.367  31.546  1.00  0.00     0.031 C 
ATOM     45  C   UNL A   1      40.172  25.562  27.873  1.00  0.00     0.029 A 
ATOM     46  C   UNL A   1      41.430  25.713  28.599  1.00  0.00     0.049 A 
ATOM     47  H   UNL A   1      42.050  27.350  29.730  1.00  0.00     0.167 HD
ATOM     48  C   UNL A   1      43.086  30.707  32.326  1.00  0.00     0.031 A 
ATOM     49  C   UNL A   1      42.416  24.796  28.639  1.00  0.00     0.031 A 
ATOM     50  C   UNL A   1      44.218  29.820  32.367  1.00  0.00     0.049 A 
ATOM     51  C   UNL A   1      43.671  25.104  29.400  1.00  0.00     0.074 A 
ATOM     52  C   UNL A   1      45.398  29.971  33.077  1.00  0.00     0.029 A 
ATOM     53  N   UNL A   1      44.310  28.615  31.689  1.00  0.00    -0.354 N 
ATOM     54  N   UNL A   1      43.941  26.149  30.144  1.00  0.00    -0.248 NA
ATOM     55  C   UNL A   1      44.763  24.124  29.313  1.00  0.00     0.031 C 
ATOM     56  C   UNL A   1      46.221  28.880  32.790  1.00  0.00     0.029 A 
ATOM     57  C   UNL A   1      45.532  28.022  31.948  1.00  0.00     0.049 A 
ATOM     58  H   UNL A   1      43.610  28.238  31.107  1.00  0.00     0.167 HD
ATOM     59  C   UNL A   1      45.232  25.952  30.618  1.00  0.00     0.074 A 
ATOM     60  C   UNL A   1      45.685  24.680  30.091  1.00  0.00     0.031 C 
ATOM     61  C   UNL A   1      45.972  26.758  31.414  1.00  0.00     0.031 A 
BRANCH  48  62
ATOM     62  C   UNL A   1      43.153  31.953  33.169  1.00  0.00    -0.014 A 
ATOM     63  C   UNL A   1      43.807  33.097  32.673  1.00  0.00     0.010 A 
ATOM     64  C   UNL A   1      42.695  31.948  34.497  1.00  0.00     0.010 A 
ATOM     65  C   UNL A   1      44.031  34.201  33.499  1.00  0.00     0.020 A 
ATOM     66  C   UNL A   1      42.898  33.060  35.320  1.00  0.00     0.020 A 
ATOM     67  C   UNL A   1      43.586  34.170  34.822  1.00  0.00     0.054 A 
BRANCH  67  68
ATOM     68  S   UNL A   1      43.913  35.599  35.893  1.00  0.00     0.124 S 
ATOM     69  O   UNL A   1      45.224  35.277  36.445  1.00  0.00    -0.237 OA
ATOM     70  O   UNL A   1      43.881  36.717  34.951  1.00  0.00    -0.237 OA
ATOM     71  O   UNL A   1      42.806  35.570  36.846  1.00  0.00    -0.744 OA
ENDBRANCH  67  68
ENDBRANCH  48  62
BRANCH  49  72
ATOM     72  C   UNL A   1      42.232  23.502  27.929  1.00  0.00    -0.014 A 
ATOM     73  C   UNL A   1      41.624  22.411  28.580  1.00  0.00     0.010 A 
ATOM     74  C   UNL A   1      42.743  23.327  26.632  1.00  0.00     0.010 A 
ATOM     75  C   UNL A   1      41.582  21.156  27.970  1.00  0.00     0.020 A 
ATOM     76  C   UNL A   1      42.677  22.078  26.007  1.00  0.00     0.020 A 
ATOM     77  C   UNL A   1      42.124  20.994  26.693  1.00  0.00     0.054 A 
BRANCH  77  78
ATOM     78  S   UNL A   1      42.102  19.347  25.934  1.00  0.00     0.124 S 
ATOM     79  O   UNL A   1      42.966  19.542  24.773  1.00  0.00    -0.237 OA
ATOM     80  O   UNL A   1      42.648  18.497  26.988  1.00  0.00    -0.237 OA
ATOM     81  O   UNL A   1      40.689  19.131  25.634  1.00  0.00    -0.744 OA
ENDBRANCH  77  78
ENDBRANCH  49  72
BRANCH  61  82
ATOM     82  C   UNL A   1      47.362  26.314  31.780  1.00  0.00    -0.014 A 
ATOM     83  C   UNL A   1      48.405  26.455  30.847  1.00  0.00     0.010 A 
ATOM     84  C   UNL A   1      47.595  25.617  32.977  1.00  0.00     0.010 A 
ATOM     85  C   UNL A   1      49.650  25.869  31.086  1.00  0.00     0.020 A 
ATOM     86  C   UNL A   1      48.846  25.048  33.229  1.00  0.00     0.020 A 
ATOM     87  C   UNL A   1      49.856  25.153  32.268  1.00  0.00     0.054 A 
BRANCH  87  88
ATOM     88  S   UNL A   1      51.459  24.348  32.537  1.00  0.00     0.124 S 
ATOM     89  O   UNL A   1      51.192  22.981  32.100  1.00  0.00    -0.237 OA
ATOM     90  O   UNL A   1      52.356  25.120  31.680  1.00  0.00    -0.237 OA
ATOM     91  O   UNL A   1      51.688  24.513  33.971  1.00  0.00    -0.744 OA
ENDBRANCH  87  88
ENDBRANCH  61  82
ENDBRANCH  35  36
ENDBRANCH  27  30
ENDBRANCH  25  26
ENDBRANCH   1  25
TORSDOF 17
ENDMDL
MODEL 2
REMARK VINA RESULT:     -10.8      4.468     10.449
REMARK SMILES Cc1ccc([C@H](Nc2ccc(Cl)c(Br)c2)C(=O)NCCCCNC(=O)c2ccc(-c3c4nc(c(-c5ccc(S(=O)(=O)[O-])cc5)c5ccc([nH]5)c(-c5ccc(S(=O)(=O)[O-])cc5)c5nc(c(-c6ccc(S(=O)(=O)[O-])cc6)c6ccc3[nH]6)C=C5)C=C4)cc2)s1
REMARK SMILES IDX 21 1 20 2 19 3 18 4 16 5 17 6 6 8 5 9 1 10 2 11 3 12 86 13
REMARK SMILES IDX 4 14 7 15 8 17 9 18 15 19 10 20 13 21 11 22 14 23 12 24
REMARK SMILES IDX 22 25 23 26 24 27 25 29 26 30 27 31 85 32 28 33 84 34 29 35
REMARK SMILES IDX 30 36 31 37 78 38 32 39 83 40 77 41 79 42 33 43 82 44 76 45
REMARK SMILES IDX 75 46 34 48 64 49 45 50 63 51 46 52 49 53 62 54 80 55 47 56
REMARK SMILES IDX 48 57 61 59 81 60 50 61 35 62 36 63 44 64 37 65 43 66 38 67
REMARK SMILES IDX 39 68 40 69 41 70 42 71 65 72 66 73 74 74 67 75 73 76 68 77
REMARK SMILES IDX 69 78 70 79 71 80 72 81 51 82 52 83 60 84 53 85 59 86 54 87
REMARK SMILES IDX 55 88 56 89 57 90 58 91
REMARK H PARENT 18 7 7 16 23 28 79 47 49 58
REMARK Flexibility Score: inf
ROOT
ATOM      1  C   UNL A   1      39.790  23.061  27.092  1.00  0.00     0.023 C 
ENDROOT
BRANCH   1   2
ATOM      2  C   UNL A   1      38.948  22.219  26.135  1.00  0.00     0.023 C 
BRANCH   2   3
ATOM      3  C   UNL A   1      37.600  22.824  25.762  1.00  0.00     0.116 C 
BRANCH   3   4
ATOM      4  N   UNL A   1      37.355  22.803  24.332  1.00  0.00    -0.354 N 
ATOM      5  C   UNL A   1      36.177  23.010  23.666  1.00  0.00     0.247 C 
ATOM      6  O   UNL A   1      36.223  23.063  22.431  1.00  0.00    -0.272 OA
ATOM      7  H   UNL A   1      38.139  22.615  23.767  1.00  0.00     0.163 HD
BRANCH   5   8
ATOM      8  C   UNL A   1      34.842  23.205  24.430  1.00  0.00     0.210 C 
BRANCH   8   9
ATOM      9  C   UNL A   1      34.001  21.937  24.226  1.00  0.00     0.037 A 
ATOM     10  C   UNL A   1      32.815  18.218  24.747  1.00  0.00     0.056 C 
ATOM     11  C   UNL A   1      33.061  19.645  24.398  1.00  0.00     0.002 A 
ATOM     12  C   UNL A   1      32.275  20.472  23.626  1.00  0.00     0.015 A 
ATOM     13  S   UNL A   1      34.467  20.447  24.951  1.00  0.00    -0.143 S 
ATOM     14  C   UNL A   1      32.829  21.775  23.502  1.00  0.00     0.018 A 
ENDBRANCH   8   9
BRANCH   8  15
ATOM     15  N   UNL A   1      34.146  24.461  24.075  1.00  0.00    -0.369 N 
ATOM     16  H   UNL A   1      34.194  24.721  23.127  1.00  0.00     0.161 HD
BRANCH  15  17
ATOM     17  C   UNL A   1      33.436  25.319  24.891  1.00  0.00     0.036 A 
ATOM     18  C   UNL A   1      32.140  25.088  25.361  1.00  0.00     0.027 A 
ATOM     19  C   UNL A   1      34.071  26.490  25.338  1.00  0.00     0.043 A 
ATOM     20  C   UNL A   1      31.516  25.962  26.264  1.00  0.00     0.024 A 
ATOM     21  C   UNL A   1      33.445  27.389  26.216  1.00  0.00     0.038 A 
ATOM     22  C   UNL A   1      32.165  27.116  26.693  1.00  0.00     0.055 A 
ATOM     23  Br  UNL A   1      34.409  28.954  26.702  1.00  0.00    -0.049 Br
ATOM     24  Cl  UNL A   1      31.332  28.148  27.797  1.00  0.00    -0.083 Cl
ENDBRANCH  15  17
ENDBRANCH   8  15
ENDBRANCH   5   8
ENDBRANCH   3   4
ENDBRANCH   2   3
ENDBRANCH   1   2
BRANCH   1  25
ATOM     25  C   UNL A   1      39.525  24.560  27.054  1.00  0.00     0.116 C 
BRANCH  25  26
ATOM     26  N   UNL A   1      40.380  25.281  26.122  1.00  0.00    -0.352 N 
ATOM     27  C   UNL A   1      40.819  26.584  26.211  1.00  0.00     0.251 C 
ATOM     28  H   UNL A   1      40.680  24.777  25.331  1.00  0.00     0.163 HD
ATOM     29  O   UNL A   1      41.484  27.089  25.314  1.00  0.00    -0.269 OA
BRANCH  27  30
ATOM     30  C   UNL A   1      40.420  27.375  27.393  1.00  0.00     0.039 A 
ATOM     31  C   UNL A   1      40.709  28.741  27.444  1.00  0.00     0.014 A 
ATOM     32  C   UNL A   1      39.889  26.713  28.501  1.00  0.00     0.014 A 
ATOM     33  C   UNL A   1      40.629  29.405  28.662  1.00  0.00     0.010 A 
ATOM     34  C   UNL A   1      39.740  27.404  29.705  1.00  0.00     0.010 A 
ATOM     35  C   UNL A   1      40.163  28.739  29.810  1.00  0.00    -0.014 A 
BRANCH  35  36
ATOM     36  C   UNL A   1      40.164  29.440  31.118  1.00  0.00     0.031 A 
ATOM     37  C   UNL A   1      41.311  29.266  32.080  1.00  0.00     0.074 A 
ATOM     38  C   UNL A   1      39.164  30.295  31.410  1.00  0.00     0.049 A 
ATOM     39  N   UNL A   1      41.468  29.782  33.272  1.00  0.00    -0.248 NA
ATOM     40  C   UNL A   1      42.430  28.407  31.651  1.00  0.00     0.031 C 
ATOM     41  C   UNL A   1      38.033  30.596  30.529  1.00  0.00     0.029 A 
ATOM     42  N   UNL A   1      38.955  31.095  32.504  1.00  0.00    -0.354 N 
ATOM     43  C   UNL A   1      42.689  29.306  33.738  1.00  0.00     0.074 A 
ATOM     44  C   UNL A   1      43.224  28.439  32.713  1.00  0.00     0.031 C 
ATOM     45  C   UNL A   1      37.289  31.563  31.086  1.00  0.00     0.029 A 
ATOM     46  C   UNL A   1      37.841  31.895  32.396  1.00  0.00     0.049 A 
ATOM     47  H   UNL A   1      39.546  31.097  33.292  1.00  0.00     0.167 HD
ATOM     48  C   UNL A   1      43.308  29.578  34.911  1.00  0.00     0.031 A 
ATOM     49  C   UNL A   1      37.311  32.785  33.258  1.00  0.00     0.031 A 
ATOM     50  C   UNL A   1      42.776  30.454  35.920  1.00  0.00     0.049 A 
ATOM     51  C   UNL A   1      37.970  32.999  34.588  1.00  0.00     0.074 A 
ATOM     52  C   UNL A   1      43.323  30.772  37.152  1.00  0.00     0.029 A 
ATOM     53  N   UNL A   1      41.590  31.162  35.814  1.00  0.00    -0.354 N 
ATOM     54  N   UNL A   1      39.092  32.490  35.035  1.00  0.00    -0.248 NA
ATOM     55  C   UNL A   1      37.286  33.888  35.537  1.00  0.00     0.031 C 
ATOM     56  C   UNL A   1      42.444  31.636  37.809  1.00  0.00     0.029 A 
ATOM     57  C   UNL A   1      41.378  31.901  36.964  1.00  0.00     0.049 A 
ATOM     58  H   UNL A   1      40.986  31.141  35.036  1.00  0.00     0.167 HD
ATOM     59  C   UNL A   1      39.252  33.000  36.318  1.00  0.00     0.074 A 
ATOM     60  C   UNL A   1      38.122  33.869  36.570  1.00  0.00     0.031 C 
ATOM     61  C   UNL A   1      40.247  32.760  37.204  1.00  0.00     0.031 A 
BRANCH  48  62
ATOM     62  C   UNL A   1      44.637  28.929  35.190  1.00  0.00    -0.014 A 
ATOM     63  C   UNL A   1      45.820  29.531  34.721  1.00  0.00     0.010 A 
ATOM     64  C   UNL A   1      44.706  27.660  35.791  1.00  0.00     0.010 A 
ATOM     65  C   UNL A   1      47.044  28.863  34.818  1.00  0.00     0.020 A 
ATOM     66  C   UNL A   1      45.932  26.998  35.909  1.00  0.00     0.020 A 
ATOM     67  C   UNL A   1      47.089  27.594  35.400  1.00  0.00     0.054 A 
BRANCH  67  68
ATOM     68  S   UNL A   1      48.681  26.725  35.488  1.00  0.00     0.124 S 
ATOM     69  O   UNL A   1      48.930  26.684  36.924  1.00  0.00    -0.237 OA
ATOM     70  O   UNL A   1      48.379  25.440  34.861  1.00  0.00    -0.237 OA
ATOM     71  O   UNL A   1      49.579  27.584  34.720  1.00  0.00    -0.744 OA
ENDBRANCH  67  68
ENDBRANCH  48  62
BRANCH  49  72
ATOM     72  C   UNL A   1      36.086  33.533  32.865  1.00  0.00    -0.014 A 
ATOM     73  C   UNL A   1      36.178  34.860  32.406  1.00  0.00     0.010 A 
ATOM     74  C   UNL A   1      34.818  32.952  33.032  1.00  0.00     0.010 A 
ATOM     75  C   UNL A   1      35.024  35.612  32.176  1.00  0.00     0.020 A 
ATOM     76  C   UNL A   1      33.661  33.693  32.777  1.00  0.00     0.020 A 
ATOM     77  C   UNL A   1      33.771  35.027  32.380  1.00  0.00     0.054 A 
BRANCH  77  78
ATOM     78  S   UNL A   1      32.283  36.032  32.121  1.00  0.00     0.124 S 
ATOM     79  O   UNL A   1      32.582  37.217  32.920  1.00  0.00    -0.237 OA
ATOM     80  O   UNL A   1      32.277  36.234  30.675  1.00  0.00    -0.237 OA
ATOM     81  O   UNL A   1      31.209  35.185  32.632  1.00  0.00    -0.744 OA
ENDBRANCH  77  78
ENDBRANCH  49  72
BRANCH  61  82
ATOM     82  C   UNL A   1      40.182  33.436  38.546  1.00  0.00    -0.014 A 
ATOM     83  C   UNL A   1      39.484  32.822  39.601  1.00  0.00     0.010 A 
ATOM     84  C   UNL A   1      40.671  34.743  38.710  1.00  0.00     0.010 A 
ATOM     85  C   UNL A   1      39.238  33.519  40.786  1.00  0.00     0.020 A 
ATOM     86  C   UNL A   1      40.446  35.435  39.903  1.00  0.00     0.020 A 
ATOM     87  C   UNL A   1      39.706  34.829  40.921  1.00  0.00     0.054 A 
BRANCH  87  88
ATOM     88  S   UNL A   1      39.328  35.741  42.443  1.00  0.00     0.124 S 
ATOM     89  O   UNL A   1      39.733  37.100  42.094  1.00  0.00    -0.237 OA
ATOM     90  O   UNL A   1      37.890  35.532  42.596  1.00  0.00    -0.237 OA
ATOM     91  O   UNL A   1      40.155  35.082  43.451  1.00  0.00    -0.744 OA
ENDBRANCH  87  88
ENDBRANCH  61  82
ENDBRANCH  35  36
ENDBRANCH  27  30
ENDBRANCH  25  26
ENDBRANCH   1  25
TORSDOF 17
ENDMDL
MODEL 3
REMARK VINA RESULT:     -10.8      3.323      9.539
REMARK SMILES Cc1ccc([C@H](Nc2ccc(Cl)c(Br)c2)C(=O)NCCCCNC(=O)c2ccc(-c3c4nc(c(-c5ccc(S(=O)(=O)[O-])cc5)c5ccc([nH]5)c(-c5ccc(S(=O)(=O)[O-])cc5)c5nc(c(-c6ccc(S(=O)(=O)[O-])cc6)c6ccc3[nH]6)C=C5)C=C4)cc2)s1
REMARK SMILES IDX 21 1 20 2 19 3 18 4 16 5 17 6 6 8 5 9 1 10 2 11 3 12 86 13
REMARK SMILES IDX 4 14 7 15 8 17 9 18 15 19 10 20 13 21 11 22 14 23 12 24
REMARK SMILES IDX 22 25 23 26 24 27 25 29 26 30 27 31 85 32 28 33 84 34 29 35
REMARK SMILES IDX 30 36 31 37 78 38 32 39 83 40 77 41 79 42 33 43 82 44 76 45
REMARK SMILES IDX 75 46 34 48 64 49 45 50 63 51 46 52 49 53 62 54 80 55 47 56
REMARK SMILES IDX 48 57 61 59 81 60 50 61 35 62 36 63 44 64 37 65 43 66 38 67
REMARK SMILES IDX 39 68 40 69 41 70 42 71 65 72 66 73 74 74 67 75 73 76 68 77
REMARK SMILES IDX 69 78 70 79 71 80 72 81 51 82 52 83 60 84 53 85 59 86 54 87
REMARK SMILES IDX 55 88 56 89 57 90 58 91
REMARK H PARENT 18 7 7 16 23 28 79 47 49 58
REMARK Flexibility Score: inf
ROOT
ATOM      1  C   UNL A   1      36.090  22.658  26.118  1.00  0.00     0.023 C 
ENDROOT
BRANCH   1   2
ATOM      2  C   UNL A   1      34.878  22.229  25.293  1.00  0.00     0.023 C 
BRANCH   2   3
ATOM      3  C   UNL A   1      33.957  23.365  24.863  1.00  0.00     0.116 C 
BRANCH   3   4
ATOM      4  N   UNL A   1      32.963  23.689  25.869  1.00  0.00    -0.354 N 
ATOM      5  C   UNL A   1      32.237  24.841  26.010  1.00  0.00     0.247 C 
ATOM      6  O   UNL A   1      31.353  24.855  26.875  1.00  0.00    -0.272 OA
ATOM      7  H   UNL A   1      32.789  22.989  26.539  1.00  0.00     0.163 HD
BRANCH   5   8
ATOM      8  C   UNL A   1      32.487  26.069  25.098  1.00  0.00     0.210 C 
BRANCH   8   9
ATOM      9  C   UNL A   1      32.534  27.313  25.996  1.00  0.00     0.037 A 
ATOM     10  C   UNL A   1      33.951  30.636  27.562  1.00  0.00     0.056 C 
ATOM     11  C   UNL A   1      33.207  29.428  27.107  1.00  0.00     0.002 A 
ATOM     12  C   UNL A   1      31.913  29.071  27.413  1.00  0.00     0.015 A 
ATOM     13  S   UNL A   1      33.960  28.270  26.098  1.00  0.00    -0.143 S 
ATOM     14  C   UNL A   1      31.538  27.843  26.802  1.00  0.00     0.018 A 
ENDBRANCH   8   9
BRANCH   8  15
ATOM     15  N   UNL A   1      31.531  26.165  23.973  1.00  0.00    -0.369 N 
ATOM     16  H   UNL A   1      31.289  25.311  23.547  1.00  0.00     0.161 HD
BRANCH  15  17
ATOM     17  C   UNL A   1      30.929  27.286  23.439  1.00  0.00     0.036 A 
ATOM     18  C   UNL A   1      31.591  28.281  22.713  1.00  0.00     0.027 A 
ATOM     19  C   UNL A   1      29.538  27.426  23.579  1.00  0.00     0.043 A 
ATOM     20  C   UNL A   1      30.897  29.346  22.119  1.00  0.00     0.024 A 
ATOM     21  C   UNL A   1      28.836  28.504  23.017  1.00  0.00     0.038 A 
ATOM     22  C   UNL A   1      29.518  29.463  22.271  1.00  0.00     0.055 A 
ATOM     23  Br  UNL A   1      26.962  28.585  23.324  1.00  0.00    -0.049 Br
ATOM     24  Cl  UNL A   1      28.734  30.804  21.520  1.00  0.00    -0.083 Cl
ENDBRANCH  15  17
ENDBRANCH   8  15
ENDBRANCH   5   8
ENDBRANCH   3   4
ENDBRANCH   2   3
ENDBRANCH   1   2
BRANCH   1  25
ATOM     25  C   UNL A   1      37.256  23.227  25.323  1.00  0.00     0.116 C 
BRANCH  25  26
ATOM     26  N   UNL A   1      38.498  22.485  25.492  1.00  0.00    -0.352 N 
ATOM     27  C   UNL A   1      39.649  22.895  26.126  1.00  0.00     0.251 C 
ATOM     28  H   UNL A   1      38.516  21.579  25.107  1.00  0.00     0.163 HD
ATOM     29  O   UNL A   1      40.651  22.189  26.137  1.00  0.00    -0.269 OA
BRANCH  27  30
ATOM     30  C   UNL A   1      39.663  24.236  26.747  1.00  0.00     0.039 A 
ATOM     31  C   UNL A   1      40.373  25.275  26.139  1.00  0.00     0.014 A 
ATOM     32  C   UNL A   1      39.085  24.404  28.006  1.00  0.00     0.014 A 
ATOM     33  C   UNL A   1      40.652  26.423  26.871  1.00  0.00     0.010 A 
ATOM     34  C   UNL A   1      39.305  25.590  28.708  1.00  0.00     0.010 A 
ATOM     35  C   UNL A   1      40.138  26.585  28.170  1.00  0.00    -0.014 A 
BRANCH  35  36
ATOM     36  C   UNL A   1      40.515  27.780  28.966  1.00  0.00     0.031 A 
ATOM     37  C   UNL A   1      41.908  27.919  29.526  1.00  0.00     0.074 A 
ATOM     38  C   UNL A   1      39.623  28.777  29.123  1.00  0.00     0.049 A 
ATOM     39  N   UNL A   1      42.404  28.881  30.260  1.00  0.00    -0.248 NA
ATOM     40  C   UNL A   1      42.871  26.846  29.219  1.00  0.00     0.031 C 
ATOM     41  C   UNL A   1      38.266  28.783  28.572  1.00  0.00     0.029 A 
ATOM     42  N   UNL A   1      39.730  29.989  29.755  1.00  0.00    -0.354 N 
ATOM     43  C   UNL A   1      43.725  28.529  30.512  1.00  0.00     0.074 A 
ATOM     44  C   UNL A   1      43.951  27.251  29.874  1.00  0.00     0.031 C 
ATOM     45  C   UNL A   1      37.694  29.969  28.830  1.00  0.00     0.029 A 
ATOM     46  C   UNL A   1      38.609  30.776  29.632  1.00  0.00     0.049 A 
ATOM     47  H   UNL A   1      40.534  30.269  30.250  1.00  0.00     0.167 HD
ATOM     48  C   UNL A   1      44.664  29.215  31.206  1.00  0.00     0.031 A 
ATOM     49  C   UNL A   1      38.337  32.002  30.119  1.00  0.00     0.031 A 
ATOM     50  C   UNL A   1      44.436  30.492  31.825  1.00  0.00     0.049 A 
ATOM     51  C   UNL A   1      39.364  32.701  30.960  1.00  0.00     0.074 A 
ATOM     52  C   UNL A   1      45.323  31.254  32.569  1.00  0.00     0.029 A 
ATOM     53  N   UNL A   1      43.249  31.206  31.765  1.00  0.00    -0.354 N 
ATOM     54  N   UNL A   1      40.587  32.321  31.239  1.00  0.00    -0.248 NA
ATOM     55  C   UNL A   1      38.973  33.980  31.567  1.00  0.00     0.031 C 
ATOM     56  C   UNL A   1      44.657  32.404  32.996  1.00  0.00     0.029 A 
ATOM     57  C   UNL A   1      43.374  32.388  32.472  1.00  0.00     0.049 A 
ATOM     58  H   UNL A   1      42.437  30.914  31.290  1.00  0.00     0.167 HD
ATOM     59  C   UNL A   1      41.114  33.316  32.053  1.00  0.00     0.074 A 
ATOM     60  C   UNL A   1      40.085  34.323  32.208  1.00  0.00     0.031 C 
ATOM     61  C   UNL A   1      42.342  33.381  32.622  1.00  0.00     0.031 A 
BRANCH  48  62
ATOM     62  C   UNL A   1      46.038  28.614  31.345  1.00  0.00    -0.014 A 
ATOM     63  C   UNL A   1      46.994  28.816  30.332  1.00  0.00     0.010 A 
ATOM     64  C   UNL A   1      46.336  27.740  32.404  1.00  0.00     0.010 A 
ATOM     65  C   UNL A   1      48.211  28.130  30.357  1.00  0.00     0.020 A 
ATOM     66  C   UNL A   1      47.562  27.068  32.444  1.00  0.00     0.020 A 
ATOM     67  C   UNL A   1      48.481  27.250  31.407  1.00  0.00     0.054 A 
BRANCH  67  68
ATOM     68  S   UNL A   1      50.053  26.341  31.408  1.00  0.00     0.124 S 
ATOM     69  O   UNL A   1      50.956  27.288  32.052  1.00  0.00    -0.237 OA
ATOM     70  O   UNL A   1      49.730  25.146  32.184  1.00  0.00    -0.237 OA
ATOM     71  O   UNL A   1      50.306  26.099  29.989  1.00  0.00    -0.744 OA
ENDBRANCH  67  68
ENDBRANCH  48  62
BRANCH  49  72
ATOM     72  C   UNL A   1      37.025  32.630  29.810  1.00  0.00    -0.014 A 
ATOM     73  C   UNL A   1      36.872  33.438  28.667  1.00  0.00     0.010 A 
ATOM     74  C   UNL A   1      35.947  32.496  30.702  1.00  0.00     0.010 A 
ATOM     75  C   UNL A   1      35.688  34.146  28.451  1.00  0.00     0.020 A 
ATOM     76  C   UNL A   1      34.750  33.181  30.474  1.00  0.00     0.020 A 
ATOM     77  C   UNL A   1      34.640  34.025  29.367  1.00  0.00     0.054 A 
BRANCH  77  78
ATOM     78  S   UNL A   1      33.126  34.987  29.096  1.00  0.00     0.124 S 
ATOM     79  O   UNL A   1      32.444  34.188  28.081  1.00  0.00    -0.237 OA
ATOM     80  O   UNL A   1      32.503  34.989  30.416  1.00  0.00    -0.237 OA
ATOM     81  O   UNL A   1      33.624  36.283  28.644  1.00  0.00    -0.744 OA
ENDBRANCH  77  78
ENDBRANCH  49  72
BRANCH  61  82
ATOM     82  C   UNL A   1      42.666  34.574  33.477  1.00  0.00    -0.014 A 
ATOM     83  C   UNL A   1      43.232  35.719  32.888  1.00  0.00     0.010 A 
ATOM     84  C   UNL A   1      42.560  34.498  34.876  1.00  0.00     0.010 A 
ATOM     85  C   UNL A   1      43.726  36.753  33.686  1.00  0.00     0.020 A 
ATOM     86  C   UNL A   1      43.033  35.541  35.676  1.00  0.00     0.020 A 
ATOM     87  C   UNL A   1      43.639  36.648  35.077  1.00  0.00     0.054 A 
BRANCH  87  88
ATOM     88  S   UNL A   1      44.338  37.972  36.101  1.00  0.00     0.124 S 
ATOM     89  O   UNL A   1      45.714  37.521  36.287  1.00  0.00    -0.237 OA
ATOM     90  O   UNL A   1      44.172  39.154  35.258  1.00  0.00    -0.237 OA
ATOM     91  O   UNL A   1      43.505  37.952  37.301  1.00  0.00    -0.744 OA
ENDBRANCH  87  88
ENDBRANCH  61  82
ENDBRANCH  35  36
ENDBRANCH  27  30
ENDBRANCH  25  26
ENDBRANCH   1  25
TORSDOF 17
ENDMDL
