MODEL 1
REMARK VINA RESULT:     -11.8      0.000      0.000
REMARK SMILES CCc1c(Cl)ccc2c1C=C(C(=O)NCCCCNC(=O)c1ccc(-c3c4nc(c(-c5ccc(S(=O)(=O)[O-])cc5)c5ccc([nH]5)c(-c5ccc(S(=O)(=O)[O-])cc5)c5nc(c(-c6ccc(S(=O)(=O)[O-])cc6)c6ccc3[nH]6)C=C5)C=C4)cc1)[C@@H](C(F)(F)F)O2
REMARK SMILES IDX 17 1 16 2 15 3 14 4 12 5 13 6 11 8 3 9 4 10 9 11 5 12 6 13
REMARK SMILES IDX 8 14 10 15 7 16 87 17 82 18 2 19 1 20 83 21 84 22 85 23
REMARK SMILES IDX 86 24 18 25 19 26 20 27 21 29 22 30 23 31 81 32 24 33 80 34
REMARK SMILES IDX 25 35 26 36 27 37 74 38 28 39 79 40 73 41 75 42 29 43 78 44
REMARK SMILES IDX 72 45 71 46 30 48 60 49 41 50 59 51 42 52 45 53 58 54 76 55
REMARK SMILES IDX 43 56 44 57 57 59 77 60 46 61 31 62 32 63 40 64 33 65 39 66
REMARK SMILES IDX 34 67 35 68 36 69 37 70 38 71 61 72 62 73 70 74 63 75 69 76
REMARK SMILES IDX 64 77 65 78 66 79 67 80 68 81 47 82 48 83 56 84 49 85 55 86
REMARK SMILES IDX 50 87 51 88 52 89 53 90 54 91
REMARK H PARENT 14 7 19 28 75 47 45 58
REMARK Flexibility Score: inf
ROOT
ATOM      1  C   UNL A   1      37.716  23.204  25.524  1.00  0.00     0.023 C 
ENDROOT
BRANCH   1   2
ATOM      2  C   UNL A   1      37.939  21.692  25.445  1.00  0.00     0.023 C 
BRANCH   2   3
ATOM      3  C   UNL A   1      36.692  20.889  25.085  1.00  0.00     0.116 C 
BRANCH   3   4
ATOM      4  N   UNL A   1      35.576  21.184  25.969  1.00  0.00    -0.352 N 
ATOM      5  C   UNL A   1      34.515  22.023  25.979  1.00  0.00     0.251 C 
ATOM      6  O   UNL A   1      33.780  21.930  26.967  1.00  0.00    -0.270 OA
ATOM      7  H   UNL A   1      35.598  20.622  26.776  1.00  0.00     0.163 HD
BRANCH   5   8
ATOM      8  C   UNL A   1      34.185  23.019  24.912  1.00  0.00     0.067 C 
ATOM      9  C   UNL A   1      33.633  26.727  24.705  1.00  0.00    -0.019 A 
ATOM     10  C   UNL A   1      33.352  27.658  23.677  1.00  0.00     0.045 A 
ATOM     11  C   UNL A   1      33.847  25.371  24.342  1.00  0.00     0.022 A 
ATOM     12  Cl  UNL A   1      33.047  29.333  23.999  1.00  0.00    -0.084 Cl
ATOM     13  C   UNL A   1      33.305  27.268  22.337  1.00  0.00     0.024 A 
ATOM     14  C   UNL A   1      33.786  25.006  22.988  1.00  0.00     0.128 A 
ATOM     15  C   UNL A   1      34.174  24.310  25.301  1.00  0.00     0.026 C 
ATOM     16  C   UNL A   1      33.530  25.942  21.992  1.00  0.00     0.048 A 
ATOM     17  O   UNL A   1      34.017  23.735  22.541  1.00  0.00    -0.475 OA
ATOM     18  C   UNL A   1      33.844  22.660  23.500  1.00  0.00     0.314 C 
BRANCH   9  19
ATOM     19  C   UNL A   1      33.658  27.184  26.152  1.00  0.00     0.034 C 
ATOM     20  C   UNL A   1      32.271  27.170  26.777  1.00  0.00     0.009 C 
ENDBRANCH   9  19
BRANCH  18  21
ATOM     21  C   UNL A   1      32.425  22.077  23.360  1.00  0.00     0.429 C 
ATOM     22  F   UNL A   1      31.496  23.006  23.702  1.00  0.00    -0.167 F 
ATOM     23  F   UNL A   1      32.140  21.698  22.094  1.00  0.00    -0.167 F 
ATOM     24  F   UNL A   1      32.225  20.999  24.151  1.00  0.00    -0.167 F 
ENDBRANCH  18  21
ENDBRANCH   5   8
ENDBRANCH   3   4
ENDBRANCH   2   3
ENDBRANCH   1   2
BRANCH   1  25
ATOM     25  C   UNL A   1      38.640  23.958  26.480  1.00  0.00     0.116 C 
BRANCH  25  26
ATOM     26  N   UNL A   1      40.059  23.802  26.191  1.00  0.00    -0.352 N 
ATOM     27  C   UNL A   1      41.104  24.590  26.623  1.00  0.00     0.251 C 
ATOM     28  H   UNL A   1      40.302  23.040  25.617  1.00  0.00     0.163 HD
ATOM     29  O   UNL A   1      42.249  24.373  26.240  1.00  0.00    -0.269 OA
BRANCH  27  30
ATOM     30  C   UNL A   1      40.809  25.731  27.513  1.00  0.00     0.039 A 
ATOM     31  C   UNL A   1      41.535  26.916  27.392  1.00  0.00     0.014 A 
ATOM     32  C   UNL A   1      39.866  25.577  28.533  1.00  0.00     0.014 A 
ATOM     33  C   UNL A   1      41.452  27.870  28.397  1.00  0.00     0.010 A 
ATOM     34  C   UNL A   1      39.722  26.580  29.496  1.00  0.00     0.010 A 
ATOM     35  C   UNL A   1      40.555  27.708  29.468  1.00  0.00    -0.014 A 
BRANCH  35  36
ATOM     36  C   UNL A   1      40.524  28.742  30.535  1.00  0.00     0.031 A 
ATOM     37  C   UNL A   1      39.473  29.821  30.542  1.00  0.00     0.074 A 
ATOM     38  C   UNL A   1      41.388  28.635  31.562  1.00  0.00     0.049 A 
ATOM     39  N   UNL A   1      39.232  30.720  31.463  1.00  0.00    -0.248 NA
ATOM     40  C   UNL A   1      38.579  29.908  29.375  1.00  0.00     0.031 C 
ATOM     41  C   UNL A   1      42.440  27.620  31.667  1.00  0.00     0.029 A 
ATOM     42  N   UNL A   1      41.488  29.340  32.734  1.00  0.00    -0.354 N 
ATOM     43  C   UNL A   1      38.172  31.483  30.985  1.00  0.00     0.074 A 
ATOM     44  C   UNL A   1      37.832  30.962  29.679  1.00  0.00     0.031 C 
ATOM     45  C   UNL A   1      43.014  27.709  32.875  1.00  0.00     0.029 A 
ATOM     46  C   UNL A   1      42.421  28.826  33.603  1.00  0.00     0.049 A 
ATOM     47  H   UNL A   1      40.946  30.138  32.932  1.00  0.00     0.167 HD
ATOM     48  C   UNL A   1      37.535  32.516  31.586  1.00  0.00     0.031 A 
ATOM     49  C   UNL A   1      42.762  29.199  34.852  1.00  0.00     0.031 A 
ATOM     50  C   UNL A   1      37.868  33.021  32.893  1.00  0.00     0.049 A 
ATOM     51  C   UNL A   1      42.059  30.362  35.485  1.00  0.00     0.074 A 
ATOM     52  C   UNL A   1      37.264  34.053  33.591  1.00  0.00     0.029 A 
ATOM     53  N   UNL A   1      38.885  32.535  33.700  1.00  0.00    -0.354 N 
ATOM     54  N   UNL A   1      41.062  31.072  35.012  1.00  0.00    -0.248 NA
ATOM     55  C   UNL A   1      42.532  30.785  36.809  1.00  0.00     0.031 C 
ATOM     56  C   UNL A   1      37.950  34.225  34.796  1.00  0.00     0.029 A 
ATOM     57  C   UNL A   1      38.945  33.263  34.876  1.00  0.00     0.049 A 
ATOM     58  H   UNL A   1      39.477  31.782  33.470  1.00  0.00     0.167 HD
ATOM     59  C   UNL A   1      40.797  32.037  35.975  1.00  0.00     0.074 A 
ATOM     60  C   UNL A   1      41.714  31.797  37.073  1.00  0.00     0.031 C 
ATOM     61  C   UNL A   1      39.883  33.036  35.945  1.00  0.00     0.031 A 
BRANCH  48  62
ATOM     62  C   UNL A   1      36.406  33.186  30.848  1.00  0.00    -0.014 A 
ATOM     63  C   UNL A   1      36.688  34.026  29.755  1.00  0.00     0.010 A 
ATOM     64  C   UNL A   1      35.079  33.076  31.301  1.00  0.00     0.010 A 
ATOM     65  C   UNL A   1      35.671  34.764  29.143  1.00  0.00     0.020 A 
ATOM     66  C   UNL A   1      34.054  33.794  30.677  1.00  0.00     0.020 A 
ATOM     67  C   UNL A   1      34.360  34.649  29.615  1.00  0.00     0.054 A 
BRANCH  67  68
ATOM     68  S   UNL A   1      33.051  35.622  28.819  1.00  0.00     0.124 S 
ATOM     69  O   UNL A   1      32.318  36.150  29.965  1.00  0.00    -0.237 OA
ATOM     70  O   UNL A   1      33.806  36.604  28.044  1.00  0.00    -0.237 OA
ATOM     71  O   UNL A   1      32.333  34.632  28.018  1.00  0.00    -0.744 OA
ENDBRANCH  67  68
ENDBRANCH  48  62
BRANCH  49  72
ATOM     72  C   UNL A   1      43.811  28.429  35.571  1.00  0.00    -0.014 A 
ATOM     73  C   UNL A   1      43.453  27.374  36.430  1.00  0.00     0.010 A 
ATOM     74  C   UNL A   1      45.160  28.818  35.488  1.00  0.00     0.010 A 
ATOM     75  C   UNL A   1      44.409  26.766  37.245  1.00  0.00     0.020 A 
ATOM     76  C   UNL A   1      46.126  28.192  36.282  1.00  0.00     0.020 A 
ATOM     77  C   UNL A   1      45.738  27.194  37.179  1.00  0.00     0.054 A 
BRANCH  77  78
ATOM     78  S   UNL A   1      46.956  26.442  38.293  1.00  0.00     0.124 S 
ATOM     79  O   UNL A   1      47.310  25.225  37.568  1.00  0.00    -0.237 OA
ATOM     80  O   UNL A   1      48.002  27.460  38.363  1.00  0.00    -0.237 OA
ATOM     81  O   UNL A   1      46.205  26.240  39.529  1.00  0.00    -0.744 OA
ENDBRANCH  77  78
ENDBRANCH  49  72
BRANCH  61  82
ATOM     82  C   UNL A   1      39.845  33.983  37.114  1.00  0.00    -0.014 A 
ATOM     83  C   UNL A   1      39.103  33.658  38.263  1.00  0.00     0.010 A 
ATOM     84  C   UNL A   1      40.466  35.242  37.029  1.00  0.00     0.010 A 
ATOM     85  C   UNL A   1      38.962  34.583  39.299  1.00  0.00     0.020 A 
ATOM     86  C   UNL A   1      40.346  36.162  38.074  1.00  0.00     0.020 A 
ATOM     87  C   UNL A   1      39.577  35.834  39.194  1.00  0.00     0.054 A 
BRANCH  87  88
ATOM     88  S   UNL A   1      39.380  37.028  40.544  1.00  0.00     0.124 S 
ATOM     89  O   UNL A   1      38.749  38.157  39.865  1.00  0.00    -0.237 OA
ATOM     90  O   UNL A   1      38.533  36.310  41.493  1.00  0.00    -0.237 OA
ATOM     91  O   UNL A   1      40.751  37.259  40.997  1.00  0.00    -0.744 OA
ENDBRANCH  87  88
ENDBRANCH  61  82
ENDBRANCH  35  36
ENDBRANCH  27  30
ENDBRANCH  25  26
ENDBRANCH   1  25
TORSDOF 16
ENDMDL
MODEL 2
REMARK VINA RESULT:     -11.8      5.228     10.511
REMARK SMILES CCc1c(Cl)ccc2c1C=C(C(=O)NCCCCNC(=O)c1ccc(-c3c4nc(c(-c5ccc(S(=O)(=O)[O-])cc5)c5ccc([nH]5)c(-c5ccc(S(=O)(=O)[O-])cc5)c5nc(c(-c6ccc(S(=O)(=O)[O-])cc6)c6ccc3[nH]6)C=C5)C=C4)cc1)[C@@H](C(F)(F)F)O2
REMARK SMILES IDX 17 1 16 2 15 3 14 4 12 5 13 6 11 8 3 9 4 10 9 11 5 12 6 13
REMARK SMILES IDX 8 14 10 15 7 16 87 17 82 18 2 19 1 20 83 21 84 22 85 23
REMARK SMILES IDX 86 24 18 25 19 26 20 27 21 29 22 30 23 31 81 32 24 33 80 34
REMARK SMILES IDX 25 35 26 36 27 37 74 38 28 39 79 40 73 41 75 42 29 43 78 44
REMARK SMILES IDX 72 45 71 46 30 48 60 49 41 50 59 51 42 52 45 53 58 54 76 55
REMARK SMILES IDX 43 56 44 57 57 59 77 60 46 61 31 62 32 63 40 64 33 65 39 66
REMARK SMILES IDX 34 67 35 68 36 69 37 70 38 71 61 72 62 73 70 74 63 75 69 76
REMARK SMILES IDX 64 77 65 78 66 79 67 80 68 81 47 82 48 83 56 84 49 85 55 86
REMARK SMILES IDX 50 87 51 88 52 89 53 90 54 91
REMARK H PARENT 14 7 19 28 75 47 45 58
REMARK Flexibility Score: inf
ROOT
ATOM      1  C   UNL A   1      32.642  28.324  26.707  1.00  0.00     0.023 C 
ENDROOT
BRANCH   1   2
ATOM      2  C   UNL A   1      31.594  29.409  26.448  1.00  0.00     0.023 C 
BRANCH   2   3
ATOM      3  C   UNL A   1      31.488  29.846  24.989  1.00  0.00     0.116 C 
BRANCH   3   4
ATOM      4  N   UNL A   1      30.394  29.186  24.296  1.00  0.00    -0.352 N 
ATOM      5  C   UNL A   1      30.195  28.015  23.648  1.00  0.00     0.251 C 
ATOM      6  O   UNL A   1      29.057  27.850  23.196  1.00  0.00    -0.270 OA
ATOM      7  H   UNL A   1      29.580  29.738  24.300  1.00  0.00     0.163 HD
BRANCH   5   8
ATOM      8  C   UNL A   1      31.224  26.947  23.446  1.00  0.00     0.067 C 
ATOM      9  C   UNL A   1      32.506  23.983  25.360  1.00  0.00    -0.019 A 
ATOM     10  C   UNL A   1      33.462  22.964  25.137  1.00  0.00     0.045 A 
ATOM     11  C   UNL A   1      32.259  24.911  24.315  1.00  0.00     0.022 A 
ATOM     12  Cl  UNL A   1      33.867  21.790  26.345  1.00  0.00    -0.084 Cl
ATOM     13  C   UNL A   1      34.134  22.852  23.918  1.00  0.00     0.024 A 
ATOM     14  C   UNL A   1      32.955  24.781  23.103  1.00  0.00     0.128 A 
ATOM     15  C   UNL A   1      31.277  25.999  24.402  1.00  0.00     0.026 C 
ATOM     16  C   UNL A   1      33.874  23.757  22.898  1.00  0.00     0.048 A 
ATOM     17  O   UNL A   1      32.755  25.602  22.028  1.00  0.00    -0.475 OA
ATOM     18  C   UNL A   1      32.183  26.908  22.298  1.00  0.00     0.314 C 
BRANCH   9  19
ATOM     19  C   UNL A   1      31.808  24.083  26.705  1.00  0.00     0.034 C 
ATOM     20  C   UNL A   1      30.571  23.198  26.770  1.00  0.00     0.009 C 
ENDBRANCH   9  19
BRANCH  18  21
ATOM     21  C   UNL A   1      33.317  27.941  22.434  1.00  0.00     0.429 C 
ATOM     22  F   UNL A   1      32.840  29.196  22.234  1.00  0.00    -0.167 F 
ATOM     23  F   UNL A   1      33.881  27.937  23.664  1.00  0.00    -0.167 F 
ATOM     24  F   UNL A   1      34.313  27.742  21.542  1.00  0.00    -0.167 F 
ENDBRANCH  18  21
ENDBRANCH   5   8
ENDBRANCH   3   4
ENDBRANCH   2   3
ENDBRANCH   1   2
BRANCH   1  25
ATOM     25  C   UNL A   1      33.775  28.715  27.654  1.00  0.00     0.116 C 
BRANCH  25  26
ATOM     26  N   UNL A   1      33.833  30.137  27.966  1.00  0.00    -0.352 N 
ATOM     27  C   UNL A   1      34.920  30.865  28.401  1.00  0.00     0.251 C 
ATOM     28  H   UNL A   1      32.994  30.639  27.853  1.00  0.00     0.163 HD
ATOM     29  O   UNL A   1      34.799  32.051  28.691  1.00  0.00    -0.269 OA
BRANCH  27  30
ATOM     30  C   UNL A   1      36.216  30.177  28.561  1.00  0.00     0.039 A 
ATOM     31  C   UNL A   1      36.592  29.678  29.808  1.00  0.00     0.014 A 
ATOM     32  C   UNL A   1      37.096  30.116  27.477  1.00  0.00     0.014 A 
ATOM     33  C   UNL A   1      37.908  29.291  30.017  1.00  0.00     0.010 A 
ATOM     34  C   UNL A   1      38.397  29.642  27.671  1.00  0.00     0.010 A 
ATOM     35  C   UNL A   1      38.831  29.280  28.955  1.00  0.00    -0.014 A 
BRANCH  35  36
ATOM     36  C   UNL A   1      40.236  28.886  29.235  1.00  0.00     0.031 A 
ATOM     37  C   UNL A   1      40.768  27.545  28.804  1.00  0.00     0.074 A 
ATOM     38  C   UNL A   1      41.063  29.794  29.787  1.00  0.00     0.049 A 
ATOM     39  N   UNL A   1      41.997  27.097  28.860  1.00  0.00    -0.248 NA
ATOM     40  C   UNL A   1      39.808  26.582  28.238  1.00  0.00     0.031 C 
ATOM     41  C   UNL A   1      40.659  31.131  30.231  1.00  0.00     0.029 A 
ATOM     42  N   UNL A   1      42.414  29.761  30.016  1.00  0.00    -0.354 N 
ATOM     43  C   UNL A   1      41.957  25.804  28.351  1.00  0.00     0.074 A 
ATOM     44  C   UNL A   1      40.578  25.524  28.016  1.00  0.00     0.031 C 
ATOM     45  C   UNL A   1      41.751  31.821  30.591  1.00  0.00     0.029 A 
ATOM     46  C   UNL A   1      42.921  30.957  30.467  1.00  0.00     0.049 A 
ATOM     47  H   UNL A   1      42.967  28.959  29.873  1.00  0.00     0.167 HD
ATOM     48  C   UNL A   1      42.979  24.934  28.170  1.00  0.00     0.031 A 
ATOM     49  C   UNL A   1      44.186  31.330  30.744  1.00  0.00     0.031 A 
ATOM     50  C   UNL A   1      44.353  25.223  28.491  1.00  0.00     0.049 A 
ATOM     51  C   UNL A   1      45.297  30.340  30.560  1.00  0.00     0.074 A 
ATOM     52  C   UNL A   1      45.460  24.409  28.324  1.00  0.00     0.029 A 
ATOM     53  N   UNL A   1      44.810  26.412  29.038  1.00  0.00    -0.354 N 
ATOM     54  N   UNL A   1      45.235  29.120  30.081  1.00  0.00    -0.248 NA
ATOM     55  C   UNL A   1      46.642  30.767  30.964  1.00  0.00     0.031 C 
ATOM     56  C   UNL A   1      46.578  25.086  28.820  1.00  0.00     0.029 A 
ATOM     57  C   UNL A   1      46.178  26.344  29.242  1.00  0.00     0.049 A 
ATOM     58  H   UNL A   1      44.245  27.190  29.250  1.00  0.00     0.167 HD
ATOM     59  C   UNL A   1      46.532  28.627  30.140  1.00  0.00     0.074 A 
ATOM     60  C   UNL A   1      47.363  29.692  30.667  1.00  0.00     0.031 C 
ATOM     61  C   UNL A   1      46.988  27.398  29.798  1.00  0.00     0.031 A 
BRANCH  48  62
ATOM     62  C   UNL A   1      42.669  23.576  27.598  1.00  0.00    -0.014 A 
ATOM     63  C   UNL A   1      42.279  22.530  28.455  1.00  0.00     0.010 A 
ATOM     64  C   UNL A   1      42.871  23.303  26.233  1.00  0.00     0.010 A 
ATOM     65  C   UNL A   1      42.120  21.231  27.965  1.00  0.00     0.020 A 
ATOM     66  C   UNL A   1      42.690  22.008  25.734  1.00  0.00     0.020 A 
ATOM     67  C   UNL A   1      42.335  20.977  26.608  1.00  0.00     0.054 A 
BRANCH  67  68
ATOM     68  S   UNL A   1      42.137  19.283  25.988  1.00  0.00     0.124 S 
ATOM     69  O   UNL A   1      42.983  19.288  24.798  1.00  0.00    -0.237 OA
ATOM     70  O   UNL A   1      42.620  18.473  27.104  1.00  0.00    -0.237 OA
ATOM     71  O   UNL A   1      40.700  19.181  25.736  1.00  0.00    -0.744 OA
ENDBRANCH  67  68
ENDBRANCH  48  62
BRANCH  49  72
ATOM     72  C   UNL A   1      44.441  32.721  31.204  1.00  0.00    -0.014 A 
ATOM     73  C   UNL A   1      44.274  33.062  32.558  1.00  0.00     0.010 A 
ATOM     74  C   UNL A   1      44.742  33.732  30.274  1.00  0.00     0.010 A 
ATOM     75  C   UNL A   1      44.334  34.395  32.967  1.00  0.00     0.020 A 
ATOM     76  C   UNL A   1      44.831  35.066  30.684  1.00  0.00     0.020 A 
ATOM     77  C   UNL A   1      44.593  35.391  32.022  1.00  0.00     0.054 A 
BRANCH  77  78
ATOM     78  S   UNL A   1      44.599  37.125  32.556  1.00  0.00     0.124 S 
ATOM     79  O   UNL A   1      43.670  37.091  33.683  1.00  0.00    -0.237 OA
ATOM     80  O   UNL A   1      46.000  37.351  32.904  1.00  0.00    -0.237 OA
ATOM     81  O   UNL A   1      44.130  37.845  31.376  1.00  0.00    -0.744 OA
ENDBRANCH  77  78
ENDBRANCH  49  72
BRANCH  61  82
ATOM     82  C   UNL A   1      48.448  27.109  30.016  1.00  0.00    -0.014 A 
ATOM     83  C   UNL A   1      48.887  26.573  31.239  1.00  0.00     0.010 A 
ATOM     84  C   UNL A   1      49.397  27.464  29.040  1.00  0.00     0.010 A 
ATOM     85  C   UNL A   1      50.251  26.417  31.494  1.00  0.00     0.020 A 
ATOM     86  C   UNL A   1      50.761  27.288  29.283  1.00  0.00     0.020 A 
ATOM     87  C   UNL A   1      51.181  26.785  30.517  1.00  0.00     0.054 A 
BRANCH  87  88
ATOM     88  S   UNL A   1      52.949  26.584  30.864  1.00  0.00     0.124 S 
ATOM     89  O   UNL A   1      52.951  25.476  31.816  1.00  0.00    -0.237 OA
ATOM     90  O   UNL A   1      53.507  26.284  29.548  1.00  0.00    -0.237 OA
ATOM     91  O   UNL A   1      53.338  27.881  31.414  1.00  0.00    -0.744 OA
ENDBRANCH  87  88
ENDBRANCH  61  82
ENDBRANCH  35  36
ENDBRANCH  27  30
ENDBRANCH  25  26
ENDBRANCH   1  25
TORSDOF 16
ENDMDL
MODEL 3
REMARK VINA RESULT:     -11.8      6.546     11.949
REMARK SMILES CCc1c(Cl)ccc2c1C=C(C(=O)NCCCCNC(=O)c1ccc(-c3c4nc(c(-c5ccc(S(=O)(=O)[O-])cc5)c5ccc([nH]5)c(-c5ccc(S(=O)(=O)[O-])cc5)c5nc(c(-c6ccc(S(=O)(=O)[O-])cc6)c6ccc3[nH]6)C=C5)C=C4)cc1)[C@@H](C(F)(F)F)O2
REMARK SMILES IDX 17 1 16 2 15 3 14 4 12 5 13 6 11 8 3 9 4 10 9 11 5 12 6 13
REMARK SMILES IDX 8 14 10 15 7 16 87 17 82 18 2 19 1 20 83 21 84 22 85 23
REMARK SMILES IDX 86 24 18 25 19 26 20 27 21 29 22 30 23 31 81 32 24 33 80 34
REMARK SMILES IDX 25 35 26 36 27 37 74 38 28 39 79 40 73 41 75 42 29 43 78 44
REMARK SMILES IDX 72 45 71 46 30 48 60 49 41 50 59 51 42 52 45 53 58 54 76 55
REMARK SMILES IDX 43 56 44 57 57 59 77 60 46 61 31 62 32 63 40 64 33 65 39 66
REMARK SMILES IDX 34 67 35 68 36 69 37 70 38 71 61 72 62 73 70 74 63 75 69 76
REMARK SMILES IDX 64 77 65 78 66 79 67 80 68 81 47 82 48 83 56 84 49 85 55 86
REMARK SMILES IDX 50 87 51 88 52 89 53 90 54 91
REMARK H PARENT 14 7 19 28 75 47 45 58
REMARK Flexibility Score: inf
ROOT
ATOM      1  C   UNL A   1      35.543  31.966  27.732  1.00  0.00     0.023 C 
ENDROOT
BRANCH   1   2
ATOM      2  C   UNL A   1      34.209  31.214  27.708  1.00  0.00     0.023 C 
BRANCH   2   3
ATOM      3  C   UNL A   1      34.314  29.761  27.254  1.00  0.00     0.116 C 
BRANCH   3   4
ATOM      4  N   UNL A   1      34.011  29.604  25.841  1.00  0.00    -0.352 N 
ATOM      5  C   UNL A   1      33.487  28.648  25.041  1.00  0.00     0.251 C 
ATOM      6  O   UNL A   1      33.398  28.952  23.847  1.00  0.00    -0.270 OA
ATOM      7  H   UNL A   1      34.250  30.410  25.331  1.00  0.00     0.163 HD
BRANCH   5   8
ATOM      8  C   UNL A   1      33.027  27.296  25.488  1.00  0.00     0.067 C 
ATOM      9  C   UNL A   1      34.471  23.835  25.676  1.00  0.00    -0.019 A 
ATOM     10  C   UNL A   1      34.029  22.572  26.133  1.00  0.00     0.045 A 
ATOM     11  C   UNL A   1      33.613  24.952  25.855  1.00  0.00     0.022 A 
ATOM     12  Cl  UNL A   1      34.976  21.133  25.947  1.00  0.00    -0.084 Cl
ATOM     13  C   UNL A   1      32.792  22.420  26.764  1.00  0.00     0.024 A 
ATOM     14  C   UNL A   1      32.372  24.769  26.485  1.00  0.00     0.128 A 
ATOM     15  C   UNL A   1      33.957  26.321  25.453  1.00  0.00     0.026 C 
ATOM     16  C   UNL A   1      31.967  23.521  26.946  1.00  0.00     0.048 A 
ATOM     17  O   UNL A   1      31.498  25.790  26.735  1.00  0.00    -0.475 OA
ATOM     18  C   UNL A   1      31.629  26.981  25.918  1.00  0.00     0.314 C 
BRANCH   9  19
ATOM     19  C   UNL A   1      35.815  23.959  24.979  1.00  0.00     0.034 C 
ATOM     20  C   UNL A   1      36.974  23.888  25.963  1.00  0.00     0.009 C 
ENDBRANCH   9  19
BRANCH  18  21
ATOM     21  C   UNL A   1      30.647  26.897  24.734  1.00  0.00     0.429 C 
ATOM     22  F   UNL A   1      30.118  28.119  24.471  1.00  0.00    -0.167 F 
ATOM     23  F   UNL A   1      31.242  26.483  23.592  1.00  0.00    -0.167 F 
ATOM     24  F   UNL A   1      29.617  26.054  24.972  1.00  0.00    -0.167 F 
ENDBRANCH  18  21
ENDBRANCH   5   8
ENDBRANCH   3   4
ENDBRANCH   2   3
ENDBRANCH   1   2
BRANCH   1  25
ATOM     25  C   UNL A   1      36.032  32.397  29.114  1.00  0.00     0.116 C 
BRANCH  25  26
ATOM     26  N   UNL A   1      35.717  31.458  30.183  1.00  0.00    -0.352 N 
ATOM     27  C   UNL A   1      36.540  30.506  30.744  1.00  0.00     0.251 C 
ATOM     28  H   UNL A   1      34.805  31.510  30.549  1.00  0.00     0.163 HD
ATOM     29  O   UNL A   1      36.111  29.735  31.597  1.00  0.00    -0.269 OA
BRANCH  27  30
ATOM     30  C   UNL A   1      37.931  30.398  30.261  1.00  0.00     0.039 A 
ATOM     31  C   UNL A   1      38.186  29.977  28.956  1.00  0.00     0.014 A 
ATOM     32  C   UNL A   1      38.984  30.629  31.151  1.00  0.00     0.014 A 
ATOM     33  C   UNL A   1      39.476  29.611  28.600  1.00  0.00     0.010 A 
ATOM     34  C   UNL A   1      40.295  30.341  30.758  1.00  0.00     0.010 A 
ATOM     35  C   UNL A   1      40.544  29.775  29.499  1.00  0.00    -0.014 A 
BRANCH  35  36
ATOM     36  C   UNL A   1      41.902  29.340  29.082  1.00  0.00     0.031 A 
ATOM     37  C   UNL A   1      42.149  27.945  28.570  1.00  0.00     0.074 A 
ATOM     38  C   UNL A   1      42.895  30.250  29.067  1.00  0.00     0.049 A 
ATOM     39  N   UNL A   1      43.243  27.447  28.051  1.00  0.00    -0.248 NA
ATOM     40  C   UNL A   1      41.034  26.986  28.643  1.00  0.00     0.031 C 
ATOM     41  C   UNL A   1      42.766  31.635  29.528  1.00  0.00     0.029 A 
ATOM     42  N   UNL A   1      44.182  30.173  28.600  1.00  0.00    -0.354 N 
ATOM     43  C   UNL A   1      42.955  26.121  27.750  1.00  0.00     0.074 A 
ATOM     44  C   UNL A   1      41.591  25.880  28.167  1.00  0.00     0.031 C 
ATOM     45  C   UNL A   1      43.893  32.300  29.236  1.00  0.00     0.029 A 
ATOM     46  C   UNL A   1      44.847  31.376  28.629  1.00  0.00     0.049 A 
ATOM     47  H   UNL A   1      44.590  29.338  28.276  1.00  0.00     0.167 HD
ATOM     48  C   UNL A   1      43.752  25.194  27.167  1.00  0.00     0.031 A 
ATOM     49  C   UNL A   1      46.083  31.711  28.209  1.00  0.00     0.031 A 
ATOM     50  C   UNL A   1      45.104  25.444  26.739  1.00  0.00     0.049 A 
ATOM     51  C   UNL A   1      46.954  30.660  27.592  1.00  0.00     0.074 A 
ATOM     52  C   UNL A   1      45.982  24.569  26.122  1.00  0.00     0.029 A 
ATOM     53  N   UNL A   1      45.773  26.650  26.877  1.00  0.00    -0.354 N 
ATOM     54  N   UNL A   1      46.662  29.410  27.320  1.00  0.00    -0.248 NA
ATOM     55  C   UNL A   1      48.323  31.054  27.237  1.00  0.00     0.031 C 
ATOM     56  C   UNL A   1      47.198  25.230  25.935  1.00  0.00     0.029 A 
ATOM     57  C   UNL A   1      47.062  26.535  26.383  1.00  0.00     0.049 A 
ATOM     58  H   UNL A   1      45.389  27.468  27.268  1.00  0.00     0.167 HD
ATOM     59  C   UNL A   1      47.816  28.863  26.774  1.00  0.00     0.074 A 
ATOM     60  C   UNL A   1      48.800  29.927  26.722  1.00  0.00     0.031 C 
ATOM     61  C   UNL A   1      48.041  27.592  26.366  1.00  0.00     0.031 A 
BRANCH  48  62
ATOM     62  C   UNL A   1      43.198  23.810  26.950  1.00  0.00    -0.014 A 
ATOM     63  C   UNL A   1      43.198  22.884  28.010  1.00  0.00     0.010 A 
ATOM     64  C   UNL A   1      42.782  23.389  25.674  1.00  0.00     0.010 A 
ATOM     65  C   UNL A   1      42.817  21.557  27.795  1.00  0.00     0.020 A 
ATOM     66  C   UNL A   1      42.376  22.068  25.460  1.00  0.00     0.020 A 
ATOM     67  C   UNL A   1      42.416  21.155  26.518  1.00  0.00     0.054 A 
BRANCH  67  68
ATOM     68  S   UNL A   1      41.935  19.426  26.250  1.00  0.00     0.124 S 
ATOM     69  O   UNL A   1      40.490  19.530  26.077  1.00  0.00    -0.237 OA
ATOM     70  O   UNL A   1      42.690  19.063  25.053  1.00  0.00    -0.237 OA
ATOM     71  O   UNL A   1      42.374  18.759  27.475  1.00  0.00    -0.744 OA
ENDBRANCH  67  68
ENDBRANCH  48  62
BRANCH  49  72
ATOM     72  C   UNL A   1      46.533  33.120  28.353  1.00  0.00    -0.014 A 
ATOM     73  C   UNL A   1      47.240  33.526  29.500  1.00  0.00     0.010 A 
ATOM     74  C   UNL A   1      46.161  34.085  27.400  1.00  0.00     0.010 A 
ATOM     75  C   UNL A   1      47.508  34.876  29.728  1.00  0.00     0.020 A 
ATOM     76  C   UNL A   1      46.453  35.436  27.612  1.00  0.00     0.020 A 
ATOM     77  C   UNL A   1      47.094  35.825  28.790  1.00  0.00     0.054 A 
BRANCH  77  78
ATOM     78  S   UNL A   1      47.389  37.582  29.135  1.00  0.00     0.124 S 
ATOM     79  O   UNL A   1      47.899  38.055  27.850  1.00  0.00    -0.237 OA
ATOM     80  O   UNL A   1      46.060  38.066  29.501  1.00  0.00    -0.237 OA
ATOM     81  O   UNL A   1      48.360  37.555  30.224  1.00  0.00    -0.744 OA
ENDBRANCH  77  78
ENDBRANCH  49  72
BRANCH  61  82
ATOM     82  C   UNL A   1      49.417  27.253  25.859  1.00  0.00    -0.014 A 
ATOM     83  C   UNL A   1      49.754  27.496  24.516  1.00  0.00     0.010 A 
ATOM     84  C   UNL A   1      50.342  26.601  26.694  1.00  0.00     0.010 A 
ATOM     85  C   UNL A   1      50.984  27.073  24.008  1.00  0.00     0.020 A 
ATOM     86  C   UNL A   1      51.583  26.197  26.195  1.00  0.00     0.020 A 
ATOM     87  C   UNL A   1      51.888  26.417  24.849  1.00  0.00     0.054 A 
BRANCH  87  88
ATOM     88  S   UNL A   1      53.478  25.867  24.175  1.00  0.00     0.124 S 
ATOM     89  O   UNL A   1      53.253  25.967  22.736  1.00  0.00    -0.237 OA
ATOM     90  O   UNL A   1      54.421  26.834  24.735  1.00  0.00    -0.237 OA
ATOM     91  O   UNL A   1      53.616  24.506  24.693  1.00  0.00    -0.744 OA
ENDBRANCH  87  88
ENDBRANCH  61  82
ENDBRANCH  35  36
ENDBRANCH  27  30
ENDBRANCH  25  26
ENDBRANCH   1  25
TORSDOF 16
ENDMDL
