MODEL 1
REMARK VINA RESULT:     -12.7      0.000      0.000
REMARK SMILES O=C(NCCCCNC(=O)c1cc([C@@H]2C=NN=C2c2ccc(F)cc2)c2c(ccc3ccccc32)n1)c1ccc(-c2c3nc(c(-c4ccc(S(=O)(=O)[O-])cc4)c4ccc([nH]4)c(-c4ccc(S(=O)(=O)[O-])cc4)c4nc(c(-c5ccc(S(=O)(=O)[O-])cc5)c5ccc2[nH]5)C=C4)C=C3)cc1
REMARK SMILES IDX 5 1 4 2 3 3 1 4 2 5 37 7 38 8 96 9 39 10 95 11 40 12 41 13
REMARK SMILES IDX 42 14 89 15 43 16 94 17 88 18 90 19 44 20 93 21 87 22 86 23
REMARK SMILES IDX 45 25 75 26 56 27 74 28 57 29 60 30 73 31 91 32 58 33 59 34
REMARK SMILES IDX 72 36 92 37 61 38 46 39 47 40 55 41 48 42 54 43 49 44 50 45
REMARK SMILES IDX 51 46 52 47 53 48 76 49 77 50 85 51 78 52 84 53 79 54 80 55
REMARK SMILES IDX 81 56 82 57 83 58 62 59 63 60 71 61 64 62 70 63 65 64 66 65
REMARK SMILES IDX 67 66 68 67 69 68 6 69 7 70 8 71 9 72 10 74 11 75 12 76
REMARK SMILES IDX 36 77 13 78 27 79 26 80 28 81 35 82 29 83 30 84 34 85 31 86
REMARK SMILES IDX 33 87 32 88 14 89 15 90 18 91 16 92 17 93 19 94 20 95 25 96
REMARK SMILES IDX 21 97 24 98 22 99 23 100
REMARK H PARENT 3 6 90 24 60 35 8 73
REMARK Flexibility Score: inf
ROOT
ATOM      1  C   UNL A   1      34.118  34.030  29.291  1.00  0.00     0.023 C 
ENDROOT
BRANCH   1   2
ATOM      2  C   UNL A   1      34.146  34.968  30.498  1.00  0.00     0.116 C 
BRANCH   2   3
ATOM      3  N   UNL A   1      33.888  34.343  31.778  1.00  0.00    -0.352 N 
ATOM      4  O   UNL A   1      34.137  33.385  33.751  1.00  0.00    -0.269 OA
ATOM      5  C   UNL A   1      34.632  33.580  32.638  1.00  0.00     0.251 C 
ATOM      6  H   UNL A   1      32.972  34.502  32.103  1.00  0.00     0.163 HD
BRANCH   5   7
ATOM      7  C   UNL A   1      35.927  32.930  32.300  1.00  0.00     0.039 A 
ATOM      8  C   UNL A   1      37.160  33.574  32.201  1.00  0.00     0.014 A 
ATOM      9  C   UNL A   1      35.871  31.545  32.051  1.00  0.00     0.014 A 
ATOM     10  C   UNL A   1      38.288  32.879  31.774  1.00  0.00     0.010 A 
ATOM     11  C   UNL A   1      36.999  30.840  31.643  1.00  0.00     0.010 A 
ATOM     12  C   UNL A   1      38.204  31.517  31.479  1.00  0.00    -0.014 A 
BRANCH  12  13
ATOM     13  C   UNL A   1      39.444  30.793  31.210  1.00  0.00     0.031 A 
ATOM     14  C   UNL A   1      40.323  30.628  32.402  1.00  0.00     0.074 A 
ATOM     15  C   UNL A   1      39.726  30.160  30.054  1.00  0.00     0.049 A 
ATOM     16  N   UNL A   1      41.509  31.104  32.595  1.00  0.00    -0.248 NA
ATOM     17  C   UNL A   1      39.751  29.946  33.575  1.00  0.00     0.031 C 
ATOM     18  C   UNL A   1      38.838  29.971  28.906  1.00  0.00     0.029 A 
ATOM     19  N   UNL A   1      40.837  29.443  29.710  1.00  0.00    -0.354 N 
ATOM     20  C   UNL A   1      41.924  30.592  33.824  1.00  0.00     0.074 A 
ATOM     21  C   UNL A   1      40.747  30.050  34.454  1.00  0.00     0.031 C 
ATOM     22  C   UNL A   1      39.348  29.009  28.104  1.00  0.00     0.029 A 
ATOM     23  C   UNL A   1      40.651  28.609  28.611  1.00  0.00     0.049 A 
ATOM     24  H   UNL A   1      41.690  29.510  30.194  1.00  0.00     0.167 HD
ATOM     25  C   UNL A   1      43.241  30.407  34.121  1.00  0.00     0.031 A 
ATOM     26  C   UNL A   1      41.473  27.612  28.190  1.00  0.00     0.031 A 
ATOM     27  C   UNL A   1      44.104  31.152  33.244  1.00  0.00     0.049 A 
ATOM     28  C   UNL A   1      42.812  27.855  28.773  1.00  0.00     0.074 A 
ATOM     29  C   UNL A   1      44.243  32.482  32.903  1.00  0.00     0.029 A 
ATOM     30  N   UNL A   1      44.783  30.443  32.282  1.00  0.00    -0.354 N 
ATOM     31  N   UNL A   1      43.580  28.850  28.431  1.00  0.00    -0.248 NA
ATOM     32  C   UNL A   1      43.151  27.210  30.032  1.00  0.00     0.031 C 
ATOM     33  C   UNL A   1      44.587  32.476  31.519  1.00  0.00     0.029 A 
ATOM     34  C   UNL A   1      44.694  31.146  31.110  1.00  0.00     0.049 A 
ATOM     35  H   UNL A   1      45.249  29.586  32.412  1.00  0.00     0.167 HD
ATOM     36  C   UNL A   1      44.207  29.233  29.607  1.00  0.00     0.074 A 
ATOM     37  C   UNL A   1      43.994  28.119  30.527  1.00  0.00     0.031 C 
ATOM     38  C   UNL A   1      44.595  30.527  29.807  1.00  0.00     0.031 A 
BRANCH  25  39
ATOM     39  C   UNL A   1      43.742  29.213  34.908  1.00  0.00    -0.014 A 
ATOM     40  C   UNL A   1      43.338  27.919  34.514  1.00  0.00     0.010 A 
ATOM     41  C   UNL A   1      44.335  29.332  36.183  1.00  0.00     0.010 A 
ATOM     42  C   UNL A   1      43.435  26.829  35.390  1.00  0.00     0.020 A 
ATOM     43  C   UNL A   1      44.484  28.244  37.042  1.00  0.00     0.020 A 
ATOM     44  C   UNL A   1      43.993  27.005  36.656  1.00  0.00     0.054 A 
BRANCH  44  45
ATOM     45  S   UNL A   1      44.005  25.626  37.826  1.00  0.00     0.124 S 
ATOM     46  O   UNL A   1      45.371  25.131  37.688  1.00  0.00    -0.237 OA
ATOM     47  O   UNL A   1      43.694  26.290  39.089  1.00  0.00    -0.237 OA
ATOM     48  O   UNL A   1      42.960  24.740  37.318  1.00  0.00    -0.744 OA
ENDBRANCH  44  45
ENDBRANCH  25  39
BRANCH  26  49
ATOM     49  C   UNL A   1      41.112  26.320  27.551  1.00  0.00    -0.014 A 
ATOM     50  C   UNL A   1      42.023  25.645  26.715  1.00  0.00     0.010 A 
ATOM     51  C   UNL A   1      39.978  25.608  27.988  1.00  0.00     0.010 A 
ATOM     52  C   UNL A   1      41.842  24.288  26.389  1.00  0.00     0.020 A 
ATOM     53  C   UNL A   1      39.783  24.261  27.659  1.00  0.00     0.020 A 
ATOM     54  C   UNL A   1      40.731  23.599  26.883  1.00  0.00     0.054 A 
BRANCH  54  55
ATOM     55  S   UNL A   1      40.598  21.805  26.620  1.00  0.00     0.124 S 
ATOM     56  O   UNL A   1      39.288  21.679  25.990  1.00  0.00    -0.237 OA
ATOM     57  O   UNL A   1      41.743  21.522  25.761  1.00  0.00    -0.237 OA
ATOM     58  O   UNL A   1      40.691  21.253  27.971  1.00  0.00    -0.744 OA
ENDBRANCH  54  55
ENDBRANCH  26  49
BRANCH  38  59
ATOM     59  C   UNL A   1      44.692  31.448  28.614  1.00  0.00    -0.014 A 
ATOM     60  C   UNL A   1      45.717  31.389  27.651  1.00  0.00     0.010 A 
ATOM     61  C   UNL A   1      43.620  32.332  28.398  1.00  0.00     0.010 A 
ATOM     62  C   UNL A   1      45.686  32.220  26.521  1.00  0.00     0.020 A 
ATOM     63  C   UNL A   1      43.572  33.146  27.266  1.00  0.00     0.020 A 
ATOM     64  C   UNL A   1      44.612  33.095  26.338  1.00  0.00     0.054 A 
BRANCH  64  65
ATOM     65  S   UNL A   1      44.557  34.142  24.857  1.00  0.00     0.124 S 
ATOM     66  O   UNL A   1      43.483  35.081  25.171  1.00  0.00    -0.237 OA
ATOM     67  O   UNL A   1      45.900  34.715  24.815  1.00  0.00    -0.237 OA
ATOM     68  O   UNL A   1      44.260  33.203  23.776  1.00  0.00    -0.744 OA
ENDBRANCH  64  65
ENDBRANCH  38  59
ENDBRANCH  12  13
ENDBRANCH   5   7
ENDBRANCH   2   3
ENDBRANCH   1   2
BRANCH   1  69
ATOM     69  C   UNL A   1      35.484  33.629  28.735  1.00  0.00     0.023 C 
BRANCH  69  70
ATOM     70  C   UNL A   1      35.475  32.495  27.721  1.00  0.00     0.116 C 
BRANCH  70  71
ATOM     71  N   UNL A   1      35.776  31.195  28.305  1.00  0.00    -0.351 N 
ATOM     72  C   UNL A   1      35.190  29.969  28.064  1.00  0.00     0.269 C 
ATOM     73  H   UNL A   1      36.504  31.191  28.968  1.00  0.00     0.163 HD
ATOM     74  O   UNL A   1      35.555  28.984  28.707  1.00  0.00    -0.268 OA
BRANCH  72  75
ATOM     75  C   UNL A   1      34.163  29.835  26.995  1.00  0.00     0.129 A 
ATOM     76  C   UNL A   1      34.292  28.860  26.037  1.00  0.00     0.039 A 
ATOM     77  N   UNL A   1      33.123  30.675  27.018  1.00  0.00    -0.243 NA
ATOM     78  C   UNL A   1      33.376  28.783  24.960  1.00  0.00    -0.021 A 
ATOM     79  C   UNL A   1      32.205  30.586  26.054  1.00  0.00     0.072 A 
ATOM     80  C   UNL A   1      32.229  29.678  24.946  1.00  0.00     0.012 A 
ATOM     81  C   UNL A   1      31.170  31.476  26.230  1.00  0.00     0.029 A 
ATOM     82  C   UNL A   1      31.087  29.774  24.008  1.00  0.00    -0.009 A 
ATOM     83  C   UNL A   1      30.101  31.550  25.354  1.00  0.00     0.011 A 
ATOM     84  C   UNL A   1      30.046  30.718  24.248  1.00  0.00    -0.018 A 
ATOM     85  C   UNL A   1      30.880  28.995  22.846  1.00  0.00     0.009 A 
ATOM     86  C   UNL A   1      28.933  30.845  23.397  1.00  0.00     0.009 A 
ATOM     87  C   UNL A   1      29.776  29.122  21.992  1.00  0.00     0.001 A 
ATOM     88  C   UNL A   1      28.796  30.051  22.269  1.00  0.00     0.001 A 
BRANCH  78  89
ATOM     89  C   UNL A   1      33.770  27.688  23.995  1.00  0.00     0.115 C 
ATOM     90  C   UNL A   1      34.196  28.071  22.626  1.00  0.00     0.123 C 
ATOM     91  C   UNL A   1      32.841  26.574  23.640  1.00  0.00     0.083 C 
ATOM     92  N   UNL A   1      33.757  27.252  21.724  1.00  0.00    -0.162 NA
ATOM     93  N   UNL A   1      32.900  26.293  22.368  1.00  0.00    -0.154 NA
BRANCH  91  94
ATOM     94  C   UNL A   1      32.089  25.766  24.624  1.00  0.00    -0.001 A 
ATOM     95  C   UNL A   1      30.784  26.170  24.939  1.00  0.00     0.013 A 
ATOM     96  C   UNL A   1      32.619  24.623  25.234  1.00  0.00     0.013 A 
ATOM     97  C   UNL A   1      30.011  25.419  25.828  1.00  0.00     0.040 A 
ATOM     98  C   UNL A   1      31.844  23.872  26.121  1.00  0.00     0.040 A 
ATOM     99  C   UNL A   1      30.546  24.273  26.406  1.00  0.00     0.123 A 
ATOM    100  F   UNL A   1      29.803  23.550  27.252  1.00  0.00    -0.207 F 
ENDBRANCH  91  94
ENDBRANCH  78  89
ENDBRANCH  72  75
ENDBRANCH  70  71
ENDBRANCH  69  70
ENDBRANCH   1  69
TORSDOF 16
ENDMDL
MODEL 2
REMARK VINA RESULT:     -12.5      3.418      9.946
REMARK SMILES O=C(NCCCCNC(=O)c1cc([C@@H]2C=NN=C2c2ccc(F)cc2)c2c(ccc3ccccc32)n1)c1ccc(-c2c3nc(c(-c4ccc(S(=O)(=O)[O-])cc4)c4ccc([nH]4)c(-c4ccc(S(=O)(=O)[O-])cc4)c4nc(c(-c5ccc(S(=O)(=O)[O-])cc5)c5ccc2[nH]5)C=C4)C=C3)cc1
REMARK SMILES IDX 5 1 4 2 3 3 1 4 2 5 37 7 38 8 96 9 39 10 95 11 40 12 41 13
REMARK SMILES IDX 42 14 89 15 43 16 94 17 88 18 90 19 44 20 93 21 87 22 86 23
REMARK SMILES IDX 45 25 75 26 56 27 74 28 57 29 60 30 73 31 91 32 58 33 59 34
REMARK SMILES IDX 72 36 92 37 61 38 46 39 47 40 55 41 48 42 54 43 49 44 50 45
REMARK SMILES IDX 51 46 52 47 53 48 76 49 77 50 85 51 78 52 84 53 79 54 80 55
REMARK SMILES IDX 81 56 82 57 83 58 62 59 63 60 71 61 64 62 70 63 65 64 66 65
REMARK SMILES IDX 67 66 68 67 69 68 6 69 7 70 8 71 9 72 10 74 11 75 12 76
REMARK SMILES IDX 36 77 13 78 27 79 26 80 28 81 35 82 29 83 30 84 34 85 31 86
REMARK SMILES IDX 33 87 32 88 14 89 15 90 18 91 16 92 17 93 19 94 20 95 25 96
REMARK SMILES IDX 21 97 24 98 22 99 23 100
REMARK H PARENT 3 6 90 24 60 35 8 73
REMARK Flexibility Score: inf
ROOT
ATOM      1  C   UNL A   1      41.919  19.980  26.600  1.00  0.00     0.023 C 
ENDROOT
BRANCH   1   2
ATOM      2  C   UNL A   1      43.403  20.247  26.352  1.00  0.00     0.116 C 
BRANCH   2   3
ATOM      3  N   UNL A   1      43.712  20.963  25.131  1.00  0.00    -0.352 N 
ATOM      4  O   UNL A   1      44.396  22.490  23.692  1.00  0.00    -0.269 OA
ATOM      5  C   UNL A   1      43.970  22.273  24.829  1.00  0.00     0.251 C 
ATOM      6  H   UNL A   1      43.742  20.375  24.341  1.00  0.00     0.163 HD
BRANCH   5   7
ATOM      7  C   UNL A   1      43.710  23.425  25.735  1.00  0.00     0.039 A 
ATOM      8  C   UNL A   1      44.120  23.525  27.064  1.00  0.00     0.014 A 
ATOM      9  C   UNL A   1      42.971  24.487  25.179  1.00  0.00     0.014 A 
ATOM     10  C   UNL A   1      43.727  24.607  27.846  1.00  0.00     0.010 A 
ATOM     11  C   UNL A   1      42.591  25.582  25.949  1.00  0.00     0.010 A 
ATOM     12  C   UNL A   1      42.949  25.627  27.293  1.00  0.00    -0.014 A 
BRANCH  12  13
ATOM     13  C   UNL A   1      42.711  26.825  28.096  1.00  0.00     0.031 A 
ATOM     14  C   UNL A   1      43.804  27.834  28.018  1.00  0.00     0.074 A 
ATOM     15  C   UNL A   1      41.552  27.111  28.719  1.00  0.00     0.049 A 
ATOM     16  N   UNL A   1      44.580  28.251  28.964  1.00  0.00    -0.248 NA
ATOM     17  C   UNL A   1      44.152  28.353  26.683  1.00  0.00     0.031 C 
ATOM     18  C   UNL A   1      40.292  26.371  28.635  1.00  0.00     0.029 A 
ATOM     19  N   UNL A   1      41.222  28.204  29.470  1.00  0.00    -0.354 N 
ATOM     20  C   UNL A   1      45.366  29.251  28.393  1.00  0.00     0.074 A 
ATOM     21  C   UNL A   1      45.190  29.139  26.967  1.00  0.00     0.031 C 
ATOM     22  C   UNL A   1      39.290  27.146  29.108  1.00  0.00     0.029 A 
ATOM     23  C   UNL A   1      39.851  28.377  29.641  1.00  0.00     0.049 A 
ATOM     24  H   UNL A   1      41.892  28.812  29.856  1.00  0.00     0.167 HD
ATOM     25  C   UNL A   1      45.890  30.268  29.134  1.00  0.00     0.031 A 
ATOM     26  C   UNL A   1      39.218  29.481  30.117  1.00  0.00     0.031 A 
ATOM     27  C   UNL A   1      45.894  29.966  30.540  1.00  0.00     0.049 A 
ATOM     28  C   UNL A   1      40.209  30.280  30.873  1.00  0.00     0.074 A 
ATOM     29  C   UNL A   1      46.420  28.961  31.326  1.00  0.00     0.029 A 
ATOM     30  N   UNL A   1      44.962  30.607  31.321  1.00  0.00    -0.354 N 
ATOM     31  N   UNL A   1      40.737  29.898  32.001  1.00  0.00    -0.248 NA
ATOM     32  C   UNL A   1      40.920  31.343  30.180  1.00  0.00     0.031 C 
ATOM     33  C   UNL A   1      45.455  28.751  32.355  1.00  0.00     0.029 A 
ATOM     34  C   UNL A   1      44.426  29.678  32.172  1.00  0.00     0.049 A 
ATOM     35  H   UNL A   1      44.723  31.560  31.277  1.00  0.00     0.167 HD
ATOM     36  C   UNL A   1      42.048  30.347  31.948  1.00  0.00     0.074 A 
ATOM     37  C   UNL A   1      42.067  31.325  30.862  1.00  0.00     0.031 C 
ATOM     38  C   UNL A   1      43.045  29.681  32.601  1.00  0.00     0.031 A 
BRANCH  25  39
ATOM     39  C   UNL A   1      45.979  31.691  28.623  1.00  0.00    -0.014 A 
ATOM     40  C   UNL A   1      45.008  32.148  27.705  1.00  0.00     0.010 A 
ATOM     41  C   UNL A   1      47.136  32.486  28.770  1.00  0.00     0.010 A 
ATOM     42  C   UNL A   1      45.234  33.282  26.913  1.00  0.00     0.020 A 
ATOM     43  C   UNL A   1      47.346  33.645  28.023  1.00  0.00     0.020 A 
ATOM     44  C   UNL A   1      46.411  34.012  27.067  1.00  0.00     0.054 A 
BRANCH  44  45
ATOM     45  S   UNL A   1      46.752  35.402  25.960  1.00  0.00     0.124 S 
ATOM     46  O   UNL A   1      46.315  34.870  24.673  1.00  0.00    -0.237 OA
ATOM     47  O   UNL A   1      45.920  36.459  26.528  1.00  0.00    -0.237 OA
ATOM     48  O   UNL A   1      48.193  35.604  26.102  1.00  0.00    -0.744 OA
ENDBRANCH  44  45
ENDBRANCH  25  39
BRANCH  26  49
ATOM     49  C   UNL A   1      37.891  30.028  29.732  1.00  0.00    -0.014 A 
ATOM     50  C   UNL A   1      37.007  30.541  30.702  1.00  0.00     0.010 A 
ATOM     51  C   UNL A   1      37.609  30.308  28.380  1.00  0.00     0.010 A 
ATOM     52  C   UNL A   1      35.925  31.362  30.337  1.00  0.00     0.020 A 
ATOM     53  C   UNL A   1      36.526  31.114  28.007  1.00  0.00     0.020 A 
ATOM     54  C   UNL A   1      35.705  31.660  28.989  1.00  0.00     0.054 A 
BRANCH  54  55
ATOM     55  S   UNL A   1      34.426  32.870  28.535  1.00  0.00     0.124 S 
ATOM     56  O   UNL A   1      33.422  32.033  27.886  1.00  0.00    -0.237 OA
ATOM     57  O   UNL A   1      34.043  33.431  29.827  1.00  0.00    -0.237 OA
ATOM     58  O   UNL A   1      35.129  33.796  27.648  1.00  0.00    -0.744 OA
ENDBRANCH  54  55
ENDBRANCH  26  49
BRANCH  38  59
ATOM     59  C   UNL A   1      42.672  28.695  33.682  1.00  0.00    -0.014 A 
ATOM     60  C   UNL A   1      42.703  27.297  33.521  1.00  0.00     0.010 A 
ATOM     61  C   UNL A   1      42.396  29.217  34.958  1.00  0.00     0.010 A 
ATOM     62  C   UNL A   1      42.428  26.446  34.603  1.00  0.00     0.020 A 
ATOM     63  C   UNL A   1      42.144  28.376  36.043  1.00  0.00     0.020 A 
ATOM     64  C   UNL A   1      42.150  26.994  35.858  1.00  0.00     0.054 A 
BRANCH  64  65
ATOM     65  S   UNL A   1      41.832  25.890  37.263  1.00  0.00     0.124 S 
ATOM     66  O   UNL A   1      42.019  24.567  36.675  1.00  0.00    -0.237 OA
ATOM     67  O   UNL A   1      42.847  26.298  38.231  1.00  0.00    -0.237 OA
ATOM     68  O   UNL A   1      40.458  26.205  37.650  1.00  0.00    -0.744 OA
ENDBRANCH  64  65
ENDBRANCH  38  59
ENDBRANCH  12  13
ENDBRANCH   5   7
ENDBRANCH   2   3
ENDBRANCH   1   2
BRANCH   1  69
ATOM     69  C   UNL A   1      41.093  21.191  27.028  1.00  0.00     0.023 C 
BRANCH  69  70
ATOM     70  C   UNL A   1      40.327  21.892  25.915  1.00  0.00     0.116 C 
BRANCH  70  71
ATOM     71  N   UNL A   1      39.892  23.236  26.270  1.00  0.00    -0.351 N 
ATOM     72  C   UNL A   1      38.619  23.768  26.287  1.00  0.00     0.269 C 
ATOM     73  H   UNL A   1      40.610  23.853  26.537  1.00  0.00     0.163 HD
ATOM     74  O   UNL A   1      38.461  24.957  26.568  1.00  0.00    -0.268 OA
BRANCH  72  75
ATOM     75  C   UNL A   1      37.444  22.894  26.017  1.00  0.00     0.129 A 
ATOM     76  C   UNL A   1      36.174  23.361  26.245  1.00  0.00     0.039 A 
ATOM     77  N   UNL A   1      37.675  21.667  25.540  1.00  0.00    -0.243 NA
ATOM     78  C   UNL A   1      35.054  22.510  26.086  1.00  0.00    -0.021 A 
ATOM     79  C   UNL A   1      36.635  20.860  25.316  1.00  0.00     0.072 A 
ATOM     80  C   UNL A   1      35.259  21.167  25.568  1.00  0.00     0.012 A 
ATOM     81  C   UNL A   1      37.015  19.651  24.781  1.00  0.00     0.029 A 
ATOM     82  C   UNL A   1      34.288  20.100  25.231  1.00  0.00    -0.009 A 
ATOM     83  C   UNL A   1      36.100  18.664  24.459  1.00  0.00     0.011 A 
ATOM     84  C   UNL A   1      34.747  18.868  24.678  1.00  0.00    -0.018 A 
ATOM     85  C   UNL A   1      32.884  20.155  25.386  1.00  0.00     0.009 A 
ATOM     86  C   UNL A   1      33.870  17.825  24.330  1.00  0.00     0.009 A 
ATOM     87  C   UNL A   1      32.006  19.117  25.046  1.00  0.00     0.001 A 
ATOM     88  C   UNL A   1      32.501  17.945  24.515  1.00  0.00     0.001 A 
BRANCH  78  89
ATOM     89  C   UNL A   1      33.777  23.222  26.471  1.00  0.00     0.115 C 
ATOM     90  C   UNL A   1      33.057  22.774  27.689  1.00  0.00     0.123 C 
ATOM     91  C   UNL A   1      32.612  23.317  25.542  1.00  0.00     0.083 C 
ATOM     92  N   UNL A   1      31.771  22.789  27.538  1.00  0.00    -0.162 NA
ATOM     93  N   UNL A   1      31.484  23.142  26.173  1.00  0.00    -0.154 NA
BRANCH  91  94
ATOM     94  C   UNL A   1      32.703  23.738  24.127  1.00  0.00    -0.001 A 
ATOM     95  C   UNL A   1      32.571  25.104  23.842  1.00  0.00     0.013 A 
ATOM     96  C   UNL A   1      32.924  22.837  23.078  1.00  0.00     0.013 A 
ATOM     97  C   UNL A   1      32.694  25.563  22.528  1.00  0.00     0.040 A 
ATOM     98  C   UNL A   1      33.049  23.298  21.766  1.00  0.00     0.040 A 
ATOM     99  C   UNL A   1      32.938  24.657  21.503  1.00  0.00     0.123 A 
ATOM    100  F   UNL A   1      33.062  25.097  20.245  1.00  0.00    -0.207 F 
ENDBRANCH  91  94
ENDBRANCH  78  89
ENDBRANCH  72  75
ENDBRANCH  70  71
ENDBRANCH  69  70
ENDBRANCH   1  69
TORSDOF 16
ENDMDL
MODEL 3
REMARK VINA RESULT:     -12.3      6.994     11.996
REMARK SMILES O=C(NCCCCNC(=O)c1cc([C@@H]2C=NN=C2c2ccc(F)cc2)c2c(ccc3ccccc32)n1)c1ccc(-c2c3nc(c(-c4ccc(S(=O)(=O)[O-])cc4)c4ccc([nH]4)c(-c4ccc(S(=O)(=O)[O-])cc4)c4nc(c(-c5ccc(S(=O)(=O)[O-])cc5)c5ccc2[nH]5)C=C4)C=C3)cc1
REMARK SMILES IDX 5 1 4 2 3 3 1 4 2 5 37 7 38 8 96 9 39 10 95 11 40 12 41 13
REMARK SMILES IDX 42 14 89 15 43 16 94 17 88 18 90 19 44 20 93 21 87 22 86 23
REMARK SMILES IDX 45 25 75 26 56 27 74 28 57 29 60 30 73 31 91 32 58 33 59 34
REMARK SMILES IDX 72 36 92 37 61 38 46 39 47 40 55 41 48 42 54 43 49 44 50 45
REMARK SMILES IDX 51 46 52 47 53 48 76 49 77 50 85 51 78 52 84 53 79 54 80 55
REMARK SMILES IDX 81 56 82 57 83 58 62 59 63 60 71 61 64 62 70 63 65 64 66 65
REMARK SMILES IDX 67 66 68 67 69 68 6 69 7 70 8 71 9 72 10 74 11 75 12 76
REMARK SMILES IDX 36 77 13 78 27 79 26 80 28 81 35 82 29 83 30 84 34 85 31 86
REMARK SMILES IDX 33 87 32 88 14 89 15 90 18 91 16 92 17 93 19 94 20 95 25 96
REMARK SMILES IDX 21 97 24 98 22 99 23 100
REMARK H PARENT 3 6 90 24 60 35 8 73
REMARK Flexibility Score: inf
ROOT
ATOM      1  C   UNL A   1      38.267  34.183  33.150  1.00  0.00     0.023 C 
ENDROOT
BRANCH   1   2
ATOM      2  C   UNL A   1      38.418  34.388  31.643  1.00  0.00     0.116 C 
BRANCH   2   3
ATOM      3  N   UNL A   1      39.062  33.306  30.928  1.00  0.00    -0.352 N 
ATOM      4  O   UNL A   1      40.558  32.033  29.920  1.00  0.00    -0.269 OA
ATOM      5  C   UNL A   1      40.237  33.182  30.235  1.00  0.00     0.251 C 
ATOM      6  H   UNL A   1      38.538  32.473  30.944  1.00  0.00     0.163 HD
BRANCH   5   7
ATOM      7  C   UNL A   1      41.087  34.318  29.786  1.00  0.00     0.039 A 
ATOM      8  C   UNL A   1      40.862  35.107  28.659  1.00  0.00     0.014 A 
ATOM      9  C   UNL A   1      42.217  34.590  30.582  1.00  0.00     0.014 A 
ATOM     10  C   UNL A   1      41.786  36.078  28.280  1.00  0.00     0.010 A 
ATOM     11  C   UNL A   1      43.134  35.571  30.220  1.00  0.00     0.010 A 
ATOM     12  C   UNL A   1      42.929  36.299  29.051  1.00  0.00    -0.014 A 
BRANCH  12  13
ATOM     13  C   UNL A   1      43.775  37.442  28.717  1.00  0.00     0.031 A 
ATOM     14  C   UNL A   1      45.232  37.129  28.680  1.00  0.00     0.074 A 
ATOM     15  C   UNL A   1      43.317  38.638  28.299  1.00  0.00     0.049 A 
ATOM     16  N   UNL A   1      46.171  37.594  29.436  1.00  0.00    -0.248 NA
ATOM     17  C   UNL A   1      45.673  36.068  27.758  1.00  0.00     0.031 C 
ATOM     18  C   UNL A   1      41.933  38.999  27.990  1.00  0.00     0.029 A 
ATOM     19  N   UNL A   1      44.018  39.756  27.945  1.00  0.00    -0.354 N 
ATOM     20  C   UNL A   1      47.357  37.055  28.939  1.00  0.00     0.074 A 
ATOM     21  C   UNL A   1      46.973  35.995  28.041  1.00  0.00     0.031 C 
ATOM     22  C   UNL A   1      41.923  40.153  27.285  1.00  0.00     0.029 A 
ATOM     23  C   UNL A   1      43.279  40.672  27.202  1.00  0.00     0.049 A 
ATOM     24  H   UNL A   1      44.959  39.900  28.192  1.00  0.00     0.167 HD
ATOM     25  C   UNL A   1      48.555  37.687  29.087  1.00  0.00     0.031 A 
ATOM     26  C   UNL A   1      43.755  41.740  26.509  1.00  0.00     0.031 A 
ATOM     27  C   UNL A   1      48.515  38.689  30.118  1.00  0.00     0.049 A 
ATOM     28  C   UNL A   1      45.096  42.065  27.046  1.00  0.00     0.074 A 
ATOM     29  C   UNL A   1      48.206  38.699  31.463  1.00  0.00     0.029 A 
ATOM     30  N   UNL A   1      48.490  40.002  29.715  1.00  0.00    -0.354 N 
ATOM     31  N   UNL A   1      45.300  42.545  28.240  1.00  0.00    -0.248 NA
ATOM     32  C   UNL A   1      46.264  41.490  26.397  1.00  0.00     0.031 C 
ATOM     33  C   UNL A   1      47.555  39.948  31.685  1.00  0.00     0.029 A 
ATOM     34  C   UNL A   1      47.556  40.651  30.478  1.00  0.00     0.049 A 
ATOM     35  H   UNL A   1      49.042  40.404  29.007  1.00  0.00     0.167 HD
ATOM     36  C   UNL A   1      46.481  41.954  28.661  1.00  0.00     0.074 A 
ATOM     37  C   UNL A   1      47.085  41.411  27.446  1.00  0.00     0.031 C 
ATOM     38  C   UNL A   1      46.716  41.721  29.986  1.00  0.00     0.031 A 
BRANCH  25  39
ATOM     39  C   UNL A   1      49.611  37.702  28.001  1.00  0.00    -0.014 A 
ATOM     40  C   UNL A   1      49.203  37.653  26.651  1.00  0.00     0.010 A 
ATOM     41  C   UNL A   1      50.977  37.455  28.260  1.00  0.00     0.010 A 
ATOM     42  C   UNL A   1      50.093  37.281  25.634  1.00  0.00     0.020 A 
ATOM     43  C   UNL A   1      51.883  37.135  27.249  1.00  0.00     0.020 A 
ATOM     44  C   UNL A   1      51.425  37.008  25.946  1.00  0.00     0.054 A 
BRANCH  44  45
ATOM     45  S   UNL A   1      52.540  36.412  24.652  1.00  0.00     0.124 S 
ATOM     46  O   UNL A   1      53.480  37.521  24.536  1.00  0.00    -0.237 OA
ATOM     47  O   UNL A   1      53.071  35.187  25.244  1.00  0.00    -0.237 OA
ATOM     48  O   UNL A   1      51.655  36.212  23.506  1.00  0.00    -0.744 OA
ENDBRANCH  44  45
ENDBRANCH  25  39
BRANCH  26  49
ATOM     49  C   UNL A   1      43.252  42.319  25.236  1.00  0.00    -0.014 A 
ATOM     50  C   UNL A   1      43.922  43.389  24.611  1.00  0.00     0.010 A 
ATOM     51  C   UNL A   1      42.274  41.635  24.487  1.00  0.00     0.010 A 
ATOM     52  C   UNL A   1      43.673  43.713  23.265  1.00  0.00     0.020 A 
ATOM     53  C   UNL A   1      42.011  41.960  23.151  1.00  0.00     0.020 A 
ATOM     54  C   UNL A   1      42.732  42.980  22.537  1.00  0.00     0.054 A 
BRANCH  54  55
ATOM     55  S   UNL A   1      42.550  43.274  20.752  1.00  0.00     0.124 S 
ATOM     56  O   UNL A   1      41.145  43.650  20.640  1.00  0.00    -0.237 OA
ATOM     57  O   UNL A   1      43.513  44.343  20.504  1.00  0.00    -0.237 OA
ATOM     58  O   UNL A   1      42.896  41.986  20.155  1.00  0.00    -0.744 OA
ENDBRANCH  54  55
ENDBRANCH  26  49
BRANCH  38  59
ATOM     59  C   UNL A   1      45.876  42.445  31.010  1.00  0.00    -0.014 A 
ATOM     60  C   UNL A   1      46.247  43.657  31.623  1.00  0.00     0.010 A 
ATOM     61  C   UNL A   1      44.593  41.930  31.267  1.00  0.00     0.010 A 
ATOM     62  C   UNL A   1      45.369  44.314  32.498  1.00  0.00     0.020 A 
ATOM     63  C   UNL A   1      43.706  42.590  32.118  1.00  0.00     0.020 A 
ATOM     64  C   UNL A   1      44.103  43.774  32.740  1.00  0.00     0.054 A 
BRANCH  64  65
ATOM     65  S   UNL A   1      42.957  44.647  33.842  1.00  0.00     0.124 S 
ATOM     66  O   UNL A   1      42.770  43.689  34.929  1.00  0.00    -0.237 OA
ATOM     67  O   UNL A   1      43.699  45.856  34.190  1.00  0.00    -0.237 OA
ATOM     68  O   UNL A   1      41.776  44.874  33.009  1.00  0.00    -0.744 OA
ENDBRANCH  64  65
ENDBRANCH  38  59
ENDBRANCH  12  13
ENDBRANCH   5   7
ENDBRANCH   2   3
ENDBRANCH   1   2
BRANCH   1  69
ATOM     69  C   UNL A   1      37.003  34.773  33.774  1.00  0.00     0.023 C 
BRANCH  69  70
ATOM     70  C   UNL A   1      36.256  33.860  34.735  1.00  0.00     0.116 C 
BRANCH  70  71
ATOM     71  N   UNL A   1      34.844  33.713  34.414  1.00  0.00    -0.351 N 
ATOM     72  C   UNL A   1      34.252  33.116  33.319  1.00  0.00     0.269 C 
ATOM     73  H   UNL A   1      34.220  34.096  35.072  1.00  0.00     0.163 HD
ATOM     74  O   UNL A   1      33.027  33.141  33.200  1.00  0.00    -0.268 OA
BRANCH  72  75
ATOM     75  C   UNL A   1      35.093  32.399  32.320  1.00  0.00     0.129 A 
ATOM     76  C   UNL A   1      35.123  32.827  31.016  1.00  0.00     0.039 A 
ATOM     77  N   UNL A   1      35.813  31.355  32.742  1.00  0.00    -0.243 NA
ATOM     78  C   UNL A   1      35.840  32.099  30.036  1.00  0.00    -0.021 A 
ATOM     79  C   UNL A   1      36.553  30.686  31.856  1.00  0.00     0.072 A 
ATOM     80  C   UNL A   1      36.638  30.956  30.452  1.00  0.00     0.012 A 
ATOM     81  C   UNL A   1      37.276  29.670  32.437  1.00  0.00     0.029 A 
ATOM     82  C   UNL A   1      37.535  30.068  29.677  1.00  0.00    -0.009 A 
ATOM     83  C   UNL A   1      38.121  28.852  31.706  1.00  0.00     0.011 A 
ATOM     84  C   UNL A   1      38.258  29.033  30.340  1.00  0.00    -0.018 A 
ATOM     85  C   UNL A   1      37.789  30.127  28.287  1.00  0.00     0.009 A 
ATOM     86  C   UNL A   1      39.131  28.168  29.657  1.00  0.00     0.009 A 
ATOM     87  C   UNL A   1      38.654  29.263  27.601  1.00  0.00     0.001 A 
ATOM     88  C   UNL A   1      39.329  28.279  28.289  1.00  0.00     0.001 A 
BRANCH  78  89
ATOM     89  C   UNL A   1      35.658  32.715  28.667  1.00  0.00     0.115 C 
ATOM     90  C   UNL A   1      35.678  34.193  28.548  1.00  0.00     0.123 C 
ATOM     91  C   UNL A   1      34.457  32.435  27.825  1.00  0.00     0.083 C 
ATOM     92  N   UNL A   1      34.807  34.633  27.696  1.00  0.00    -0.162 NA
ATOM     93  N   UNL A   1      34.034  33.514  27.227  1.00  0.00    -0.154 NA
BRANCH  91  94
ATOM     94  C   UNL A   1      33.923  31.083  27.552  1.00  0.00    -0.001 A 
ATOM     95  C   UNL A   1      34.840  30.028  27.445  1.00  0.00     0.013 A 
ATOM     96  C   UNL A   1      32.556  30.820  27.410  1.00  0.00     0.013 A 
ATOM     97  C   UNL A   1      34.389  28.723  27.233  1.00  0.00     0.040 A 
ATOM     98  C   UNL A   1      32.106  29.515  27.200  1.00  0.00     0.040 A 
ATOM     99  C   UNL A   1      33.026  28.478  27.119  1.00  0.00     0.123 A 
ATOM    100  F   UNL A   1      32.592  27.227  26.922  1.00  0.00    -0.207 F 
ENDBRANCH  91  94
ENDBRANCH  78  89
ENDBRANCH  72  75
ENDBRANCH  70  71
ENDBRANCH  69  70
ENDBRANCH   1  69
TORSDOF 16
ENDMDL
