MODEL 1
REMARK VINA RESULT:     -13.5      0.000      0.000
REMARK SMILES Cc1ccc(N[C@](C)(C(=O)NCCCCNC(=O)c2ccc(-c3c4nc(c(-c5ccc(S(=O)(=O)[O-])cc5)c5ccc([nH]5)c(-c5ccc(S(=O)(=O)[O-])cc5)c5nc(c(-c6ccc(S(=O)(=O)[O-])cc6)c6ccc3[nH]6)C=C5)C=C4)cc2)c2cc(F)cc(F)c2)cc1
REMARK SMILES IDX 14 1 13 2 12 3 11 4 9 5 10 6 7 8 8 9 6 10 5 12 1 13 2 14
REMARK SMILES IDX 3 15 88 16 4 17 87 18 79 19 80 20 86 21 81 22 84 23 82 24
REMARK SMILES IDX 83 25 85 26 15 27 16 28 17 29 18 31 19 32 20 33 78 34 21 35
REMARK SMILES IDX 77 36 22 37 23 38 24 39 71 40 25 41 76 42 70 43 72 44 26 45
REMARK SMILES IDX 75 46 69 47 68 48 27 50 57 51 38 52 56 53 39 54 42 55 55 56
REMARK SMILES IDX 73 57 40 58 41 59 54 61 74 62 43 63 28 64 29 65 37 66 30 67
REMARK SMILES IDX 36 68 31 69 32 70 33 71 34 72 35 73 58 74 59 75 67 76 60 77
REMARK SMILES IDX 66 78 61 79 62 80 63 81 64 82 65 83 44 84 45 85 53 86 46 87
REMARK SMILES IDX 52 88 47 89 48 90 49 91 50 92 51 93
REMARK H PARENT 11 7 6 11 16 30 72 49 42 60
REMARK Flexibility Score: inf
ROOT
ATOM      1  C   UNL A   1      33.082  29.985  26.237  1.00  0.00     0.023 C 
ENDROOT
BRANCH   1   2
ATOM      2  C   UNL A   1      31.929  29.167  26.820  1.00  0.00     0.023 C 
BRANCH   2   3
ATOM      3  C   UNL A   1      32.333  27.828  27.460  1.00  0.00     0.116 C 
BRANCH   3   4
ATOM      4  N   UNL A   1      31.332  26.798  27.235  1.00  0.00    -0.354 N 
ATOM      5  C   UNL A   1      31.097  25.927  26.220  1.00  0.00     0.250 C 
ATOM      6  O   UNL A   1      29.947  25.451  26.211  1.00  0.00    -0.272 OA
ATOM      7  H   UNL A   1      30.690  26.712  27.976  1.00  0.00     0.163 HD
BRANCH   5   8
ATOM      8  C   UNL A   1      32.128  25.535  25.072  1.00  0.00     0.139 C 
ATOM      9  C   UNL A   1      33.521  25.041  25.520  1.00  0.00     0.051 C 
BRANCH   8  10
ATOM     10  N   UNL A   1      31.496  24.399  24.307  1.00  0.00    -0.368 N 
ATOM     11  H   UNL A   1      30.748  24.641  23.714  1.00  0.00     0.161 HD
BRANCH  10  12
ATOM     12  C   UNL A   1      31.842  23.048  24.334  1.00  0.00     0.035 A 
ATOM     13  C   UNL A   1      32.713  18.795  24.146  1.00  0.00     0.044 C 
ATOM     14  C   UNL A   1      32.416  20.263  24.194  1.00  0.00    -0.051 A 
ATOM     15  C   UNL A   1      32.384  20.930  25.420  1.00  0.00     0.005 A 
ATOM     16  C   UNL A   1      32.166  20.994  23.033  1.00  0.00     0.005 A 
ATOM     17  C   UNL A   1      32.092  22.300  25.486  1.00  0.00     0.026 A 
ATOM     18  C   UNL A   1      31.886  22.365  23.108  1.00  0.00     0.026 A 
ENDBRANCH  10  12
ENDBRANCH   8  10
BRANCH   8  19
ATOM     19  C   UNL A   1      32.265  26.764  24.114  1.00  0.00    -0.008 A 
ATOM     20  C   UNL A   1      33.531  27.267  23.752  1.00  0.00     0.046 A 
ATOM     21  C   UNL A   1      31.155  27.495  23.640  1.00  0.00     0.046 A 
ATOM     22  C   UNL A   1      33.671  28.450  23.022  1.00  0.00     0.126 A 
ATOM     23  C   UNL A   1      31.317  28.662  22.888  1.00  0.00     0.126 A 
ATOM     24  F   UNL A   1      34.900  28.917  22.762  1.00  0.00    -0.207 F 
ATOM     25  C   UNL A   1      32.570  29.160  22.587  1.00  0.00     0.078 A 
ATOM     26  F   UNL A   1      30.230  29.321  22.461  1.00  0.00    -0.207 F 
ENDBRANCH   8  19
ENDBRANCH   5   8
ENDBRANCH   3   4
ENDBRANCH   2   3
ENDBRANCH   1   2
BRANCH   1  27
ATOM     27  C   UNL A   1      34.399  29.756  26.960  1.00  0.00     0.116 C 
BRANCH  27  28
ATOM     28  N   UNL A   1      35.128  30.969  27.287  1.00  0.00    -0.352 N 
ATOM     29  C   UNL A   1      36.282  31.049  28.059  1.00  0.00     0.251 C 
ATOM     30  H   UNL A   1      34.771  31.813  26.930  1.00  0.00     0.163 HD
ATOM     31  O   UNL A   1      36.635  32.061  28.629  1.00  0.00    -0.269 OA
BRANCH  29  32
ATOM     32  C   UNL A   1      37.167  29.863  28.007  1.00  0.00     0.039 A 
ATOM     33  C   UNL A   1      37.198  29.052  29.147  1.00  0.00     0.014 A 
ATOM     34  C   UNL A   1      38.155  29.776  27.032  1.00  0.00     0.014 A 
ATOM     35  C   UNL A   1      38.325  28.278  29.404  1.00  0.00     0.010 A 
ATOM     36  C   UNL A   1      39.316  29.097  27.342  1.00  0.00     0.010 A 
ATOM     37  C   UNL A   1      39.418  28.386  28.548  1.00  0.00    -0.014 A 
BRANCH  37  38
ATOM     38  C   UNL A   1      40.734  27.827  28.833  1.00  0.00     0.031 A 
ATOM     39  C   UNL A   1      41.000  26.410  28.492  1.00  0.00     0.074 A 
ATOM     40  C   UNL A   1      41.727  28.618  29.296  1.00  0.00     0.049 A 
ATOM     41  N   UNL A   1      41.980  25.708  28.950  1.00  0.00    -0.248 NA
ATOM     42  C   UNL A   1      40.104  25.644  27.630  1.00  0.00     0.031 C 
ATOM     43  C   UNL A   1      43.155  28.312  29.316  1.00  0.00     0.029 A 
ATOM     44  N   UNL A   1      41.624  29.783  30.062  1.00  0.00    -0.354 N 
ATOM     45  C   UNL A   1      42.024  24.536  28.226  1.00  0.00     0.074 A 
ATOM     46  C   UNL A   1      40.783  24.504  27.492  1.00  0.00     0.031 C 
ATOM     47  C   UNL A   1      43.738  29.046  30.276  1.00  0.00     0.029 A 
ATOM     48  C   UNL A   1      42.674  29.726  30.996  1.00  0.00     0.049 A 
ATOM     49  H   UNL A   1      40.954  30.499  29.967  1.00  0.00     0.167 HD
ATOM     50  C   UNL A   1      43.169  23.796  28.215  1.00  0.00     0.031 A 
ATOM     51  C   UNL A   1      42.488  29.676  32.348  1.00  0.00     0.031 A 
ATOM     52  C   UNL A   1      44.129  24.290  29.202  1.00  0.00     0.049 A 
ATOM     53  C   UNL A   1      43.097  28.439  32.977  1.00  0.00     0.074 A 
ATOM     54  C   UNL A   1      45.259  25.086  29.110  1.00  0.00     0.029 A 
ATOM     55  N   UNL A   1      43.800  24.226  30.552  1.00  0.00    -0.354 N 
ATOM     56  N   UNL A   1      43.456  27.380  32.302  1.00  0.00    -0.248 NA
ATOM     57  C   UNL A   1      43.318  28.282  34.412  1.00  0.00     0.031 C 
ATOM     58  C   UNL A   1      45.535  25.598  30.408  1.00  0.00     0.029 A 
ATOM     59  C   UNL A   1      44.600  25.079  31.287  1.00  0.00     0.049 A 
ATOM     60  H   UNL A   1      43.095  23.652  30.931  1.00  0.00     0.167 HD
ATOM     61  C   UNL A   1      43.947  26.431  33.158  1.00  0.00     0.074 A 
ATOM     62  C   UNL A   1      43.845  27.046  34.470  1.00  0.00     0.031 C 
ATOM     63  C   UNL A   1      44.400  25.218  32.724  1.00  0.00     0.031 A 
BRANCH  50  64
ATOM     64  C   UNL A   1      43.523  22.815  27.110  1.00  0.00    -0.014 A 
ATOM     65  C   UNL A   1      42.762  21.638  26.954  1.00  0.00     0.010 A 
ATOM     66  C   UNL A   1      44.637  22.938  26.258  1.00  0.00     0.010 A 
ATOM     67  C   UNL A   1      43.144  20.610  26.074  1.00  0.00     0.020 A 
ATOM     68  C   UNL A   1      45.050  21.911  25.396  1.00  0.00     0.020 A 
ATOM     69  C   UNL A   1      44.307  20.741  25.319  1.00  0.00     0.054 A 
BRANCH  69  70
ATOM     70  S   UNL A   1      44.844  19.380  24.252  1.00  0.00     0.124 S 
ATOM     71  O   UNL A   1      46.291  19.380  24.446  1.00  0.00    -0.237 OA
ATOM     72  O   UNL A   1      44.130  18.239  24.817  1.00  0.00    -0.237 OA
ATOM     73  O   UNL A   1      44.402  19.789  22.920  1.00  0.00    -0.744 OA
ENDBRANCH  69  70
ENDBRANCH  50  64
BRANCH  51  74
ATOM     74  C   UNL A   1      41.259  30.367  32.825  1.00  0.00    -0.014 A 
ATOM     75  C   UNL A   1      40.139  29.556  33.117  1.00  0.00     0.010 A 
ATOM     76  C   UNL A   1      41.341  31.647  33.404  1.00  0.00     0.010 A 
ATOM     77  C   UNL A   1      39.234  29.929  34.112  1.00  0.00     0.020 A 
ATOM     78  C   UNL A   1      40.426  32.024  34.398  1.00  0.00     0.020 A 
ATOM     79  C   UNL A   1      39.430  31.127  34.798  1.00  0.00     0.054 A 
BRANCH  79  80
ATOM     80  S   UNL A   1      38.506  31.385  36.344  1.00  0.00     0.124 S 
ATOM     81  O   UNL A   1      37.365  32.178  35.898  1.00  0.00    -0.237 OA
ATOM     82  O   UNL A   1      38.200  30.009  36.741  1.00  0.00    -0.237 OA
ATOM     83  O   UNL A   1      39.465  32.080  37.194  1.00  0.00    -0.744 OA
ENDBRANCH  79  80
ENDBRANCH  51  74
BRANCH  63  84
ATOM     84  C   UNL A   1      44.775  24.060  33.615  1.00  0.00    -0.014 A 
ATOM     85  C   UNL A   1      43.929  22.972  33.879  1.00  0.00     0.010 A 
ATOM     86  C   UNL A   1      46.097  23.985  34.113  1.00  0.00     0.010 A 
ATOM     87  C   UNL A   1      44.360  21.891  34.662  1.00  0.00     0.020 A 
ATOM     88  C   UNL A   1      46.550  22.893  34.858  1.00  0.00     0.020 A 
ATOM     89  C   UNL A   1      45.665  21.861  35.152  1.00  0.00     0.054 A 
BRANCH  89  90
ATOM     90  S   UNL A   1      46.234  20.436  36.113  1.00  0.00     0.124 S 
ATOM     91  O   UNL A   1      45.791  20.789  37.460  1.00  0.00    -0.237 OA
ATOM     92  O   UNL A   1      45.526  19.317  35.495  1.00  0.00    -0.237 OA
ATOM     93  O   UNL A   1      47.679  20.440  35.906  1.00  0.00    -0.744 OA
ENDBRANCH  89  90
ENDBRANCH  63  84
ENDBRANCH  37  38
ENDBRANCH  29  32
ENDBRANCH  27  28
ENDBRANCH   1  27
TORSDOF 17
ENDMDL
MODEL 2
REMARK VINA RESULT:     -13.4      1.261      1.748
REMARK SMILES Cc1ccc(N[C@](C)(C(=O)NCCCCNC(=O)c2ccc(-c3c4nc(c(-c5ccc(S(=O)(=O)[O-])cc5)c5ccc([nH]5)c(-c5ccc(S(=O)(=O)[O-])cc5)c5nc(c(-c6ccc(S(=O)(=O)[O-])cc6)c6ccc3[nH]6)C=C5)C=C4)cc2)c2cc(F)cc(F)c2)cc1
REMARK SMILES IDX 14 1 13 2 12 3 11 4 9 5 10 6 7 8 8 9 6 10 5 12 1 13 2 14
REMARK SMILES IDX 3 15 88 16 4 17 87 18 79 19 80 20 86 21 81 22 84 23 82 24
REMARK SMILES IDX 83 25 85 26 15 27 16 28 17 29 18 31 19 32 20 33 78 34 21 35
REMARK SMILES IDX 77 36 22 37 23 38 24 39 71 40 25 41 76 42 70 43 72 44 26 45
REMARK SMILES IDX 75 46 69 47 68 48 27 50 57 51 38 52 56 53 39 54 42 55 55 56
REMARK SMILES IDX 73 57 40 58 41 59 54 61 74 62 43 63 28 64 29 65 37 66 30 67
REMARK SMILES IDX 36 68 31 69 32 70 33 71 34 72 35 73 58 74 59 75 67 76 60 77
REMARK SMILES IDX 66 78 61 79 62 80 63 81 64 82 65 83 44 84 45 85 53 86 46 87
REMARK SMILES IDX 52 88 47 89 48 90 49 91 50 92 51 93
REMARK H PARENT 11 7 6 11 16 30 72 49 42 60
REMARK Flexibility Score: inf
ROOT
ATOM      1  C   UNL A   1      33.008  29.850  27.297  1.00  0.00     0.023 C 
ENDROOT
BRANCH   1   2
ATOM      2  C   UNL A   1      32.217  28.759  26.573  1.00  0.00     0.023 C 
BRANCH   2   3
ATOM      3  C   UNL A   1      32.793  27.339  26.699  1.00  0.00     0.116 C 
BRANCH   3   4
ATOM      4  N   UNL A   1      31.746  26.342  26.847  1.00  0.00    -0.354 N 
ATOM      5  C   UNL A   1      30.929  25.703  25.970  1.00  0.00     0.250 C 
ATOM      6  O   UNL A   1      29.919  25.194  26.488  1.00  0.00    -0.272 OA
ATOM      7  H   UNL A   1      31.598  26.071  27.782  1.00  0.00     0.163 HD
BRANCH   5   8
ATOM      8  C   UNL A   1      31.145  25.612  24.395  1.00  0.00     0.139 C 
ATOM      9  C   UNL A   1      32.598  25.701  23.879  1.00  0.00     0.051 C 
BRANCH   8  10
ATOM     10  N   UNL A   1      30.623  24.261  23.975  1.00  0.00    -0.368 N 
ATOM     11  H   UNL A   1      29.721  24.250  23.579  1.00  0.00     0.161 HD
BRANCH  10  12
ATOM     12  C   UNL A   1      31.261  23.025  24.077  1.00  0.00     0.035 A 
ATOM     13  C   UNL A   1      33.100  19.088  24.095  1.00  0.00     0.044 C 
ATOM     14  C   UNL A   1      32.471  20.448  24.072  1.00  0.00    -0.051 A 
ATOM     15  C   UNL A   1      32.106  21.069  25.269  1.00  0.00     0.005 A 
ATOM     16  C   UNL A   1      32.235  21.122  22.875  1.00  0.00     0.005 A 
ATOM     17  C   UNL A   1      31.501  22.335  25.266  1.00  0.00     0.026 A 
ATOM     18  C   UNL A   1      31.641  22.391  22.884  1.00  0.00     0.026 A 
ENDBRANCH  10  12
ENDBRANCH   8  10
BRANCH   8  19
ATOM     19  C   UNL A   1      30.258  26.716  23.728  1.00  0.00    -0.008 A 
ATOM     20  C   UNL A   1      30.838  27.755  22.971  1.00  0.00     0.046 A 
ATOM     21  C   UNL A   1      28.863  26.799  23.920  1.00  0.00     0.046 A 
ATOM     22  C   UNL A   1      30.081  28.829  22.496  1.00  0.00     0.126 A 
ATOM     23  C   UNL A   1      28.120  27.869  23.412  1.00  0.00     0.126 A 
ATOM     24  F   UNL A   1      30.694  29.822  21.838  1.00  0.00    -0.207 F 
ATOM     25  C   UNL A   1      28.720  28.899  22.713  1.00  0.00     0.078 A 
ATOM     26  F   UNL A   1      26.796  27.903  23.621  1.00  0.00    -0.207 F 
ENDBRANCH   8  19
ENDBRANCH   5   8
ENDBRANCH   3   4
ENDBRANCH   2   3
ENDBRANCH   1   2
BRANCH   1  27
ATOM     27  C   UNL A   1      34.512  29.657  27.200  1.00  0.00     0.116 C 
BRANCH  27  28
ATOM     28  N   UNL A   1      35.288  30.877  27.341  1.00  0.00    -0.352 N 
ATOM     29  C   UNL A   1      36.474  31.017  28.053  1.00  0.00     0.251 C 
ATOM     30  H   UNL A   1      34.941  31.681  26.891  1.00  0.00     0.163 HD
ATOM     31  O   UNL A   1      36.879  32.080  28.475  1.00  0.00    -0.269 OA
BRANCH  29  32
ATOM     32  C   UNL A   1      37.322  29.805  28.121  1.00  0.00     0.039 A 
ATOM     33  C   UNL A   1      37.405  29.165  29.363  1.00  0.00     0.014 A 
ATOM     34  C   UNL A   1      38.242  29.543  27.111  1.00  0.00     0.014 A 
ATOM     35  C   UNL A   1      38.526  28.396  29.662  1.00  0.00     0.010 A 
ATOM     36  C   UNL A   1      39.403  28.875  27.446  1.00  0.00     0.010 A 
ATOM     37  C   UNL A   1      39.564  28.342  28.735  1.00  0.00    -0.014 A 
BRANCH  37  38
ATOM     38  C   UNL A   1      40.880  27.782  29.019  1.00  0.00     0.031 A 
ATOM     39  C   UNL A   1      41.162  26.380  28.633  1.00  0.00     0.074 A 
ATOM     40  C   UNL A   1      41.861  28.565  29.522  1.00  0.00     0.049 A 
ATOM     41  N   UNL A   1      42.141  25.670  29.081  1.00  0.00    -0.248 NA
ATOM     42  C   UNL A   1      40.283  25.637  27.733  1.00  0.00     0.031 C 
ATOM     43  C   UNL A   1      43.291  28.268  29.551  1.00  0.00     0.029 A 
ATOM     44  N   UNL A   1      41.739  29.702  30.326  1.00  0.00    -0.354 N 
ATOM     45  C   UNL A   1      42.203  24.524  28.318  1.00  0.00     0.074 A 
ATOM     46  C   UNL A   1      40.973  24.508  27.566  1.00  0.00     0.031 C 
ATOM     47  C   UNL A   1      43.855  28.973  30.544  1.00  0.00     0.029 A 
ATOM     48  C   UNL A   1      42.776  29.621  31.272  1.00  0.00     0.049 A 
ATOM     49  H   UNL A   1      41.064  30.416  30.245  1.00  0.00     0.167 HD
ATOM     50  C   UNL A   1      43.354  23.793  28.297  1.00  0.00     0.031 A 
ATOM     51  C   UNL A   1      42.572  29.523  32.618  1.00  0.00     0.031 A 
ATOM     52  C   UNL A   1      44.297  24.260  29.314  1.00  0.00     0.049 A 
ATOM     53  C   UNL A   1      43.182  28.270  33.213  1.00  0.00     0.074 A 
ATOM     54  C   UNL A   1      45.422  25.067  29.265  1.00  0.00     0.029 A 
ATOM     55  N   UNL A   1      43.951  24.147  30.656  1.00  0.00    -0.354 N 
ATOM     56  N   UNL A   1      43.558  27.238  32.507  1.00  0.00    -0.248 NA
ATOM     57  C   UNL A   1      43.385  28.066  34.646  1.00  0.00     0.031 C 
ATOM     58  C   UNL A   1      45.677  25.536  30.583  1.00  0.00     0.029 A 
ATOM     59  C   UNL A   1      44.734  24.981  31.431  1.00  0.00     0.049 A 
ATOM     60  H   UNL A   1      43.245  23.556  31.006  1.00  0.00     0.167 HD
ATOM     61  C   UNL A   1      44.046  26.264  33.338  1.00  0.00     0.074 A 
ATOM     62  C   UNL A   1      43.921  26.832  34.669  1.00  0.00     0.031 C 
ATOM     63  C   UNL A   1      44.513  25.069  32.869  1.00  0.00     0.031 A 
BRANCH  50  64
ATOM     64  C   UNL A   1      43.731  22.853  27.165  1.00  0.00    -0.014 A 
ATOM     65  C   UNL A   1      42.830  21.842  26.770  1.00  0.00     0.010 A 
ATOM     66  C   UNL A   1      44.979  22.844  26.514  1.00  0.00     0.010 A 
ATOM     67  C   UNL A   1      43.188  20.833  25.858  1.00  0.00     0.020 A 
ATOM     68  C   UNL A   1      45.364  21.829  25.625  1.00  0.00     0.020 A 
ATOM     69  C   UNL A   1      44.469  20.817  25.311  1.00  0.00     0.054 A 
BRANCH  69  70
ATOM     70  S   UNL A   1      44.955  19.469  24.205  1.00  0.00     0.124 S 
ATOM     71  O   UNL A   1      46.410  19.469  24.329  1.00  0.00    -0.237 OA
ATOM     72  O   UNL A   1      44.271  18.320  24.790  1.00  0.00    -0.237 OA
ATOM     73  O   UNL A   1      44.450  19.892  22.900  1.00  0.00    -0.744 OA
ENDBRANCH  69  70
ENDBRANCH  50  64
BRANCH  51  74
ATOM     74  C   UNL A   1      41.331  30.189  33.102  1.00  0.00    -0.014 A 
ATOM     75  C   UNL A   1      41.349  31.599  33.183  1.00  0.00     0.010 A 
ATOM     76  C   UNL A   1      40.092  29.528  33.023  1.00  0.00     0.010 A 
ATOM     77  C   UNL A   1      40.180  32.336  32.986  1.00  0.00     0.020 A 
ATOM     78  C   UNL A   1      38.916  30.269  32.832  1.00  0.00     0.020 A 
ATOM     79  C   UNL A   1      38.985  31.662  32.735  1.00  0.00     0.054 A 
BRANCH  79  80
ATOM     80  S   UNL A   1      37.588  32.623  32.075  1.00  0.00     0.124 S 
ATOM     81  O   UNL A   1      37.099  33.320  33.260  1.00  0.00    -0.237 OA
ATOM     82  O   UNL A   1      38.251  33.465  31.077  1.00  0.00    -0.237 OA
ATOM     83  O   UNL A   1      36.703  31.597  31.536  1.00  0.00    -0.744 OA
ENDBRANCH  79  80
ENDBRANCH  51  74
BRANCH  63  84
ATOM     84  C   UNL A   1      44.885  23.884  33.725  1.00  0.00    -0.014 A 
ATOM     85  C   UNL A   1      43.971  22.903  34.141  1.00  0.00     0.010 A 
ATOM     86  C   UNL A   1      46.250  23.661  34.023  1.00  0.00     0.010 A 
ATOM     87  C   UNL A   1      44.391  21.788  34.880  1.00  0.00     0.020 A 
ATOM     88  C   UNL A   1      46.684  22.532  34.721  1.00  0.00     0.020 A 
ATOM     89  C   UNL A   1      45.743  21.612  35.171  1.00  0.00     0.054 A 
BRANCH  89  90
ATOM     90  S   UNL A   1      46.286  20.140  36.075  1.00  0.00     0.124 S 
ATOM     91  O   UNL A   1      47.740  20.263  36.001  1.00  0.00    -0.237 OA
ATOM     92  O   UNL A   1      45.709  20.337  37.403  1.00  0.00    -0.237 OA
ATOM     93  O   UNL A   1      45.709  19.038  35.310  1.00  0.00    -0.744 OA
ENDBRANCH  89  90
ENDBRANCH  63  84
ENDBRANCH  37  38
ENDBRANCH  29  32
ENDBRANCH  27  28
ENDBRANCH   1  27
TORSDOF 17
ENDMDL
MODEL 3
REMARK VINA RESULT:     -13.4      1.664      2.313
REMARK SMILES Cc1ccc(N[C@](C)(C(=O)NCCCCNC(=O)c2ccc(-c3c4nc(c(-c5ccc(S(=O)(=O)[O-])cc5)c5ccc([nH]5)c(-c5ccc(S(=O)(=O)[O-])cc5)c5nc(c(-c6ccc(S(=O)(=O)[O-])cc6)c6ccc3[nH]6)C=C5)C=C4)cc2)c2cc(F)cc(F)c2)cc1
REMARK SMILES IDX 14 1 13 2 12 3 11 4 9 5 10 6 7 8 8 9 6 10 5 12 1 13 2 14
REMARK SMILES IDX 3 15 88 16 4 17 87 18 79 19 80 20 86 21 81 22 84 23 82 24
REMARK SMILES IDX 83 25 85 26 15 27 16 28 17 29 18 31 19 32 20 33 78 34 21 35
REMARK SMILES IDX 77 36 22 37 23 38 24 39 71 40 25 41 76 42 70 43 72 44 26 45
REMARK SMILES IDX 75 46 69 47 68 48 27 50 57 51 38 52 56 53 39 54 42 55 55 56
REMARK SMILES IDX 73 57 40 58 41 59 54 61 74 62 43 63 28 64 29 65 37 66 30 67
REMARK SMILES IDX 36 68 31 69 32 70 33 71 34 72 35 73 58 74 59 75 67 76 60 77
REMARK SMILES IDX 66 78 61 79 62 80 63 81 64 82 65 83 44 84 45 85 53 86 46 87
REMARK SMILES IDX 52 88 47 89 48 90 49 91 50 92 51 93
REMARK H PARENT 11 7 6 11 16 30 72 49 42 60
REMARK Flexibility Score: inf
ROOT
ATOM      1  C   UNL A   1      33.700  29.040  26.399  1.00  0.00     0.023 C 
ENDROOT
BRANCH   1   2
ATOM      2  C   UNL A   1      32.185  29.252  26.432  1.00  0.00     0.023 C 
BRANCH   2   3
ATOM      3  C   UNL A   1      31.580  29.858  25.155  1.00  0.00     0.116 C 
BRANCH   3   4
ATOM      4  N   UNL A   1      32.429  29.638  23.996  1.00  0.00    -0.354 N 
ATOM      5  C   UNL A   1      32.494  28.661  23.055  1.00  0.00     0.250 C 
ATOM      6  O   UNL A   1      33.573  28.617  22.436  1.00  0.00    -0.272 OA
ATOM      7  H   UNL A   1      33.099  30.347  23.865  1.00  0.00     0.163 HD
BRANCH   5   8
ATOM      8  C   UNL A   1      31.355  27.593  22.742  1.00  0.00     0.139 C 
ATOM      9  C   UNL A   1      31.592  26.644  21.547  1.00  0.00     0.051 C 
BRANCH   8  10
ATOM     10  N   UNL A   1      31.247  26.720  23.967  1.00  0.00    -0.368 N 
ATOM     11  H   UNL A   1      30.391  26.758  24.451  1.00  0.00     0.161 HD
BRANCH  10  12
ATOM     12  C   UNL A   1      32.212  25.864  24.499  1.00  0.00     0.035 A 
ATOM     13  C   UNL A   1      35.137  23.324  26.467  1.00  0.00     0.044 C 
ATOM     14  C   UNL A   1      34.116  24.195  25.800  1.00  0.00    -0.051 A 
ATOM     15  C   UNL A   1      34.351  24.688  24.515  1.00  0.00     0.005 A 
ATOM     16  C   UNL A   1      32.921  24.533  26.434  1.00  0.00     0.005 A 
ATOM     17  C   UNL A   1      33.415  25.518  23.881  1.00  0.00     0.026 A 
ATOM     18  C   UNL A   1      31.987  25.354  25.787  1.00  0.00     0.026 A 
ENDBRANCH  10  12
ENDBRANCH   8  10
BRANCH   8  19
ATOM     19  C   UNL A   1      30.008  28.370  22.566  1.00  0.00    -0.008 A 
ATOM     20  C   UNL A   1      29.958  29.588  21.856  1.00  0.00     0.046 A 
ATOM     21  C   UNL A   1      28.804  27.966  23.179  1.00  0.00     0.046 A 
ATOM     22  C   UNL A   1      28.801  30.369  21.816  1.00  0.00     0.126 A 
ATOM     23  C   UNL A   1      27.649  28.750  23.104  1.00  0.00     0.126 A 
ATOM     24  F   UNL A   1      28.829  31.548  21.181  1.00  0.00    -0.207 F 
ATOM     25  C   UNL A   1      27.639  29.963  22.441  1.00  0.00     0.078 A 
ATOM     26  F   UNL A   1      26.528  28.323  23.703  1.00  0.00    -0.207 F 
ENDBRANCH   8  19
ENDBRANCH   5   8
ENDBRANCH   3   4
ENDBRANCH   2   3
ENDBRANCH   1   2
BRANCH   1  27
ATOM     27  C   UNL A   1      34.391  29.497  27.673  1.00  0.00     0.116 C 
BRANCH  27  28
ATOM     28  N   UNL A   1      35.129  30.742  27.546  1.00  0.00    -0.352 N 
ATOM     29  C   UNL A   1      36.434  30.968  27.971  1.00  0.00     0.251 C 
ATOM     30  H   UNL A   1      34.661  31.496  27.121  1.00  0.00     0.163 HD
ATOM     31  O   UNL A   1      36.875  32.073  28.210  1.00  0.00    -0.269 OA
BRANCH  29  32
ATOM     32  C   UNL A   1      37.325  29.786  27.948  1.00  0.00     0.039 A 
ATOM     33  C   UNL A   1      37.381  29.019  29.117  1.00  0.00     0.014 A 
ATOM     34  C   UNL A   1      38.296  29.668  26.959  1.00  0.00     0.014 A 
ATOM     35  C   UNL A   1      38.518  28.262  29.383  1.00  0.00     0.010 A 
ATOM     36  C   UNL A   1      39.467  29.008  27.275  1.00  0.00     0.010 A 
ATOM     37  C   UNL A   1      39.595  28.344  28.505  1.00  0.00    -0.014 A 
BRANCH  37  38
ATOM     38  C   UNL A   1      40.919  27.803  28.787  1.00  0.00     0.031 A 
ATOM     39  C   UNL A   1      41.200  26.386  28.461  1.00  0.00     0.074 A 
ATOM     40  C   UNL A   1      41.906  28.612  29.235  1.00  0.00     0.049 A 
ATOM     41  N   UNL A   1      42.191  25.701  28.921  1.00  0.00    -0.248 NA
ATOM     42  C   UNL A   1      40.307  25.599  27.614  1.00  0.00     0.031 C 
ATOM     43  C   UNL A   1      43.338  28.322  29.249  1.00  0.00     0.029 A 
ATOM     44  N   UNL A   1      41.794  29.784  29.988  1.00  0.00    -0.354 N 
ATOM     45  C   UNL A   1      42.243  24.521  28.210  1.00  0.00     0.074 A 
ATOM     46  C   UNL A   1      40.999  24.466  27.484  1.00  0.00     0.031 C 
ATOM     47  C   UNL A   1      43.918  29.074  30.197  1.00  0.00     0.029 A 
ATOM     48  C   UNL A   1      42.851  29.750  30.916  1.00  0.00     0.049 A 
ATOM     49  H   UNL A   1      41.115  30.490  29.889  1.00  0.00     0.167 HD
ATOM     50  C   UNL A   1      43.397  23.794  28.200  1.00  0.00     0.031 A 
ATOM     51  C   UNL A   1      42.674  29.713  32.269  1.00  0.00     0.031 A 
ATOM     52  C   UNL A   1      44.358  24.311  29.175  1.00  0.00     0.049 A 
ATOM     53  C   UNL A   1      43.302  28.491  32.908  1.00  0.00     0.074 A 
ATOM     54  C   UNL A   1      45.477  25.118  29.066  1.00  0.00     0.029 A 
ATOM     55  N   UNL A   1      44.038  24.258  30.528  1.00  0.00    -0.354 N 
ATOM     56  N   UNL A   1      43.668  27.429  32.243  1.00  0.00    -0.248 NA
ATOM     57  C   UNL A   1      43.533  28.353  34.344  1.00  0.00     0.031 C 
ATOM     58  C   UNL A   1      45.756  25.649  30.356  1.00  0.00     0.029 A 
ATOM     59  C   UNL A   1      44.833  25.129  31.248  1.00  0.00     0.049 A 
ATOM     60  H   UNL A   1      43.343  23.681  30.918  1.00  0.00     0.167 HD
ATOM     61  C   UNL A   1      44.177  26.495  33.107  1.00  0.00     0.074 A 
ATOM     62  C   UNL A   1      44.076  27.124  34.413  1.00  0.00     0.031 C 
ATOM     63  C   UNL A   1      44.640  25.283  32.684  1.00  0.00     0.031 A 
BRANCH  50  64
ATOM     64  C   UNL A   1      43.755  22.805  27.104  1.00  0.00    -0.014 A 
ATOM     65  C   UNL A   1      42.906  21.708  26.851  1.00  0.00     0.010 A 
ATOM     66  C   UNL A   1      44.947  22.837  26.356  1.00  0.00     0.010 A 
ATOM     67  C   UNL A   1      43.268  20.664  25.981  1.00  0.00     0.020 A 
ATOM     68  C   UNL A   1      45.338  21.791  25.506  1.00  0.00     0.020 A 
ATOM     69  C   UNL A   1      44.500  20.699  25.333  1.00  0.00     0.054 A 
BRANCH  69  70
ATOM     70  S   UNL A   1      45.001  19.313  24.281  1.00  0.00     0.124 S 
ATOM     71  O   UNL A   1      44.241  18.200  24.844  1.00  0.00    -0.237 OA
ATOM     72  O   UNL A   1      44.582  19.758  22.955  1.00  0.00    -0.237 OA
ATOM     73  O   UNL A   1      46.447  19.232  24.478  1.00  0.00    -0.744 OA
ENDBRANCH  69  70
ENDBRANCH  50  64
BRANCH  51  74
ATOM     74  C   UNL A   1      41.440  30.395  32.747  1.00  0.00    -0.014 A 
ATOM     75  C   UNL A   1      40.307  29.584  32.976  1.00  0.00     0.010 A 
ATOM     76  C   UNL A   1      41.519  31.648  33.382  1.00  0.00     0.010 A 
ATOM     77  C   UNL A   1      39.381  29.922  33.965  1.00  0.00     0.020 A 
ATOM     78  C   UNL A   1      40.584  31.992  34.370  1.00  0.00     0.020 A 
ATOM     79  C   UNL A   1      39.572  31.088  34.706  1.00  0.00     0.054 A 
BRANCH  79  80
ATOM     80  S   UNL A   1      38.612  31.288  36.239  1.00  0.00     0.124 S 
ATOM     81  O   UNL A   1      39.540  32.019  37.096  1.00  0.00    -0.237 OA
ATOM     82  O   UNL A   1      37.454  32.051  35.769  1.00  0.00    -0.237 OA
ATOM     83  O   UNL A   1      38.332  29.914  36.640  1.00  0.00    -0.744 OA
ENDBRANCH  79  80
ENDBRANCH  51  74
BRANCH  63  84
ATOM     84  C   UNL A   1      45.034  24.139  33.585  1.00  0.00    -0.014 A 
ATOM     85  C   UNL A   1      44.191  23.060  33.893  1.00  0.00     0.010 A 
ATOM     86  C   UNL A   1      46.370  24.066  34.048  1.00  0.00     0.010 A 
ATOM     87  C   UNL A   1      44.639  21.993  34.685  1.00  0.00     0.020 A 
ATOM     88  C   UNL A   1      46.838  22.987  34.801  1.00  0.00     0.020 A 
ATOM     89  C   UNL A   1      45.957  21.965  35.138  1.00  0.00     0.054 A 
BRANCH  89  90
ATOM     90  S   UNL A   1      46.546  20.555  36.110  1.00  0.00     0.124 S 
ATOM     91  O   UNL A   1      46.720  21.154  37.431  1.00  0.00    -0.237 OA
ATOM     92  O   UNL A   1      45.450  19.596  35.998  1.00  0.00    -0.237 OA
ATOM     93  O   UNL A   1      47.779  20.164  35.431  1.00  0.00    -0.744 OA
ENDBRANCH  89  90
ENDBRANCH  63  84
ENDBRANCH  37  38
ENDBRANCH  29  32
ENDBRANCH  27  28
ENDBRANCH   1  27
TORSDOF 17
ENDMDL
