MODEL 1
REMARK VINA RESULT:     -11.5      0.000      0.000
REMARK SMILES COC(=O)c1ccc(Cl)c(-c2ccc(F)cc2C(=O)NCCCCNC(=O)c2ccc(-c3c4nc(c(-c5ccc(S(=O)(=O)[O-])cc5)c5ccc([nH]5)c(-c5ccc(S(=O)(=O)[O-])cc5)c5nc(c(-c6ccc(S(=O)(=O)[O-])cc6)c6ccc3[nH]6)C=C5)C=C4)cc2)c1
REMARK SMILES IDX 22 1 21 2 20 3 18 4 19 5 17 7 11 8 12 9 13 10 16 11 14 12
REMARK SMILES IDX 15 13 10 14 5 15 6 16 88 17 7 18 8 19 9 20 3 21 4 22 2 23
REMARK SMILES IDX 1 24 23 25 24 26 25 27 26 28 27 30 28 31 29 32 87 33 30 34
REMARK SMILES IDX 86 35 31 36 32 37 33 38 80 39 34 40 85 41 79 42 81 43 35 44
REMARK SMILES IDX 84 45 78 46 77 47 36 49 66 50 47 51 65 52 48 53 51 54 64 55
REMARK SMILES IDX 82 56 49 57 50 58 63 60 83 61 52 62 37 63 38 64 46 65 39 66
REMARK SMILES IDX 45 67 40 68 41 69 42 70 43 71 44 72 67 73 68 74 76 75 69 76
REMARK SMILES IDX 75 77 70 78 71 79 72 80 73 81 74 82 53 83 54 84 62 85 55 86
REMARK SMILES IDX 61 87 56 88 57 89 58 90 59 91 60 92
REMARK H PARENT 20 6 25 29 81 48 51 59
REMARK Flexibility Score: inf
ROOT
ATOM      1  C   UNL A   1      32.707  27.107  26.391  1.00  0.00     0.023 C 
ENDROOT
BRANCH   1   2
ATOM      2  C   UNL A   1      31.215  26.841  26.515  1.00  0.00     0.116 C 
BRANCH   2   3
ATOM      3  N   UNL A   1      30.810  25.457  26.462  1.00  0.00    -0.352 N 
ATOM      4  C   UNL A   1      31.051  24.518  25.487  1.00  0.00     0.252 C 
ATOM      5  O   UNL A   1      30.694  23.357  25.687  1.00  0.00    -0.269 OA
ATOM      6  H   UNL A   1      30.288  25.140  27.233  1.00  0.00     0.163 HD
BRANCH   4   7
ATOM      7  C   UNL A   1      31.651  24.843  24.160  1.00  0.00     0.050 A 
ATOM      8  C   UNL A   1      32.706  24.143  23.519  1.00  0.00    -0.004 A 
ATOM      9  C   UNL A   1      33.069  24.548  22.213  1.00  0.00     0.012 A 
ATOM     10  C   UNL A   1      32.419  25.598  21.562  1.00  0.00     0.040 A 
ATOM     11  C   UNL A   1      30.984  25.882  23.478  1.00  0.00     0.053 A 
ATOM     12  C   UNL A   1      31.376  26.249  22.199  1.00  0.00     0.124 A 
ATOM     13  F   UNL A   1      30.730  27.235  21.564  1.00  0.00    -0.207 F 
BRANCH   8  14
ATOM     14  C   UNL A   1      33.406  22.984  24.110  1.00  0.00     0.002 A 
ATOM     15  C   UNL A   1      33.455  20.574  24.504  1.00  0.00     0.060 A 
ATOM     16  C   UNL A   1      34.500  20.717  25.418  1.00  0.00     0.017 A 
ATOM     17  C   UNL A   1      32.931  21.689  23.837  1.00  0.00     0.026 A 
ATOM     18  C   UNL A   1      35.036  21.984  25.650  1.00  0.00     0.022 A 
ATOM     19  C   UNL A   1      34.502  23.107  25.001  1.00  0.00     0.048 A 
ATOM     20  Cl  UNL A   1      35.160  24.647  25.448  1.00  0.00    -0.084 Cl
BRANCH  15  21
ATOM     21  C   UNL A   1      32.849  19.260  24.222  1.00  0.00     0.337 C 
ATOM     22  O   UNL A   1      32.241  19.014  23.195  1.00  0.00    -0.246 OA
BRANCH  21  23
ATOM     23  O   UNL A   1      32.985  18.466  25.311  1.00  0.00    -0.465 OA
ATOM     24  C   UNL A   1      32.653  17.097  25.063  1.00  0.00     0.282 C 
ENDBRANCH  21  23
ENDBRANCH  15  21
ENDBRANCH   8  14
ENDBRANCH   4   7
ENDBRANCH   2   3
ENDBRANCH   1   2
BRANCH   1  25
ATOM     25  C   UNL A   1      33.286  28.205  27.283  1.00  0.00     0.023 C 
BRANCH  25  26
ATOM     26  C   UNL A   1      33.590  29.561  26.647  1.00  0.00     0.116 C 
BRANCH  26  27
ATOM     27  N   UNL A   1      33.610  30.691  27.567  1.00  0.00    -0.352 N 
ATOM     28  C   UNL A   1      34.618  31.111  28.412  1.00  0.00     0.251 C 
ATOM     29  H   UNL A   1      32.788  31.232  27.588  1.00  0.00     0.163 HD
ATOM     30  O   UNL A   1      34.467  32.123  29.091  1.00  0.00    -0.269 OA
BRANCH  28  31
ATOM     31  C   UNL A   1      35.857  30.306  28.541  1.00  0.00     0.039 A 
ATOM     32  C   UNL A   1      36.760  30.266  27.474  1.00  0.00     0.014 A 
ATOM     33  C   UNL A   1      36.170  29.667  29.741  1.00  0.00     0.014 A 
ATOM     34  C   UNL A   1      38.031  29.711  27.662  1.00  0.00     0.010 A 
ATOM     35  C   UNL A   1      37.455  29.174  29.949  1.00  0.00     0.010 A 
ATOM     36  C   UNL A   1      38.414  29.229  28.924  1.00  0.00    -0.014 A 
BRANCH  36  37
ATOM     37  C   UNL A   1      39.824  28.870  29.238  1.00  0.00     0.031 A 
ATOM     38  C   UNL A   1      40.775  29.906  29.774  1.00  0.00     0.074 A 
ATOM     39  C   UNL A   1      40.282  27.642  28.913  1.00  0.00     0.049 A 
ATOM     40  N   UNL A   1      42.068  29.824  29.950  1.00  0.00    -0.248 NA
ATOM     41  C   UNL A   1      40.200  31.213  30.132  1.00  0.00     0.031 C 
ATOM     42  C   UNL A   1      39.479  26.561  28.335  1.00  0.00     0.029 A 
ATOM     43  N   UNL A   1      41.543  27.104  28.996  1.00  0.00    -0.354 N 
ATOM     44  C   UNL A   1      42.467  31.068  30.423  1.00  0.00     0.074 A 
ATOM     45  C   UNL A   1      41.283  31.900  30.469  1.00  0.00     0.031 C 
ATOM     46  C   UNL A   1      40.264  25.492  28.119  1.00  0.00     0.029 A 
ATOM     47  C   UNL A   1      41.632  25.821  28.505  1.00  0.00     0.049 A 
ATOM     48  H   UNL A   1      42.313  27.591  29.370  1.00  0.00     0.167 HD
ATOM     49  C   UNL A   1      43.702  31.476  30.801  1.00  0.00     0.031 A 
ATOM     50  C   UNL A   1      42.694  25.003  28.362  1.00  0.00     0.031 A 
ATOM     51  C   UNL A   1      44.876  30.647  30.767  1.00  0.00     0.049 A 
ATOM     52  C   UNL A   1      44.053  25.478  28.799  1.00  0.00     0.074 A 
ATOM     53  C   UNL A   1      46.166  30.965  31.159  1.00  0.00     0.029 A 
ATOM     54  N   UNL A   1      44.907  29.333  30.324  1.00  0.00    -0.354 N 
ATOM     55  N   UNL A   1      44.397  26.644  29.288  1.00  0.00    -0.248 NA
ATOM     56  C   UNL A   1      45.164  24.523  28.677  1.00  0.00     0.031 C 
ATOM     57  C   UNL A   1      46.981  29.852  30.930  1.00  0.00     0.029 A 
ATOM     58  C   UNL A   1      46.189  28.827  30.436  1.00  0.00     0.049 A 
ATOM     59  H   UNL A   1      44.130  28.835  29.980  1.00  0.00     0.167 HD
ATOM     60  C   UNL A   1      45.755  26.548  29.570  1.00  0.00     0.074 A 
ATOM     61  C   UNL A   1      46.170  25.212  29.200  1.00  0.00     0.031 C 
ATOM     62  C   UNL A   1      46.581  27.485  30.094  1.00  0.00     0.031 A 
BRANCH  49  63
ATOM     63  C   UNL A   1      43.845  32.886  31.306  1.00  0.00    -0.014 A 
ATOM     64  C   UNL A   1      44.180  33.932  30.426  1.00  0.00     0.010 A 
ATOM     65  C   UNL A   1      43.583  33.185  32.655  1.00  0.00     0.010 A 
ATOM     66  C   UNL A   1      44.284  35.244  30.892  1.00  0.00     0.020 A 
ATOM     67  C   UNL A   1      43.661  34.500  33.121  1.00  0.00     0.020 A 
ATOM     68  C   UNL A   1      44.026  35.519  32.239  1.00  0.00     0.054 A 
BRANCH  68  69
ATOM     69  S   UNL A   1      44.136  37.237  32.809  1.00  0.00     0.124 S 
ATOM     70  O   UNL A   1      45.461  37.266  33.422  1.00  0.00    -0.237 OA
ATOM     71  O   UNL A   1      44.003  37.998  31.568  1.00  0.00    -0.237 OA
ATOM     72  O   UNL A   1      43.016  37.366  33.738  1.00  0.00    -0.744 OA
ENDBRANCH  68  69
ENDBRANCH  49  63
BRANCH  50  73
ATOM     73  C   UNL A   1      42.520  23.641  27.785  1.00  0.00    -0.014 A 
ATOM     74  C   UNL A   1      42.333  22.531  28.627  1.00  0.00     0.010 A 
ATOM     75  C   UNL A   1      42.552  23.447  26.393  1.00  0.00     0.010 A 
ATOM     76  C   UNL A   1      42.218  21.245  28.088  1.00  0.00     0.020 A 
ATOM     77  C   UNL A   1      42.410  22.168  25.849  1.00  0.00     0.020 A 
ATOM     78  C   UNL A   1      42.262  21.071  26.702  1.00  0.00     0.054 A 
BRANCH  78  79
ATOM     79  S   UNL A   1      42.086  19.399  26.021  1.00  0.00     0.124 S 
ATOM     80  O   UNL A   1      42.525  18.569  27.138  1.00  0.00    -0.237 OA
ATOM     81  O   UNL A   1      40.662  19.333  25.703  1.00  0.00    -0.237 OA
ATOM     82  O   UNL A   1      42.974  19.411  24.860  1.00  0.00    -0.744 OA
ENDBRANCH  78  79
ENDBRANCH  50  73
BRANCH  62  83
ATOM     83  C   UNL A   1      48.006  27.088  30.369  1.00  0.00    -0.014 A 
ATOM     84  C   UNL A   1      49.020  27.298  29.420  1.00  0.00     0.010 A 
ATOM     85  C   UNL A   1      48.343  26.579  31.638  1.00  0.00     0.010 A 
ATOM     86  C   UNL A   1      50.348  26.995  29.732  1.00  0.00     0.020 A 
ATOM     87  C   UNL A   1      49.671  26.295  31.959  1.00  0.00     0.020 A 
ATOM     88  C   UNL A   1      50.666  26.499  31.001  1.00  0.00     0.054 A 
BRANCH  88  89
ATOM     89  S   UNL A   1      52.406  26.188  31.410  1.00  0.00     0.124 S 
ATOM     90  O   UNL A   1      52.637  27.134  32.496  1.00  0.00    -0.237 OA
ATOM     91  O   UNL A   1      52.400  24.778  31.794  1.00  0.00    -0.237 OA
ATOM     92  O   UNL A   1      53.112  26.483  30.164  1.00  0.00    -0.744 OA
ENDBRANCH  88  89
ENDBRANCH  62  83
ENDBRANCH  36  37
ENDBRANCH  28  31
ENDBRANCH  26  27
ENDBRANCH  25  26
ENDBRANCH   1  25
TORSDOF 17
ENDMDL
MODEL 2
REMARK VINA RESULT:     -11.5      4.622      6.066
REMARK SMILES COC(=O)c1ccc(Cl)c(-c2ccc(F)cc2C(=O)NCCCCNC(=O)c2ccc(-c3c4nc(c(-c5ccc(S(=O)(=O)[O-])cc5)c5ccc([nH]5)c(-c5ccc(S(=O)(=O)[O-])cc5)c5nc(c(-c6ccc(S(=O)(=O)[O-])cc6)c6ccc3[nH]6)C=C5)C=C4)cc2)c1
REMARK SMILES IDX 22 1 21 2 20 3 18 4 19 5 17 7 11 8 12 9 13 10 16 11 14 12
REMARK SMILES IDX 15 13 10 14 5 15 6 16 88 17 7 18 8 19 9 20 3 21 4 22 2 23
REMARK SMILES IDX 1 24 23 25 24 26 25 27 26 28 27 30 28 31 29 32 87 33 30 34
REMARK SMILES IDX 86 35 31 36 32 37 33 38 80 39 34 40 85 41 79 42 81 43 35 44
REMARK SMILES IDX 84 45 78 46 77 47 36 49 66 50 47 51 65 52 48 53 51 54 64 55
REMARK SMILES IDX 82 56 49 57 50 58 63 60 83 61 52 62 37 63 38 64 46 65 39 66
REMARK SMILES IDX 45 67 40 68 41 69 42 70 43 71 44 72 67 73 68 74 76 75 69 76
REMARK SMILES IDX 75 77 70 78 71 79 72 80 73 81 74 82 53 83 54 84 62 85 55 86
REMARK SMILES IDX 61 87 56 88 57 89 58 90 59 91 60 92
REMARK H PARENT 20 6 25 29 81 48 51 59
REMARK Flexibility Score: inf
ROOT
ATOM      1  C   UNL A   1      32.719  29.778  27.133  1.00  0.00     0.023 C 
ENDROOT
BRANCH   1   2
ATOM      2  C   UNL A   1      32.051  28.858  26.123  1.00  0.00     0.116 C 
BRANCH   2   3
ATOM      3  N   UNL A   1      32.632  28.837  24.802  1.00  0.00    -0.352 N 
ATOM      4  C   UNL A   1      32.008  28.818  23.577  1.00  0.00     0.252 C 
ATOM      5  O   UNL A   1      32.699  28.900  22.562  1.00  0.00    -0.269 OA
ATOM      6  H   UNL A   1      33.616  28.836  24.774  1.00  0.00     0.163 HD
BRANCH   4   7
ATOM      7  C   UNL A   1      30.538  28.621  23.405  1.00  0.00     0.050 A 
ATOM      8  C   UNL A   1      29.838  27.390  23.497  1.00  0.00    -0.004 A 
ATOM      9  C   UNL A   1      28.427  27.425  23.401  1.00  0.00     0.012 A 
ATOM     10  C   UNL A   1      27.732  28.622  23.224  1.00  0.00     0.040 A 
ATOM     11  C   UNL A   1      29.821  29.826  23.256  1.00  0.00     0.053 A 
ATOM     12  C   UNL A   1      28.437  29.813  23.161  1.00  0.00     0.124 A 
ATOM     13  F   UNL A   1      27.770  30.966  23.023  1.00  0.00    -0.207 F 
BRANCH   8  14
ATOM     14  C   UNL A   1      30.489  26.086  23.745  1.00  0.00     0.002 A 
ATOM     15  C   UNL A   1      31.091  24.344  25.346  1.00  0.00     0.060 A 
ATOM     16  C   UNL A   1      31.929  23.735  24.409  1.00  0.00     0.017 A 
ATOM     17  C   UNL A   1      30.359  25.490  25.011  1.00  0.00     0.026 A 
ATOM     18  C   UNL A   1      32.016  24.268  23.123  1.00  0.00     0.022 A 
ATOM     19  C   UNL A   1      31.302  25.428  22.788  1.00  0.00     0.048 A 
ATOM     20  Cl  UNL A   1      31.572  26.075  21.204  1.00  0.00    -0.084 Cl
BRANCH  15  21
ATOM     21  C   UNL A   1      30.962  23.825  26.719  1.00  0.00     0.337 C 
ATOM     22  O   UNL A   1      29.892  23.522  27.218  1.00  0.00    -0.246 OA
BRANCH  21  23
ATOM     23  O   UNL A   1      32.174  23.861  27.323  1.00  0.00    -0.465 OA
ATOM     24  C   UNL A   1      32.680  22.567  27.663  1.00  0.00     0.282 C 
ENDBRANCH  21  23
ENDBRANCH  15  21
ENDBRANCH   8  14
ENDBRANCH   4   7
ENDBRANCH   2   3
ENDBRANCH   1   2
BRANCH   1  25
ATOM     25  C   UNL A   1      32.286  31.244  27.120  1.00  0.00     0.023 C 
BRANCH  25  26
ATOM     26  C   UNL A   1      33.316  32.301  27.516  1.00  0.00     0.116 C 
BRANCH  26  27
ATOM     27  N   UNL A   1      32.783  33.638  27.739  1.00  0.00    -0.352 N 
ATOM     28  C   UNL A   1      33.225  34.622  28.602  1.00  0.00     0.251 C 
ATOM     29  H   UNL A   1      31.995  33.875  27.197  1.00  0.00     0.163 HD
ATOM     30  O   UNL A   1      32.668  35.716  28.623  1.00  0.00    -0.269 OA
BRANCH  28  31
ATOM     31  C   UNL A   1      34.335  34.334  29.544  1.00  0.00     0.039 A 
ATOM     32  C   UNL A   1      34.037  33.883  30.833  1.00  0.00     0.014 A 
ATOM     33  C   UNL A   1      35.663  34.423  29.128  1.00  0.00     0.014 A 
ATOM     34  C   UNL A   1      35.061  33.386  31.647  1.00  0.00     0.010 A 
ATOM     35  C   UNL A   1      36.672  33.870  29.911  1.00  0.00     0.010 A 
ATOM     36  C   UNL A   1      36.376  33.306  31.162  1.00  0.00    -0.014 A 
BRANCH  36  37
ATOM     37  C   UNL A   1      37.441  32.558  31.884  1.00  0.00     0.031 A 
ATOM     38  C   UNL A   1      37.985  33.073  33.188  1.00  0.00     0.074 A 
ATOM     39  C   UNL A   1      38.011  31.485  31.295  1.00  0.00     0.049 A 
ATOM     40  N   UNL A   1      39.017  32.652  33.874  1.00  0.00    -0.248 NA
ATOM     41  C   UNL A   1      37.297  34.229  33.785  1.00  0.00     0.031 C 
ATOM     42  C   UNL A   1      37.616  30.914  30.004  1.00  0.00     0.029 A 
ATOM     43  N   UNL A   1      39.065  30.698  31.692  1.00  0.00    -0.354 N 
ATOM     44  C   UNL A   1      39.113  33.497  34.973  1.00  0.00     0.074 A 
ATOM     45  C   UNL A   1      38.058  34.480  34.841  1.00  0.00     0.031 C 
ATOM     46  C   UNL A   1      38.413  29.870  29.719  1.00  0.00     0.029 A 
ATOM     47  C   UNL A   1      39.399  29.720  30.783  1.00  0.00     0.049 A 
ATOM     48  H   UNL A   1      39.539  30.823  32.546  1.00  0.00     0.167 HD
ATOM     49  C   UNL A   1      39.987  33.449  36.006  1.00  0.00     0.031 A 
ATOM     50  C   UNL A   1      40.397  28.813  30.791  1.00  0.00     0.031 A 
ATOM     51  C   UNL A   1      41.028  32.466  36.144  1.00  0.00     0.049 A 
ATOM     52  C   UNL A   1      41.349  28.775  31.955  1.00  0.00     0.074 A 
ATOM     53  C   UNL A   1      41.944  32.320  37.173  1.00  0.00     0.029 A 
ATOM     54  N   UNL A   1      41.288  31.454  35.232  1.00  0.00    -0.354 N 
ATOM     55  N   UNL A   1      41.391  29.556  33.007  1.00  0.00    -0.248 NA
ATOM     56  C   UNL A   1      42.379  27.726  31.941  1.00  0.00     0.031 C 
ATOM     57  C   UNL A   1      42.773  31.236  36.871  1.00  0.00     0.029 A 
ATOM     58  C   UNL A   1      42.345  30.680  35.676  1.00  0.00     0.049 A 
ATOM     59  H   UNL A   1      40.793  31.308  34.393  1.00  0.00     0.167 HD
ATOM     60  C   UNL A   1      42.424  29.067  33.798  1.00  0.00     0.074 A 
ATOM     61  C   UNL A   1      42.981  27.924  33.107  1.00  0.00     0.031 C 
ATOM     62  C   UNL A   1      42.868  29.525  34.993  1.00  0.00     0.031 A 
BRANCH  49  63
ATOM     63  C   UNL A   1      39.846  34.486  37.087  1.00  0.00    -0.014 A 
ATOM     64  C   UNL A   1      40.448  35.750  36.952  1.00  0.00     0.010 A 
ATOM     65  C   UNL A   1      39.054  34.224  38.220  1.00  0.00     0.010 A 
ATOM     66  C   UNL A   1      40.291  36.720  37.943  1.00  0.00     0.020 A 
ATOM     67  C   UNL A   1      38.873  35.200  39.203  1.00  0.00     0.020 A 
ATOM     68  C   UNL A   1      39.505  36.438  39.065  1.00  0.00     0.054 A 
BRANCH  68  69
ATOM     69  S   UNL A   1      39.291  37.728  40.321  1.00  0.00     0.124 S 
ATOM     70  O   UNL A   1      38.807  36.957  41.463  1.00  0.00    -0.237 OA
ATOM     71  O   UNL A   1      40.640  38.272  40.458  1.00  0.00    -0.237 OA
ATOM     72  O   UNL A   1      38.314  38.635  39.723  1.00  0.00    -0.744 OA
ENDBRANCH  68  69
ENDBRANCH  49  63
BRANCH  50  73
ATOM     73  C   UNL A   1      40.548  27.854  29.661  1.00  0.00    -0.014 A 
ATOM     74  C   UNL A   1      39.703  26.734  29.561  1.00  0.00     0.010 A 
ATOM     75  C   UNL A   1      41.544  28.049  28.689  1.00  0.00     0.010 A 
ATOM     76  C   UNL A   1      39.875  25.808  28.528  1.00  0.00     0.020 A 
ATOM     77  C   UNL A   1      41.702  27.140  27.639  1.00  0.00     0.020 A 
ATOM     78  C   UNL A   1      40.877  26.014  27.576  1.00  0.00     0.054 A 
BRANCH  78  79
ATOM     79  S   UNL A   1      41.069  24.814  26.229  1.00  0.00     0.124 S 
ATOM     80  O   UNL A   1      41.335  25.683  25.086  1.00  0.00    -0.237 OA
ATOM     81  O   UNL A   1      42.194  24.002  26.683  1.00  0.00    -0.237 OA
ATOM     82  O   UNL A   1      39.782  24.121  26.205  1.00  0.00    -0.744 OA
ENDBRANCH  78  79
ENDBRANCH  50  73
BRANCH  62  83
ATOM     83  C   UNL A   1      43.965  28.755  35.676  1.00  0.00    -0.014 A 
ATOM     84  C   UNL A   1      45.318  29.080  35.478  1.00  0.00     0.010 A 
ATOM     85  C   UNL A   1      43.624  27.749  36.599  1.00  0.00     0.010 A 
ATOM     86  C   UNL A   1      46.313  28.401  36.187  1.00  0.00     0.020 A 
ATOM     87  C   UNL A   1      44.615  27.084  37.323  1.00  0.00     0.020 A 
ATOM     88  C   UNL A   1      45.956  27.410  37.107  1.00  0.00     0.054 A 
BRANCH  88  89
ATOM     89  S   UNL A   1      47.261  26.599  38.073  1.00  0.00     0.124 S 
ATOM     90  O   UNL A   1      48.257  27.659  38.188  1.00  0.00    -0.237 OA
ATOM     91  O   UNL A   1      46.572  26.246  39.312  1.00  0.00    -0.237 OA
ATOM     92  O   UNL A   1      47.652  25.463  37.241  1.00  0.00    -0.744 OA
ENDBRANCH  88  89
ENDBRANCH  62  83
ENDBRANCH  36  37
ENDBRANCH  28  31
ENDBRANCH  26  27
ENDBRANCH  25  26
ENDBRANCH   1  25
TORSDOF 17
ENDMDL
MODEL 3
REMARK VINA RESULT:     -11.3      3.523      8.106
REMARK SMILES COC(=O)c1ccc(Cl)c(-c2ccc(F)cc2C(=O)NCCCCNC(=O)c2ccc(-c3c4nc(c(-c5ccc(S(=O)(=O)[O-])cc5)c5ccc([nH]5)c(-c5ccc(S(=O)(=O)[O-])cc5)c5nc(c(-c6ccc(S(=O)(=O)[O-])cc6)c6ccc3[nH]6)C=C5)C=C4)cc2)c1
REMARK SMILES IDX 22 1 21 2 20 3 18 4 19 5 17 7 11 8 12 9 13 10 16 11 14 12
REMARK SMILES IDX 15 13 10 14 5 15 6 16 88 17 7 18 8 19 9 20 3 21 4 22 2 23
REMARK SMILES IDX 1 24 23 25 24 26 25 27 26 28 27 30 28 31 29 32 87 33 30 34
REMARK SMILES IDX 86 35 31 36 32 37 33 38 80 39 34 40 85 41 79 42 81 43 35 44
REMARK SMILES IDX 84 45 78 46 77 47 36 49 66 50 47 51 65 52 48 53 51 54 64 55
REMARK SMILES IDX 82 56 49 57 50 58 63 60 83 61 52 62 37 63 38 64 46 65 39 66
REMARK SMILES IDX 45 67 40 68 41 69 42 70 43 71 44 72 67 73 68 74 76 75 69 76
REMARK SMILES IDX 75 77 70 78 71 79 72 80 73 81 74 82 53 83 54 84 62 85 55 86
REMARK SMILES IDX 61 87 56 88 57 89 58 90 59 91 60 92
REMARK H PARENT 20 6 25 29 81 48 51 59
REMARK Flexibility Score: inf
ROOT
ATOM      1  C   UNL A   1      37.269  22.504  24.263  1.00  0.00     0.023 C 
ENDROOT
BRANCH   1   2
ATOM      2  C   UNL A   1      35.936  23.237  24.283  1.00  0.00     0.116 C 
BRANCH   2   3
ATOM      3  N   UNL A   1      35.213  23.205  25.532  1.00  0.00    -0.352 N 
ATOM      4  C   UNL A   1      34.246  22.324  25.955  1.00  0.00     0.252 C 
ATOM      5  O   UNL A   1      33.824  22.421  27.107  1.00  0.00    -0.269 OA
ATOM      6  H   UNL A   1      35.446  23.915  26.172  1.00  0.00     0.163 HD
BRANCH   4   7
ATOM      7  C   UNL A   1      33.618  21.302  25.066  1.00  0.00     0.050 A 
ATOM      8  C   UNL A   1      32.634  21.543  24.073  1.00  0.00    -0.004 A 
ATOM      9  C   UNL A   1      32.233  20.454  23.263  1.00  0.00     0.012 A 
ATOM     10  C   UNL A   1      32.781  19.180  23.423  1.00  0.00     0.040 A 
ATOM     11  C   UNL A   1      34.182  20.017  25.196  1.00  0.00     0.053 A 
ATOM     12  C   UNL A   1      33.757  18.976  24.384  1.00  0.00     0.124 A 
ATOM     13  F   UNL A   1      34.306  17.762  24.517  1.00  0.00    -0.207 F 
BRANCH   8  14
ATOM     14  C   UNL A   1      32.048  22.871  23.795  1.00  0.00     0.002 A 
ATOM     15  C   UNL A   1      32.113  24.932  22.486  1.00  0.00     0.060 A 
ATOM     16  C   UNL A   1      31.195  25.538  23.345  1.00  0.00     0.017 A 
ATOM     17  C   UNL A   1      32.516  23.606  22.692  1.00  0.00     0.026 A 
ATOM     18  C   UNL A   1      30.662  24.803  24.404  1.00  0.00     0.022 A 
ATOM     19  C   UNL A   1      31.077  23.482  24.628  1.00  0.00     0.048 A 
ATOM     20  Cl  UNL A   1      30.444  22.699  26.038  1.00  0.00    -0.084 Cl
BRANCH  15  21
ATOM     21  C   UNL A   1      32.710  25.661  21.353  1.00  0.00     0.337 C 
ATOM     22  O   UNL A   1      32.264  25.610  20.220  1.00  0.00    -0.246 OA
BRANCH  21  23
ATOM     23  O   UNL A   1      33.851  26.264  21.765  1.00  0.00    -0.465 OA
ATOM     24  C   UNL A   1      33.684  27.651  22.070  1.00  0.00     0.282 C 
ENDBRANCH  21  23
ENDBRANCH  15  21
ENDBRANCH   8  14
ENDBRANCH   4   7
ENDBRANCH   2   3
ENDBRANCH   1   2
BRANCH   1  25
ATOM     25  C   UNL A   1      37.636  21.710  25.516  1.00  0.00     0.023 C 
BRANCH  25  26
ATOM     26  C   UNL A   1      39.105  21.668  25.935  1.00  0.00     0.116 C 
BRANCH  26  27
ATOM     27  N   UNL A   1      39.745  20.363  25.835  1.00  0.00    -0.352 N 
ATOM     28  C   UNL A   1      41.057  20.012  26.087  1.00  0.00     0.251 C 
ATOM     29  H   UNL A   1      39.159  19.626  25.546  1.00  0.00     0.163 HD
ATOM     30  O   UNL A   1      41.408  18.840  25.987  1.00  0.00    -0.269 OA
BRANCH  28  31
ATOM     31  C   UNL A   1      42.051  21.061  26.421  1.00  0.00     0.039 A 
ATOM     32  C   UNL A   1      42.614  21.820  25.391  1.00  0.00     0.014 A 
ATOM     33  C   UNL A   1      42.359  21.354  27.749  1.00  0.00     0.014 A 
ATOM     34  C   UNL A   1      43.367  22.959  25.701  1.00  0.00     0.010 A 
ATOM     35  C   UNL A   1      43.051  22.522  28.058  1.00  0.00     0.010 A 
ATOM     36  C   UNL A   1      43.526  23.360  27.038  1.00  0.00    -0.014 A 
BRANCH  36  37
ATOM     37  C   UNL A   1      44.092  24.688  27.402  1.00  0.00     0.031 A 
ATOM     38  C   UNL A   1      43.186  25.816  27.817  1.00  0.00     0.074 A 
ATOM     39  C   UNL A   1      45.411  24.915  27.228  1.00  0.00     0.049 A 
ATOM     40  N   UNL A   1      43.477  27.076  28.010  1.00  0.00    -0.248 NA
ATOM     41  C   UNL A   1      41.765  25.488  28.013  1.00  0.00     0.031 C 
ATOM     42  C   UNL A   1      46.392  23.924  26.777  1.00  0.00     0.029 A 
ATOM     43  N   UNL A   1      46.152  26.061  27.382  1.00  0.00    -0.354 N 
ATOM     44  C   UNL A   1      42.277  27.697  28.335  1.00  0.00     0.074 A 
ATOM     45  C   UNL A   1      41.247  26.681  28.274  1.00  0.00     0.031 C 
ATOM     46  C   UNL A   1      47.602  24.503  26.695  1.00  0.00     0.029 A 
ATOM     47  C   UNL A   1      47.479  25.913  27.048  1.00  0.00     0.049 A 
ATOM     48  H   UNL A   1      45.770  26.911  27.702  1.00  0.00     0.167 HD
ATOM     49  C   UNL A   1      42.054  28.990  28.670  1.00  0.00     0.031 A 
ATOM     50  C   UNL A   1      48.485  26.810  27.011  1.00  0.00     0.031 A 
ATOM     51  C   UNL A   1      43.078  29.998  28.743  1.00  0.00     0.049 A 
ATOM     52  C   UNL A   1      48.212  28.238  27.397  1.00  0.00     0.074 A 
ATOM     53  C   UNL A   1      42.951  31.329  29.104  1.00  0.00     0.029 A 
ATOM     54  N   UNL A   1      44.419  29.787  28.459  1.00  0.00    -0.354 N 
ATOM     55  N   UNL A   1      47.077  28.791  27.747  1.00  0.00    -0.248 NA
ATOM     56  C   UNL A   1      49.358  29.160  27.398  1.00  0.00     0.031 C 
ATOM     57  C   UNL A   1      44.211  31.929  29.014  1.00  0.00     0.029 A 
ATOM     58  C   UNL A   1      45.129  30.960  28.640  1.00  0.00     0.049 A 
ATOM     59  H   UNL A   1      44.807  28.929  28.172  1.00  0.00     0.167 HD
ATOM     60  C   UNL A   1      47.380  30.115  28.048  1.00  0.00     0.074 A 
ATOM     61  C   UNL A   1      48.802  30.280  27.842  1.00  0.00     0.031 C 
ATOM     62  C   UNL A   1      46.550  31.102  28.462  1.00  0.00     0.031 A 
BRANCH  49  63
ATOM     63  C   UNL A   1      40.643  29.390  29.005  1.00  0.00    -0.014 A 
ATOM     64  C   UNL A   1      39.722  29.691  27.984  1.00  0.00     0.010 A 
ATOM     65  C   UNL A   1      40.210  29.405  30.343  1.00  0.00     0.010 A 
ATOM     66  C   UNL A   1      38.405  30.033  28.297  1.00  0.00     0.020 A 
ATOM     67  C   UNL A   1      38.886  29.723  30.660  1.00  0.00     0.020 A 
ATOM     68  C   UNL A   1      37.996  30.049  29.634  1.00  0.00     0.054 A 
BRANCH  68  69
ATOM     69  S   UNL A   1      36.271  30.465  30.008  1.00  0.00     0.124 S 
ATOM     70  O   UNL A   1      35.556  29.756  28.950  1.00  0.00    -0.237 OA
ATOM     71  O   UNL A   1      36.094  29.925  31.354  1.00  0.00    -0.237 OA
ATOM     72  O   UNL A   1      36.237  31.922  29.915  1.00  0.00    -0.744 OA
ENDBRANCH  68  69
ENDBRANCH  49  63
BRANCH  50  73
ATOM     73  C   UNL A   1      49.852  26.388  26.598  1.00  0.00    -0.014 A 
ATOM     74  C   UNL A   1      50.795  25.991  27.563  1.00  0.00     0.010 A 
ATOM     75  C   UNL A   1      50.221  26.392  25.242  1.00  0.00     0.010 A 
ATOM     76  C   UNL A   1      52.094  25.641  27.181  1.00  0.00     0.020 A 
ATOM     77  C   UNL A   1      51.510  26.016  24.854  1.00  0.00     0.020 A 
ATOM     78  C   UNL A   1      52.445  25.660  25.829  1.00  0.00     0.054 A 
BRANCH  78  79
ATOM     79  S   UNL A   1      54.127  25.178  25.351  1.00  0.00     0.124 S 
ATOM     80  O   UNL A   1      53.925  23.817  24.864  1.00  0.00    -0.237 OA
ATOM     81  O   UNL A   1      54.466  26.171  24.335  1.00  0.00    -0.237 OA
ATOM     82  O   UNL A   1      54.881  25.294  26.598  1.00  0.00    -0.744 OA
ENDBRANCH  78  79
ENDBRANCH  50  73
BRANCH  62  83
ATOM     83  C   UNL A   1      47.160  32.437  28.793  1.00  0.00    -0.014 A 
ATOM     84  C   UNL A   1      47.253  33.457  27.830  1.00  0.00     0.010 A 
ATOM     85  C   UNL A   1      47.561  32.698  30.116  1.00  0.00     0.010 A 
ATOM     86  C   UNL A   1      47.749  34.714  28.185  1.00  0.00     0.020 A 
ATOM     87  C   UNL A   1      48.038  33.960  30.478  1.00  0.00     0.020 A 
ATOM     88  C   UNL A   1      48.136  34.959  29.508  1.00  0.00     0.054 A 
BRANCH  88  89
ATOM     89  S   UNL A   1      48.701  36.622  29.961  1.00  0.00     0.124 S 
ATOM     90  O   UNL A   1      49.108  36.436  31.351  1.00  0.00    -0.237 OA
ATOM     91  O   UNL A   1      49.789  36.861  29.015  1.00  0.00    -0.237 OA
ATOM     92  O   UNL A   1      47.518  37.456  29.763  1.00  0.00    -0.744 OA
ENDBRANCH  88  89
ENDBRANCH  62  83
ENDBRANCH  36  37
ENDBRANCH  28  31
ENDBRANCH  26  27
ENDBRANCH  25  26
ENDBRANCH   1  25
TORSDOF 17
ENDMDL
