MODEL 1
REMARK VINA RESULT:     -11.6      0.000      0.000
REMARK SMILES Cc1cc(Cl)c2c(c1)C=C(C(=O)NCCCCNC(=O)c1ccc(-c3c4nc(c(-c5ccc(S(=O)(=O)[O-])cc5)c5ccc([nH]5)c(-c5ccc(S(=O)(=O)[O-])cc5)c5nc(c(-c6ccc(S(=O)(=O)[O-])cc6)c6ccc3[nH]6)C=C5)C=C4)cc1)[C@@H](C(F)(F)F)O2
REMARK SMILES IDX 16 1 15 2 14 3 13 4 11 5 12 6 10 8 1 9 2 10 3 11 8 12 4 13
REMARK SMILES IDX 7 14 5 15 6 16 9 17 86 18 81 19 82 20 83 21 84 22 85 23
REMARK SMILES IDX 17 24 18 25 19 26 20 28 21 29 22 30 80 31 23 32 79 33 24 34
REMARK SMILES IDX 25 35 26 36 73 37 27 38 78 39 72 40 74 41 28 42 77 43 71 44
REMARK SMILES IDX 70 45 29 47 59 48 40 49 58 50 41 51 44 52 57 53 75 54 42 55
REMARK SMILES IDX 43 56 56 58 76 59 45 60 30 61 31 62 39 63 32 64 38 65 33 66
REMARK SMILES IDX 34 67 35 68 36 69 37 70 60 71 61 72 69 73 62 74 68 75 63 76
REMARK SMILES IDX 64 77 65 78 66 79 67 80 46 81 47 82 55 83 48 84 54 85 49 86
REMARK SMILES IDX 50 87 51 88 52 89 53 90
REMARK H PARENT 13 7 18 27 74 46 44 57
REMARK Flexibility Score: inf
ROOT
ATOM      1  C   UNL A   1      35.659  23.712  26.077  1.00  0.00     0.023 C 
ENDROOT
BRANCH   1   2
ATOM      2  C   UNL A   1      34.873  22.410  26.237  1.00  0.00     0.023 C 
BRANCH   2   3
ATOM      3  C   UNL A   1      33.942  22.390  27.445  1.00  0.00     0.116 C 
BRANCH   3   4
ATOM      4  N   UNL A   1      32.546  22.346  27.053  1.00  0.00    -0.352 N 
ATOM      5  C   UNL A   1      31.695  23.125  26.348  1.00  0.00     0.251 C 
ATOM      6  O   UNL A   1      30.539  22.698  26.261  1.00  0.00    -0.270 OA
ATOM      7  H   UNL A   1      32.100  21.535  27.390  1.00  0.00     0.163 HD
BRANCH   5   8
ATOM      8  C   UNL A   1      32.050  24.419  25.690  1.00  0.00     0.067 C 
ATOM      9  C   UNL A   1      31.977  30.488  26.861  1.00  0.00     0.044 C 
ATOM     10  C   UNL A   1      32.279  29.245  26.078  1.00  0.00    -0.049 A 
ATOM     11  C   UNL A   1      32.884  29.318  24.818  1.00  0.00     0.028 A 
ATOM     12  C   UNL A   1      31.976  27.987  26.619  1.00  0.00     0.015 A 
ATOM     13  C   UNL A   1      33.173  28.151  24.107  1.00  0.00     0.084 A 
ATOM     14  C   UNL A   1      32.258  26.817  25.905  1.00  0.00     0.019 A 
ATOM     15  Cl  UNL A   1      33.919  28.295  22.556  1.00  0.00    -0.080 Cl
ATOM     16  C   UNL A   1      32.850  26.900  24.644  1.00  0.00     0.146 A 
ATOM     17  C   UNL A   1      31.972  25.507  26.478  1.00  0.00     0.025 C 
ATOM     18  O   UNL A   1      33.175  25.777  23.932  1.00  0.00    -0.474 OA
ATOM     19  C   UNL A   1      32.424  24.570  24.244  1.00  0.00     0.314 C 
BRANCH  19  20
ATOM     20  C   UNL A   1      31.210  24.468  23.301  1.00  0.00     0.429 C 
ATOM     21  F   UNL A   1      30.916  23.170  23.041  1.00  0.00    -0.167 F 
ATOM     22  F   UNL A   1      30.092  25.014  23.834  1.00  0.00    -0.167 F 
ATOM     23  F   UNL A   1      31.421  25.083  22.115  1.00  0.00    -0.167 F 
ENDBRANCH  19  20
ENDBRANCH   5   8
ENDBRANCH   3   4
ENDBRANCH   2   3
ENDBRANCH   1   2
BRANCH   1  24
ATOM     24  C   UNL A   1      36.815  23.663  25.079  1.00  0.00     0.116 C 
BRANCH  24  25
ATOM     25  N   UNL A   1      37.824  22.665  25.402  1.00  0.00    -0.352 N 
ATOM     26  C   UNL A   1      38.974  22.827  26.135  1.00  0.00     0.251 C 
ATOM     27  H   UNL A   1      37.663  21.760  25.049  1.00  0.00     0.163 HD
ATOM     28  O   UNL A   1      39.774  21.905  26.258  1.00  0.00    -0.269 OA
BRANCH  26  29
ATOM     29  C   UNL A   1      39.246  24.146  26.736  1.00  0.00     0.039 A 
ATOM     30  C   UNL A   1      38.802  24.395  28.035  1.00  0.00     0.014 A 
ATOM     31  C   UNL A   1      40.002  25.094  26.041  1.00  0.00     0.014 A 
ATOM     32  C   UNL A   1      39.176  25.581  28.667  1.00  0.00     0.010 A 
ATOM     33  C   UNL A   1      40.424  26.246  26.695  1.00  0.00     0.010 A 
ATOM     34  C   UNL A   1      40.015  26.497  28.012  1.00  0.00    -0.014 A 
BRANCH  34  35
ATOM     35  C   UNL A   1      40.459  27.735  28.695  1.00  0.00     0.031 A 
ATOM     36  C   UNL A   1      41.859  27.832  29.229  1.00  0.00     0.074 A 
ATOM     37  C   UNL A   1      39.593  28.754  28.860  1.00  0.00     0.049 A 
ATOM     38  N   UNL A   1      42.434  28.827  29.852  1.00  0.00    -0.248 NA
ATOM     39  C   UNL A   1      42.719  26.649  29.060  1.00  0.00     0.031 C 
ATOM     40  C   UNL A   1      38.195  28.761  28.420  1.00  0.00     0.029 A 
ATOM     41  N   UNL A   1      39.765  29.987  29.435  1.00  0.00    -0.354 N 
ATOM     42  C   UNL A   1      43.718  28.390  30.152  1.00  0.00     0.074 A 
ATOM     43  C   UNL A   1      43.820  27.022  29.695  1.00  0.00     0.031 C 
ATOM     44  C   UNL A   1      37.651  29.956  28.704  1.00  0.00     0.029 A 
ATOM     45  C   UNL A   1      38.650  30.789  29.368  1.00  0.00     0.049 A 
ATOM     46  H   UNL A   1      40.608  30.273  29.858  1.00  0.00     0.167 HD
ATOM     47  C   UNL A   1      44.732  29.077  30.727  1.00  0.00     0.031 A 
ATOM     48  C   UNL A   1      38.459  32.055  29.783  1.00  0.00     0.031 A 
ATOM     49  C   UNL A   1      44.636  30.442  31.162  1.00  0.00     0.049 A 
ATOM     50  C   UNL A   1      39.595  32.792  30.435  1.00  0.00     0.074 A 
ATOM     51  C   UNL A   1      45.622  31.243  31.708  1.00  0.00     0.029 A 
ATOM     52  N   UNL A   1      43.483  31.208  31.097  1.00  0.00    -0.354 N 
ATOM     53  N   UNL A   1      40.820  32.381  30.656  1.00  0.00    -0.248 NA
ATOM     54  C   UNL A   1      39.323  34.163  30.889  1.00  0.00     0.031 C 
ATOM     55  C   UNL A   1      45.055  32.487  32.005  1.00  0.00     0.029 A 
ATOM     56  C   UNL A   1      43.726  32.469  31.612  1.00  0.00     0.049 A 
ATOM     57  H   UNL A   1      42.619  30.901  30.737  1.00  0.00     0.167 HD
ATOM     58  C   UNL A   1      41.470  33.446  31.268  1.00  0.00     0.074 A 
ATOM     59  C   UNL A   1      40.507  34.525  31.368  1.00  0.00     0.031 C 
ATOM     60  C   UNL A   1      42.749  33.523  31.709  1.00  0.00     0.031 A 
BRANCH  47  61
ATOM     61  C   UNL A   1      46.037  28.351  30.900  1.00  0.00    -0.014 A 
ATOM     62  C   UNL A   1      47.008  28.374  29.883  1.00  0.00     0.010 A 
ATOM     63  C   UNL A   1      46.303  27.651  32.090  1.00  0.00     0.010 A 
ATOM     64  C   UNL A   1      48.204  27.669  30.032  1.00  0.00     0.020 A 
ATOM     65  C   UNL A   1      47.510  26.963  32.252  1.00  0.00     0.020 A 
ATOM     66  C   UNL A   1      48.444  26.961  31.214  1.00  0.00     0.054 A 
BRANCH  66  67
ATOM     67  S   UNL A   1      50.007  26.058  31.383  1.00  0.00     0.124 S 
ATOM     68  O   UNL A   1      50.941  27.132  31.710  1.00  0.00    -0.237 OA
ATOM     69  O   UNL A   1      49.723  25.121  32.467  1.00  0.00    -0.237 OA
ATOM     70  O   UNL A   1      50.197  25.445  30.069  1.00  0.00    -0.744 OA
ENDBRANCH  66  67
ENDBRANCH  47  61
BRANCH  48  71
ATOM     71  C   UNL A   1      37.147  32.717  29.559  1.00  0.00    -0.014 A 
ATOM     72  C   UNL A   1      36.173  32.711  30.573  1.00  0.00     0.010 A 
ATOM     73  C   UNL A   1      36.874  33.381  28.349  1.00  0.00     0.010 A 
ATOM     74  C   UNL A   1      34.946  33.352  30.379  1.00  0.00     0.020 A 
ATOM     75  C   UNL A   1      35.655  34.037  28.160  1.00  0.00     0.020 A 
ATOM     76  C   UNL A   1      34.695  34.013  29.174  1.00  0.00     0.054 A 
BRANCH  76  77
ATOM     77  S   UNL A   1      33.121  34.893  28.971  1.00  0.00     0.124 S 
ATOM     78  O   UNL A   1      33.559  36.178  28.436  1.00  0.00    -0.237 OA
ATOM     79  O   UNL A   1      32.395  34.033  28.040  1.00  0.00    -0.237 OA
ATOM     80  O   UNL A   1      32.575  34.931  30.327  1.00  0.00    -0.744 OA
ENDBRANCH  76  77
ENDBRANCH  48  71
BRANCH  60  81
ATOM     81  C   UNL A   1      43.187  34.812  32.346  1.00  0.00    -0.014 A 
ATOM     82  C   UNL A   1      43.843  35.796  31.587  1.00  0.00     0.010 A 
ATOM     83  C   UNL A   1      42.852  35.079  33.685  1.00  0.00     0.010 A 
ATOM     84  C   UNL A   1      44.161  37.029  32.159  1.00  0.00     0.020 A 
ATOM     85  C   UNL A   1      43.153  36.319  34.255  1.00  0.00     0.020 A 
ATOM     86  C   UNL A   1      43.810  37.284  33.489  1.00  0.00     0.054 A 
BRANCH  86  87
ATOM     87  S   UNL A   1      44.160  38.924  34.183  1.00  0.00     0.124 S 
ATOM     88  O   UNL A   1      42.929  39.649  33.882  1.00  0.00    -0.237 OA
ATOM     89  O   UNL A   1      44.387  38.633  35.596  1.00  0.00    -0.237 OA
ATOM     90  O   UNL A   1      45.342  39.366  33.446  1.00  0.00    -0.744 OA
ENDBRANCH  86  87
ENDBRANCH  60  81
ENDBRANCH  34  35
ENDBRANCH  26  29
ENDBRANCH  24  25
ENDBRANCH   1  24
TORSDOF 15
ENDMDL
MODEL 2
REMARK VINA RESULT:     -11.6      2.730      9.256
REMARK SMILES Cc1cc(Cl)c2c(c1)C=C(C(=O)NCCCCNC(=O)c1ccc(-c3c4nc(c(-c5ccc(S(=O)(=O)[O-])cc5)c5ccc([nH]5)c(-c5ccc(S(=O)(=O)[O-])cc5)c5nc(c(-c6ccc(S(=O)(=O)[O-])cc6)c6ccc3[nH]6)C=C5)C=C4)cc1)[C@@H](C(F)(F)F)O2
REMARK SMILES IDX 16 1 15 2 14 3 13 4 11 5 12 6 10 8 1 9 2 10 3 11 8 12 4 13
REMARK SMILES IDX 7 14 5 15 6 16 9 17 86 18 81 19 82 20 83 21 84 22 85 23
REMARK SMILES IDX 17 24 18 25 19 26 20 28 21 29 22 30 80 31 23 32 79 33 24 34
REMARK SMILES IDX 25 35 26 36 73 37 27 38 78 39 72 40 74 41 28 42 77 43 71 44
REMARK SMILES IDX 70 45 29 47 59 48 40 49 58 50 41 51 44 52 57 53 75 54 42 55
REMARK SMILES IDX 43 56 56 58 76 59 45 60 30 61 31 62 39 63 32 64 38 65 33 66
REMARK SMILES IDX 34 67 35 68 36 69 37 70 60 71 61 72 69 73 62 74 68 75 63 76
REMARK SMILES IDX 64 77 65 78 66 79 67 80 46 81 47 82 55 83 48 84 54 85 49 86
REMARK SMILES IDX 50 87 51 88 52 89 53 90
REMARK H PARENT 13 7 18 27 74 46 44 57
REMARK Flexibility Score: inf
ROOT
ATOM      1  C   UNL A   1      32.651  27.970  25.823  1.00  0.00     0.023 C 
ENDROOT
BRANCH   1   2
ATOM      2  C   UNL A   1      33.041  28.364  24.397  1.00  0.00     0.023 C 
BRANCH   2   3
ATOM      3  C   UNL A   1      31.955  28.100  23.359  1.00  0.00     0.116 C 
BRANCH   3   4
ATOM      4  N   UNL A   1      32.446  27.301  22.252  1.00  0.00    -0.352 N 
ATOM      5  C   UNL A   1      32.985  26.072  22.086  1.00  0.00     0.251 C 
ATOM      6  O   UNL A   1      33.283  25.780  20.923  1.00  0.00    -0.270 OA
ATOM      7  H   UNL A   1      32.367  27.781  21.396  1.00  0.00     0.163 HD
BRANCH   5   8
ATOM      8  C   UNL A   1      33.231  25.081  23.176  1.00  0.00     0.067 C 
ATOM      9  C   UNL A   1      37.379  20.801  24.820  1.00  0.00     0.044 C 
ATOM     10  C   UNL A   1      36.164  21.667  24.977  1.00  0.00    -0.049 A 
ATOM     11  C   UNL A   1      35.341  21.553  26.103  1.00  0.00     0.028 A 
ATOM     12  C   UNL A   1      35.856  22.624  23.999  1.00  0.00     0.015 A 
ATOM     13  C   UNL A   1      34.221  22.376  26.243  1.00  0.00     0.084 A 
ATOM     14  C   UNL A   1      34.731  23.445  24.134  1.00  0.00     0.019 A 
ATOM     15  Cl  UNL A   1      33.237  22.196  27.651  1.00  0.00    -0.080 Cl
ATOM     16  C   UNL A   1      33.909  23.315  25.255  1.00  0.00     0.146 A 
ATOM     17  C   UNL A   1      34.425  24.461  23.133  1.00  0.00     0.025 C 
ATOM     18  O   UNL A   1      32.821  24.126  25.439  1.00  0.00    -0.474 OA
ATOM     19  C   UNL A   1      32.240  24.717  24.244  1.00  0.00     0.314 C 
BRANCH  19  20
ATOM     20  C   UNL A   1      31.112  23.805  23.722  1.00  0.00     0.429 C 
ATOM     21  F   UNL A   1      30.577  23.081  24.736  1.00  0.00    -0.167 F 
ATOM     22  F   UNL A   1      30.092  24.505  23.172  1.00  0.00    -0.167 F 
ATOM     23  F   UNL A   1      31.544  22.933  22.783  1.00  0.00    -0.167 F 
ENDBRANCH  19  20
ENDBRANCH   5   8
ENDBRANCH   3   4
ENDBRANCH   2   3
ENDBRANCH   1   2
BRANCH   1  24
ATOM     24  C   UNL A   1      33.638  28.387  26.912  1.00  0.00     0.116 C 
BRANCH  24  25
ATOM     25  N   UNL A   1      33.483  29.768  27.346  1.00  0.00    -0.352 N 
ATOM     26  C   UNL A   1      34.401  30.564  27.986  1.00  0.00     0.251 C 
ATOM     27  H   UNL A   1      32.610  30.183  27.158  1.00  0.00     0.163 HD
ATOM     28  O   UNL A   1      34.097  31.692  28.362  1.00  0.00    -0.269 OA
BRANCH  26  29
ATOM     29  C   UNL A   1      35.745  30.019  28.249  1.00  0.00     0.039 A 
ATOM     30  C   UNL A   1      36.720  30.131  27.256  1.00  0.00     0.014 A 
ATOM     31  C   UNL A   1      36.052  29.471  29.497  1.00  0.00     0.014 A 
ATOM     32  C   UNL A   1      38.031  29.751  27.542  1.00  0.00     0.010 A 
ATOM     33  C   UNL A   1      37.370  29.151  29.799  1.00  0.00     0.010 A 
ATOM     34  C   UNL A   1      38.369  29.289  28.825  1.00  0.00    -0.014 A 
BRANCH  34  35
ATOM     35  C   UNL A   1      39.769  28.932  29.153  1.00  0.00     0.031 A 
ATOM     36  C   UNL A   1      40.637  29.912  29.890  1.00  0.00     0.074 A 
ATOM     37  C   UNL A   1      40.264  27.741  28.761  1.00  0.00     0.049 A 
ATOM     38  N   UNL A   1      41.881  29.784  30.268  1.00  0.00    -0.248 NA
ATOM     39  C   UNL A   1      40.034  31.213  30.226  1.00  0.00     0.031 C 
ATOM     40  C   UNL A   1      39.529  26.723  28.005  1.00  0.00     0.029 A 
ATOM     41  N   UNL A   1      41.501  27.182  28.953  1.00  0.00    -0.354 N 
ATOM     42  C   UNL A   1      42.211  30.985  30.882  1.00  0.00     0.074 A 
ATOM     43  C   UNL A   1      41.056  31.850  30.775  1.00  0.00     0.031 C 
ATOM     44  C   UNL A   1      40.317  25.649  27.835  1.00  0.00     0.029 A 
ATOM     45  C   UNL A   1      41.618  25.910  28.445  1.00  0.00     0.049 A 
ATOM     46  H   UNL A   1      42.239  27.648  29.412  1.00  0.00     0.167 HD
ATOM     47  C   UNL A   1      43.361  31.328  31.508  1.00  0.00     0.031 A 
ATOM     48  C   UNL A   1      42.651  25.048  28.479  1.00  0.00     0.031 A 
ATOM     49  C   UNL A   1      44.499  30.461  31.632  1.00  0.00     0.049 A 
ATOM     50  C   UNL A   1      43.925  25.456  29.164  1.00  0.00     0.074 A 
ATOM     51  C   UNL A   1      45.691  30.695  32.293  1.00  0.00     0.029 A 
ATOM     52  N   UNL A   1      44.584  29.191  31.083  1.00  0.00    -0.354 N 
ATOM     53  N   UNL A   1      44.197  26.576  29.791  1.00  0.00    -0.248 NA
ATOM     54  C   UNL A   1      45.028  24.485  29.150  1.00  0.00     0.031 C 
ATOM     55  C   UNL A   1      46.512  29.576  32.115  1.00  0.00     0.029 A 
ATOM     56  C   UNL A   1      45.817  28.634  31.373  1.00  0.00     0.049 A 
ATOM     57  H   UNL A   1      43.872  28.750  30.565  1.00  0.00     0.167 HD
ATOM     58  C   UNL A   1      45.500  26.441  30.254  1.00  0.00     0.074 A 
ATOM     59  C   UNL A   1      45.956  25.126  29.851  1.00  0.00     0.031 C 
ATOM     60  C   UNL A   1      46.252  27.328  30.952  1.00  0.00     0.031 A 
BRANCH  47  61
ATOM     61  C   UNL A   1      43.426  32.701  32.117  1.00  0.00    -0.014 A 
ATOM     62  C   UNL A   1      42.998  32.917  33.439  1.00  0.00     0.010 A 
ATOM     63  C   UNL A   1      43.927  33.781  31.370  1.00  0.00     0.010 A 
ATOM     64  C   UNL A   1      43.026  34.200  33.990  1.00  0.00     0.020 A 
ATOM     65  C   UNL A   1      43.978  35.063  31.926  1.00  0.00     0.020 A 
ATOM     66  C   UNL A   1      43.508  35.268  33.226  1.00  0.00     0.054 A 
BRANCH  66  67
ATOM     67  S   UNL A   1      43.536  36.922  33.966  1.00  0.00     0.124 S 
ATOM     68  O   UNL A   1      43.618  37.778  32.786  1.00  0.00    -0.237 OA
ATOM     69  O   UNL A   1      42.268  36.973  34.691  1.00  0.00    -0.237 OA
ATOM     70  O   UNL A   1      44.730  36.905  34.808  1.00  0.00    -0.744 OA
ENDBRANCH  66  67
ENDBRANCH  47  61
BRANCH  48  71
ATOM     71  C   UNL A   1      42.508  23.697  27.874  1.00  0.00    -0.014 A 
ATOM     72  C   UNL A   1      42.992  23.453  26.577  1.00  0.00     0.010 A 
ATOM     73  C   UNL A   1      41.919  22.645  28.598  1.00  0.00     0.010 A 
ATOM     74  C   UNL A   1      42.883  22.179  26.011  1.00  0.00     0.020 A 
ATOM     75  C   UNL A   1      41.825  21.367  28.040  1.00  0.00     0.020 A 
ATOM     76  C   UNL A   1      42.302  21.143  26.746  1.00  0.00     0.054 A 
BRANCH  76  77
ATOM     77  S   UNL A   1      42.231  19.484  26.015  1.00  0.00     0.124 S 
ATOM     78  O   UNL A   1      43.125  19.620  24.869  1.00  0.00    -0.237 OA
ATOM     79  O   UNL A   1      42.718  18.638  27.102  1.00  0.00    -0.237 OA
ATOM     80  O   UNL A   1      40.816  19.315  25.690  1.00  0.00    -0.744 OA
ENDBRANCH  76  77
ENDBRANCH  48  71
BRANCH  60  81
ATOM     81  C   UNL A   1      47.648  26.914  31.319  1.00  0.00    -0.014 A 
ATOM     82  C   UNL A   1      47.885  26.145  32.471  1.00  0.00     0.010 A 
ATOM     83  C   UNL A   1      48.717  27.213  30.456  1.00  0.00     0.010 A 
ATOM     84  C   UNL A   1      49.171  25.682  32.756  1.00  0.00     0.020 A 
ATOM     85  C   UNL A   1      50.002  26.737  30.728  1.00  0.00     0.020 A 
ATOM     86  C   UNL A   1      50.221  25.977  31.880  1.00  0.00     0.054 A 
BRANCH  86  87
ATOM     87  S   UNL A   1      51.865  25.294  32.230  1.00  0.00     0.124 S 
ATOM     88  O   UNL A   1      52.194  25.931  33.502  1.00  0.00    -0.237 OA
ATOM     89  O   UNL A   1      51.608  23.858  32.295  1.00  0.00    -0.237 OA
ATOM     90  O   UNL A   1      52.668  25.726  31.089  1.00  0.00    -0.744 OA
ENDBRANCH  86  87
ENDBRANCH  60  81
ENDBRANCH  34  35
ENDBRANCH  26  29
ENDBRANCH  24  25
ENDBRANCH   1  24
TORSDOF 15
ENDMDL
MODEL 3
REMARK VINA RESULT:     -11.3      3.874      4.861
REMARK SMILES Cc1cc(Cl)c2c(c1)C=C(C(=O)NCCCCNC(=O)c1ccc(-c3c4nc(c(-c5ccc(S(=O)(=O)[O-])cc5)c5ccc([nH]5)c(-c5ccc(S(=O)(=O)[O-])cc5)c5nc(c(-c6ccc(S(=O)(=O)[O-])cc6)c6ccc3[nH]6)C=C5)C=C4)cc1)[C@@H](C(F)(F)F)O2
REMARK SMILES IDX 16 1 15 2 14 3 13 4 11 5 12 6 10 8 1 9 2 10 3 11 8 12 4 13
REMARK SMILES IDX 7 14 5 15 6 16 9 17 86 18 81 19 82 20 83 21 84 22 85 23
REMARK SMILES IDX 17 24 18 25 19 26 20 28 21 29 22 30 80 31 23 32 79 33 24 34
REMARK SMILES IDX 25 35 26 36 73 37 27 38 78 39 72 40 74 41 28 42 77 43 71 44
REMARK SMILES IDX 70 45 29 47 59 48 40 49 58 50 41 51 44 52 57 53 75 54 42 55
REMARK SMILES IDX 43 56 56 58 76 59 45 60 30 61 31 62 39 63 32 64 38 65 33 66
REMARK SMILES IDX 34 67 35 68 36 69 37 70 60 71 61 72 69 73 62 74 68 75 63 76
REMARK SMILES IDX 64 77 65 78 66 79 67 80 46 81 47 82 55 83 48 84 54 85 49 86
REMARK SMILES IDX 50 87 51 88 52 89 53 90
REMARK H PARENT 13 7 18 27 74 46 44 57
REMARK Flexibility Score: inf
ROOT
ATOM      1  C   UNL A   1      40.180  22.441  27.499  1.00  0.00     0.023 C 
ENDROOT
BRANCH   1   2
ATOM      2  C   UNL A   1      39.421  22.123  26.209  1.00  0.00     0.023 C 
BRANCH   2   3
ATOM      3  C   UNL A   1      38.162  22.960  26.006  1.00  0.00     0.116 C 
BRANCH   3   4
ATOM      4  N   UNL A   1      37.698  22.917  24.632  1.00  0.00    -0.352 N 
ATOM      5  C   UNL A   1      36.529  23.106  23.979  1.00  0.00     0.251 C 
ATOM      6  O   UNL A   1      36.579  22.955  22.754  1.00  0.00    -0.270 OA
ATOM      7  H   UNL A   1      38.427  22.688  24.010  1.00  0.00     0.163 HD
BRANCH   5   8
ATOM      8  C   UNL A   1      35.231  23.475  24.620  1.00  0.00     0.067 C 
ATOM      9  C   UNL A   1      32.323  28.444  26.872  1.00  0.00     0.044 C 
ATOM     10  C   UNL A   1      32.469  27.010  26.458  1.00  0.00    -0.049 A 
ATOM     11  C   UNL A   1      31.426  26.097  26.646  1.00  0.00     0.028 A 
ATOM     12  C   UNL A   1      33.657  26.575  25.851  1.00  0.00     0.015 A 
ATOM     13  C   UNL A   1      31.571  24.768  26.243  1.00  0.00     0.084 A 
ATOM     14  C   UNL A   1      33.807  25.242  25.452  1.00  0.00     0.019 A 
ATOM     15  Cl  UNL A   1      30.253  23.681  26.498  1.00  0.00    -0.080 Cl
ATOM     16  C   UNL A   1      32.765  24.336  25.655  1.00  0.00     0.146 A 
ATOM     17  C   UNL A   1      35.029  24.795  24.793  1.00  0.00     0.025 C 
ATOM     18  O   UNL A   1      32.861  23.034  25.245  1.00  0.00    -0.474 OA
ATOM     19  C   UNL A   1      34.205  22.493  25.106  1.00  0.00     0.314 C 
BRANCH  19  20
ATOM     20  C   UNL A   1      34.615  21.807  26.424  1.00  0.00     0.429 C 
ATOM     21  F   UNL A   1      33.634  20.977  26.855  1.00  0.00    -0.167 F 
ATOM     22  F   UNL A   1      35.728  21.048  26.289  1.00  0.00    -0.167 F 
ATOM     23  F   UNL A   1      34.862  22.694  27.414  1.00  0.00    -0.167 F 
ENDBRANCH  19  20
ENDBRANCH   5   8
ENDBRANCH   3   4
ENDBRANCH   2   3
ENDBRANCH   1   2
BRANCH   1  24
ATOM     24  C   UNL A   1      41.537  23.117  27.312  1.00  0.00     0.116 C 
BRANCH  24  25
ATOM     25  N   UNL A   1      41.609  23.970  26.133  1.00  0.00    -0.352 N 
ATOM     26  C   UNL A   1      41.500  25.337  26.069  1.00  0.00     0.251 C 
ATOM     27  H   UNL A   1      41.752  23.508  25.276  1.00  0.00     0.163 HD
ATOM     28  O   UNL A   1      41.503  25.915  24.986  1.00  0.00    -0.269 OA
BRANCH  26  29
ATOM     29  C   UNL A   1      41.338  26.092  27.325  1.00  0.00     0.039 A 
ATOM     30  C   UNL A   1      42.343  26.982  27.706  1.00  0.00     0.014 A 
ATOM     31  C   UNL A   1      40.164  25.970  28.073  1.00  0.00     0.014 A 
ATOM     32  C   UNL A   1      42.139  27.806  28.813  1.00  0.00     0.010 A 
ATOM     33  C   UNL A   1      39.939  26.835  29.138  1.00  0.00     0.010 A 
ATOM     34  C   UNL A   1      40.923  27.759  29.516  1.00  0.00    -0.014 A 
BRANCH  34  35
ATOM     35  C   UNL A   1      40.678  28.666  30.661  1.00  0.00     0.031 A 
ATOM     36  C   UNL A   1      41.515  28.545  31.902  1.00  0.00     0.074 A 
ATOM     37  C   UNL A   1      39.685  29.575  30.594  1.00  0.00     0.049 A 
ATOM     38  N   UNL A   1      41.456  29.244  33.004  1.00  0.00    -0.248 NA
ATOM     39  C   UNL A   1      42.538  27.485  31.914  1.00  0.00     0.031 C 
ATOM     40  C   UNL A   1      38.779  29.759  29.456  1.00  0.00     0.029 A 
ATOM     41  N   UNL A   1      39.277  30.520  31.499  1.00  0.00    -0.354 N 
ATOM     42  C   UNL A   1      42.428  28.709  33.840  1.00  0.00     0.074 A 
ATOM     43  C   UNL A   1      43.022  27.590  33.142  1.00  0.00     0.031 C 
ATOM     44  C   UNL A   1      37.951  30.784  29.717  1.00  0.00     0.029 A 
ATOM     45  C   UNL A   1      38.248  31.311  31.046  1.00  0.00     0.049 A 
ATOM     46  H   UNL A   1      39.683  30.623  32.391  1.00  0.00     0.167 HD
ATOM     47  C   UNL A   1      42.814  29.130  35.067  1.00  0.00     0.031 A 
ATOM     48  C   UNL A   1      37.623  32.350  31.631  1.00  0.00     0.031 A 
ATOM     49  C   UNL A   1      42.237  30.253  35.751  1.00  0.00     0.049 A 
ATOM     50  C   UNL A   1      38.057  32.789  33.002  1.00  0.00     0.074 A 
ATOM     51  C   UNL A   1      42.594  30.792  36.974  1.00  0.00     0.029 A 
ATOM     52  N   UNL A   1      41.182  31.011  35.268  1.00  0.00    -0.354 N 
ATOM     53  N   UNL A   1      39.018  32.306  33.752  1.00  0.00    -0.248 NA
ATOM     54  C   UNL A   1      37.325  33.913  33.602  1.00  0.00     0.031 C 
ATOM     55  C   UNL A   1      41.730  31.858  37.246  1.00  0.00     0.029 A 
ATOM     56  C   UNL A   1      40.860  32.003  36.177  1.00  0.00     0.049 A 
ATOM     57  H   UNL A   1      40.730  30.866  34.405  1.00  0.00     0.167 HD
ATOM     58  C   UNL A   1      39.013  33.074  34.911  1.00  0.00     0.074 A 
ATOM     59  C   UNL A   1      37.965  34.063  34.756  1.00  0.00     0.031 C 
ATOM     60  C   UNL A   1      39.806  32.969  36.005  1.00  0.00     0.031 A 
BRANCH  47  61
ATOM     61  C   UNL A   1      43.926  28.369  35.733  1.00  0.00    -0.014 A 
ATOM     62  C   UNL A   1      45.269  28.721  35.504  1.00  0.00     0.010 A 
ATOM     63  C   UNL A   1      43.632  27.303  36.601  1.00  0.00     0.010 A 
ATOM     64  C   UNL A   1      46.301  27.989  36.095  1.00  0.00     0.020 A 
ATOM     65  C   UNL A   1      44.663  26.583  37.213  1.00  0.00     0.020 A 
ATOM     66  C   UNL A   1      45.991  26.919  36.940  1.00  0.00     0.054 A 
BRANCH  66  67
ATOM     67  S   UNL A   1      47.351  25.989  37.697  1.00  0.00     0.124 S 
ATOM     68  O   UNL A   1      47.928  25.307  36.542  1.00  0.00    -0.237 OA
ATOM     69  O   UNL A   1      48.178  27.043  38.281  1.00  0.00    -0.237 OA
ATOM     70  O   UNL A   1      46.681  25.121  38.664  1.00  0.00    -0.744 OA
ENDBRANCH  66  67
ENDBRANCH  47  61
BRANCH  48  71
ATOM     71  C   UNL A   1      36.544  33.070  30.904  1.00  0.00    -0.014 A 
ATOM     72  C   UNL A   1      35.210  32.955  31.332  1.00  0.00     0.010 A 
ATOM     73  C   UNL A   1      36.845  33.894  29.805  1.00  0.00     0.010 A 
ATOM     74  C   UNL A   1      34.193  33.647  30.669  1.00  0.00     0.020 A 
ATOM     75  C   UNL A   1      35.832  34.601  29.151  1.00  0.00     0.020 A 
ATOM     76  C   UNL A   1      34.510  34.468  29.583  1.00  0.00     0.054 A 
BRANCH  76  77
ATOM     77  S   UNL A   1      33.182  35.407  28.779  1.00  0.00     0.124 S 
ATOM     78  O   UNL A   1      32.447  35.934  29.925  1.00  0.00    -0.237 OA
ATOM     79  O   UNL A   1      33.921  36.392  27.994  1.00  0.00    -0.237 OA
ATOM     80  O   UNL A   1      32.478  34.396  27.993  1.00  0.00    -0.744 OA
ENDBRANCH  76  77
ENDBRANCH  48  71
BRANCH  60  81
ATOM     81  C   UNL A   1      39.571  33.940  37.127  1.00  0.00    -0.014 A 
ATOM     82  C   UNL A   1      38.938  33.523  38.310  1.00  0.00     0.010 A 
ATOM     83  C   UNL A   1      40.075  35.249  37.036  1.00  0.00     0.010 A 
ATOM     84  C   UNL A   1      38.807  34.403  39.386  1.00  0.00     0.020 A 
ATOM     85  C   UNL A   1      39.963  36.127  38.118  1.00  0.00     0.020 A 
ATOM     86  C   UNL A   1      39.325  35.699  39.285  1.00  0.00     0.054 A 
BRANCH  86  87
ATOM     87  S   UNL A   1      39.218  36.795  40.726  1.00  0.00     0.124 S 
ATOM     88  O   UNL A   1      40.569  36.712  41.272  1.00  0.00    -0.237 OA
ATOM     89  O   UNL A   1      38.860  38.079  40.128  1.00  0.00    -0.237 OA
ATOM     90  O   UNL A   1      38.174  36.186  41.547  1.00  0.00    -0.744 OA
ENDBRANCH  86  87
ENDBRANCH  60  81
ENDBRANCH  34  35
ENDBRANCH  26  29
ENDBRANCH  24  25
ENDBRANCH   1  24
TORSDOF 15
ENDMDL
