MODEL 1
REMARK VINA RESULT:     -11.7      0.000      0.000
REMARK SMILES Cc1cc(Cl)cc2c1O[C@H](C(F)(F)F)C(C(=O)NCCCCNC(=O)c1ccc(-c3c4nc(c(-c5ccc(S(=O)(=O)[O-])cc5)c5ccc([nH]5)c(-c5ccc(S(=O)(=O)[O-])cc5)c5nc(c(-c6ccc(S(=O)(=O)[O-])cc6)c6ccc3[nH]6)C=C5)C=C4)cc1)=C2
REMARK SMILES IDX 21 1 20 2 19 3 18 4 16 5 17 6 15 8 1 9 2 10 3 11 8 12 4 13
REMARK SMILES IDX 7 14 9 15 5 16 6 17 86 18 10 19 11 20 12 21 13 22 14 23
REMARK SMILES IDX 22 24 23 25 24 26 25 28 26 29 27 30 85 31 28 32 84 33 29 34
REMARK SMILES IDX 30 35 31 36 78 37 32 38 83 39 77 40 79 41 33 42 82 43 76 44
REMARK SMILES IDX 75 45 34 47 64 48 45 49 63 50 46 51 49 52 62 53 80 54 47 55
REMARK SMILES IDX 48 56 61 58 81 59 50 60 35 61 36 62 44 63 37 64 43 65 38 66
REMARK SMILES IDX 39 67 40 68 41 69 42 70 65 71 66 72 74 73 67 74 73 75 68 76
REMARK SMILES IDX 69 77 70 78 71 79 72 80 51 81 52 82 60 83 53 84 59 85 54 86
REMARK SMILES IDX 55 87 56 88 57 89 58 90
REMARK H PARENT 18 7 23 27 79 46 49 57
REMARK Flexibility Score: inf
ROOT
ATOM      1  C   UNL A   1      33.951  28.261  25.821  1.00  0.00     0.023 C 
ENDROOT
BRANCH   1   2
ATOM      2  C   UNL A   1      32.918  28.674  24.768  1.00  0.00     0.023 C 
BRANCH   2   3
ATOM      3  C   UNL A   1      32.122  27.510  24.183  1.00  0.00     0.116 C 
BRANCH   3   4
ATOM      4  N   UNL A   1      31.236  26.909  25.165  1.00  0.00    -0.352 N 
ATOM      5  C   UNL A   1      31.108  25.710  25.779  1.00  0.00     0.251 C 
ATOM      6  O   UNL A   1      30.169  25.625  26.577  1.00  0.00    -0.270 OA
ATOM      7  H   UNL A   1      30.544  27.544  25.461  1.00  0.00     0.163 HD
BRANCH   5   8
ATOM      8  C   UNL A   1      31.995  24.528  25.564  1.00  0.00     0.067 C 
ATOM      9  C   UNL A   1      34.105  19.903  24.792  1.00  0.00     0.048 C 
ATOM     10  C   UNL A   1      34.618  21.253  25.207  1.00  0.00    -0.007 A 
ATOM     11  C   UNL A   1      35.992  21.461  25.389  1.00  0.00     0.027 A 
ATOM     12  C   UNL A   1      33.743  22.335  25.374  1.00  0.00     0.131 A 
ATOM     13  C   UNL A   1      36.468  22.720  25.756  1.00  0.00     0.042 A 
ATOM     14  C   UNL A   1      34.219  23.597  25.746  1.00  0.00     0.019 A 
ATOM     15  O   UNL A   1      32.407  22.094  25.207  1.00  0.00    -0.475 OA
ATOM     16  Cl  UNL A   1      38.157  22.955  25.987  1.00  0.00    -0.084 Cl
ATOM     17  C   UNL A   1      35.590  23.787  25.939  1.00  0.00     0.032 A 
ATOM     18  C   UNL A   1      33.274  24.686  25.957  1.00  0.00     0.025 C 
ATOM     19  C   UNL A   1      31.566  23.245  24.914  1.00  0.00     0.314 C 
BRANCH  19  20
ATOM     20  C   UNL A   1      31.404  23.372  23.388  1.00  0.00     0.429 C 
ATOM     21  F   UNL A   1      30.168  23.843  23.082  1.00  0.00    -0.167 F 
ATOM     22  F   UNL A   1      32.291  24.235  22.841  1.00  0.00    -0.167 F 
ATOM     23  F   UNL A   1      31.555  22.190  22.749  1.00  0.00    -0.167 F 
ENDBRANCH  19  20
ENDBRANCH   5   8
ENDBRANCH   3   4
ENDBRANCH   2   3
ENDBRANCH   1   2
BRANCH   1  24
ATOM     24  C   UNL A   1      33.562  28.540  27.272  1.00  0.00     0.116 C 
BRANCH  24  25
ATOM     25  N   UNL A   1      33.534  29.955  27.612  1.00  0.00    -0.352 N 
ATOM     26  C   UNL A   1      34.550  30.718  28.140  1.00  0.00     0.251 C 
ATOM     27  H   UNL A   1      32.685  30.424  27.444  1.00  0.00     0.163 HD
ATOM     28  O   UNL A   1      34.356  31.889  28.447  1.00  0.00    -0.269 OA
BRANCH  26  29
ATOM     29  C   UNL A   1      35.863  30.086  28.373  1.00  0.00     0.039 A 
ATOM     30  C   UNL A   1      36.819  30.130  27.356  1.00  0.00     0.014 A 
ATOM     31  C   UNL A   1      36.165  29.524  29.616  1.00  0.00     0.014 A 
ATOM     32  C   UNL A   1      38.113  29.676  27.614  1.00  0.00     0.010 A 
ATOM     33  C   UNL A   1      37.468  29.121  29.886  1.00  0.00     0.010 A 
ATOM     34  C   UNL A   1      38.456  29.207  28.893  1.00  0.00    -0.014 A 
BRANCH  34  35
ATOM     35  C   UNL A   1      39.848  28.815  29.218  1.00  0.00     0.031 A 
ATOM     36  C   UNL A   1      40.759  29.786  29.911  1.00  0.00     0.074 A 
ATOM     37  C   UNL A   1      40.307  27.608  28.832  1.00  0.00     0.049 A 
ATOM     38  N   UNL A   1      42.025  29.656  30.210  1.00  0.00    -0.248 NA
ATOM     39  C   UNL A   1      40.174  31.079  30.303  1.00  0.00     0.031 C 
ATOM     40  C   UNL A   1      39.524  26.589  28.128  1.00  0.00     0.029 A 
ATOM     41  N   UNL A   1      41.544  27.036  28.976  1.00  0.00    -0.354 N 
ATOM     42  C   UNL A   1      42.394  30.852  30.813  1.00  0.00     0.074 A 
ATOM     43  C   UNL A   1      41.229  31.710  30.800  1.00  0.00     0.031 C 
ATOM     44  C   UNL A   1      40.293  25.505  27.929  1.00  0.00     0.029 A 
ATOM     45  C   UNL A   1      41.629  25.765  28.456  1.00  0.00     0.049 A 
ATOM     46  H   UNL A   1      42.301  27.491  29.410  1.00  0.00     0.167 HD
ATOM     47  C   UNL A   1      43.589  31.198  31.348  1.00  0.00     0.031 A 
ATOM     48  C   UNL A   1      42.665  24.907  28.409  1.00  0.00     0.031 A 
ATOM     49  C   UNL A   1      44.743  30.341  31.368  1.00  0.00     0.049 A 
ATOM     50  C   UNL A   1      43.985  25.318  28.999  1.00  0.00     0.074 A 
ATOM     51  C   UNL A   1      45.993  30.591  31.907  1.00  0.00     0.029 A 
ATOM     52  N   UNL A   1      44.787  29.063  30.831  1.00  0.00    -0.354 N 
ATOM     53  N   UNL A   1      44.308  26.447  29.583  1.00  0.00    -0.248 NA
ATOM     54  C   UNL A   1      45.076  24.336  28.930  1.00  0.00     0.031 C 
ATOM     55  C   UNL A   1      46.802  29.474  31.669  1.00  0.00     0.029 A 
ATOM     56  C   UNL A   1      46.044  28.514  31.019  1.00  0.00     0.049 A 
ATOM     57  H   UNL A   1      44.035  28.613  30.382  1.00  0.00     0.167 HD
ATOM     58  C   UNL A   1      45.637  26.304  29.967  1.00  0.00     0.074 A 
ATOM     59  C   UNL A   1      46.052  24.977  29.561  1.00  0.00     0.031 C 
ATOM     60  C   UNL A   1      46.439  27.193  30.602  1.00  0.00     0.031 A 
BRANCH  47  61
ATOM     61  C   UNL A   1      43.698  32.567  31.958  1.00  0.00    -0.014 A 
ATOM     62  C   UNL A   1      44.106  33.668  31.184  1.00  0.00     0.010 A 
ATOM     63  C   UNL A   1      43.366  32.764  33.310  1.00  0.00     0.010 A 
ATOM     64  C   UNL A   1      44.218  34.935  31.760  1.00  0.00     0.020 A 
ATOM     65  C   UNL A   1      43.454  34.035  33.885  1.00  0.00     0.020 A 
ATOM     66  C   UNL A   1      43.897  35.110  33.110  1.00  0.00     0.054 A 
BRANCH  66  67
ATOM     67  S   UNL A   1      44.036  36.768  33.829  1.00  0.00     0.124 S 
ATOM     68  O   UNL A   1      45.466  36.852  34.114  1.00  0.00    -0.237 OA
ATOM     69  O   UNL A   1      43.560  37.629  32.748  1.00  0.00    -0.237 OA
ATOM     70  O   UNL A   1      43.169  36.711  35.003  1.00  0.00    -0.744 OA
ENDBRANCH  66  67
ENDBRANCH  47  61
BRANCH  48  71
ATOM     71  C   UNL A   1      42.483  23.560  27.809  1.00  0.00    -0.014 A 
ATOM     72  C   UNL A   1      42.976  23.288  26.521  1.00  0.00     0.010 A 
ATOM     73  C   UNL A   1      41.845  22.533  28.529  1.00  0.00     0.010 A 
ATOM     74  C   UNL A   1      42.831  22.016  25.961  1.00  0.00     0.020 A 
ATOM     75  C   UNL A   1      41.716  21.254  27.980  1.00  0.00     0.020 A 
ATOM     76  C   UNL A   1      42.205  21.006  26.695  1.00  0.00     0.054 A 
BRANCH  76  77
ATOM     77  S   UNL A   1      42.091  19.344  25.976  1.00  0.00     0.124 S 
ATOM     78  O   UNL A   1      42.898  19.479  24.769  1.00  0.00    -0.237 OA
ATOM     79  O   UNL A   1      42.661  18.505  27.029  1.00  0.00    -0.237 OA
ATOM     80  O   UNL A   1      40.658  19.164  25.757  1.00  0.00    -0.744 OA
ENDBRANCH  76  77
ENDBRANCH  48  71
BRANCH  60  81
ATOM     81  C   UNL A   1      47.842  26.753  30.917  1.00  0.00    -0.014 A 
ATOM     82  C   UNL A   1      48.889  26.971  30.006  1.00  0.00     0.010 A 
ATOM     83  C   UNL A   1      48.123  26.171  32.166  1.00  0.00     0.010 A 
ATOM     84  C   UNL A   1      50.194  26.591  30.330  1.00  0.00     0.020 A 
ATOM     85  C   UNL A   1      49.430  25.808  32.501  1.00  0.00     0.020 A 
ATOM     86  C   UNL A   1      50.456  26.011  31.575  1.00  0.00     0.054 A 
BRANCH  86  87
ATOM     87  S   UNL A   1      52.165  25.572  31.992  1.00  0.00     0.124 S 
ATOM     88  O   UNL A   1      52.408  26.387  33.179  1.00  0.00    -0.237 OA
ATOM     89  O   UNL A   1      52.081  24.132  32.224  1.00  0.00    -0.237 OA
ATOM     90  O   UNL A   1      52.921  25.960  30.803  1.00  0.00    -0.744 OA
ENDBRANCH  86  87
ENDBRANCH  60  81
ENDBRANCH  34  35
ENDBRANCH  26  29
ENDBRANCH  24  25
ENDBRANCH   1  24
TORSDOF 15
ENDMDL
MODEL 2
REMARK VINA RESULT:     -11.7      2.788      9.234
REMARK SMILES Cc1cc(Cl)cc2c1O[C@H](C(F)(F)F)C(C(=O)NCCCCNC(=O)c1ccc(-c3c4nc(c(-c5ccc(S(=O)(=O)[O-])cc5)c5ccc([nH]5)c(-c5ccc(S(=O)(=O)[O-])cc5)c5nc(c(-c6ccc(S(=O)(=O)[O-])cc6)c6ccc3[nH]6)C=C5)C=C4)cc1)=C2
REMARK SMILES IDX 21 1 20 2 19 3 18 4 16 5 17 6 15 8 1 9 2 10 3 11 8 12 4 13
REMARK SMILES IDX 7 14 9 15 5 16 6 17 86 18 10 19 11 20 12 21 13 22 14 23
REMARK SMILES IDX 22 24 23 25 24 26 25 28 26 29 27 30 85 31 28 32 84 33 29 34
REMARK SMILES IDX 30 35 31 36 78 37 32 38 83 39 77 40 79 41 33 42 82 43 76 44
REMARK SMILES IDX 75 45 34 47 64 48 45 49 63 50 46 51 49 52 62 53 80 54 47 55
REMARK SMILES IDX 48 56 61 58 81 59 50 60 35 61 36 62 44 63 37 64 43 65 38 66
REMARK SMILES IDX 39 67 40 68 41 69 42 70 65 71 66 72 74 73 67 74 73 75 68 76
REMARK SMILES IDX 69 77 70 78 71 79 72 80 51 81 52 82 60 83 53 84 59 85 54 86
REMARK SMILES IDX 55 87 56 88 57 89 58 90
REMARK H PARENT 18 7 23 27 79 46 49 57
REMARK Flexibility Score: inf
ROOT
ATOM      1  C   UNL A   1      35.855  23.637  25.891  1.00  0.00     0.023 C 
ENDROOT
BRANCH   1   2
ATOM      2  C   UNL A   1      34.981  22.380  25.926  1.00  0.00     0.023 C 
BRANCH   2   3
ATOM      3  C   UNL A   1      33.653  22.521  25.186  1.00  0.00     0.116 C 
BRANCH   3   4
ATOM      4  N   UNL A   1      33.843  22.791  23.772  1.00  0.00    -0.352 N 
ATOM      5  C   UNL A   1      33.605  23.816  22.920  1.00  0.00     0.251 C 
ATOM      6  O   UNL A   1      33.933  23.611  21.747  1.00  0.00    -0.270 OA
ATOM      7  H   UNL A   1      34.255  22.025  23.311  1.00  0.00     0.163 HD
BRANCH   5   8
ATOM      8  C   UNL A   1      32.996  25.128  23.292  1.00  0.00     0.067 C 
ATOM      9  C   UNL A   1      30.276  29.474  23.687  1.00  0.00     0.048 C 
ATOM     10  C   UNL A   1      31.535  28.944  24.313  1.00  0.00    -0.007 A 
ATOM     11  C   UNL A   1      32.188  29.674  25.315  1.00  0.00     0.027 A 
ATOM     12  C   UNL A   1      32.053  27.695  23.942  1.00  0.00     0.131 A 
ATOM     13  C   UNL A   1      33.346  29.171  25.909  1.00  0.00     0.042 A 
ATOM     14  C   UNL A   1      33.216  27.191  24.533  1.00  0.00     0.019 A 
ATOM     15  O   UNL A   1      31.403  27.016  22.948  1.00  0.00    -0.475 OA
ATOM     16  Cl  UNL A   1      34.142  30.086  27.129  1.00  0.00    -0.084 Cl
ATOM     17  C   UNL A   1      33.866  27.937  25.521  1.00  0.00     0.032 A 
ATOM     18  C   UNL A   1      33.751  25.911  24.088  1.00  0.00     0.025 C 
ATOM     19  C   UNL A   1      31.623  25.579  22.884  1.00  0.00     0.314 C 
BRANCH  19  20
ATOM     20  C   UNL A   1      30.503  24.864  23.662  1.00  0.00     0.429 C 
ATOM     21  F   UNL A   1      30.217  23.669  23.086  1.00  0.00    -0.167 F 
ATOM     22  F   UNL A   1      30.846  24.602  24.944  1.00  0.00    -0.167 F 
ATOM     23  F   UNL A   1      29.356  25.580  23.696  1.00  0.00    -0.167 F 
ENDBRANCH  19  20
ENDBRANCH   5   8
ENDBRANCH   3   4
ENDBRANCH   2   3
ENDBRANCH   1   2
BRANCH   1  24
ATOM     24  C   UNL A   1      37.102  23.550  25.011  1.00  0.00     0.116 C 
BRANCH  24  25
ATOM     25  N   UNL A   1      38.084  22.581  25.477  1.00  0.00    -0.352 N 
ATOM     26  C   UNL A   1      39.162  22.801  26.302  1.00  0.00     0.251 C 
ATOM     27  H   UNL A   1      37.962  21.656  25.163  1.00  0.00     0.163 HD
ATOM     28  O   UNL A   1      39.953  21.897  26.550  1.00  0.00    -0.269 OA
BRANCH  26  29
ATOM     29  C   UNL A   1      39.376  24.157  26.843  1.00  0.00     0.039 A 
ATOM     30  C   UNL A   1      38.935  24.441  28.138  1.00  0.00     0.014 A 
ATOM     31  C   UNL A   1      40.073  25.113  26.099  1.00  0.00     0.014 A 
ATOM     32  C   UNL A   1      39.265  25.665  28.720  1.00  0.00     0.010 A 
ATOM     33  C   UNL A   1      40.445  26.310  26.700  1.00  0.00     0.010 A 
ATOM     34  C   UNL A   1      40.056  26.590  28.019  1.00  0.00    -0.014 A 
BRANCH  34  35
ATOM     35  C   UNL A   1      40.503  27.853  28.655  1.00  0.00     0.031 A 
ATOM     36  C   UNL A   1      41.899  27.969  29.195  1.00  0.00     0.074 A 
ATOM     37  C   UNL A   1      39.631  28.869  28.800  1.00  0.00     0.049 A 
ATOM     38  N   UNL A   1      42.448  28.959  29.849  1.00  0.00    -0.248 NA
ATOM     39  C   UNL A   1      42.788  26.814  28.988  1.00  0.00     0.031 C 
ATOM     40  C   UNL A   1      38.239  28.866  28.340  1.00  0.00     0.029 A 
ATOM     41  N   UNL A   1      39.785  30.103  29.378  1.00  0.00    -0.354 N 
ATOM     42  C   UNL A   1      43.741  28.544  30.143  1.00  0.00     0.074 A 
ATOM     43  C   UNL A   1      43.880  27.197  29.633  1.00  0.00     0.031 C 
ATOM     44  C   UNL A   1      37.678  30.052  28.628  1.00  0.00     0.029 A 
ATOM     45  C   UNL A   1      38.655  30.885  29.323  1.00  0.00     0.049 A 
ATOM     46  H   UNL A   1      40.626  30.402  29.794  1.00  0.00     0.167 HD
ATOM     47  C   UNL A   1      44.729  29.229  30.765  1.00  0.00     0.031 A 
ATOM     48  C   UNL A   1      38.430  32.131  29.781  1.00  0.00     0.031 A 
ATOM     49  C   UNL A   1      44.592  30.571  31.264  1.00  0.00     0.049 A 
ATOM     50  C   UNL A   1      39.540  32.867  30.478  1.00  0.00     0.074 A 
ATOM     51  C   UNL A   1      45.543  31.360  31.888  1.00  0.00     0.029 A 
ATOM     52  N   UNL A   1      43.432  31.326  31.188  1.00  0.00    -0.354 N 
ATOM     53  N   UNL A   1      40.762  32.464  30.730  1.00  0.00    -0.248 NA
ATOM     54  C   UNL A   1      39.241  34.228  30.946  1.00  0.00     0.031 C 
ATOM     55  C   UNL A   1      44.947  32.582  32.217  1.00  0.00     0.029 A 
ATOM     56  C   UNL A   1      43.639  32.569  31.761  1.00  0.00     0.049 A 
ATOM     57  H   UNL A   1      42.585  31.022  30.787  1.00  0.00     0.167 HD
ATOM     58  C   UNL A   1      41.385  33.530  31.370  1.00  0.00     0.074 A 
ATOM     59  C   UNL A   1      40.409  34.597  31.456  1.00  0.00     0.031 C 
ATOM     60  C   UNL A   1      42.653  33.616  31.842  1.00  0.00     0.031 A 
BRANCH  47  61
ATOM     61  C   UNL A   1      46.050  28.530  30.933  1.00  0.00    -0.014 A 
ATOM     62  C   UNL A   1      47.053  28.646  29.954  1.00  0.00     0.010 A 
ATOM     63  C   UNL A   1      46.302  27.771  32.088  1.00  0.00     0.010 A 
ATOM     64  C   UNL A   1      48.272  27.983  30.109  1.00  0.00     0.020 A 
ATOM     65  C   UNL A   1      47.530  27.124  32.259  1.00  0.00     0.020 A 
ATOM     66  C   UNL A   1      48.501  27.221  31.259  1.00  0.00     0.054 A 
BRANCH  66  67
ATOM     67  S   UNL A   1      50.098  26.383  31.442  1.00  0.00     0.124 S 
ATOM     68  O   UNL A   1      49.933  25.227  30.565  1.00  0.00    -0.237 OA
ATOM     69  O   UNL A   1      51.047  27.392  30.978  1.00  0.00    -0.237 OA
ATOM     70  O   UNL A   1      50.168  26.077  32.869  1.00  0.00    -0.744 OA
ENDBRANCH  66  67
ENDBRANCH  47  61
BRANCH  48  71
ATOM     71  C   UNL A   1      37.107  32.771  29.563  1.00  0.00    -0.014 A 
ATOM     72  C   UNL A   1      36.140  32.757  30.583  1.00  0.00     0.010 A 
ATOM     73  C   UNL A   1      36.816  33.423  28.351  1.00  0.00     0.010 A 
ATOM     74  C   UNL A   1      34.904  33.380  30.395  1.00  0.00     0.020 A 
ATOM     75  C   UNL A   1      35.588  34.065  28.167  1.00  0.00     0.020 A 
ATOM     76  C   UNL A   1      34.636  34.033  29.189  1.00  0.00     0.054 A 
BRANCH  76  77
ATOM     77  S   UNL A   1      33.052  34.896  28.992  1.00  0.00     0.124 S 
ATOM     78  O   UNL A   1      32.499  34.825  30.341  1.00  0.00    -0.237 OA
ATOM     79  O   UNL A   1      33.469  36.224  28.547  1.00  0.00    -0.237 OA
ATOM     80  O   UNL A   1      32.353  34.102  27.984  1.00  0.00    -0.744 OA
ENDBRANCH  76  77
ENDBRANCH  48  71
BRANCH  60  81
ATOM     81  C   UNL A   1      43.066  34.916  32.475  1.00  0.00    -0.014 A 
ATOM     82  C   UNL A   1      43.693  35.920  31.720  1.00  0.00     0.010 A 
ATOM     83  C   UNL A   1      42.765  35.156  33.827  1.00  0.00     0.010 A 
ATOM     84  C   UNL A   1      44.036  37.137  32.314  1.00  0.00     0.020 A 
ATOM     85  C   UNL A   1      43.087  36.379  34.420  1.00  0.00     0.020 A 
ATOM     86  C   UNL A   1      43.731  37.358  33.661  1.00  0.00     0.054 A 
BRANCH  86  87
ATOM     87  S   UNL A   1      44.140  38.965  34.396  1.00  0.00     0.124 S 
ATOM     88  O   UNL A   1      45.444  39.247  33.802  1.00  0.00    -0.237 OA
ATOM     89  O   UNL A   1      43.045  39.817  33.942  1.00  0.00    -0.237 OA
ATOM     90  O   UNL A   1      44.155  38.694  35.832  1.00  0.00    -0.744 OA
ENDBRANCH  86  87
ENDBRANCH  60  81
ENDBRANCH  34  35
ENDBRANCH  26  29
ENDBRANCH  24  25
ENDBRANCH   1  24
TORSDOF 15
ENDMDL
MODEL 3
REMARK VINA RESULT:     -11.4      1.491      2.001
REMARK SMILES Cc1cc(Cl)cc2c1O[C@H](C(F)(F)F)C(C(=O)NCCCCNC(=O)c1ccc(-c3c4nc(c(-c5ccc(S(=O)(=O)[O-])cc5)c5ccc([nH]5)c(-c5ccc(S(=O)(=O)[O-])cc5)c5nc(c(-c6ccc(S(=O)(=O)[O-])cc6)c6ccc3[nH]6)C=C5)C=C4)cc1)=C2
REMARK SMILES IDX 21 1 20 2 19 3 18 4 16 5 17 6 15 8 1 9 2 10 3 11 8 12 4 13
REMARK SMILES IDX 7 14 9 15 5 16 6 17 86 18 10 19 11 20 12 21 13 22 14 23
REMARK SMILES IDX 22 24 23 25 24 26 25 28 26 29 27 30 85 31 28 32 84 33 29 34
REMARK SMILES IDX 30 35 31 36 78 37 32 38 83 39 77 40 79 41 33 42 82 43 76 44
REMARK SMILES IDX 75 45 34 47 64 48 45 49 63 50 46 51 49 52 62 53 80 54 47 55
REMARK SMILES IDX 48 56 61 58 81 59 50 60 35 61 36 62 44 63 37 64 43 65 38 66
REMARK SMILES IDX 39 67 40 68 41 69 42 70 65 71 66 72 74 73 67 74 73 75 68 76
REMARK SMILES IDX 69 77 70 78 71 79 72 80 51 81 52 82 60 83 53 84 59 85 54 86
REMARK SMILES IDX 55 87 56 88 57 89 58 90
REMARK H PARENT 18 7 23 27 79 46 49 57
REMARK Flexibility Score: inf
ROOT
ATOM      1  C   UNL A   1      31.979  27.857  27.333  1.00  0.00     0.023 C 
ENDROOT
BRANCH   1   2
ATOM      2  C   UNL A   1      31.320  27.707  25.958  1.00  0.00     0.023 C 
BRANCH   2   3
ATOM      3  C   UNL A   1      31.102  26.259  25.524  1.00  0.00     0.116 C 
BRANCH   3   4
ATOM      4  N   UNL A   1      31.246  26.094  24.089  1.00  0.00    -0.352 N 
ATOM      5  C   UNL A   1      31.922  25.274  23.251  1.00  0.00     0.251 C 
ATOM      6  O   UNL A   1      31.754  25.497  22.047  1.00  0.00    -0.270 OA
ATOM      7  H   UNL A   1      30.710  26.755  23.594  1.00  0.00     0.163 HD
BRANCH   5   8
ATOM      8  C   UNL A   1      32.822  24.158  23.671  1.00  0.00     0.067 C 
ATOM      9  C   UNL A   1      36.716  20.977  24.745  1.00  0.00     0.048 C 
ATOM     10  C   UNL A   1      35.221  20.845  24.673  1.00  0.00    -0.007 A 
ATOM     11  C   UNL A   1      34.600  19.642  25.030  1.00  0.00     0.027 A 
ATOM     12  C   UNL A   1      34.421  21.932  24.293  1.00  0.00     0.131 A 
ATOM     13  C   UNL A   1      33.210  19.528  24.981  1.00  0.00     0.042 A 
ATOM     14  C   UNL A   1      33.027  21.818  24.239  1.00  0.00     0.019 A 
ATOM     15  O   UNL A   1      35.059  23.086  23.932  1.00  0.00    -0.475 OA
ATOM     16  Cl  UNL A   1      32.464  18.038  25.412  1.00  0.00    -0.084 Cl
ATOM     17  C   UNL A   1      32.421  20.606  24.584  1.00  0.00     0.032 A 
ATOM     18  C   UNL A   1      32.231  22.954  23.794  1.00  0.00     0.025 C 
ATOM     19  C   UNL A   1      34.280  24.313  23.996  1.00  0.00     0.314 C 
BRANCH  19  20
ATOM     20  C   UNL A   1      34.518  24.988  25.360  1.00  0.00     0.429 C 
ATOM     21  F   UNL A   1      35.784  24.752  25.789  1.00  0.00    -0.167 F 
ATOM     22  F   UNL A   1      34.374  26.333  25.307  1.00  0.00    -0.167 F 
ATOM     23  F   UNL A   1      33.677  24.537  26.317  1.00  0.00    -0.167 F 
ENDBRANCH  19  20
ENDBRANCH   5   8
ENDBRANCH   3   4
ENDBRANCH   2   3
ENDBRANCH   1   2
BRANCH   1  24
ATOM     24  C   UNL A   1      33.372  28.484  27.332  1.00  0.00     0.116 C 
BRANCH  24  25
ATOM     25  N   UNL A   1      33.369  29.927  27.532  1.00  0.00    -0.352 N 
ATOM     26  C   UNL A   1      34.401  30.722  27.971  1.00  0.00     0.251 C 
ATOM     27  H   UNL A   1      32.524  30.389  27.328  1.00  0.00     0.163 HD
ATOM     28  O   UNL A   1      34.227  31.920  28.164  1.00  0.00    -0.269 OA
BRANCH  26  29
ATOM     29  C   UNL A   1      35.708  30.096  28.250  1.00  0.00     0.039 A 
ATOM     30  C   UNL A   1      36.685  30.108  27.252  1.00  0.00     0.014 A 
ATOM     31  C   UNL A   1      35.984  29.572  29.516  1.00  0.00     0.014 A 
ATOM     32  C   UNL A   1      37.973  29.662  27.551  1.00  0.00     0.010 A 
ATOM     33  C   UNL A   1      37.280  29.177  29.825  1.00  0.00     0.010 A 
ATOM     34  C   UNL A   1      38.288  29.231  28.850  1.00  0.00    -0.014 A 
BRANCH  34  35
ATOM     35  C   UNL A   1      39.673  28.848  29.215  1.00  0.00     0.031 A 
ATOM     36  C   UNL A   1      40.555  29.822  29.940  1.00  0.00     0.074 A 
ATOM     37  C   UNL A   1      40.152  27.647  28.838  1.00  0.00     0.049 A 
ATOM     38  N   UNL A   1      41.813  29.701  30.277  1.00  0.00    -0.248 NA
ATOM     39  C   UNL A   1      39.949  31.110  30.319  1.00  0.00     0.031 C 
ATOM     40  C   UNL A   1      39.399  26.624  28.107  1.00  0.00     0.029 A 
ATOM     41  N   UNL A   1      41.389  27.082  29.018  1.00  0.00    -0.354 N 
ATOM     42  C   UNL A   1      42.154  30.896  30.896  1.00  0.00     0.074 A 
ATOM     43  C   UNL A   1      40.984  31.746  30.851  1.00  0.00     0.031 C 
ATOM     44  C   UNL A   1      40.182  25.547  27.926  1.00  0.00     0.029 A 
ATOM     45  C   UNL A   1      41.499  25.815  28.495  1.00  0.00     0.049 A 
ATOM     46  H   UNL A   1      42.129  27.541  29.477  1.00  0.00     0.167 HD
ATOM     47  C   UNL A   1      43.330  31.249  31.468  1.00  0.00     0.031 A 
ATOM     48  C   UNL A   1      42.543  24.964  28.476  1.00  0.00     0.031 A 
ATOM     49  C   UNL A   1      44.489  30.400  31.519  1.00  0.00     0.049 A 
ATOM     50  C   UNL A   1      43.841  25.382  29.108  1.00  0.00     0.074 A 
ATOM     51  C   UNL A   1      45.720  30.657  32.098  1.00  0.00     0.029 A 
ATOM     52  N   UNL A   1      44.559  29.125  30.979  1.00  0.00    -0.354 N 
ATOM     53  N   UNL A   1      44.138  26.511  29.705  1.00  0.00    -0.248 NA
ATOM     54  C   UNL A   1      44.942  24.409  29.067  1.00  0.00     0.031 C 
ATOM     55  C   UNL A   1      46.545  29.548  31.880  1.00  0.00     0.029 A 
ATOM     56  C   UNL A   1      45.814  28.585  31.202  1.00  0.00     0.049 A 
ATOM     57  H   UNL A   1      43.825  28.672  30.506  1.00  0.00     0.167 HD
ATOM     58  C   UNL A   1      45.455  26.377  30.129  1.00  0.00     0.074 A 
ATOM     59  C   UNL A   1      45.892  25.055  29.730  1.00  0.00     0.031 C 
ATOM     60  C   UNL A   1      46.231  27.269  30.792  1.00  0.00     0.031 A 
BRANCH  47  61
ATOM     61  C   UNL A   1      43.410  32.616  32.088  1.00  0.00    -0.014 A 
ATOM     62  C   UNL A   1      43.805  33.729  31.322  1.00  0.00     0.010 A 
ATOM     63  C   UNL A   1      43.064  32.799  33.437  1.00  0.00     0.010 A 
ATOM     64  C   UNL A   1      43.890  34.994  31.907  1.00  0.00     0.020 A 
ATOM     65  C   UNL A   1      43.126  34.068  34.021  1.00  0.00     0.020 A 
ATOM     66  C   UNL A   1      43.555  35.155  33.256  1.00  0.00     0.054 A 
BRANCH  66  67
ATOM     67  S   UNL A   1      43.660  36.812  33.985  1.00  0.00     0.124 S 
ATOM     68  O   UNL A   1      44.838  36.689  34.839  1.00  0.00    -0.237 OA
ATOM     69  O   UNL A   1      43.820  37.670  32.814  1.00  0.00    -0.237 OA
ATOM     70  O   UNL A   1      42.390  36.959  34.693  1.00  0.00    -0.744 OA
ENDBRANCH  66  67
ENDBRANCH  47  61
BRANCH  48  71
ATOM     71  C   UNL A   1      42.389  23.619  27.865  1.00  0.00    -0.014 A 
ATOM     72  C   UNL A   1      42.943  23.350  26.602  1.00  0.00     0.010 A 
ATOM     73  C   UNL A   1      41.716  22.591  28.551  1.00  0.00     0.010 A 
ATOM     74  C   UNL A   1      42.825  22.079  26.032  1.00  0.00     0.020 A 
ATOM     75  C   UNL A   1      41.614  21.313  27.994  1.00  0.00     0.020 A 
ATOM     76  C   UNL A   1      42.164  21.068  26.734  1.00  0.00     0.054 A 
BRANCH  76  77
ATOM     77  S   UNL A   1      42.084  19.407  26.007  1.00  0.00     0.124 S 
ATOM     78  O   UNL A   1      42.633  18.580  27.076  1.00  0.00    -0.237 OA
ATOM     79  O   UNL A   1      40.654  19.243  25.750  1.00  0.00    -0.237 OA
ATOM     80  O   UNL A   1      42.913  19.518  24.809  1.00  0.00    -0.744 OA
ENDBRANCH  76  77
ENDBRANCH  48  71
BRANCH  60  81
ATOM     81  C   UNL A   1      47.627  26.838  31.147  1.00  0.00    -0.014 A 
ATOM     82  C   UNL A   1      47.878  26.079  32.303  1.00  0.00     0.010 A 
ATOM     83  C   UNL A   1      48.691  27.145  30.279  1.00  0.00     0.010 A 
ATOM     84  C   UNL A   1      49.175  25.654  32.598  1.00  0.00     0.020 A 
ATOM     85  C   UNL A   1      49.986  26.704  30.560  1.00  0.00     0.020 A 
ATOM     86  C   UNL A   1      50.221  25.970  31.725  1.00  0.00     0.054 A 
BRANCH  86  87
ATOM     87  S   UNL A   1      51.888  25.364  32.104  1.00  0.00     0.124 S 
ATOM     88  O   UNL A   1      52.180  26.047  33.362  1.00  0.00    -0.237 OA
ATOM     89  O   UNL A   1      51.692  23.920  32.204  1.00  0.00    -0.237 OA
ATOM     90  O   UNL A   1      52.684  25.799  30.959  1.00  0.00    -0.744 OA
ENDBRANCH  86  87
ENDBRANCH  60  81
ENDBRANCH  34  35
ENDBRANCH  26  29
ENDBRANCH  24  25
ENDBRANCH   1  24
TORSDOF 15
ENDMDL
