MODEL 1
REMARK VINA RESULT:      -8.5      0.000      0.000
REMARK SMILES C[C@@]1(O)CC(NCCCCNC(=O)c2ccc(-c3c4nc(c(-c5ccc(S(=O)(=O)[O-])cc5)c5ccc([nH]5)c(-c5ccc(S(=O)(=O)[O-])cc5)c5nc(c(-c6ccc(S(=O)(=O)[O-])cc6)c6ccc3[nH]6)C=C5)C=C4)cc2)=C(C(=O)Nc2ccccc2)[C@H](c2ccccc2C(=O)[O-])[C@@H]1C(=O)Nc1ccccc1
REMARK SMILES IDX 9 1 8 2 7 3 6 4 5 6 1 7 2 8 4 9 94 10 84 11 74 12 3 13 95 15
REMARK SMILES IDX 96 16 97 17 98 19 99 20 103 21 100 22 102 23 101 24 85 25
REMARK SMILES IDX 86 26 90 27 87 28 89 29 88 30 91 31 92 32 93 33 75 34 76 35
REMARK SMILES IDX 77 36 78 38 79 39 83 40 80 41 82 42 81 43 10 44 11 45 12 46
REMARK SMILES IDX 13 48 14 49 15 50 73 51 16 52 72 53 17 54 18 55 19 56 66 57
REMARK SMILES IDX 20 58 71 59 65 60 67 61 21 62 70 63 64 64 63 65 22 67 52 68
REMARK SMILES IDX 33 69 51 70 34 71 37 72 50 73 68 74 35 75 36 76 49 78 69 79
REMARK SMILES IDX 38 80 23 81 24 82 32 83 25 84 31 85 26 86 27 87 28 88 29 89
REMARK SMILES IDX 30 90 53 91 54 92 62 93 55 94 61 95 56 96 57 97 58 98 59 99
REMARK SMILES IDX 60 100 39 101 40 102 48 103 41 104 47 105 42 106 43 107
REMARK SMILES IDX 44 108 45 109 46 110
REMARK H PARENT 6 5 3 14 97 18 77 37 11 47 67 66 37 77
REMARK Flexibility Score: inf
ROOT
ATOM      1  C   UNL A   1      37.860  33.882  29.659  1.00  0.00     0.023 C 
ENDROOT
BRANCH   1   2
ATOM      2  C   UNL A   1      39.310  33.505  29.960  1.00  0.00     0.023 C 
BRANCH   2   3
ATOM      3  C   UNL A   1      39.908  34.227  31.164  1.00  0.00     0.112 C 
BRANCH   3   4
ATOM      4  N   UNL A   1      40.568  33.281  32.048  1.00  0.00    -0.388 N 
ATOM      5  H   UNL A   1      41.371  32.839  31.686  1.00  0.00     0.160 HD
BRANCH   4   6
ATOM      6  C   UNL A   1      40.207  32.925  33.342  1.00  0.00     0.023 C 
ATOM      7  C   UNL A   1      37.415  34.141  34.520  1.00  0.00     0.043 C 
ATOM      8  C   UNL A   1      38.065  32.754  34.753  1.00  0.00     0.080 C 
ATOM      9  C   UNL A   1      38.824  32.320  33.497  1.00  0.00     0.089 C 
ATOM     10  C   UNL A   1      38.994  32.837  35.993  1.00  0.00     0.123 C 
ATOM     11  C   UNL A   1      40.498  32.420  35.750  1.00  0.00     0.073 C 
ATOM     12  C   UNL A   1      40.988  33.063  34.453  1.00  0.00     0.045 C 
BRANCH   8  13
ATOM     13  O   UNL A   1      36.956  31.858  34.876  1.00  0.00    -0.389 OA
ATOM     14  H   UNL A   1      36.128  32.361  34.839  1.00  0.00     0.211 HD
ENDBRANCH   8  13
BRANCH  10  15
ATOM     15  C   UNL A   1      38.351  32.397  37.307  1.00  0.00     0.231 C 
ATOM     16  O   UNL A   1      37.276  31.804  37.395  1.00  0.00    -0.274 OA
ATOM     17  N   UNL A   1      39.095  32.588  38.440  1.00  0.00    -0.326 N 
ATOM     18  H   UNL A   1      39.620  31.830  38.786  1.00  0.00     0.169 HD
BRANCH  17  19
ATOM     19  C   UNL A   1      39.150  33.810  39.138  1.00  0.00     0.041 A 
ATOM     20  C   UNL A   1      40.093  34.750  38.717  1.00  0.00     0.026 A 
ATOM     21  C   UNL A   1      38.376  34.070  40.271  1.00  0.00     0.026 A 
ATOM     22  C   UNL A   1      40.251  35.946  39.417  1.00  0.00     0.002 A 
ATOM     23  C   UNL A   1      38.537  35.265  40.974  1.00  0.00     0.002 A 
ATOM     24  C   UNL A   1      39.474  36.202  40.546  1.00  0.00     0.000 A 
ENDBRANCH  17  19
ENDBRANCH  10  15
BRANCH  11  25
ATOM     25  C   UNL A   1      41.164  31.009  35.971  1.00  0.00    -0.030 A 
ATOM     26  C   UNL A   1      40.651  29.904  35.236  1.00  0.00     0.005 A 
ATOM     27  C   UNL A   1      42.445  30.791  36.509  1.00  0.00     0.001 A 
ATOM     28  C   UNL A   1      41.437  28.808  34.855  1.00  0.00     0.000 A 
ATOM     29  C   UNL A   1      43.256  29.708  36.103  1.00  0.00     0.010 A 
ATOM     30  C   UNL A   1      42.766  28.746  35.231  1.00  0.00     0.001 A 
BRANCH  27  31
ATOM     31  C   UNL A   1      42.892  31.455  37.730  1.00  0.00     0.072 C 
ATOM     32  O   UNL A   1      42.208  31.597  38.731  1.00  0.00    -0.545 OA
ATOM     33  O   UNL A   1      44.134  31.950  37.602  1.00  0.00    -0.545 OA
ENDBRANCH  27  31
ENDBRANCH  11  25
BRANCH  12  34
ATOM     34  C   UNL A   1      42.343  33.737  34.310  1.00  0.00     0.253 C 
ATOM     35  O   UNL A   1      42.445  34.928  34.653  1.00  0.00    -0.269 OA
ATOM     36  N   UNL A   1      43.534  33.219  33.913  1.00  0.00    -0.322 N 
ATOM     37  H   UNL A   1      44.246  33.842  34.182  1.00  0.00     0.170 HD
BRANCH  36  38
ATOM     38  C   UNL A   1      44.128  32.125  33.263  1.00  0.00     0.041 A 
ATOM     39  C   UNL A   1      45.518  32.212  33.076  1.00  0.00     0.026 A 
ATOM     40  C   UNL A   1      43.484  31.039  32.684  1.00  0.00     0.026 A 
ATOM     41  C   UNL A   1      46.239  31.200  32.431  1.00  0.00     0.002 A 
ATOM     42  C   UNL A   1      44.196  30.006  32.059  1.00  0.00     0.002 A 
ATOM     43  C   UNL A   1      45.578  30.080  31.944  1.00  0.00     0.000 A 
ENDBRANCH  36  38
ENDBRANCH  12  34
ENDBRANCH   4   6
ENDBRANCH   3   4
ENDBRANCH   2   3
ENDBRANCH   1   2
BRANCH   1  44
ATOM     44  C   UNL A   1      36.970  32.724  29.216  1.00  0.00     0.116 C 
BRANCH  44  45
ATOM     45  N   UNL A   1      36.390  31.972  30.322  1.00  0.00    -0.352 N 
ATOM     46  C   UNL A   1      36.834  30.783  30.855  1.00  0.00     0.251 C 
ATOM     47  H   UNL A   1      35.587  32.360  30.736  1.00  0.00     0.163 HD
ATOM     48  O   UNL A   1      36.199  30.207  31.731  1.00  0.00    -0.269 OA
BRANCH  46  49
ATOM     49  C   UNL A   1      38.074  30.194  30.315  1.00  0.00     0.039 A 
ATOM     50  C   UNL A   1      38.200  30.032  28.934  1.00  0.00     0.014 A 
ATOM     51  C   UNL A   1      39.137  29.895  31.171  1.00  0.00     0.014 A 
ATOM     52  C   UNL A   1      39.428  29.638  28.401  1.00  0.00     0.010 A 
ATOM     53  C   UNL A   1      40.375  29.565  30.634  1.00  0.00     0.010 A 
ATOM     54  C   UNL A   1      40.534  29.439  29.245  1.00  0.00    -0.014 A 
BRANCH  54  55
ATOM     55  C   UNL A   1      41.872  29.109  28.695  1.00  0.00     0.031 A 
ATOM     56  C   UNL A   1      42.169  27.708  28.241  1.00  0.00     0.074 A 
ATOM     57  C   UNL A   1      42.837  30.050  28.677  1.00  0.00     0.049 A 
ATOM     58  N   UNL A   1      43.294  27.206  27.802  1.00  0.00    -0.248 NA
ATOM     59  C   UNL A   1      41.064  26.738  28.315  1.00  0.00     0.031 C 
ATOM     60  C   UNL A   1      42.685  31.434  29.136  1.00  0.00     0.029 A 
ATOM     61  N   UNL A   1      44.144  29.981  28.262  1.00  0.00    -0.354 N 
ATOM     62  C   UNL A   1      43.040  25.860  27.567  1.00  0.00     0.074 A 
ATOM     63  C   UNL A   1      41.668  25.615  27.954  1.00  0.00     0.031 C 
ATOM     64  C   UNL A   1      43.845  32.088  28.956  1.00  0.00     0.029 A 
ATOM     65  C   UNL A   1      44.830  31.165  28.403  1.00  0.00     0.049 A 
ATOM     66  H   UNL A   1      44.551  29.163  27.899  1.00  0.00     0.167 HD
ATOM     67  C   UNL A   1      43.867  24.918  27.058  1.00  0.00     0.031 A 
ATOM     68  C   UNL A   1      46.112  31.471  28.122  1.00  0.00     0.031 A 
ATOM     69  C   UNL A   1      45.224  25.170  26.656  1.00  0.00     0.049 A 
ATOM     70  C   UNL A   1      47.009  30.410  27.546  1.00  0.00     0.074 A 
ATOM     71  C   UNL A   1      46.126  24.297  26.075  1.00  0.00     0.029 A 
ATOM     72  N   UNL A   1      45.874  26.388  26.790  1.00  0.00    -0.354 N 
ATOM     73  N   UNL A   1      46.732  29.157  27.275  1.00  0.00    -0.248 NA
ATOM     74  C   UNL A   1      48.388  30.806  27.228  1.00  0.00     0.031 C 
ATOM     75  C   UNL A   1      47.335  24.976  25.893  1.00  0.00     0.029 A 
ATOM     76  C   UNL A   1      47.171  26.285  26.317  1.00  0.00     0.049 A 
ATOM     77  H   UNL A   1      45.472  27.204  27.166  1.00  0.00     0.167 HD
ATOM     78  C   UNL A   1      47.893  28.623  26.730  1.00  0.00     0.074 A 
ATOM     79  C   UNL A   1      48.872  29.691  26.700  1.00  0.00     0.031 C 
ATOM     80  C   UNL A   1      48.129  27.361  26.292  1.00  0.00     0.031 A 
BRANCH  67  81
ATOM     81  C   UNL A   1      43.318  23.525  26.905  1.00  0.00    -0.014 A 
ATOM     82  C   UNL A   1      43.317  22.625  27.985  1.00  0.00     0.010 A 
ATOM     83  C   UNL A   1      42.773  23.118  25.674  1.00  0.00     0.010 A 
ATOM     84  C   UNL A   1      42.820  21.330  27.828  1.00  0.00     0.020 A 
ATOM     85  C   UNL A   1      42.251  21.831  25.519  1.00  0.00     0.020 A 
ATOM     86  C   UNL A   1      42.294  20.939  26.592  1.00  0.00     0.054 A 
BRANCH  86  87
ATOM     87  S   UNL A   1      41.637  19.258  26.419  1.00  0.00     0.124 S 
ATOM     88  O   UNL A   1      42.636  18.633  25.554  1.00  0.00    -0.237 OA
ATOM     89  O   UNL A   1      41.613  18.777  27.797  1.00  0.00    -0.237 OA
ATOM     90  O   UNL A   1      40.325  19.459  25.810  1.00  0.00    -0.744 OA
ENDBRANCH  86  87
ENDBRANCH  67  81
BRANCH  68  91
ATOM     91  C   UNL A   1      46.618  32.849  28.363  1.00  0.00    -0.014 A 
ATOM     92  C   UNL A   1      46.512  33.830  27.361  1.00  0.00     0.010 A 
ATOM     93  C   UNL A   1      47.201  33.191  29.596  1.00  0.00     0.010 A 
ATOM     94  C   UNL A   1      46.994  35.124  27.582  1.00  0.00     0.020 A 
ATOM     95  C   UNL A   1      47.663  34.490  29.828  1.00  0.00     0.020 A 
ATOM     96  C   UNL A   1      47.567  35.445  28.815  1.00  0.00     0.054 A 
BRANCH  96  97
ATOM     97  S   UNL A   1      48.144  37.142  29.098  1.00  0.00     0.124 S 
ATOM     98  O   UNL A   1      47.857  37.328  30.517  1.00  0.00    -0.237 OA
ATOM     99  O   UNL A   1      49.560  37.060  28.744  1.00  0.00    -0.237 OA
ATOM    100  O   UNL A   1      47.328  37.936  28.183  1.00  0.00    -0.744 OA
ENDBRANCH  96  97
ENDBRANCH  68  91
BRANCH  80 101
ATOM    101  C   UNL A   1      49.486  27.072  25.713  1.00  0.00    -0.014 A 
ATOM    102  C   UNL A   1      49.786  27.380  24.375  1.00  0.00     0.010 A 
ATOM    103  C   UNL A   1      50.493  26.541  26.539  1.00  0.00     0.010 A 
ATOM    104  C   UNL A   1      51.064  27.137  23.865  1.00  0.00     0.020 A 
ATOM    105  C   UNL A   1      51.779  26.319  26.040  1.00  0.00     0.020 A 
ATOM    106  C   UNL A   1      52.052  26.606  24.701  1.00  0.00     0.054 A 
BRANCH 106 107
ATOM    107  S   UNL A   1      53.717  26.346  24.032  1.00  0.00     0.124 S 
ATOM    108  O   UNL A   1      53.443  26.117  22.616  1.00  0.00    -0.237 OA
ATOM    109  O   UNL A   1      54.391  27.603  24.346  1.00  0.00    -0.237 OA
ATOM    110  O   UNL A   1      54.208  25.184  24.768  1.00  0.00    -0.744 OA
ENDBRANCH 106 107
ENDBRANCH  80 101
ENDBRANCH  54  55
ENDBRANCH  46  49
ENDBRANCH  44  45
ENDBRANCH   1  44
TORSDOF 21
ENDMDL
MODEL 2
REMARK VINA RESULT:      -8.5      4.600     13.470
REMARK SMILES C[C@@]1(O)CC(NCCCCNC(=O)c2ccc(-c3c4nc(c(-c5ccc(S(=O)(=O)[O-])cc5)c5ccc([nH]5)c(-c5ccc(S(=O)(=O)[O-])cc5)c5nc(c(-c6ccc(S(=O)(=O)[O-])cc6)c6ccc3[nH]6)C=C5)C=C4)cc2)=C(C(=O)Nc2ccccc2)[C@H](c2ccccc2C(=O)[O-])[C@@H]1C(=O)Nc1ccccc1
REMARK SMILES IDX 9 1 8 2 7 3 6 4 5 6 1 7 2 8 4 9 94 10 84 11 74 12 3 13 95 15
REMARK SMILES IDX 96 16 97 17 98 19 99 20 103 21 100 22 102 23 101 24 85 25
REMARK SMILES IDX 86 26 90 27 87 28 89 29 88 30 91 31 92 32 93 33 75 34 76 35
REMARK SMILES IDX 77 36 78 38 79 39 83 40 80 41 82 42 81 43 10 44 11 45 12 46
REMARK SMILES IDX 13 48 14 49 15 50 73 51 16 52 72 53 17 54 18 55 19 56 66 57
REMARK SMILES IDX 20 58 71 59 65 60 67 61 21 62 70 63 64 64 63 65 22 67 52 68
REMARK SMILES IDX 33 69 51 70 34 71 37 72 50 73 68 74 35 75 36 76 49 78 69 79
REMARK SMILES IDX 38 80 23 81 24 82 32 83 25 84 31 85 26 86 27 87 28 88 29 89
REMARK SMILES IDX 30 90 53 91 54 92 62 93 55 94 61 95 56 96 57 97 58 98 59 99
REMARK SMILES IDX 60 100 39 101 40 102 48 103 41 104 47 105 42 106 43 107
REMARK SMILES IDX 44 108 45 109 46 110
REMARK H PARENT 6 5 3 14 97 18 77 37 11 47 67 66 37 77
REMARK Flexibility Score: inf
ROOT
ATOM      1  C   UNL A   1      38.280  28.877  28.165  1.00  0.00     0.023 C 
ENDROOT
BRANCH   1   2
ATOM      2  C   UNL A   1      39.755  28.479  28.140  1.00  0.00     0.023 C 
BRANCH   2   3
ATOM      3  C   UNL A   1      40.066  27.182  28.880  1.00  0.00     0.112 C 
BRANCH   3   4
ATOM      4  N   UNL A   1      41.449  26.790  28.661  1.00  0.00    -0.388 N 
ATOM      5  H   UNL A   1      41.660  25.841  28.819  1.00  0.00     0.160 HD
BRANCH   4   6
ATOM      6  C   UNL A   1      42.510  27.591  28.255  1.00  0.00     0.023 C 
ATOM      7  C   UNL A   1      42.387  30.763  29.019  1.00  0.00     0.043 C 
ATOM      8  C   UNL A   1      43.607  29.811  28.947  1.00  0.00     0.080 C 
ATOM      9  C   UNL A   1      43.184  28.397  29.351  1.00  0.00     0.089 C 
ATOM     10  C   UNL A   1      44.193  29.854  27.511  1.00  0.00     0.123 C 
ATOM     11  C   UNL A   1      44.292  28.462  26.770  1.00  0.00     0.073 C 
ATOM     12  C   UNL A   1      42.987  27.694  26.981  1.00  0.00     0.045 C 
BRANCH   8  13
ATOM     13  O   UNL A   1      44.481  30.275  29.981  1.00  0.00    -0.389 OA
ATOM     14  H   UNL A   1      45.313  30.580  29.588  1.00  0.00     0.211 HD
ENDBRANCH   8  13
BRANCH  10  15
ATOM     15  C   UNL A   1      45.353  30.830  27.320  1.00  0.00     0.231 C 
ATOM     16  O   UNL A   1      46.369  30.852  28.015  1.00  0.00    -0.274 OA
ATOM     17  N   UNL A   1      45.281  31.652  26.228  1.00  0.00    -0.326 N 
ATOM     18  H   UNL A   1      45.761  31.384  25.411  1.00  0.00     0.169 HD
BRANCH  17  19
ATOM     19  C   UNL A   1      44.557  32.860  26.209  1.00  0.00     0.041 A 
ATOM     20  C   UNL A   1      44.311  33.483  27.434  1.00  0.00     0.026 A 
ATOM     21  C   UNL A   1      44.010  33.396  25.040  1.00  0.00     0.026 A 
ATOM     22  C   UNL A   1      43.532  34.639  27.489  1.00  0.00     0.002 A 
ATOM     23  C   UNL A   1      43.227  34.550  25.096  1.00  0.00     0.002 A 
ATOM     24  C   UNL A   1      42.989  35.171  26.320  1.00  0.00     0.000 A 
ENDBRANCH  17  19
ENDBRANCH  10  15
BRANCH  11  25
ATOM     25  C   UNL A   1      45.523  27.482  26.704  1.00  0.00    -0.030 A 
ATOM     26  C   UNL A   1      45.740  26.604  27.802  1.00  0.00     0.005 A 
ATOM     27  C   UNL A   1      46.196  27.102  25.528  1.00  0.00     0.001 A 
ATOM     28  C   UNL A   1      46.344  25.346  27.668  1.00  0.00     0.000 A 
ATOM     29  C   UNL A   1      46.775  25.823  25.374  1.00  0.00     0.010 A 
ATOM     30  C   UNL A   1      46.799  24.925  26.432  1.00  0.00     0.001 A 
BRANCH  27  31
ATOM     31  C   UNL A   1      46.623  28.081  24.533  1.00  0.00     0.072 C 
ATOM     32  O   UNL A   1      46.555  29.291  24.678  1.00  0.00    -0.545 OA
ATOM     33  O   UNL A   1      47.045  27.491  23.402  1.00  0.00    -0.545 OA
ENDBRANCH  27  31
ENDBRANCH  11  25
BRANCH  12  34
ATOM     34  C   UNL A   1      42.265  26.946  25.872  1.00  0.00     0.253 C 
ATOM     35  O   UNL A   1      41.367  27.542  25.249  1.00  0.00    -0.269 OA
ATOM     36  N   UNL A   1      42.488  25.701  25.376  1.00  0.00    -0.322 N 
ATOM     37  H   UNL A   1      42.030  25.629  24.507  1.00  0.00     0.170 HD
BRANCH  36  38
ATOM     38  C   UNL A   1      43.127  24.479  25.640  1.00  0.00     0.041 A 
ATOM     39  C   UNL A   1      43.734  23.861  24.534  1.00  0.00     0.026 A 
ATOM     40  C   UNL A   1      43.118  23.765  26.832  1.00  0.00     0.026 A 
ATOM     41  C   UNL A   1      44.394  22.632  24.649  1.00  0.00     0.002 A 
ATOM     42  C   UNL A   1      43.798  22.548  26.967  1.00  0.00     0.002 A 
ATOM     43  C   UNL A   1      44.450  21.986  25.877  1.00  0.00     0.000 A 
ENDBRANCH  36  38
ENDBRANCH  12  34
ENDBRANCH   4   6
ENDBRANCH   3   4
ENDBRANCH   2   3
ENDBRANCH   1   2
BRANCH   1  44
ATOM     44  C   UNL A   1      37.872  29.772  29.333  1.00  0.00     0.116 C 
BRANCH  44  45
ATOM     45  N   UNL A   1      37.377  29.037  30.490  1.00  0.00    -0.352 N 
ATOM     46  C   UNL A   1      37.647  29.278  31.818  1.00  0.00     0.251 C 
ATOM     47  H   UNL A   1      36.781  28.278  30.300  1.00  0.00     0.163 HD
ATOM     48  O   UNL A   1      37.236  28.525  32.693  1.00  0.00    -0.269 OA
BRANCH  46  49
ATOM     49  C   UNL A   1      38.481  30.446  32.161  1.00  0.00     0.039 A 
ATOM     50  C   UNL A   1      37.888  31.708  32.221  1.00  0.00     0.014 A 
ATOM     51  C   UNL A   1      39.823  30.268  32.511  1.00  0.00     0.014 A 
ATOM     52  C   UNL A   1      38.625  32.788  32.708  1.00  0.00     0.010 A 
ATOM     53  C   UNL A   1      40.533  31.331  33.056  1.00  0.00     0.010 A 
ATOM     54  C   UNL A   1      39.940  32.598  33.165  1.00  0.00    -0.014 A 
BRANCH  54  55
ATOM     55  C   UNL A   1      40.712  33.710  33.772  1.00  0.00     0.031 A 
ATOM     56  C   UNL A   1      41.725  34.454  32.949  1.00  0.00     0.074 A 
ATOM     57  C   UNL A   1      40.554  33.997  35.079  1.00  0.00     0.049 A 
ATOM     58  N   UNL A   1      42.548  35.402  33.315  1.00  0.00    -0.248 NA
ATOM     59  C   UNL A   1      41.849  34.062  31.534  1.00  0.00     0.031 C 
ATOM     60  C   UNL A   1      39.637  33.313  35.996  1.00  0.00     0.029 A 
ATOM     61  N   UNL A   1      41.171  34.936  35.868  1.00  0.00    -0.354 N 
ATOM     62  C   UNL A   1      43.299  35.705  32.186  1.00  0.00     0.074 A 
ATOM     63  C   UNL A   1      42.866  34.811  31.135  1.00  0.00     0.031 C 
ATOM     64  C   UNL A   1      39.734  33.871  37.214  1.00  0.00     0.029 A 
ATOM     65  C   UNL A   1      40.743  34.925  37.175  1.00  0.00     0.049 A 
ATOM     66  H   UNL A   1      41.855  35.557  35.531  1.00  0.00     0.167 HD
ATOM     67  C   UNL A   1      44.250  36.656  32.032  1.00  0.00     0.031 A 
ATOM     68  C   UNL A   1      41.123  35.677  38.227  1.00  0.00     0.031 A 
ATOM     69  C   UNL A   1      44.666  37.556  33.073  1.00  0.00     0.049 A 
ATOM     70  C   UNL A   1      42.174  36.735  38.028  1.00  0.00     0.074 A 
ATOM     71  C   UNL A   1      45.580  38.592  33.002  1.00  0.00     0.029 A 
ATOM     72  N   UNL A   1      44.189  37.531  34.375  1.00  0.00    -0.354 N 
ATOM     73  N   UNL A   1      42.830  37.047  36.936  1.00  0.00    -0.248 NA
ATOM     74  C   UNL A   1      42.528  37.548  39.200  1.00  0.00     0.031 C 
ATOM     75  C   UNL A   1      45.685  39.169  34.271  1.00  0.00     0.029 A 
ATOM     76  C   UNL A   1      44.802  38.523  35.121  1.00  0.00     0.049 A 
ATOM     77  H   UNL A   1      43.515  36.901  34.718  1.00  0.00     0.167 HD
ATOM     78  C   UNL A   1      43.656  38.111  37.283  1.00  0.00     0.074 A 
ATOM     79  C   UNL A   1      43.408  38.395  38.682  1.00  0.00     0.031 C 
ATOM     80  C   UNL A   1      44.539  38.792  36.512  1.00  0.00     0.031 A 
BRANCH  67  81
ATOM     81  C   UNL A   1      44.904  36.768  30.680  1.00  0.00    -0.014 A 
ATOM     82  C   UNL A   1      46.024  35.983  30.351  1.00  0.00     0.010 A 
ATOM     83  C   UNL A   1      44.378  37.649  29.719  1.00  0.00     0.010 A 
ATOM     84  C   UNL A   1      46.632  36.107  29.100  1.00  0.00     0.020 A 
ATOM     85  C   UNL A   1      44.969  37.758  28.456  1.00  0.00     0.020 A 
ATOM     86  C   UNL A   1      46.103  36.998  28.162  1.00  0.00     0.054 A 
BRANCH  86  87
ATOM     87  S   UNL A   1      46.899  37.126  26.538  1.00  0.00     0.124 S 
ATOM     88  O   UNL A   1      46.364  38.392  26.040  1.00  0.00    -0.237 OA
ATOM     89  O   UNL A   1      48.320  37.137  26.875  1.00  0.00    -0.237 OA
ATOM     90  O   UNL A   1      46.439  35.935  25.831  1.00  0.00    -0.744 OA
ENDBRANCH  86  87
ENDBRANCH  67  81
BRANCH  68  91
ATOM     91  C   UNL A   1      40.491  35.471  39.557  1.00  0.00    -0.014 A 
ATOM     92  C   UNL A   1      39.294  36.132  39.885  1.00  0.00     0.010 A 
ATOM     93  C   UNL A   1      41.076  34.608  40.500  1.00  0.00     0.010 A 
ATOM     94  C   UNL A   1      38.702  35.946  41.138  1.00  0.00     0.020 A 
ATOM     95  C   UNL A   1      40.475  34.402  41.745  1.00  0.00     0.020 A 
ATOM     96  C   UNL A   1      39.297  35.081  42.061  1.00  0.00     0.054 A 
BRANCH  96  97
ATOM     97  S   UNL A   1      38.488  34.818  43.663  1.00  0.00     0.124 S 
ATOM     98  O   UNL A   1      39.237  35.719  44.534  1.00  0.00    -0.237 OA
ATOM     99  O   UNL A   1      37.106  35.206  43.389  1.00  0.00    -0.237 OA
ATOM    100  O   UNL A   1      38.687  33.393  43.914  1.00  0.00    -0.744 OA
ENDBRANCH  96  97
ENDBRANCH  68  91
BRANCH  80 101
ATOM    101  C   UNL A   1      45.280  39.932  37.153  1.00  0.00    -0.014 A 
ATOM    102  C   UNL A   1      46.542  39.739  37.742  1.00  0.00     0.010 A 
ATOM    103  C   UNL A   1      44.731  41.227  37.112  1.00  0.00     0.010 A 
ATOM    104  C   UNL A   1      47.231  40.818  38.301  1.00  0.00     0.020 A 
ATOM    105  C   UNL A   1      45.427  42.312  37.649  1.00  0.00     0.020 A 
ATOM    106  C   UNL A   1      46.668  42.098  38.252  1.00  0.00     0.054 A 
BRANCH 106 107
ATOM    107  S   UNL A   1      47.603  43.491  38.940  1.00  0.00     0.124 S 
ATOM    108  O   UNL A   1      47.040  44.624  38.211  1.00  0.00    -0.237 OA
ATOM    109  O   UNL A   1      47.273  43.431  40.361  1.00  0.00    -0.237 OA
ATOM    110  O   UNL A   1      48.991  43.169  38.616  1.00  0.00    -0.744 OA
ENDBRANCH 106 107
ENDBRANCH  80 101
ENDBRANCH  54  55
ENDBRANCH  46  49
ENDBRANCH  44  45
ENDBRANCH   1  44
TORSDOF 21
ENDMDL
MODEL 3
REMARK VINA RESULT:      -8.3      4.236     11.060
REMARK SMILES C[C@@]1(O)CC(NCCCCNC(=O)c2ccc(-c3c4nc(c(-c5ccc(S(=O)(=O)[O-])cc5)c5ccc([nH]5)c(-c5ccc(S(=O)(=O)[O-])cc5)c5nc(c(-c6ccc(S(=O)(=O)[O-])cc6)c6ccc3[nH]6)C=C5)C=C4)cc2)=C(C(=O)Nc2ccccc2)[C@H](c2ccccc2C(=O)[O-])[C@@H]1C(=O)Nc1ccccc1
REMARK SMILES IDX 9 1 8 2 7 3 6 4 5 6 1 7 2 8 4 9 94 10 84 11 74 12 3 13 95 15
REMARK SMILES IDX 96 16 97 17 98 19 99 20 103 21 100 22 102 23 101 24 85 25
REMARK SMILES IDX 86 26 90 27 87 28 89 29 88 30 91 31 92 32 93 33 75 34 76 35
REMARK SMILES IDX 77 36 78 38 79 39 83 40 80 41 82 42 81 43 10 44 11 45 12 46
REMARK SMILES IDX 13 48 14 49 15 50 73 51 16 52 72 53 17 54 18 55 19 56 66 57
REMARK SMILES IDX 20 58 71 59 65 60 67 61 21 62 70 63 64 64 63 65 22 67 52 68
REMARK SMILES IDX 33 69 51 70 34 71 37 72 50 73 68 74 35 75 36 76 49 78 69 79
REMARK SMILES IDX 38 80 23 81 24 82 32 83 25 84 31 85 26 86 27 87 28 88 29 89
REMARK SMILES IDX 30 90 53 91 54 92 62 93 55 94 61 95 56 96 57 97 58 98 59 99
REMARK SMILES IDX 60 100 39 101 40 102 48 103 41 104 47 105 42 106 43 107
REMARK SMILES IDX 44 108 45 109 46 110
REMARK H PARENT 6 5 3 14 97 18 77 37 11 47 67 66 37 77
REMARK Flexibility Score: inf
ROOT
ATOM      1  C   UNL A   1      47.595  38.241  32.464  1.00  0.00     0.023 C 
ENDROOT
BRANCH   1   2
ATOM      2  C   UNL A   1      46.934  39.607  32.638  1.00  0.00     0.023 C 
BRANCH   2   3
ATOM      3  C   UNL A   1      47.775  40.778  32.139  1.00  0.00     0.112 C 
BRANCH   3   4
ATOM      4  N   UNL A   1      46.960  41.692  31.356  1.00  0.00    -0.388 N 
ATOM      5  H   UNL A   1      46.985  42.638  31.632  1.00  0.00     0.160 HD
BRANCH   4   6
ATOM      6  C   UNL A   1      46.150  41.396  30.266  1.00  0.00     0.023 C 
ATOM      7  C   UNL A   1      44.228  38.766  30.483  1.00  0.00     0.043 C 
ATOM      8  C   UNL A   1      43.965  40.128  29.793  1.00  0.00     0.080 C 
ATOM      9  C   UNL A   1      44.671  41.244  30.566  1.00  0.00     0.089 C 
ATOM     10  C   UNL A   1      44.447  40.045  28.321  1.00  0.00     0.123 C 
ATOM     11  C   UNL A   1      45.509  41.132  27.887  1.00  0.00     0.073 C 
ATOM     12  C   UNL A   1      46.575  41.247  28.977  1.00  0.00     0.045 C 
BRANCH   8  13
ATOM     13  O   UNL A   1      42.562  40.349  29.967  1.00  0.00    -0.389 OA
ATOM     14  H   UNL A   1      42.090  39.506  29.892  1.00  0.00     0.211 HD
ENDBRANCH   8  13
BRANCH  10  15
ATOM     15  C   UNL A   1      43.361  39.689  27.308  1.00  0.00     0.231 C 
ATOM     16  O   UNL A   1      42.379  40.390  27.061  1.00  0.00    -0.274 OA
ATOM     17  N   UNL A   1      43.575  38.564  26.559  1.00  0.00    -0.326 N 
ATOM     18  H   UNL A   1      43.963  38.669  25.660  1.00  0.00     0.169 HD
BRANCH  17  19
ATOM     19  C   UNL A   1      43.270  37.263  27.004  1.00  0.00     0.041 A 
ATOM     20  C   UNL A   1      42.132  37.104  27.798  1.00  0.00     0.026 A 
ATOM     21  C   UNL A   1      44.100  36.166  26.761  1.00  0.00     0.026 A 
ATOM     22  C   UNL A   1      41.823  35.854  28.336  1.00  0.00     0.002 A 
ATOM     23  C   UNL A   1      43.792  34.917  27.303  1.00  0.00     0.002 A 
ATOM     24  C   UNL A   1      42.653  34.762  28.089  1.00  0.00     0.000 A 
ENDBRANCH  17  19
ENDBRANCH  10  15
BRANCH  11  25
ATOM     25  C   UNL A   1      45.250  42.525  27.198  1.00  0.00    -0.030 A 
ATOM     26  C   UNL A   1      45.160  43.677  28.029  1.00  0.00     0.005 A 
ATOM     27  C   UNL A   1      45.485  42.816  25.842  1.00  0.00     0.001 A 
ATOM     28  C   UNL A   1      45.529  44.959  27.600  1.00  0.00     0.000 A 
ATOM     29  C   UNL A   1      45.891  44.097  25.409  1.00  0.00     0.010 A 
ATOM     30  C   UNL A   1      45.965  45.156  26.303  1.00  0.00     0.001 A 
BRANCH  27  31
ATOM     31  C   UNL A   1      45.022  41.937  24.773  1.00  0.00     0.072 C 
ATOM     32  O   UNL A   1      43.850  41.735  24.500  1.00  0.00    -0.545 OA
ATOM     33  O   UNL A   1      46.045  41.320  24.158  1.00  0.00    -0.545 OA
ENDBRANCH  27  31
ENDBRANCH  11  25
BRANCH  12  34
ATOM     34  C   UNL A   1      48.065  41.324  28.689  1.00  0.00     0.253 C 
ATOM     35  O   UNL A   1      48.698  42.302  29.127  1.00  0.00    -0.269 OA
ATOM     36  N   UNL A   1      48.877  40.434  28.061  1.00  0.00    -0.322 N 
ATOM     37  H   UNL A   1      49.810  40.664  28.273  1.00  0.00     0.170 HD
BRANCH  36  38
ATOM     38  C   UNL A   1      48.880  39.308  27.222  1.00  0.00     0.041 A 
ATOM     39  C   UNL A   1      47.644  38.983  26.639  1.00  0.00     0.026 A 
ATOM     40  C   UNL A   1      49.929  38.423  27.006  1.00  0.00     0.026 A 
ATOM     41  C   UNL A   1      47.499  37.877  25.791  1.00  0.00     0.002 A 
ATOM     42  C   UNL A   1      49.804  37.329  26.139  1.00  0.00     0.002 A 
ATOM     43  C   UNL A   1      48.590  37.063  25.519  1.00  0.00     0.000 A 
ENDBRANCH  36  38
ENDBRANCH  12  34
ENDBRANCH   4   6
ENDBRANCH   3   4
ENDBRANCH   2   3
ENDBRANCH   1   2
BRANCH   1  44
ATOM     44  C   UNL A   1      47.628  37.717  31.031  1.00  0.00     0.116 C 
BRANCH  44  45
ATOM     45  N   UNL A   1      48.975  37.535  30.502  1.00  0.00    -0.352 N 
ATOM     46  C   UNL A   1      49.510  36.402  29.934  1.00  0.00     0.251 C 
ATOM     47  H   UNL A   1      49.572  38.315  30.559  1.00  0.00     0.163 HD
ATOM     48  O   UNL A   1      50.691  36.354  29.611  1.00  0.00    -0.269 OA
BRANCH  46  49
ATOM     49  C   UNL A   1      48.635  35.226  29.763  1.00  0.00     0.039 A 
ATOM     50  C   UNL A   1      47.948  35.062  28.559  1.00  0.00     0.014 A 
ATOM     51  C   UNL A   1      48.576  34.247  30.760  1.00  0.00     0.014 A 
ATOM     52  C   UNL A   1      47.257  33.874  28.322  1.00  0.00     0.010 A 
ATOM     53  C   UNL A   1      47.941  33.040  30.496  1.00  0.00     0.010 A 
ATOM     54  C   UNL A   1      47.281  32.840  29.273  1.00  0.00    -0.014 A 
BRANCH  54  55
ATOM     55  C   UNL A   1      46.631  31.533  29.006  1.00  0.00     0.031 A 
ATOM     56  C   UNL A   1      47.387  30.457  28.279  1.00  0.00     0.074 A 
ATOM     57  C   UNL A   1      45.341  31.346  29.350  1.00  0.00     0.049 A 
ATOM     58  N   UNL A   1      46.971  29.280  27.887  1.00  0.00    -0.248 NA
ATOM     59  C   UNL A   1      48.784  30.752  27.921  1.00  0.00     0.031 C 
ATOM     60  C   UNL A   1      44.487  32.333  30.016  1.00  0.00     0.029 A 
ATOM     61  N   UNL A   1      44.519  30.261  29.176  1.00  0.00    -0.354 N 
ATOM     62  C   UNL A   1      48.046  28.704  27.221  1.00  0.00     0.074 A 
ATOM     63  C   UNL A   1      49.116  29.677  27.222  1.00  0.00     0.031 C 
ATOM     64  C   UNL A   1      43.271  31.800  30.216  1.00  0.00     0.029 A 
ATOM     65  C   UNL A   1      43.247  30.450  29.662  1.00  0.00     0.049 A 
ATOM     66  H   UNL A   1      44.812  29.427  28.744  1.00  0.00     0.167 HD
ATOM     67  C   UNL A   1      48.140  27.470  26.674  1.00  0.00     0.031 A 
ATOM     68  C   UNL A   1      42.178  29.629  29.658  1.00  0.00     0.031 A 
ATOM     69  C   UNL A   1      47.081  26.498  26.691  1.00  0.00     0.049 A 
ATOM     70  C   UNL A   1      42.310  28.258  29.055  1.00  0.00     0.074 A 
ATOM     71  C   UNL A   1      47.096  25.199  26.215  1.00  0.00     0.029 A 
ATOM     72  N   UNL A   1      45.816  26.717  27.217  1.00  0.00    -0.354 N 
ATOM     73  N   UNL A   1      43.355  27.708  28.482  1.00  0.00    -0.248 NA
ATOM     74  C   UNL A   1      41.124  27.392  29.106  1.00  0.00     0.031 C 
ATOM     75  C   UNL A   1      45.827  24.645  26.418  1.00  0.00     0.029 A 
ATOM     76  C   UNL A   1      45.037  25.584  27.063  1.00  0.00     0.049 A 
ATOM     77  H   UNL A   1      45.517  27.556  27.637  1.00  0.00     0.167 HD
ATOM     78  C   UNL A   1      42.960  26.423  28.129  1.00  0.00     0.074 A 
ATOM     79  C   UNL A   1      41.586  26.274  28.562  1.00  0.00     0.031 C 
ATOM     80  C   UNL A   1      43.672  25.453  27.504  1.00  0.00     0.031 A 
BRANCH  67  81
ATOM     81  C   UNL A   1      49.442  27.103  26.013  1.00  0.00    -0.014 A 
ATOM     82  C   UNL A   1      49.640  27.320  24.638  1.00  0.00     0.010 A 
ATOM     83  C   UNL A   1      50.488  26.560  26.779  1.00  0.00     0.010 A 
ATOM     84  C   UNL A   1      50.846  26.962  24.031  1.00  0.00     0.020 A 
ATOM     85  C   UNL A   1      51.706  26.223  26.181  1.00  0.00     0.020 A 
ATOM     86  C   UNL A   1      51.870  26.410  24.807  1.00  0.00     0.054 A 
BRANCH  86  87
ATOM     87  S   UNL A   1      53.434  25.971  23.999  1.00  0.00     0.124 S 
ATOM     88  O   UNL A   1      53.676  24.629  24.525  1.00  0.00    -0.237 OA
ATOM     89  O   UNL A   1      53.093  26.035  22.581  1.00  0.00    -0.237 OA
ATOM     90  O   UNL A   1      54.363  26.998  24.461  1.00  0.00    -0.744 OA
ENDBRANCH  86  87
ENDBRANCH  67  81
BRANCH  68  91
ATOM     91  C   UNL A   1      40.894  30.075  30.264  1.00  0.00    -0.014 A 
ATOM     92  C   UNL A   1      40.646  29.869  31.632  1.00  0.00     0.010 A 
ATOM     93  C   UNL A   1      39.918  30.714  29.479  1.00  0.00     0.010 A 
ATOM     94  C   UNL A   1      39.437  30.280  32.202  1.00  0.00     0.020 A 
ATOM     95  C   UNL A   1      38.718  31.147  30.051  1.00  0.00     0.020 A 
ATOM     96  C   UNL A   1      38.480  30.916  31.407  1.00  0.00     0.054 A 
BRANCH  96  97
ATOM     97  S   UNL A   1      36.938  31.484  32.176  1.00  0.00     0.124 S 
ATOM     98  O   UNL A   1      37.426  32.159  33.374  1.00  0.00    -0.237 OA
ATOM     99  O   UNL A   1      36.370  32.353  31.146  1.00  0.00    -0.237 OA
ATOM    100  O   UNL A   1      36.199  30.245  32.410  1.00  0.00    -0.744 OA
ENDBRANCH  96  97
ENDBRANCH  68  91
BRANCH  80 101
ATOM    101  C   UNL A   1      42.990  24.133  27.277  1.00  0.00    -0.014 A 
ATOM    102  C   UNL A   1      42.274  23.877  26.095  1.00  0.00     0.010 A 
ATOM    103  C   UNL A   1      43.119  23.112  28.237  1.00  0.00     0.010 A 
ATOM    104  C   UNL A   1      41.677  22.632  25.887  1.00  0.00     0.020 A 
ATOM    105  C   UNL A   1      42.543  21.858  28.023  1.00  0.00     0.020 A 
ATOM    106  C   UNL A   1      41.815  21.630  26.854  1.00  0.00     0.054 A 
BRANCH 106 107
ATOM    107  S   UNL A   1      41.074  20.004  26.540  1.00  0.00     0.124 S 
ATOM    108  O   UNL A   1      40.983  19.448  27.887  1.00  0.00    -0.237 OA
ATOM    109  O   UNL A   1      39.799  20.346  25.914  1.00  0.00    -0.237 OA
ATOM    110  O   UNL A   1      42.037  19.350  25.659  1.00  0.00    -0.744 OA
ENDBRANCH 106 107
ENDBRANCH  80 101
ENDBRANCH  54  55
ENDBRANCH  46  49
ENDBRANCH  44  45
ENDBRANCH   1  44
TORSDOF 21
ENDMDL
