MODEL 1
REMARK VINA RESULT:     -11.4      0.000      0.000
REMARK SMILES C[C@H]1[C@@H](C(=O)NCCCCNC(=O)c2ccc(-c3c4nc(c(-c5ccc(S(=O)(=O)[O-])cc5)c5ccc([nH]5)c(-c5ccc(S(=O)(=O)[O-])cc5)c5nc(c(-c6ccc(S(=O)(=O)[O-])cc6)c6ccc3[nH]6)C=C5)C=C4)cc2)CCN1C(=O)/C=C/c1cccc(F)c1
REMARK SMILES IDX 8 1 7 2 6 3 4 4 5 5 3 7 1 8 2 9 76 10 74 11 75 12 77 13
REMARK SMILES IDX 78 14 79 15 80 16 81 17 82 18 87 19 83 20 85 21 84 22 86 23
REMARK SMILES IDX 9 24 10 25 11 26 12 27 13 29 14 30 15 31 73 32 16 33 72 34
REMARK SMILES IDX 17 35 18 36 19 37 66 38 20 39 71 40 65 41 67 42 21 43 70 44
REMARK SMILES IDX 64 45 63 46 22 48 52 49 33 50 51 51 34 52 37 53 50 54 68 55
REMARK SMILES IDX 35 56 36 57 49 59 69 60 38 61 23 62 24 63 32 64 25 65 31 66
REMARK SMILES IDX 26 67 27 68 28 69 29 70 30 71 53 72 54 73 62 74 55 75 61 76
REMARK SMILES IDX 56 77 57 78 58 79 59 80 60 81 39 82 40 83 48 84 41 85 47 86
REMARK SMILES IDX 42 87 43 88 44 89 45 90 46 91
REMARK H PARENT 6 6 11 28 67 47 37 58
REMARK Flexibility Score: inf
ROOT
ATOM      1  C   UNL A   1      36.560  22.074  25.741  1.00  0.00     0.023 C 
ENDROOT
BRANCH   1   2
ATOM      2  C   UNL A   1      35.466  21.072  25.365  1.00  0.00     0.116 C 
BRANCH   2   3
ATOM      3  N   UNL A   1      34.224  21.417  26.031  1.00  0.00    -0.356 N 
ATOM      4  C   UNL A   1      33.194  22.217  25.637  1.00  0.00     0.225 C 
ATOM      5  O   UNL A   1      32.338  22.475  26.485  1.00  0.00    -0.275 OA
ATOM      6  H   UNL A   1      34.107  21.002  26.916  1.00  0.00     0.163 HD
BRANCH   4   7
ATOM      7  C   UNL A   1      33.052  22.673  24.183  1.00  0.00     0.102 C 
ATOM      8  C   UNL A   1      33.971  25.050  24.839  1.00  0.00     0.032 C 
ATOM      9  C   UNL A   1      33.609  24.048  23.748  1.00  0.00     0.094 C 
ATOM     10  N   UNL A   1      32.561  24.642  22.918  1.00  0.00    -0.336 N 
ATOM     11  C   UNL A   1      31.577  22.684  23.706  1.00  0.00     0.037 C 
ATOM     12  C   UNL A   1      31.278  24.122  23.328  1.00  0.00     0.121 C 
BRANCH  10  13
ATOM     13  C   UNL A   1      32.664  25.737  22.080  1.00  0.00     0.246 C 
ATOM     14  O   UNL A   1      33.667  26.006  21.428  1.00  0.00    -0.270 OA
BRANCH  13  15
ATOM     15  C   UNL A   1      31.426  26.537  21.869  1.00  0.00     0.072 C 
ATOM     16  C   UNL A   1      31.212  27.692  22.518  1.00  0.00     0.014 C 
BRANCH  16  17
ATOM     17  C   UNL A   1      29.949  28.454  22.547  1.00  0.00    -0.023 A 
ATOM     18  C   UNL A   1      29.961  29.774  22.066  1.00  0.00     0.008 A 
ATOM     19  C   UNL A   1      28.761  27.964  23.103  1.00  0.00     0.047 A 
ATOM     20  C   UNL A   1      28.821  30.583  22.137  1.00  0.00     0.004 A 
ATOM     21  C   UNL A   1      27.629  28.776  23.167  1.00  0.00     0.123 A 
ATOM     22  C   UNL A   1      27.649  30.081  22.693  1.00  0.00     0.039 A 
ATOM     23  F   UNL A   1      26.503  28.289  23.705  1.00  0.00    -0.207 F 
ENDBRANCH  16  17
ENDBRANCH  13  15
ENDBRANCH  10  13
ENDBRANCH   4   7
ENDBRANCH   2   3
ENDBRANCH   1   2
BRANCH   1  24
ATOM     24  C   UNL A   1      37.913  21.858  25.092  1.00  0.00     0.023 C 
BRANCH  24  25
ATOM     25  C   UNL A   1      39.058  21.708  26.072  1.00  0.00     0.116 C 
BRANCH  25  26
ATOM     26  N   UNL A   1      39.712  20.403  26.026  1.00  0.00    -0.352 N 
ATOM     27  C   UNL A   1      41.050  20.107  26.156  1.00  0.00     0.251 C 
ATOM     28  H   UNL A   1      39.117  19.632  25.885  1.00  0.00     0.163 HD
ATOM     29  O   UNL A   1      41.453  18.954  26.026  1.00  0.00    -0.269 OA
BRANCH  27  30
ATOM     30  C   UNL A   1      41.993  21.215  26.402  1.00  0.00     0.039 A 
ATOM     31  C   UNL A   1      42.376  22.036  25.340  1.00  0.00     0.014 A 
ATOM     32  C   UNL A   1      42.374  21.515  27.710  1.00  0.00     0.014 A 
ATOM     33  C   UNL A   1      43.056  23.223  25.610  1.00  0.00     0.010 A 
ATOM     34  C   UNL A   1      42.931  22.752  27.983  1.00  0.00     0.010 A 
ATOM     35  C   UNL A   1      43.285  23.619  26.939  1.00  0.00    -0.014 A 
BRANCH  35  36
ATOM     36  C   UNL A   1      43.914  24.921  27.274  1.00  0.00     0.031 A 
ATOM     37  C   UNL A   1      43.057  26.035  27.816  1.00  0.00     0.074 A 
ATOM     38  C   UNL A   1      45.218  25.135  27.004  1.00  0.00     0.049 A 
ATOM     39  N   UNL A   1      43.376  27.280  28.057  1.00  0.00    -0.248 NA
ATOM     40  C   UNL A   1      41.640  25.720  28.072  1.00  0.00     0.031 C 
ATOM     41  C   UNL A   1      46.139  24.159  26.413  1.00  0.00     0.029 A 
ATOM     42  N   UNL A   1      45.995  26.249  27.188  1.00  0.00    -0.354 N 
ATOM     43  C   UNL A   1      42.195  27.900  28.449  1.00  0.00     0.074 A 
ATOM     44  C   UNL A   1      41.143  26.914  28.351  1.00  0.00     0.031 C 
ATOM     45  C   UNL A   1      47.363  24.706  26.322  1.00  0.00     0.029 A 
ATOM     46  C   UNL A   1      47.307  26.080  26.810  1.00  0.00     0.049 A 
ATOM     47  H   UNL A   1      45.646  27.093  27.557  1.00  0.00     0.167 HD
ATOM     48  C   UNL A   1      42.006  29.166  28.883  1.00  0.00     0.031 A 
ATOM     49  C   UNL A   1      48.346  26.935  26.857  1.00  0.00     0.031 A 
ATOM     50  C   UNL A   1      43.065  30.124  29.035  1.00  0.00     0.049 A 
ATOM     51  C   UNL A   1      48.126  28.319  27.400  1.00  0.00     0.074 A 
ATOM     52  C   UNL A   1      42.998  31.408  29.544  1.00  0.00     0.029 A 
ATOM     53  N   UNL A   1      44.389  29.893  28.694  1.00  0.00    -0.354 N 
ATOM     54  N   UNL A   1      47.013  28.868  27.826  1.00  0.00    -0.248 NA
ATOM     55  C   UNL A   1      49.303  29.196  27.482  1.00  0.00     0.031 C 
ATOM     56  C   UNL A   1      44.280  31.966  29.483  1.00  0.00     0.029 A 
ATOM     57  C   UNL A   1      45.149  31.013  28.975  1.00  0.00     0.049 A 
ATOM     58  H   UNL A   1      44.735  29.056  28.308  1.00  0.00     0.167 HD
ATOM     59  C   UNL A   1      47.360  30.146  28.249  1.00  0.00     0.074 A 
ATOM     60  C   UNL A   1      48.788  30.283  28.040  1.00  0.00     0.031 C 
ATOM     61  C   UNL A   1      46.570  31.120  28.763  1.00  0.00     0.031 A 
BRANCH  48  62
ATOM     62  C   UNL A   1      40.600  29.570  29.240  1.00  0.00    -0.014 A 
ATOM     63  C   UNL A   1      39.667  29.902  28.241  1.00  0.00     0.010 A 
ATOM     64  C   UNL A   1      40.206  29.617  30.589  1.00  0.00     0.010 A 
ATOM     65  C   UNL A   1      38.382  30.327  28.585  1.00  0.00     0.020 A 
ATOM     66  C   UNL A   1      38.912  30.014  30.936  1.00  0.00     0.020 A 
ATOM     67  C   UNL A   1      38.015  30.387  29.932  1.00  0.00     0.054 A 
BRANCH  67  68
ATOM     68  S   UNL A   1      36.339  30.937  30.353  1.00  0.00     0.124 S 
ATOM     69  O   UNL A   1      36.550  32.356  30.630  1.00  0.00    -0.237 OA
ATOM     70  O   UNL A   1      35.587  30.640  29.136  1.00  0.00    -0.237 OA
ATOM     71  O   UNL A   1      35.988  30.121  31.513  1.00  0.00    -0.744 OA
ENDBRANCH  67  68
ENDBRANCH  48  62
BRANCH  49  72
ATOM     72  C   UNL A   1      49.697  26.493  26.414  1.00  0.00    -0.014 A 
ATOM     73  C   UNL A   1      50.124  26.732  25.095  1.00  0.00     0.010 A 
ATOM     74  C   UNL A   1      50.569  25.845  27.307  1.00  0.00     0.010 A 
ATOM     75  C   UNL A   1      51.389  26.317  24.672  1.00  0.00     0.020 A 
ATOM     76  C   UNL A   1      51.846  25.449  26.894  1.00  0.00     0.020 A 
ATOM     77  C   UNL A   1      52.243  25.678  25.575  1.00  0.00     0.054 A 
BRANCH  77  78
ATOM     78  S   UNL A   1      53.902  25.194  25.020  1.00  0.00     0.124 S 
ATOM     79  O   UNL A   1      54.040  25.952  23.780  1.00  0.00    -0.237 OA
ATOM     80  O   UNL A   1      54.748  25.633  26.127  1.00  0.00    -0.237 OA
ATOM     81  O   UNL A   1      53.799  23.745  24.862  1.00  0.00    -0.744 OA
ENDBRANCH  77  78
ENDBRANCH  49  72
BRANCH  61  82
ATOM     82  C   UNL A   1      47.234  32.407  29.166  1.00  0.00    -0.014 A 
ATOM     83  C   UNL A   1      47.337  33.480  28.266  1.00  0.00     0.010 A 
ATOM     84  C   UNL A   1      47.700  32.562  30.484  1.00  0.00     0.010 A 
ATOM     85  C   UNL A   1      47.920  34.684  28.671  1.00  0.00     0.020 A 
ATOM     86  C   UNL A   1      48.261  33.771  30.899  1.00  0.00     0.020 A 
ATOM     87  C   UNL A   1      48.379  34.821  29.985  1.00  0.00     0.054 A 
BRANCH  87  88
ATOM     88  S   UNL A   1      49.084  36.409  30.504  1.00  0.00     0.124 S 
ATOM     89  O   UNL A   1      50.099  36.638  29.480  1.00  0.00    -0.237 OA
ATOM     90  O   UNL A   1      47.930  37.304  30.459  1.00  0.00    -0.237 OA
ATOM     91  O   UNL A   1      49.599  36.136  31.844  1.00  0.00    -0.744 OA
ENDBRANCH  87  88
ENDBRANCH  61  82
ENDBRANCH  35  36
ENDBRANCH  27  30
ENDBRANCH  25  26
ENDBRANCH  24  25
ENDBRANCH   1  24
TORSDOF 17
ENDMDL
MODEL 2
REMARK VINA RESULT:     -11.3      6.215     10.723
REMARK SMILES C[C@H]1[C@@H](C(=O)NCCCCNC(=O)c2ccc(-c3c4nc(c(-c5ccc(S(=O)(=O)[O-])cc5)c5ccc([nH]5)c(-c5ccc(S(=O)(=O)[O-])cc5)c5nc(c(-c6ccc(S(=O)(=O)[O-])cc6)c6ccc3[nH]6)C=C5)C=C4)cc2)CCN1C(=O)/C=C/c1cccc(F)c1
REMARK SMILES IDX 8 1 7 2 6 3 4 4 5 5 3 7 1 8 2 9 76 10 74 11 75 12 77 13
REMARK SMILES IDX 78 14 79 15 80 16 81 17 82 18 87 19 83 20 85 21 84 22 86 23
REMARK SMILES IDX 9 24 10 25 11 26 12 27 13 29 14 30 15 31 73 32 16 33 72 34
REMARK SMILES IDX 17 35 18 36 19 37 66 38 20 39 71 40 65 41 67 42 21 43 70 44
REMARK SMILES IDX 64 45 63 46 22 48 52 49 33 50 51 51 34 52 37 53 50 54 68 55
REMARK SMILES IDX 35 56 36 57 49 59 69 60 38 61 23 62 24 63 32 64 25 65 31 66
REMARK SMILES IDX 26 67 27 68 28 69 29 70 30 71 53 72 54 73 62 74 55 75 61 76
REMARK SMILES IDX 56 77 57 78 58 79 59 80 60 81 39 82 40 83 48 84 41 85 47 86
REMARK SMILES IDX 42 87 43 88 44 89 45 90 46 91
REMARK H PARENT 6 6 11 28 67 47 37 58
REMARK Flexibility Score: inf
ROOT
ATOM      1  C   UNL A   1      36.849  22.543  26.172  1.00  0.00     0.023 C 
ENDROOT
BRANCH   1   2
ATOM      2  C   UNL A   1      36.322  21.236  25.575  1.00  0.00     0.116 C 
BRANCH   2   3
ATOM      3  N   UNL A   1      34.910  21.086  25.873  1.00  0.00    -0.356 N 
ATOM      4  C   UNL A   1      33.816  21.700  25.340  1.00  0.00     0.225 C 
ATOM      5  O   UNL A   1      32.741  21.509  25.910  1.00  0.00    -0.275 OA
ATOM      6  H   UNL A   1      34.709  20.429  26.578  1.00  0.00     0.163 HD
BRANCH   4   7
ATOM      7  C   UNL A   1      33.906  22.490  24.033  1.00  0.00     0.102 C 
ATOM      8  C   UNL A   1      34.290  24.706  25.398  1.00  0.00     0.032 C 
ATOM      9  C   UNL A   1      34.320  23.979  24.059  1.00  0.00     0.094 C 
ATOM     10  N   UNL A   1      33.384  24.654  23.158  1.00  0.00    -0.336 N 
ATOM     11  C   UNL A   1      32.576  22.471  23.235  1.00  0.00     0.037 C 
ATOM     12  C   UNL A   1      32.141  23.920  23.128  1.00  0.00     0.121 C 
BRANCH  10  13
ATOM     13  C   UNL A   1      33.484  25.929  22.634  1.00  0.00     0.246 C 
ATOM     14  O   UNL A   1      33.866  26.170  21.493  1.00  0.00    -0.270 OA
BRANCH  13  15
ATOM     15  C   UNL A   1      32.961  27.042  23.473  1.00  0.00     0.072 C 
ATOM     16  C   UNL A   1      33.776  27.822  24.201  1.00  0.00     0.014 C 
BRANCH  16  17
ATOM     17  C   UNL A   1      33.359  28.805  25.218  1.00  0.00    -0.023 A 
ATOM     18  C   UNL A   1      32.117  29.440  25.056  1.00  0.00     0.008 A 
ATOM     19  C   UNL A   1      34.168  29.202  26.290  1.00  0.00     0.047 A 
ATOM     20  C   UNL A   1      31.692  30.442  25.936  1.00  0.00     0.004 A 
ATOM     21  C   UNL A   1      33.736  30.198  27.165  1.00  0.00     0.123 A 
ATOM     22  C   UNL A   1      32.508  30.824  26.996  1.00  0.00     0.039 A 
ATOM     23  F   UNL A   1      34.526  30.566  28.183  1.00  0.00    -0.207 F 
ENDBRANCH  16  17
ENDBRANCH  13  15
ENDBRANCH  10  13
ENDBRANCH   4   7
ENDBRANCH   2   3
ENDBRANCH   1   2
BRANCH   1  24
ATOM     24  C   UNL A   1      38.156  23.056  25.602  1.00  0.00     0.023 C 
BRANCH  24  25
ATOM     25  C   UNL A   1      38.965  23.903  26.563  1.00  0.00     0.116 C 
BRANCH  25  26
ATOM     26  N   UNL A   1      40.389  23.969  26.242  1.00  0.00    -0.352 N 
ATOM     27  C   UNL A   1      41.318  24.904  26.642  1.00  0.00     0.251 C 
ATOM     28  H   UNL A   1      40.730  23.250  25.664  1.00  0.00     0.163 HD
ATOM     29  O   UNL A   1      42.473  24.857  26.228  1.00  0.00    -0.269 OA
BRANCH  27  30
ATOM     30  C   UNL A   1      40.878  25.991  27.537  1.00  0.00     0.039 A 
ATOM     31  C   UNL A   1      39.976  25.708  28.565  1.00  0.00     0.014 A 
ATOM     32  C   UNL A   1      41.476  27.248  27.437  1.00  0.00     0.014 A 
ATOM     33  C   UNL A   1      39.757  26.663  29.558  1.00  0.00     0.010 A 
ATOM     34  C   UNL A   1      41.356  28.138  28.491  1.00  0.00     0.010 A 
ATOM     35  C   UNL A   1      40.491  27.861  29.561  1.00  0.00    -0.014 A 
BRANCH  35  36
ATOM     36  C   UNL A   1      40.365  28.859  30.652  1.00  0.00     0.031 A 
ATOM     37  C   UNL A   1      41.244  28.736  31.869  1.00  0.00     0.074 A 
ATOM     38  C   UNL A   1      39.406  29.805  30.597  1.00  0.00     0.049 A 
ATOM     39  N   UNL A   1      41.213  29.420  32.982  1.00  0.00    -0.248 NA
ATOM     40  C   UNL A   1      42.258  27.666  31.851  1.00  0.00     0.031 C 
ATOM     41  C   UNL A   1      38.444  29.986  29.505  1.00  0.00     0.029 A 
ATOM     42  N   UNL A   1      39.078  30.795  31.489  1.00  0.00    -0.354 N 
ATOM     43  C   UNL A   1      42.169  28.838  33.806  1.00  0.00     0.074 A 
ATOM     44  C   UNL A   1      42.716  27.706  33.091  1.00  0.00     0.031 C 
ATOM     45  C   UNL A   1      37.663  31.046  29.775  1.00  0.00     0.029 A 
ATOM     46  C   UNL A   1      38.041  31.597  31.072  1.00  0.00     0.049 A 
ATOM     47  H   UNL A   1      39.542  30.919  32.349  1.00  0.00     0.167 HD
ATOM     48  C   UNL A   1      42.581  29.227  35.034  1.00  0.00     0.031 A 
ATOM     49  C   UNL A   1      37.465  32.658  31.667  1.00  0.00     0.031 A 
ATOM     50  C   UNL A   1      42.077  30.386  35.714  1.00  0.00     0.049 A 
ATOM     51  C   UNL A   1      37.980  33.111  33.006  1.00  0.00     0.074 A 
ATOM     52  C   UNL A   1      42.482  30.918  36.924  1.00  0.00     0.029 A 
ATOM     53  N   UNL A   1      41.067  31.204  35.231  1.00  0.00    -0.354 N 
ATOM     54  N   UNL A   1      38.930  32.585  33.742  1.00  0.00    -0.248 NA
ATOM     55  C   UNL A   1      37.355  34.307  33.588  1.00  0.00     0.031 C 
ATOM     56  C   UNL A   1      41.694  32.044  37.188  1.00  0.00     0.029 A 
ATOM     57  C   UNL A   1      40.830  32.234  36.122  1.00  0.00     0.049 A 
ATOM     58  H   UNL A   1      40.590  31.070  34.380  1.00  0.00     0.167 HD
ATOM     59  C   UNL A   1      39.033  33.400  34.864  1.00  0.00     0.074 A 
ATOM     60  C   UNL A   1      38.059  34.460  34.701  1.00  0.00     0.031 C 
ATOM     61  C   UNL A   1      39.858  33.281  35.933  1.00  0.00     0.031 A 
BRANCH  48  62
ATOM     62  C   UNL A   1      43.642  28.393  35.701  1.00  0.00    -0.014 A 
ATOM     63  C   UNL A   1      45.008  28.646  35.478  1.00  0.00     0.010 A 
ATOM     64  C   UNL A   1      43.271  27.345  36.562  1.00  0.00     0.010 A 
ATOM     65  C   UNL A   1      45.983  27.831  36.059  1.00  0.00     0.020 A 
ATOM     66  C   UNL A   1      44.244  26.546  37.168  1.00  0.00     0.020 A 
ATOM     67  C   UNL A   1      45.594  26.782  36.895  1.00  0.00     0.054 A 
BRANCH  67  68
ATOM     68  S   UNL A   1      46.879  25.743  37.642  1.00  0.00     0.124 S 
ATOM     69  O   UNL A   1      46.232  24.433  37.661  1.00  0.00    -0.237 OA
ATOM     70  O   UNL A   1      47.990  25.881  36.705  1.00  0.00    -0.237 OA
ATOM     71  O   UNL A   1      47.095  26.350  38.954  1.00  0.00    -0.744 OA
ENDBRANCH  67  68
ENDBRANCH  48  62
BRANCH  49  72
ATOM     72  C   UNL A   1      36.365  33.392  30.983  1.00  0.00    -0.014 A 
ATOM     73  C   UNL A   1      35.136  33.596  31.637  1.00  0.00     0.010 A 
ATOM     74  C   UNL A   1      36.540  33.903  29.685  1.00  0.00     0.010 A 
ATOM     75  C   UNL A   1      34.098  34.280  31.001  1.00  0.00     0.020 A 
ATOM     76  C   UNL A   1      35.511  34.609  29.054  1.00  0.00     0.020 A 
ATOM     77  C   UNL A   1      34.292  34.784  29.711  1.00  0.00     0.054 A 
BRANCH  77  78
ATOM     78  S   UNL A   1      32.949  35.715  28.923  1.00  0.00     0.124 S 
ATOM     79  O   UNL A   1      32.356  34.710  28.046  1.00  0.00    -0.237 OA
ATOM     80  O   UNL A   1      32.132  36.121  30.064  1.00  0.00    -0.237 OA
ATOM     81  O   UNL A   1      33.645  36.807  28.246  1.00  0.00    -0.744 OA
ENDBRANCH  77  78
ENDBRANCH  49  72
BRANCH  61  82
ATOM     82  C   UNL A   1      39.768  34.341  36.995  1.00  0.00    -0.014 A 
ATOM     83  C   UNL A   1      39.055  34.115  38.183  1.00  0.00     0.010 A 
ATOM     84  C   UNL A   1      40.463  35.551  36.825  1.00  0.00     0.010 A 
ATOM     85  C   UNL A   1      39.017  35.095  39.178  1.00  0.00     0.020 A 
ATOM     86  C   UNL A   1      40.447  36.524  37.826  1.00  0.00     0.020 A 
ATOM     87  C   UNL A   1      39.713  36.294  38.992  1.00  0.00     0.054 A 
BRANCH  87  88
ATOM     88  S   UNL A   1      39.693  37.532  40.318  1.00  0.00     0.124 S 
ATOM     89  O   UNL A   1      38.972  36.831  41.375  1.00  0.00    -0.237 OA
ATOM     90  O   UNL A   1      41.115  37.757  40.569  1.00  0.00    -0.237 OA
ATOM     91  O   UNL A   1      38.987  38.664  39.723  1.00  0.00    -0.744 OA
ENDBRANCH  87  88
ENDBRANCH  61  82
ENDBRANCH  35  36
ENDBRANCH  27  30
ENDBRANCH  25  26
ENDBRANCH  24  25
ENDBRANCH   1  24
TORSDOF 17
ENDMDL
MODEL 3
REMARK VINA RESULT:     -11.2      4.103      9.255
REMARK SMILES C[C@H]1[C@@H](C(=O)NCCCCNC(=O)c2ccc(-c3c4nc(c(-c5ccc(S(=O)(=O)[O-])cc5)c5ccc([nH]5)c(-c5ccc(S(=O)(=O)[O-])cc5)c5nc(c(-c6ccc(S(=O)(=O)[O-])cc6)c6ccc3[nH]6)C=C5)C=C4)cc2)CCN1C(=O)/C=C/c1cccc(F)c1
REMARK SMILES IDX 8 1 7 2 6 3 4 4 5 5 3 7 1 8 2 9 76 10 74 11 75 12 77 13
REMARK SMILES IDX 78 14 79 15 80 16 81 17 82 18 87 19 83 20 85 21 84 22 86 23
REMARK SMILES IDX 9 24 10 25 11 26 12 27 13 29 14 30 15 31 73 32 16 33 72 34
REMARK SMILES IDX 17 35 18 36 19 37 66 38 20 39 71 40 65 41 67 42 21 43 70 44
REMARK SMILES IDX 64 45 63 46 22 48 52 49 33 50 51 51 34 52 37 53 50 54 68 55
REMARK SMILES IDX 35 56 36 57 49 59 69 60 38 61 23 62 24 63 32 64 25 65 31 66
REMARK SMILES IDX 26 67 27 68 28 69 29 70 30 71 53 72 54 73 62 74 55 75 61 76
REMARK SMILES IDX 56 77 57 78 58 79 59 80 60 81 39 82 40 83 48 84 41 85 47 86
REMARK SMILES IDX 42 87 43 88 44 89 45 90 46 91
REMARK H PARENT 6 6 11 28 67 47 37 58
REMARK Flexibility Score: inf
ROOT
ATOM      1  C   UNL A   1      35.636  21.763  26.074  1.00  0.00     0.023 C 
ENDROOT
BRANCH   1   2
ATOM      2  C   UNL A   1      34.303  21.456  26.759  1.00  0.00     0.116 C 
BRANCH   2   3
ATOM      3  N   UNL A   1      33.523  20.543  25.945  1.00  0.00    -0.356 N 
ATOM      4  C   UNL A   1      32.288  20.679  25.385  1.00  0.00     0.225 C 
ATOM      5  O   UNL A   1      31.790  19.668  24.888  1.00  0.00    -0.275 OA
ATOM      6  H   UNL A   1      33.961  19.679  25.767  1.00  0.00     0.163 HD
BRANCH   4   7
ATOM      7  C   UNL A   1      31.611  22.047  25.279  1.00  0.00     0.102 C 
ATOM      8  C   UNL A   1      33.262  22.717  23.343  1.00  0.00     0.032 C 
ATOM      9  C   UNL A   1      31.989  23.009  24.130  1.00  0.00     0.094 C 
ATOM     10  N   UNL A   1      32.140  24.322  24.760  1.00  0.00    -0.336 N 
ATOM     11  C   UNL A   1      31.782  22.895  26.566  1.00  0.00     0.037 C 
ATOM     12  C   UNL A   1      32.529  24.144  26.139  1.00  0.00     0.121 C 
BRANCH  10  13
ATOM     13  C   UNL A   1      32.214  25.555  24.141  1.00  0.00     0.246 C 
ATOM     14  O   UNL A   1      33.186  25.940  23.499  1.00  0.00    -0.270 OA
BRANCH  13  15
ATOM     15  C   UNL A   1      30.977  26.384  24.150  1.00  0.00     0.072 C 
ATOM     16  C   UNL A   1      30.795  27.391  23.281  1.00  0.00     0.014 C 
BRANCH  16  17
ATOM     17  C   UNL A   1      29.720  28.400  23.331  1.00  0.00    -0.023 A 
ATOM     18  C   UNL A   1      28.400  27.972  23.110  1.00  0.00     0.008 A 
ATOM     19  C   UNL A   1      29.950  29.771  23.503  1.00  0.00     0.047 A 
ATOM     20  C   UNL A   1      27.340  28.884  23.061  1.00  0.00     0.004 A 
ATOM     21  C   UNL A   1      28.887  30.672  23.457  1.00  0.00     0.123 A 
ATOM     22  C   UNL A   1      27.585  30.242  23.234  1.00  0.00     0.039 A 
ATOM     23  F   UNL A   1      29.128  31.979  23.621  1.00  0.00    -0.207 F 
ENDBRANCH  16  17
ENDBRANCH  13  15
ENDBRANCH  10  13
ENDBRANCH   4   7
ENDBRANCH   2   3
ENDBRANCH   1   2
BRANCH   1  24
ATOM     24  C   UNL A   1      35.985  23.231  25.925  1.00  0.00     0.023 C 
BRANCH  24  25
ATOM     25  C   UNL A   1      37.194  23.498  25.052  1.00  0.00     0.116 C 
BRANCH  25  26
ATOM     26  N   UNL A   1      38.351  22.664  25.370  1.00  0.00    -0.352 N 
ATOM     27  C   UNL A   1      39.454  22.979  26.131  1.00  0.00     0.251 C 
ATOM     28  H   UNL A   1      38.341  21.757  24.990  1.00  0.00     0.163 HD
ATOM     29  O   UNL A   1      40.382  22.183  26.250  1.00  0.00    -0.269 OA
BRANCH  27  30
ATOM     30  C   UNL A   1      39.517  24.313  26.757  1.00  0.00     0.039 A 
ATOM     31  C   UNL A   1      38.953  24.504  28.020  1.00  0.00     0.014 A 
ATOM     32  C   UNL A   1      40.261  25.324  26.148  1.00  0.00     0.014 A 
ATOM     33  C   UNL A   1      39.230  25.680  28.717  1.00  0.00     0.010 A 
ATOM     34  C   UNL A   1      40.637  26.428  26.893  1.00  0.00     0.010 A 
ATOM     35  C   UNL A   1      40.123  26.624  28.184  1.00  0.00    -0.014 A 
BRANCH  35  36
ATOM     36  C   UNL A   1      40.524  27.840  28.934  1.00  0.00     0.031 A 
ATOM     37  C   UNL A   1      41.865  27.873  29.620  1.00  0.00     0.074 A 
ATOM     38  C   UNL A   1      39.657  28.862  29.083  1.00  0.00     0.049 A 
ATOM     39  N   UNL A   1      42.358  28.779  30.423  1.00  0.00    -0.248 NA
ATOM     40  C   UNL A   1      42.746  26.710  29.414  1.00  0.00     0.031 C 
ATOM     41  C   UNL A   1      38.301  28.921  28.528  1.00  0.00     0.029 A 
ATOM     42  N   UNL A   1      39.788  30.051  29.754  1.00  0.00    -0.354 N 
ATOM     43  C   UNL A   1      43.581  28.273  30.849  1.00  0.00     0.074 A 
ATOM     44  C   UNL A   1      43.726  26.958  30.268  1.00  0.00     0.031 C 
ATOM     45  C   UNL A   1      37.744  30.101  28.848  1.00  0.00     0.029 A 
ATOM     46  C   UNL A   1      38.683  30.866  29.661  1.00  0.00     0.049 A 
ATOM     47  H   UNL A   1      40.598  30.299  30.257  1.00  0.00     0.167 HD
ATOM     48  C   UNL A   1      44.518  28.863  31.627  1.00  0.00     0.031 A 
ATOM     49  C   UNL A   1      38.457  32.092  30.170  1.00  0.00     0.031 A 
ATOM     50  C   UNL A   1      44.396  30.193  32.153  1.00  0.00     0.049 A 
ATOM     51  C   UNL A   1      39.536  32.753  30.981  1.00  0.00     0.074 A 
ATOM     52  C   UNL A   1      45.320  30.918  32.883  1.00  0.00     0.029 A 
ATOM     53  N   UNL A   1      43.284  31.005  31.987  1.00  0.00    -0.354 N 
ATOM     54  N   UNL A   1      40.714  32.285  31.321  1.00  0.00    -0.248 NA
ATOM     55  C   UNL A   1      39.263  34.113  31.468  1.00  0.00     0.031 C 
ATOM     56  C   UNL A   1      44.753  32.161  33.186  1.00  0.00     0.029 A 
ATOM     57  C   UNL A   1      43.496  32.222  32.607  1.00  0.00     0.049 A 
ATOM     58  H   UNL A   1      42.467  30.751  31.500  1.00  0.00     0.167 HD
ATOM     59  C   UNL A   1      41.332  33.302  32.040  1.00  0.00     0.074 A 
ATOM     60  C   UNL A   1      40.403  34.414  32.074  1.00  0.00     0.031 C 
ATOM     61  C   UNL A   1      42.557  33.315  32.621  1.00  0.00     0.031 A 
BRANCH  48  62
ATOM     62  C   UNL A   1      45.760  28.068  31.932  1.00  0.00    -0.014 A 
ATOM     63  C   UNL A   1      45.832  27.248  33.073  1.00  0.00     0.010 A 
ATOM     64  C   UNL A   1      46.868  28.140  31.069  1.00  0.00     0.010 A 
ATOM     65  C   UNL A   1      47.008  26.558  33.375  1.00  0.00     0.020 A 
ATOM     66  C   UNL A   1      48.036  27.428  31.352  1.00  0.00     0.020 A 
ATOM     67  C   UNL A   1      48.106  26.658  32.516  1.00  0.00     0.054 A 
BRANCH  67  68
ATOM     68  S   UNL A   1      49.618  25.747  32.928  1.00  0.00     0.124 S 
ATOM     69  O   UNL A   1      49.907  25.063  31.670  1.00  0.00    -0.237 OA
ATOM     70  O   UNL A   1      50.548  26.813  33.290  1.00  0.00    -0.237 OA
ATOM     71  O   UNL A   1      49.210  24.880  34.030  1.00  0.00    -0.744 OA
ENDBRANCH  67  68
ENDBRANCH  48  62
BRANCH  49  72
ATOM     72  C   UNL A   1      37.172  32.790  29.892  1.00  0.00    -0.014 A 
ATOM     73  C   UNL A   1      36.129  32.755  30.835  1.00  0.00     0.010 A 
ATOM     74  C   UNL A   1      36.986  33.504  28.695  1.00  0.00     0.010 A 
ATOM     75  C   UNL A   1      34.919  33.406  30.580  1.00  0.00     0.020 A 
ATOM     76  C   UNL A   1      35.785  34.176  28.447  1.00  0.00     0.020 A 
ATOM     77  C   UNL A   1      34.755  34.113  29.386  1.00  0.00     0.054 A 
BRANCH  77  78
ATOM     78  S   UNL A   1      33.195  34.995  29.098  1.00  0.00     0.124 S 
ATOM     79  O   UNL A   1      33.663  36.304  28.656  1.00  0.00    -0.237 OA
ATOM     80  O   UNL A   1      32.551  34.174  28.074  1.00  0.00    -0.237 OA
ATOM     81  O   UNL A   1      32.543  34.969  30.406  1.00  0.00    -0.744 OA
ENDBRANCH  77  78
ENDBRANCH  49  72
BRANCH  61  82
ATOM     82  C   UNL A   1      42.977  34.580  33.315  1.00  0.00    -0.014 A 
ATOM     83  C   UNL A   1      42.935  34.685  34.715  1.00  0.00     0.010 A 
ATOM     84  C   UNL A   1      43.483  35.650  32.556  1.00  0.00     0.010 A 
ATOM     85  C   UNL A   1      43.369  35.853  35.346  1.00  0.00     0.020 A 
ATOM     86  C   UNL A   1      43.941  36.810  33.184  1.00  0.00     0.020 A 
ATOM     87  C   UNL A   1      43.869  36.909  34.575  1.00  0.00     0.054 A 
BRANCH  87  88
ATOM     88  S   UNL A   1      44.477  38.396  35.418  1.00  0.00     0.124 S 
ATOM     89  O   UNL A   1      45.909  38.332  35.147  1.00  0.00    -0.237 OA
ATOM     90  O   UNL A   1      43.754  39.469  34.738  1.00  0.00    -0.237 OA
ATOM     91  O   UNL A   1      44.094  38.183  36.812  1.00  0.00    -0.744 OA
ENDBRANCH  87  88
ENDBRANCH  61  82
ENDBRANCH  35  36
ENDBRANCH  27  30
ENDBRANCH  25  26
ENDBRANCH  24  25
ENDBRANCH   1  24
TORSDOF 17
ENDMDL
