MODEL 1
REMARK VINA RESULT:     -11.5      0.000      0.000
REMARK SMILES N#C/C(=C/c1cccc(OCC(=O)NCCCCNC(=O)c2ccc(-c3c4nc(c(-c5ccc(S(=O)(=O)[O-])cc5)c5ccc([nH]5)c(-c5ccc(S(=O)(=O)[O-])cc5)c5nc(c(-c6ccc(S(=O)(=O)[O-])cc6)c6ccc3[nH]6)C=C5)C=C4)cc2)c1)c1nc2ccccc2[nH]1
REMARK SMILES IDX 16 1 15 2 14 3 12 4 13 5 11 7 10 8 9 9 5 10 6 11 82 12 7 13
REMARK SMILES IDX 8 14 4 15 3 16 2 17 1 18 83 19 84 20 91 21 85 22 90 23 86 25
REMARK SMILES IDX 89 26 87 27 88 28 17 29 18 30 19 31 20 32 21 34 22 35 23 36
REMARK SMILES IDX 81 37 24 38 80 39 25 40 26 41 27 42 74 43 28 44 79 45 73 46
REMARK SMILES IDX 75 47 29 48 78 49 72 50 71 51 30 53 60 54 41 55 59 56 42 57
REMARK SMILES IDX 45 58 58 59 76 60 43 61 44 62 57 64 77 65 46 66 31 67 32 68
REMARK SMILES IDX 40 69 33 70 39 71 34 72 35 73 36 74 37 75 38 76 61 77 62 78
REMARK SMILES IDX 70 79 63 80 69 81 64 82 65 83 66 84 67 85 68 86 47 87 48 88
REMARK SMILES IDX 56 89 49 90 55 91 50 92 51 93 52 94 53 95 54 96
REMARK H PARENT 14 6 91 24 19 33 75 52 45 63
REMARK Flexibility Score: inf
ROOT
ATOM      1  C   UNL A   1      33.553  28.745  24.317  1.00  0.00     0.023 C 
ENDROOT
BRANCH   1   2
ATOM      2  C   UNL A   1      32.730  28.634  23.034  1.00  0.00     0.116 C 
BRANCH   2   3
ATOM      3  N   UNL A   1      33.282  27.761  22.013  1.00  0.00    -0.353 N 
ATOM      4  C   UNL A   1      32.908  26.478  21.711  1.00  0.00     0.257 C 
ATOM      5  O   UNL A   1      33.252  25.972  20.640  1.00  0.00    -0.271 OA
ATOM      6  H   UNL A   1      34.013  28.137  21.472  1.00  0.00     0.163 HD
BRANCH   4   7
ATOM      7  C   UNL A   1      32.024  25.689  22.682  1.00  0.00     0.329 C 
BRANCH   7   8
ATOM      8  O   UNL A   1      31.707  24.357  22.316  1.00  0.00    -0.484 OA
BRANCH   8   9
ATOM      9  C   UNL A   1      31.645  23.414  23.305  1.00  0.00     0.120 A 
ATOM     10  C   UNL A   1      32.088  21.273  24.382  1.00  0.00    -0.021 A 
ATOM     11  C   UNL A   1      31.435  21.723  25.533  1.00  0.00     0.008 A 
ATOM     12  C   UNL A   1      32.167  22.117  23.259  1.00  0.00     0.054 A 
ATOM     13  C   UNL A   1      30.885  23.005  25.572  1.00  0.00     0.004 A 
ATOM     14  C   UNL A   1      30.994  23.843  24.463  1.00  0.00     0.046 A 
BRANCH  10  15
ATOM     15  C   UNL A   1      32.673  19.920  24.371  1.00  0.00     0.031 C 
ATOM     16  C   UNL A   1      33.950  19.602  24.666  1.00  0.00     0.095 C 
BRANCH  16  17
ATOM     17  C   UNL A   1      34.405  18.153  24.612  1.00  0.00     0.103 C 
ATOM     18  N   UNL A   1      34.783  16.952  24.568  1.00  0.00    -0.192 NA
ENDBRANCH  16  17
BRANCH  16  19
ATOM     19  C   UNL A   1      34.894  20.579  25.091  1.00  0.00     0.149 A 
ATOM     20  N   UNL A   1      34.722  21.824  25.489  1.00  0.00    -0.228 NA
ATOM     21  N   UNL A   1      36.234  20.251  25.107  1.00  0.00    -0.337 N 
ATOM     22  C   UNL A   1      35.980  22.320  25.730  1.00  0.00     0.089 A 
ATOM     23  C   UNL A   1      36.950  21.361  25.474  1.00  0.00     0.066 A 
ATOM     24  H   UNL A   1      36.612  19.368  24.890  1.00  0.00     0.168 HD
ATOM     25  C   UNL A   1      36.379  23.592  26.157  1.00  0.00     0.030 A 
ATOM     26  C   UNL A   1      38.321  21.607  25.578  1.00  0.00     0.028 A 
ATOM     27  C   UNL A   1      37.749  23.875  26.257  1.00  0.00     0.002 A 
ATOM     28  C   UNL A   1      38.701  22.898  25.960  1.00  0.00     0.002 A 
ENDBRANCH  16  19
ENDBRANCH  10  15
ENDBRANCH   8   9
ENDBRANCH   7   8
ENDBRANCH   4   7
ENDBRANCH   2   3
ENDBRANCH   1   2
BRANCH   1  29
ATOM     29  C   UNL A   1      33.143  27.895  25.527  1.00  0.00     0.023 C 
BRANCH  29  30
ATOM     30  C   UNL A   1      33.767  28.200  26.888  1.00  0.00     0.116 C 
BRANCH  30  31
ATOM     31  N   UNL A   1      33.572  29.575  27.318  1.00  0.00    -0.352 N 
ATOM     32  C   UNL A   1      34.425  30.401  28.011  1.00  0.00     0.251 C 
ATOM     33  H   UNL A   1      32.704  29.972  27.078  1.00  0.00     0.163 HD
ATOM     34  O   UNL A   1      34.004  31.494  28.408  1.00  0.00    -0.269 OA
BRANCH  32  35
ATOM     35  C   UNL A   1      35.827  30.012  28.317  1.00  0.00     0.039 A 
ATOM     36  C   UNL A   1      36.781  30.086  27.295  1.00  0.00     0.014 A 
ATOM     37  C   UNL A   1      36.207  29.519  29.570  1.00  0.00     0.014 A 
ATOM     38  C   UNL A   1      38.112  29.718  27.538  1.00  0.00     0.010 A 
ATOM     39  C   UNL A   1      37.549  29.196  29.824  1.00  0.00     0.010 A 
ATOM     40  C   UNL A   1      38.517  29.288  28.813  1.00  0.00    -0.014 A 
BRANCH  40  41
ATOM     41  C   UNL A   1      39.946  28.951  29.085  1.00  0.00     0.031 A 
ATOM     42  C   UNL A   1      40.880  29.962  29.701  1.00  0.00     0.074 A 
ATOM     43  C   UNL A   1      40.423  27.732  28.756  1.00  0.00     0.049 A 
ATOM     44  N   UNL A   1      42.147  29.834  30.012  1.00  0.00    -0.248 NA
ATOM     45  C   UNL A   1      40.324  31.291  29.994  1.00  0.00     0.031 C 
ATOM     46  C   UNL A   1      39.644  26.662  28.130  1.00  0.00     0.029 A 
ATOM     47  N   UNL A   1      41.676  27.186  28.903  1.00  0.00    -0.354 N 
ATOM     48  C   UNL A   1      42.541  31.063  30.530  1.00  0.00     0.074 A 
ATOM     49  C   UNL A   1      41.389  31.937  30.450  1.00  0.00     0.031 C 
ATOM     50  C   UNL A   1      40.429  25.584  27.970  1.00  0.00     0.029 A 
ATOM     51  C   UNL A   1      41.774  25.891  28.447  1.00  0.00     0.049 A 
ATOM     52  H   UNL A   1      42.433  27.676  29.298  1.00  0.00     0.167 HD
ATOM     53  C   UNL A   1      43.743  31.431  31.040  1.00  0.00     0.031 A 
ATOM     54  C   UNL A   1      42.822  25.044  28.412  1.00  0.00     0.031 A 
ATOM     55  C   UNL A   1      44.894  30.568  31.123  1.00  0.00     0.049 A 
ATOM     56  C   UNL A   1      44.154  25.482  28.961  1.00  0.00     0.074 A 
ATOM     57  C   UNL A   1      46.136  30.842  31.669  1.00  0.00     0.029 A 
ATOM     58  N   UNL A   1      44.951  29.269  30.640  1.00  0.00    -0.354 N 
ATOM     59  N   UNL A   1      44.483  26.627  29.508  1.00  0.00    -0.248 NA
ATOM     60  C   UNL A   1      45.252  24.506  28.900  1.00  0.00     0.031 C 
ATOM     61  C   UNL A   1      46.961  29.730  31.469  1.00  0.00     0.029 A 
ATOM     62  C   UNL A   1      46.215  28.740  30.852  1.00  0.00     0.049 A 
ATOM     63  H   UNL A   1      44.204  28.792  30.212  1.00  0.00     0.167 HD
ATOM     64  C   UNL A   1      45.817  26.499  29.881  1.00  0.00     0.074 A 
ATOM     65  C   UNL A   1      46.230  25.161  29.509  1.00  0.00     0.031 C 
ATOM     66  C   UNL A   1      46.624  27.409  30.479  1.00  0.00     0.031 A 
BRANCH  53  67
ATOM     67  C   UNL A   1      43.883  32.845  31.546  1.00  0.00    -0.014 A 
ATOM     68  C   UNL A   1      43.621  33.166  32.890  1.00  0.00     0.010 A 
ATOM     69  C   UNL A   1      44.331  33.858  30.677  1.00  0.00     0.010 A 
ATOM     70  C   UNL A   1      43.759  34.481  33.345  1.00  0.00     0.020 A 
ATOM     71  C   UNL A   1      44.497  35.169  31.135  1.00  0.00     0.020 A 
ATOM     72  C   UNL A   1      44.190  35.475  32.462  1.00  0.00     0.054 A 
BRANCH  72  73
ATOM     73  S   UNL A   1      44.369  37.171  33.081  1.00  0.00     0.124 S 
ATOM     74  O   UNL A   1      43.127  37.349  33.830  1.00  0.00    -0.237 OA
ATOM     75  O   UNL A   1      45.582  37.090  33.893  1.00  0.00    -0.237 OA
ATOM     76  O   UNL A   1      44.486  37.974  31.869  1.00  0.00    -0.744 OA
ENDBRANCH  72  73
ENDBRANCH  53  67
BRANCH  54  77
ATOM     77  C   UNL A   1      42.651  23.678  27.842  1.00  0.00    -0.014 A 
ATOM     78  C   UNL A   1      42.126  22.636  28.626  1.00  0.00     0.010 A 
ATOM     79  C   UNL A   1      43.006  23.415  26.506  1.00  0.00     0.010 A 
ATOM     80  C   UNL A   1      41.972  21.354  28.089  1.00  0.00     0.020 A 
ATOM     81  C   UNL A   1      42.826  22.142  25.958  1.00  0.00     0.020 A 
ATOM     82  C   UNL A   1      42.320  21.116  26.757  1.00  0.00     0.054 A 
BRANCH  82  83
ATOM     83  S   UNL A   1      42.057  19.460  26.066  1.00  0.00     0.124 S 
ATOM     84  O   UNL A   1      42.554  18.601  27.136  1.00  0.00    -0.237 OA
ATOM     85  O   UNL A   1      40.611  19.432  25.853  1.00  0.00    -0.237 OA
ATOM     86  O   UNL A   1      42.858  19.467  24.844  1.00  0.00    -0.744 OA
ENDBRANCH  82  83
ENDBRANCH  54  77
BRANCH  66  87
ATOM     87  C   UNL A   1      48.034  26.986  30.805  1.00  0.00    -0.014 A 
ATOM     88  C   UNL A   1      49.102  27.262  29.934  1.00  0.00     0.010 A 
ATOM     89  C   UNL A   1      48.301  26.348  32.032  1.00  0.00     0.010 A 
ATOM     90  C   UNL A   1      50.405  26.882  30.268  1.00  0.00     0.020 A 
ATOM     91  C   UNL A   1      49.606  25.990  32.382  1.00  0.00     0.020 A 
ATOM     92  C   UNL A   1      50.650  26.248  31.490  1.00  0.00     0.054 A 
BRANCH  92  93
ATOM     93  S   UNL A   1      52.356  25.806  31.921  1.00  0.00     0.124 S 
ATOM     94  O   UNL A   1      52.207  24.427  32.376  1.00  0.00    -0.237 OA
ATOM     95  O   UNL A   1      53.062  25.977  30.655  1.00  0.00    -0.237 OA
ATOM     96  O   UNL A   1      52.712  26.770  32.960  1.00  0.00    -0.744 OA
ENDBRANCH  92  93
ENDBRANCH  66  87
ENDBRANCH  40  41
ENDBRANCH  32  35
ENDBRANCH  30  31
ENDBRANCH  29  30
ENDBRANCH   1  29
TORSDOF 19
ENDMDL
MODEL 2
REMARK VINA RESULT:     -11.3      0.756      2.144
REMARK SMILES N#C/C(=C/c1cccc(OCC(=O)NCCCCNC(=O)c2ccc(-c3c4nc(c(-c5ccc(S(=O)(=O)[O-])cc5)c5ccc([nH]5)c(-c5ccc(S(=O)(=O)[O-])cc5)c5nc(c(-c6ccc(S(=O)(=O)[O-])cc6)c6ccc3[nH]6)C=C5)C=C4)cc2)c1)c1nc2ccccc2[nH]1
REMARK SMILES IDX 16 1 15 2 14 3 12 4 13 5 11 7 10 8 9 9 5 10 6 11 82 12 7 13
REMARK SMILES IDX 8 14 4 15 3 16 2 17 1 18 83 19 84 20 91 21 85 22 90 23 86 25
REMARK SMILES IDX 89 26 87 27 88 28 17 29 18 30 19 31 20 32 21 34 22 35 23 36
REMARK SMILES IDX 81 37 24 38 80 39 25 40 26 41 27 42 74 43 28 44 79 45 73 46
REMARK SMILES IDX 75 47 29 48 78 49 72 50 71 51 30 53 60 54 41 55 59 56 42 57
REMARK SMILES IDX 45 58 58 59 76 60 43 61 44 62 57 64 77 65 46 66 31 67 32 68
REMARK SMILES IDX 40 69 33 70 39 71 34 72 35 73 36 74 37 75 38 76 61 77 62 78
REMARK SMILES IDX 70 79 63 80 69 81 64 82 65 83 66 84 67 85 68 86 47 87 48 88
REMARK SMILES IDX 56 89 49 90 55 91 50 92 51 93 52 94 53 95 54 96
REMARK H PARENT 14 6 91 24 19 33 75 52 45 63
REMARK Flexibility Score: inf
ROOT
ATOM      1  C   UNL A   1      33.843  28.700  24.269  1.00  0.00     0.023 C 
ENDROOT
BRANCH   1   2
ATOM      2  C   UNL A   1      33.145  28.662  22.909  1.00  0.00     0.116 C 
BRANCH   2   3
ATOM      3  N   UNL A   1      33.551  27.579  22.031  1.00  0.00    -0.353 N 
ATOM      4  C   UNL A   1      32.810  26.499  21.630  1.00  0.00     0.257 C 
ATOM      5  O   UNL A   1      33.173  25.828  20.660  1.00  0.00    -0.271 OA
ATOM      6  H   UNL A   1      34.469  27.627  21.682  1.00  0.00     0.163 HD
BRANCH   4   7
ATOM      7  C   UNL A   1      31.505  26.153  22.355  1.00  0.00     0.329 C 
BRANCH   7   8
ATOM      8  O   UNL A   1      31.401  24.843  22.888  1.00  0.00    -0.484 OA
BRANCH   8   9
ATOM      9  C   UNL A   1      32.058  24.569  24.056  1.00  0.00     0.120 A 
ATOM     10  C   UNL A   1      33.965  24.028  25.473  1.00  0.00    -0.021 A 
ATOM     11  C   UNL A   1      33.151  24.140  26.603  1.00  0.00     0.008 A 
ATOM     12  C   UNL A   1      33.405  24.219  24.197  1.00  0.00     0.054 A 
ATOM     13  C   UNL A   1      31.799  24.458  26.466  1.00  0.00     0.004 A 
ATOM     14  C   UNL A   1      31.260  24.672  25.198  1.00  0.00     0.046 A 
BRANCH  10  15
ATOM     15  C   UNL A   1      35.394  23.705  25.646  1.00  0.00     0.031 C 
ATOM     16  C   UNL A   1      35.955  22.485  25.527  1.00  0.00     0.095 C 
BRANCH  16  17
ATOM     17  C   UNL A   1      37.450  22.312  25.733  1.00  0.00     0.103 C 
ATOM     18  N   UNL A   1      38.691  22.169  25.904  1.00  0.00    -0.192 NA
ENDBRANCH  16  17
BRANCH  16  19
ATOM     19  C   UNL A   1      35.200  21.338  25.152  1.00  0.00     0.149 A 
ATOM     20  N   UNL A   1      33.912  21.200  24.904  1.00  0.00    -0.228 NA
ATOM     21  N   UNL A   1      35.846  20.128  25.015  1.00  0.00    -0.337 N 
ATOM     22  C   UNL A   1      33.719  19.867  24.640  1.00  0.00     0.089 A 
ATOM     23  C   UNL A   1      34.913  19.165  24.727  1.00  0.00     0.066 A 
ATOM     24  H   UNL A   1      36.816  19.980  25.110  1.00  0.00     0.168 HD
ATOM     25  C   UNL A   1      32.544  19.172  24.330  1.00  0.00     0.030 A 
ATOM     26  C   UNL A   1      35.006  17.781  24.564  1.00  0.00     0.028 A 
ATOM     27  C   UNL A   1      32.602  17.779  24.175  1.00  0.00     0.002 A 
ATOM     28  C   UNL A   1      33.813  17.098  24.301  1.00  0.00     0.002 A 
ENDBRANCH  16  19
ENDBRANCH  10  15
ENDBRANCH   8   9
ENDBRANCH   7   8
ENDBRANCH   4   7
ENDBRANCH   2   3
ENDBRANCH   1   2
BRANCH   1  29
ATOM     29  C   UNL A   1      33.230  27.908  25.431  1.00  0.00     0.023 C 
BRANCH  29  30
ATOM     30  C   UNL A   1      33.726  28.177  26.850  1.00  0.00     0.116 C 
BRANCH  30  31
ATOM     31  N   UNL A   1      33.526  29.550  27.282  1.00  0.00    -0.352 N 
ATOM     32  C   UNL A   1      34.377  30.380  27.973  1.00  0.00     0.251 C 
ATOM     33  H   UNL A   1      32.656  29.944  27.045  1.00  0.00     0.163 HD
ATOM     34  O   UNL A   1      33.953  31.471  28.372  1.00  0.00    -0.269 OA
BRANCH  32  35
ATOM     35  C   UNL A   1      35.783  29.997  28.273  1.00  0.00     0.039 A 
ATOM     36  C   UNL A   1      36.733  30.078  27.249  1.00  0.00     0.014 A 
ATOM     37  C   UNL A   1      36.169  29.504  29.524  1.00  0.00     0.014 A 
ATOM     38  C   UNL A   1      38.067  29.716  27.487  1.00  0.00     0.010 A 
ATOM     39  C   UNL A   1      37.513  29.187  29.774  1.00  0.00     0.010 A 
ATOM     40  C   UNL A   1      38.478  29.286  28.759  1.00  0.00    -0.014 A 
BRANCH  40  41
ATOM     41  C   UNL A   1      39.909  28.955  29.026  1.00  0.00     0.031 A 
ATOM     42  C   UNL A   1      40.841  29.971  29.636  1.00  0.00     0.074 A 
ATOM     43  C   UNL A   1      40.389  27.737  28.699  1.00  0.00     0.049 A 
ATOM     44  N   UNL A   1      42.110  29.850  29.942  1.00  0.00    -0.248 NA
ATOM     45  C   UNL A   1      40.282  31.299  29.928  1.00  0.00     0.031 C 
ATOM     46  C   UNL A   1      39.612  26.662  28.079  1.00  0.00     0.029 A 
ATOM     47  N   UNL A   1      41.645  27.197  28.842  1.00  0.00    -0.354 N 
ATOM     48  C   UNL A   1      42.502  31.081  30.455  1.00  0.00     0.074 A 
ATOM     49  C   UNL A   1      41.346  31.950  30.378  1.00  0.00     0.031 C 
ATOM     50  C   UNL A   1      40.401  25.587  27.918  1.00  0.00     0.029 A 
ATOM     51  C   UNL A   1      41.747  25.901  28.389  1.00  0.00     0.049 A 
ATOM     52  H   UNL A   1      42.402  27.691  29.233  1.00  0.00     0.167 HD
ATOM     53  C   UNL A   1      43.704  31.455  30.960  1.00  0.00     0.031 A 
ATOM     54  C   UNL A   1      42.799  25.058  28.351  1.00  0.00     0.031 A 
ATOM     55  C   UNL A   1      44.859  30.597  31.040  1.00  0.00     0.049 A 
ATOM     56  C   UNL A   1      44.131  25.503  28.894  1.00  0.00     0.074 A 
ATOM     57  C   UNL A   1      46.102  30.878  31.580  1.00  0.00     0.029 A 
ATOM     58  N   UNL A   1      44.920  29.298  30.560  1.00  0.00    -0.354 N 
ATOM     59  N   UNL A   1      44.457  26.651  29.437  1.00  0.00    -0.248 NA
ATOM     60  C   UNL A   1      45.233  24.531  28.830  1.00  0.00     0.031 C 
ATOM     61  C   UNL A   1      46.931  29.769  31.379  1.00  0.00     0.029 A 
ATOM     62  C   UNL A   1      46.186  28.774  30.768  1.00  0.00     0.049 A 
ATOM     63  H   UNL A   1      44.172  28.817  30.136  1.00  0.00     0.167 HD
ATOM     64  C   UNL A   1      45.794  26.529  29.804  1.00  0.00     0.074 A 
ATOM     65  C   UNL A   1      46.210  25.192  29.434  1.00  0.00     0.031 C 
ATOM     66  C   UNL A   1      46.599  27.444  30.397  1.00  0.00     0.031 A 
BRANCH  53  67
ATOM     67  C   UNL A   1      43.841  32.872  31.461  1.00  0.00    -0.014 A 
ATOM     68  C   UNL A   1      43.652  33.183  32.820  1.00  0.00     0.010 A 
ATOM     69  C   UNL A   1      44.211  33.897  30.571  1.00  0.00     0.010 A 
ATOM     70  C   UNL A   1      43.785  34.499  33.270  1.00  0.00     0.020 A 
ATOM     71  C   UNL A   1      44.372  35.210  31.022  1.00  0.00     0.020 A 
ATOM     72  C   UNL A   1      44.139  35.506  32.367  1.00  0.00     0.054 A 
BRANCH  72  73
ATOM     73  S   UNL A   1      44.315  37.204  32.980  1.00  0.00     0.124 S 
ATOM     74  O   UNL A   1      45.512  37.100  33.812  1.00  0.00    -0.237 OA
ATOM     75  O   UNL A   1      44.473  37.976  31.749  1.00  0.00    -0.237 OA
ATOM     76  O   UNL A   1      43.072  37.443  33.706  1.00  0.00    -0.744 OA
ENDBRANCH  72  73
ENDBRANCH  53  67
BRANCH  54  77
ATOM     77  C   UNL A   1      42.631  23.691  27.786  1.00  0.00    -0.014 A 
ATOM     78  C   UNL A   1      42.265  22.613  28.613  1.00  0.00     0.010 A 
ATOM     79  C   UNL A   1      42.827  23.460  26.412  1.00  0.00     0.010 A 
ATOM     80  C   UNL A   1      42.114  21.330  28.079  1.00  0.00     0.020 A 
ATOM     81  C   UNL A   1      42.649  22.184  25.870  1.00  0.00     0.020 A 
ATOM     82  C   UNL A   1      42.304  21.124  26.710  1.00  0.00     0.054 A 
BRANCH  82  83
ATOM     83  S   UNL A   1      42.045  19.462  26.031  1.00  0.00     0.124 S 
ATOM     84  O   UNL A   1      42.887  19.486  24.839  1.00  0.00    -0.237 OA
ATOM     85  O   UNL A   1      42.510  18.600  27.116  1.00  0.00    -0.237 OA
ATOM     86  O   UNL A   1      40.606  19.414  25.781  1.00  0.00    -0.744 OA
ENDBRANCH  82  83
ENDBRANCH  54  77
BRANCH  66  87
ATOM     87  C   UNL A   1      48.012  27.027  30.718  1.00  0.00    -0.014 A 
ATOM     88  C   UNL A   1      49.099  27.456  29.936  1.00  0.00     0.010 A 
ATOM     89  C   UNL A   1      48.261  26.236  31.856  1.00  0.00     0.010 A 
ATOM     90  C   UNL A   1      50.403  27.078  30.267  1.00  0.00     0.020 A 
ATOM     91  C   UNL A   1      49.566  25.878  32.206  1.00  0.00     0.020 A 
ATOM     92  C   UNL A   1      50.629  26.290  31.400  1.00  0.00     0.054 A 
BRANCH  92  93
ATOM     93  S   UNL A   1      52.335  25.851  31.834  1.00  0.00     0.124 S 
ATOM     94  O   UNL A   1      52.672  26.876  32.818  1.00  0.00    -0.237 OA
ATOM     95  O   UNL A   1      52.193  24.496  32.362  1.00  0.00    -0.237 OA
ATOM     96  O   UNL A   1      53.051  25.945  30.564  1.00  0.00    -0.744 OA
ENDBRANCH  92  93
ENDBRANCH  66  87
ENDBRANCH  40  41
ENDBRANCH  32  35
ENDBRANCH  30  31
ENDBRANCH  29  30
ENDBRANCH   1  29
TORSDOF 19
ENDMDL
MODEL 3
REMARK VINA RESULT:     -11.1      4.475     10.413
REMARK SMILES N#C/C(=C/c1cccc(OCC(=O)NCCCCNC(=O)c2ccc(-c3c4nc(c(-c5ccc(S(=O)(=O)[O-])cc5)c5ccc([nH]5)c(-c5ccc(S(=O)(=O)[O-])cc5)c5nc(c(-c6ccc(S(=O)(=O)[O-])cc6)c6ccc3[nH]6)C=C5)C=C4)cc2)c1)c1nc2ccccc2[nH]1
REMARK SMILES IDX 16 1 15 2 14 3 12 4 13 5 11 7 10 8 9 9 5 10 6 11 82 12 7 13
REMARK SMILES IDX 8 14 4 15 3 16 2 17 1 18 83 19 84 20 91 21 85 22 90 23 86 25
REMARK SMILES IDX 89 26 87 27 88 28 17 29 18 30 19 31 20 32 21 34 22 35 23 36
REMARK SMILES IDX 81 37 24 38 80 39 25 40 26 41 27 42 74 43 28 44 79 45 73 46
REMARK SMILES IDX 75 47 29 48 78 49 72 50 71 51 30 53 60 54 41 55 59 56 42 57
REMARK SMILES IDX 45 58 58 59 76 60 43 61 44 62 57 64 77 65 46 66 31 67 32 68
REMARK SMILES IDX 40 69 33 70 39 71 34 72 35 73 36 74 37 75 38 76 61 77 62 78
REMARK SMILES IDX 70 79 63 80 69 81 64 82 65 83 66 84 67 85 68 86 47 87 48 88
REMARK SMILES IDX 56 89 49 90 55 91 50 92 51 93 52 94 53 95 54 96
REMARK H PARENT 14 6 91 24 19 33 75 52 45 63
REMARK Flexibility Score: inf
ROOT
ATOM      1  C   UNL A   1      38.646  23.261  26.472  1.00  0.00     0.023 C 
ENDROOT
BRANCH   1   2
ATOM      2  C   UNL A   1      37.375  22.627  25.908  1.00  0.00     0.116 C 
BRANCH   2   3
ATOM      3  N   UNL A   1      37.349  22.460  24.465  1.00  0.00    -0.353 N 
ATOM      4  C   UNL A   1      36.399  22.904  23.584  1.00  0.00     0.257 C 
ATOM      5  O   UNL A   1      36.653  22.953  22.377  1.00  0.00    -0.271 OA
ATOM      6  H   UNL A   1      38.107  21.969  24.074  1.00  0.00     0.163 HD
BRANCH   4   7
ATOM      7  C   UNL A   1      35.040  23.385  24.100  1.00  0.00     0.329 C 
BRANCH   7   8
ATOM      8  O   UNL A   1      33.995  23.484  23.147  1.00  0.00    -0.484 OA
BRANCH   8   9
ATOM      9  C   UNL A   1      32.873  24.188  23.490  1.00  0.00     0.120 A 
ATOM     10  C   UNL A   1      31.152  25.897  23.264  1.00  0.00    -0.021 A 
ATOM     11  C   UNL A   1      30.496  25.378  24.384  1.00  0.00     0.008 A 
ATOM     12  C   UNL A   1      32.357  25.312  22.837  1.00  0.00     0.054 A 
ATOM     13  C   UNL A   1      31.024  24.276  25.058  1.00  0.00     0.004 A 
ATOM     14  C   UNL A   1      32.205  23.686  24.610  1.00  0.00     0.046 A 
BRANCH  10  15
ATOM     15  C   UNL A   1      30.566  27.053  22.560  1.00  0.00     0.031 C 
ATOM     16  C   UNL A   1      30.766  28.352  22.859  1.00  0.00     0.095 C 
BRANCH  16  17
ATOM     17  C   UNL A   1      30.090  29.435  22.034  1.00  0.00     0.103 C 
ATOM     18  N   UNL A   1      29.530  30.333  21.351  1.00  0.00    -0.192 NA
ENDBRANCH  16  17
BRANCH  16  19
ATOM     19  C   UNL A   1      31.647  28.763  23.899  1.00  0.00     0.149 A 
ATOM     20  N   UNL A   1      32.833  28.307  24.250  1.00  0.00    -0.228 NA
ATOM     21  N   UNL A   1      31.265  29.796  24.729  1.00  0.00    -0.337 N 
ATOM     22  C   UNL A   1      33.207  29.035  25.352  1.00  0.00     0.089 A 
ATOM     23  C   UNL A   1      32.230  29.961  25.691  1.00  0.00     0.066 A 
ATOM     24  H   UNL A   1      30.439  30.325  24.646  1.00  0.00     0.168 HD
ATOM     25  C   UNL A   1      34.365  28.955  26.134  1.00  0.00     0.030 A 
ATOM     26  C   UNL A   1      32.316  30.798  26.806  1.00  0.00     0.028 A 
ATOM     27  C   UNL A   1      34.475  29.771  27.269  1.00  0.00     0.002 A 
ATOM     28  C   UNL A   1      33.460  30.669  27.601  1.00  0.00     0.002 A 
ENDBRANCH  16  19
ENDBRANCH  10  15
ENDBRANCH   8   9
ENDBRANCH   7   8
ENDBRANCH   4   7
ENDBRANCH   2   3
ENDBRANCH   1   2
BRANCH   1  29
ATOM     29  C   UNL A   1      39.887  22.378  26.656  1.00  0.00     0.023 C 
BRANCH  29  30
ATOM     30  C   UNL A   1      41.217  23.039  27.016  1.00  0.00     0.116 C 
BRANCH  30  31
ATOM     31  N   UNL A   1      41.740  23.895  25.964  1.00  0.00    -0.352 N 
ATOM     32  C   UNL A   1      41.891  25.261  25.947  1.00  0.00     0.251 C 
ATOM     33  H   UNL A   1      42.029  23.429  25.147  1.00  0.00     0.163 HD
ATOM     34  O   UNL A   1      42.222  25.811  24.889  1.00  0.00    -0.269 OA
BRANCH  32  35
ATOM     35  C   UNL A   1      41.649  26.099  27.152  1.00  0.00     0.039 A 
ATOM     36  C   UNL A   1      42.525  27.157  27.420  1.00  0.00     0.014 A 
ATOM     37  C   UNL A   1      40.614  25.826  28.053  1.00  0.00     0.014 A 
ATOM     38  C   UNL A   1      42.340  27.964  28.551  1.00  0.00     0.010 A 
ATOM     39  C   UNL A   1      40.402  26.663  29.159  1.00  0.00     0.010 A 
ATOM     40  C   UNL A   1      41.262  27.740  29.424  1.00  0.00    -0.014 A 
BRANCH  40  41
ATOM     41  C   UNL A   1      41.032  28.635  30.597  1.00  0.00     0.031 A 
ATOM     42  C   UNL A   1      41.869  28.509  31.845  1.00  0.00     0.074 A 
ATOM     43  C   UNL A   1      40.047  29.557  30.556  1.00  0.00     0.049 A 
ATOM     44  N   UNL A   1      41.810  29.208  32.953  1.00  0.00    -0.248 NA
ATOM     45  C   UNL A   1      42.895  27.457  31.858  1.00  0.00     0.031 C 
ATOM     46  C   UNL A   1      39.141  29.774  29.428  1.00  0.00     0.029 A 
ATOM     47  N   UNL A   1      39.644  30.483  31.488  1.00  0.00    -0.354 N 
ATOM     48  C   UNL A   1      42.783  28.679  33.793  1.00  0.00     0.074 A 
ATOM     49  C   UNL A   1      43.387  27.571  33.084  1.00  0.00     0.031 C 
ATOM     50  C   UNL A   1      38.306  30.784  29.723  1.00  0.00     0.029 A 
ATOM     51  C   UNL A   1      38.591  31.265  31.072  1.00  0.00     0.049 A 
ATOM     52  H   UNL A   1      40.069  30.579  32.371  1.00  0.00     0.167 HD
ATOM     53  C   UNL A   1      43.154  29.083  35.034  1.00  0.00     0.031 A 
ATOM     54  C   UNL A   1      37.923  32.255  31.699  1.00  0.00     0.031 A 
ATOM     55  C   UNL A   1      42.558  30.184  35.747  1.00  0.00     0.049 A 
ATOM     56  C   UNL A   1      38.335  32.671  33.087  1.00  0.00     0.074 A 
ATOM     57  C   UNL A   1      42.903  30.692  36.988  1.00  0.00     0.029 A 
ATOM     58  N   UNL A   1      41.488  30.940  35.293  1.00  0.00    -0.354 N 
ATOM     59  N   UNL A   1      39.304  32.199  33.833  1.00  0.00    -0.248 NA
ATOM     60  C   UNL A   1      37.572  33.762  33.708  1.00  0.00     0.031 C 
ATOM     61  C   UNL A   1      42.010  31.721  37.307  1.00  0.00     0.029 A 
ATOM     62  C   UNL A   1      41.145  31.893  36.239  1.00  0.00     0.049 A 
ATOM     63  H   UNL A   1      41.039  30.820  34.424  1.00  0.00     0.167 HD
ATOM     64  C   UNL A   1      39.284  32.954  35.001  1.00  0.00     0.074 A 
ATOM     65  C   UNL A   1      38.216  33.922  34.856  1.00  0.00     0.031 C 
ATOM     66  C   UNL A   1      40.080  32.854  36.093  1.00  0.00     0.031 A 
BRANCH  53  67
ATOM     67  C   UNL A   1      44.261  28.317  35.716  1.00  0.00    -0.014 A 
ATOM     68  C   UNL A   1      45.605  28.704  35.575  1.00  0.00     0.010 A 
ATOM     69  C   UNL A   1      43.948  27.226  36.548  1.00  0.00     0.010 A 
ATOM     70  C   UNL A   1      46.620  27.987  36.215  1.00  0.00     0.020 A 
ATOM     71  C   UNL A   1      44.957  26.523  37.212  1.00  0.00     0.020 A 
ATOM     72  C   UNL A   1      46.289  26.897  37.025  1.00  0.00     0.054 A 
BRANCH  72  73
ATOM     73  S   UNL A   1      47.625  25.989  37.852  1.00  0.00     0.124 S 
ATOM     74  O   UNL A   1      48.313  25.372  36.720  1.00  0.00    -0.237 OA
ATOM     75  O   UNL A   1      48.366  27.053  38.529  1.00  0.00    -0.237 OA
ATOM     76  O   UNL A   1      46.924  25.064  38.734  1.00  0.00    -0.744 OA
ENDBRANCH  72  73
ENDBRANCH  53  67
BRANCH  54  77
ATOM     77  C   UNL A   1      36.793  32.938  31.010  1.00  0.00    -0.014 A 
ATOM     78  C   UNL A   1      35.461  32.642  31.352  1.00  0.00     0.010 A 
ATOM     79  C   UNL A   1      37.044  33.897  30.011  1.00  0.00     0.010 A 
ATOM     80  C   UNL A   1      34.403  33.281  30.699  1.00  0.00     0.020 A 
ATOM     81  C   UNL A   1      35.989  34.559  29.376  1.00  0.00     0.020 A 
ATOM     82  C   UNL A   1      34.674  34.238  29.717  1.00  0.00     0.054 A 
BRANCH  82  83
ATOM     83  S   UNL A   1      33.286  35.096  28.924  1.00  0.00     0.124 S 
ATOM     84  O   UNL A   1      32.787  34.081  28.002  1.00  0.00    -0.237 OA
ATOM     85  O   UNL A   1      32.415  35.403  30.058  1.00  0.00    -0.237 OA
ATOM     86  O   UNL A   1      33.914  36.258  28.299  1.00  0.00    -0.744 OA
ENDBRANCH  82  83
ENDBRANCH  54  77
BRANCH  66  87
ATOM     87  C   UNL A   1      39.857  33.837  37.214  1.00  0.00    -0.014 A 
ATOM     88  C   UNL A   1      40.534  35.069  37.255  1.00  0.00     0.010 A 
ATOM     89  C   UNL A   1      38.912  33.544  38.216  1.00  0.00     0.010 A 
ATOM     90  C   UNL A   1      40.292  35.976  38.291  1.00  0.00     0.020 A 
ATOM     91  C   UNL A   1      38.648  34.460  39.239  1.00  0.00     0.020 A 
ATOM     92  C   UNL A   1      39.351  35.665  39.277  1.00  0.00     0.054 A 
BRANCH  92  93
ATOM     93  S   UNL A   1      39.022  36.878  40.586  1.00  0.00     0.124 S 
ATOM     94  O   UNL A   1      38.189  37.856  39.892  1.00  0.00    -0.237 OA
ATOM     95  O   UNL A   1      38.341  36.079  41.601  1.00  0.00    -0.237 OA
ATOM     96  O   UNL A   1      40.353  37.350  40.964  1.00  0.00    -0.744 OA
ENDBRANCH  92  93
ENDBRANCH  66  87
ENDBRANCH  40  41
ENDBRANCH  32  35
ENDBRANCH  30  31
ENDBRANCH  29  30
ENDBRANCH   1  29
TORSDOF 19
ENDMDL
