MODEL 1
REMARK VINA RESULT:     -11.3      0.000      0.000
REMARK SMILES Cc1ccc(Br)cc1S(=O)(=O)N[C@H]1C=C[C@H](C(=O)NCCCCNC(=O)c2ccc(-c3c4nc(c(-c5ccc(S(=O)(=O)[O-])cc5)c5ccc([nH]5)c(-c5ccc(S(=O)(=O)[O-])cc5)c5nc(c(-c6ccc(S(=O)(=O)[O-])cc6)c6ccc3[nH]6)C=C5)C=C4)cc2)C1
REMARK SMILES IDX 21 1 20 2 19 3 17 4 18 5 16 7 13 8 14 9 87 10 15 11 12 12
REMARK SMILES IDX 9 14 10 15 11 16 8 17 1 18 2 19 3 20 4 21 7 22 5 23 6 24
REMARK SMILES IDX 22 25 23 26 24 27 25 28 26 30 27 31 28 32 86 33 29 34 85 35
REMARK SMILES IDX 30 36 31 37 32 38 79 39 33 40 84 41 78 42 80 43 34 44 83 45
REMARK SMILES IDX 77 46 76 47 35 49 65 50 46 51 64 52 47 53 50 54 63 55 81 56
REMARK SMILES IDX 48 57 49 58 62 60 82 61 51 62 36 63 37 64 45 65 38 66 44 67
REMARK SMILES IDX 39 68 40 69 41 70 42 71 43 72 66 73 67 74 75 75 68 76 74 77
REMARK SMILES IDX 69 78 70 79 71 80 72 81 73 82 52 83 53 84 61 85 54 86 60 87
REMARK SMILES IDX 55 88 56 89 57 90 58 91 59 92
REMARK H PARENT 19 6 12 13 24 29 80 48 50 59
REMARK Flexibility Score: inf
ROOT
ATOM      1  C   UNL A   1      36.041  21.690  24.309  1.00  0.00     0.023 C 
ENDROOT
BRANCH   1   2
ATOM      2  C   UNL A   1      35.112  21.196  25.414  1.00  0.00     0.116 C 
BRANCH   2   3
ATOM      3  N   UNL A   1      34.467  19.949  25.055  1.00  0.00    -0.356 N 
ATOM      4  C   UNL A   1      33.249  19.619  24.564  1.00  0.00     0.226 C 
ATOM      5  O   UNL A   1      33.006  18.406  24.498  1.00  0.00    -0.274 OA
ATOM      6  H   UNL A   1      35.044  19.165  25.202  1.00  0.00     0.163 HD
BRANCH   4   7
ATOM      7  C   UNL A   1      32.161  20.606  24.124  1.00  0.00     0.103 C 
ATOM      8  C   UNL A   1      32.766  22.750  23.134  1.00  0.00     0.093 C 
ATOM      9  C   UNL A   1      32.252  22.925  24.525  1.00  0.00    -0.011 C 
ATOM     10  C   UNL A   1      32.264  21.340  22.797  1.00  0.00     0.042 C 
ATOM     11  C   UNL A   1      31.968  21.742  25.087  1.00  0.00    -0.016 C 
BRANCH   8  12
ATOM     12  N   UNL A   1      32.189  23.724  22.232  1.00  0.00    -0.204 NA
ATOM     13  H   UNL A   1      32.002  23.241  21.354  1.00  0.00     0.142 HD
BRANCH  12  14
ATOM     14  S   UNL A   1      33.055  25.111  21.852  1.00  0.00     0.241 S 
ATOM     15  O   UNL A   1      33.052  25.215  20.404  1.00  0.00    -0.207 OA
ATOM     16  O   UNL A   1      34.286  25.059  22.600  1.00  0.00    -0.207 OA
BRANCH  14  17
ATOM     17  C   UNL A   1      32.087  26.463  22.504  1.00  0.00     0.086 A 
ATOM     18  C   UNL A   1      33.939  28.240  22.191  1.00  0.00     0.046 C 
ATOM     19  C   UNL A   1      32.596  27.766  22.668  1.00  0.00    -0.031 A 
ATOM     20  C   UNL A   1      31.777  28.723  23.300  1.00  0.00     0.006 A 
ATOM     21  C   UNL A   1      30.476  28.414  23.703  1.00  0.00     0.016 A 
ATOM     22  C   UNL A   1      30.768  26.162  22.890  1.00  0.00     0.037 A 
ATOM     23  C   UNL A   1      29.970  27.142  23.473  1.00  0.00     0.019 A 
ATOM     24  Br  UNL A   1      28.187  26.743  23.951  1.00  0.00    -0.051 Br
ENDBRANCH  14  17
ENDBRANCH  12  14
ENDBRANCH   8  12
ENDBRANCH   4   7
ENDBRANCH   2   3
ENDBRANCH   1   2
BRANCH   1  25
ATOM     25  C   UNL A   1      36.258  23.203  24.311  1.00  0.00     0.023 C 
BRANCH  25  26
ATOM     26  C   UNL A   1      37.242  23.714  25.360  1.00  0.00     0.116 C 
BRANCH  26  27
ATOM     27  N   UNL A   1      38.366  22.817  25.595  1.00  0.00    -0.352 N 
ATOM     28  C   UNL A   1      39.526  23.088  26.285  1.00  0.00     0.251 C 
ATOM     29  H   UNL A   1      38.287  21.913  25.217  1.00  0.00     0.163 HD
ATOM     30  O   UNL A   1      40.431  22.264  26.342  1.00  0.00    -0.269 OA
BRANCH  28  31
ATOM     31  C   UNL A   1      39.673  24.414  26.914  1.00  0.00     0.039 A 
ATOM     32  C   UNL A   1      39.209  24.595  28.218  1.00  0.00     0.014 A 
ATOM     33  C   UNL A   1      40.359  25.433  26.249  1.00  0.00     0.014 A 
ATOM     34  C   UNL A   1      39.505  25.782  28.888  1.00  0.00     0.010 A 
ATOM     35  C   UNL A   1      40.708  26.586  26.942  1.00  0.00     0.010 A 
ATOM     36  C   UNL A   1      40.291  26.769  28.270  1.00  0.00    -0.014 A 
BRANCH  36  37
ATOM     37  C   UNL A   1      40.702  27.991  29.001  1.00  0.00     0.031 A 
ATOM     38  C   UNL A   1      42.053  28.054  29.657  1.00  0.00     0.074 A 
ATOM     39  C   UNL A   1      39.832  29.012  29.136  1.00  0.00     0.049 A 
ATOM     40  N   UNL A   1      42.570  29.008  30.389  1.00  0.00    -0.248 NA
ATOM     41  C   UNL A   1      42.926  26.880  29.495  1.00  0.00     0.031 C 
ATOM     42  C   UNL A   1      38.471  29.045  28.594  1.00  0.00     0.029 A 
ATOM     43  N   UNL A   1      39.962  30.217  29.779  1.00  0.00    -0.354 N 
ATOM     44  C   UNL A   1      43.815  28.542  30.791  1.00  0.00     0.074 A 
ATOM     45  C   UNL A   1      43.957  27.202  30.262  1.00  0.00     0.031 C 
ATOM     46  C   UNL A   1      37.904  30.223  28.903  1.00  0.00     0.029 A 
ATOM     47  C   UNL A   1      38.845  31.013  29.689  1.00  0.00     0.049 A 
ATOM     48  H   UNL A   1      40.778  30.486  30.259  1.00  0.00     0.167 HD
ATOM     49  C   UNL A   1      44.764  29.178  31.517  1.00  0.00     0.031 A 
ATOM     50  C   UNL A   1      38.607  32.244  30.182  1.00  0.00     0.031 A 
ATOM     51  C   UNL A   1      44.630  30.518  32.020  1.00  0.00     0.049 A 
ATOM     52  C   UNL A   1      39.687  32.942  30.963  1.00  0.00     0.074 A 
ATOM     53  C   UNL A   1      45.559  31.275  32.712  1.00  0.00     0.029 A 
ATOM     54  N   UNL A   1      43.495  31.303  31.881  1.00  0.00    -0.354 N 
ATOM     55  N   UNL A   1      40.885  32.509  31.275  1.00  0.00    -0.248 NA
ATOM     56  C   UNL A   1      39.387  34.298  31.443  1.00  0.00     0.031 C 
ATOM     57  C   UNL A   1      44.973  32.508  33.020  1.00  0.00     0.029 A 
ATOM     58  C   UNL A   1      43.695  32.532  32.485  1.00  0.00     0.049 A 
ATOM     59  H   UNL A   1      42.670  31.027  31.420  1.00  0.00     0.167 HD
ATOM     60  C   UNL A   1      41.490  33.549  31.973  1.00  0.00     0.074 A 
ATOM     61  C   UNL A   1      40.531  34.634  32.022  1.00  0.00     0.031 C 
ATOM     62  C   UNL A   1      42.728  33.599  32.524  1.00  0.00     0.031 A 
BRANCH  49  63
ATOM     63  C   UNL A   1      46.032  28.422  31.805  1.00  0.00    -0.014 A 
ATOM     64  C   UNL A   1      47.120  28.469  30.914  1.00  0.00     0.010 A 
ATOM     65  C   UNL A   1      46.146  27.666  32.985  1.00  0.00     0.010 A 
ATOM     66  C   UNL A   1      48.280  27.734  31.173  1.00  0.00     0.020 A 
ATOM     67  C   UNL A   1      47.314  26.950  33.262  1.00  0.00     0.020 A 
ATOM     68  C   UNL A   1      48.366  26.973  32.343  1.00  0.00     0.054 A 
BRANCH  68  69
ATOM     69  S   UNL A   1      49.885  26.034  32.661  1.00  0.00     0.124 S 
ATOM     70  O   UNL A   1      50.410  26.706  33.847  1.00  0.00    -0.237 OA
ATOM     71  O   UNL A   1      49.388  24.678  32.878  1.00  0.00    -0.237 OA
ATOM     72  O   UNL A   1      50.667  26.220  31.442  1.00  0.00    -0.744 OA
ENDBRANCH  68  69
ENDBRANCH  49  63
BRANCH  50  73
ATOM     73  C   UNL A   1      37.300  32.907  29.928  1.00  0.00    -0.014 A 
ATOM     74  C   UNL A   1      37.081  33.604  28.727  1.00  0.00     0.010 A 
ATOM     75  C   UNL A   1      36.264  32.831  30.875  1.00  0.00     0.010 A 
ATOM     76  C   UNL A   1      35.854  34.228  28.484  1.00  0.00     0.020 A 
ATOM     77  C   UNL A   1      35.027  33.435  30.625  1.00  0.00     0.020 A 
ATOM     78  C   UNL A   1      34.834  34.139  29.435  1.00  0.00     0.054 A 
BRANCH  78  79
ATOM     79  S   UNL A   1      33.229  34.907  29.076  1.00  0.00     0.124 S 
ATOM     80  O   UNL A   1      32.662  33.982  28.100  1.00  0.00    -0.237 OA
ATOM     81  O   UNL A   1      32.583  34.919  30.387  1.00  0.00    -0.237 OA
ATOM     82  O   UNL A   1      33.591  36.224  28.559  1.00  0.00    -0.744 OA
ENDBRANCH  78  79
ENDBRANCH  50  73
BRANCH  62  83
ATOM     83  C   UNL A   1      43.125  34.879  33.206  1.00  0.00    -0.014 A 
ATOM     84  C   UNL A   1      42.854  35.086  34.570  1.00  0.00     0.010 A 
ATOM     85  C   UNL A   1      43.825  35.862  32.485  1.00  0.00     0.010 A 
ATOM     86  C   UNL A   1      43.253  36.271  35.194  1.00  0.00     0.020 A 
ATOM     87  C   UNL A   1      44.245  37.037  33.112  1.00  0.00     0.020 A 
ATOM     88  C   UNL A   1      43.944  37.240  34.460  1.00  0.00     0.054 A 
BRANCH  88  89
ATOM     89  S   UNL A   1      44.491  38.750  35.302  1.00  0.00     0.124 S 
ATOM     90  O   UNL A   1      45.928  38.740  35.041  1.00  0.00    -0.237 OA
ATOM     91  O   UNL A   1      43.734  39.796  34.618  1.00  0.00    -0.237 OA
ATOM     92  O   UNL A   1      44.109  38.525  36.696  1.00  0.00    -0.744 OA
ENDBRANCH  88  89
ENDBRANCH  62  83
ENDBRANCH  36  37
ENDBRANCH  28  31
ENDBRANCH  26  27
ENDBRANCH  25  26
ENDBRANCH   1  25
TORSDOF 17
ENDMDL
MODEL 2
REMARK VINA RESULT:     -11.2      2.951      9.494
REMARK SMILES Cc1ccc(Br)cc1S(=O)(=O)N[C@H]1C=C[C@H](C(=O)NCCCCNC(=O)c2ccc(-c3c4nc(c(-c5ccc(S(=O)(=O)[O-])cc5)c5ccc([nH]5)c(-c5ccc(S(=O)(=O)[O-])cc5)c5nc(c(-c6ccc(S(=O)(=O)[O-])cc6)c6ccc3[nH]6)C=C5)C=C4)cc2)C1
REMARK SMILES IDX 21 1 20 2 19 3 17 4 18 5 16 7 13 8 14 9 87 10 15 11 12 12
REMARK SMILES IDX 9 14 10 15 11 16 8 17 1 18 2 19 3 20 4 21 7 22 5 23 6 24
REMARK SMILES IDX 22 25 23 26 24 27 25 28 26 30 27 31 28 32 86 33 29 34 85 35
REMARK SMILES IDX 30 36 31 37 32 38 79 39 33 40 84 41 78 42 80 43 34 44 83 45
REMARK SMILES IDX 77 46 76 47 35 49 65 50 46 51 64 52 47 53 50 54 63 55 81 56
REMARK SMILES IDX 48 57 49 58 62 60 82 61 51 62 36 63 37 64 45 65 38 66 44 67
REMARK SMILES IDX 39 68 40 69 41 70 42 71 43 72 66 73 67 74 75 75 68 76 74 77
REMARK SMILES IDX 69 78 70 79 71 80 72 81 73 82 52 83 53 84 61 85 54 86 60 87
REMARK SMILES IDX 55 88 56 89 57 90 58 91 59 92
REMARK H PARENT 19 6 12 13 24 29 80 48 50 59
REMARK Flexibility Score: inf
ROOT
ATOM      1  C   UNL A   1      31.427  29.181  26.063  1.00  0.00     0.023 C 
ENDROOT
BRANCH   1   2
ATOM      2  C   UNL A   1      31.922  29.573  24.674  1.00  0.00     0.116 C 
BRANCH   2   3
ATOM      3  N   UNL A   1      30.866  29.486  23.684  1.00  0.00    -0.356 N 
ATOM      4  C   UNL A   1      30.642  28.698  22.606  1.00  0.00     0.226 C 
ATOM      5  O   UNL A   1      29.666  29.007  21.908  1.00  0.00    -0.274 OA
ATOM      6  H   UNL A   1      30.152  30.148  23.828  1.00  0.00     0.163 HD
BRANCH   4   7
ATOM      7  C   UNL A   1      31.499  27.503  22.173  1.00  0.00     0.103 C 
ATOM      8  C   UNL A   1      32.404  25.966  23.835  1.00  0.00     0.093 C 
ATOM      9  C   UNL A   1      33.475  26.839  23.267  1.00  0.00    -0.011 C 
ATOM     10  C   UNL A   1      31.292  26.130  22.791  1.00  0.00     0.042 C 
ATOM     11  C   UNL A   1      32.968  27.718  22.392  1.00  0.00    -0.016 C 
BRANCH   8  12
ATOM     12  N   UNL A   1      32.833  24.586  23.908  1.00  0.00    -0.204 NA
ATOM     13  H   UNL A   1      32.569  24.146  23.027  1.00  0.00     0.142 HD
BRANCH  12  14
ATOM     14  S   UNL A   1      32.250  23.604  25.139  1.00  0.00     0.241 S 
ATOM     15  O   UNL A   1      30.914  23.198  24.744  1.00  0.00    -0.207 OA
ATOM     16  O   UNL A   1      32.489  24.297  26.380  1.00  0.00    -0.207 OA
BRANCH  14  17
ATOM     17  C   UNL A   1      33.295  22.156  25.121  1.00  0.00     0.086 A 
ATOM     18  C   UNL A   1      35.469  23.438  25.677  1.00  0.00     0.046 C 
ATOM     19  C   UNL A   1      34.690  22.211  25.302  1.00  0.00    -0.031 A 
ATOM     20  C   UNL A   1      35.426  21.018  25.152  1.00  0.00     0.006 A 
ATOM     21  C   UNL A   1      34.792  19.801  24.890  1.00  0.00     0.016 A 
ATOM     22  C   UNL A   1      32.657  20.926  24.881  1.00  0.00     0.037 A 
ATOM     23  C   UNL A   1      33.409  19.758  24.782  1.00  0.00     0.019 A 
ATOM     24  Br  UNL A   1      32.543  18.102  24.500  1.00  0.00    -0.051 Br
ENDBRANCH  14  17
ENDBRANCH  12  14
ENDBRANCH   8  12
ENDBRANCH   4   7
ENDBRANCH   2   3
ENDBRANCH   1   2
BRANCH   1  25
ATOM     25  C   UNL A   1      32.280  28.113  26.747  1.00  0.00     0.023 C 
BRANCH  25  26
ATOM     26  C   UNL A   1      33.586  28.620  27.353  1.00  0.00     0.116 C 
BRANCH  26  27
ATOM     27  N   UNL A   1      33.555  30.030  27.717  1.00  0.00    -0.352 N 
ATOM     28  C   UNL A   1      34.577  30.782  28.250  1.00  0.00     0.251 C 
ATOM     29  H   UNL A   1      32.705  30.500  27.562  1.00  0.00     0.163 HD
ATOM     30  O   UNL A   1      34.393  31.946  28.585  1.00  0.00    -0.269 OA
BRANCH  28  31
ATOM     31  C   UNL A   1      35.887  30.137  28.454  1.00  0.00     0.039 A 
ATOM     32  C   UNL A   1      36.827  30.181  27.423  1.00  0.00     0.014 A 
ATOM     33  C   UNL A   1      36.213  29.589  29.698  1.00  0.00     0.014 A 
ATOM     34  C   UNL A   1      38.128  29.739  27.665  1.00  0.00     0.010 A 
ATOM     35  C   UNL A   1      37.525  29.213  29.956  1.00  0.00     0.010 A 
ATOM     36  C   UNL A   1      38.497  29.291  28.945  1.00  0.00    -0.014 A 
BRANCH  36  37
ATOM     37  C   UNL A   1      39.899  28.916  29.251  1.00  0.00     0.031 A 
ATOM     38  C   UNL A   1      40.819  29.914  29.895  1.00  0.00     0.074 A 
ATOM     39  C   UNL A   1      40.360  27.705  28.881  1.00  0.00     0.049 A 
ATOM     40  N   UNL A   1      42.089  29.795  30.187  1.00  0.00    -0.248 NA
ATOM     41  C   UNL A   1      40.245  31.228  30.230  1.00  0.00     0.031 C 
ATOM     42  C   UNL A   1      39.580  26.671  28.196  1.00  0.00     0.029 A 
ATOM     43  N   UNL A   1      41.603  27.141  29.023  1.00  0.00    -0.354 N 
ATOM     44  C   UNL A   1      42.470  31.021  30.716  1.00  0.00     0.074 A 
ATOM     45  C   UNL A   1      41.311  31.885  30.663  1.00  0.00     0.031 C 
ATOM     46  C   UNL A   1      40.354  25.590  28.005  1.00  0.00     0.029 A 
ATOM     47  C   UNL A   1      41.690  25.863  28.522  1.00  0.00     0.049 A 
ATOM     48  H   UNL A   1      42.361  27.607  29.445  1.00  0.00     0.167 HD
ATOM     49  C   UNL A   1      43.671  31.390  31.221  1.00  0.00     0.031 A 
ATOM     50  C   UNL A   1      42.730  25.008  28.487  1.00  0.00     0.031 A 
ATOM     51  C   UNL A   1      44.815  30.521  31.295  1.00  0.00     0.049 A 
ATOM     52  C   UNL A   1      44.046  25.429  29.079  1.00  0.00     0.074 A 
ATOM     53  C   UNL A   1      46.057  30.779  31.847  1.00  0.00     0.029 A 
ATOM     54  N   UNL A   1      44.853  29.225  30.805  1.00  0.00    -0.354 N 
ATOM     55  N   UNL A   1      44.368  26.572  29.637  1.00  0.00    -0.248 NA
ATOM     56  C   UNL A   1      45.133  24.442  29.049  1.00  0.00     0.031 C 
ATOM     57  C   UNL A   1      46.859  29.647  31.661  1.00  0.00     0.029 A 
ATOM     58  C   UNL A   1      46.102  28.672  31.030  1.00  0.00     0.049 A 
ATOM     59  H   UNL A   1      44.103  28.765  30.364  1.00  0.00     0.167 HD
ATOM     60  C   UNL A   1      45.690  26.433  30.042  1.00  0.00     0.074 A 
ATOM     61  C   UNL A   1      46.102  25.092  29.680  1.00  0.00     0.031 C 
ATOM     62  C   UNL A   1      46.493  27.336  30.660  1.00  0.00     0.031 A 
BRANCH  49  63
ATOM     63  C   UNL A   1      43.800  32.799  31.733  1.00  0.00    -0.014 A 
ATOM     64  C   UNL A   1      43.502  33.110  33.073  1.00  0.00     0.010 A 
ATOM     65  C   UNL A   1      44.234  33.821  30.872  1.00  0.00     0.010 A 
ATOM     66  C   UNL A   1      43.591  34.428  33.530  1.00  0.00     0.020 A 
ATOM     67  C   UNL A   1      44.349  35.136  31.331  1.00  0.00     0.020 A 
ATOM     68  C   UNL A   1      44.006  35.434  32.652  1.00  0.00     0.054 A 
BRANCH  68  69
ATOM     69  S   UNL A   1      44.120  37.136  33.271  1.00  0.00     0.124 S 
ATOM     70  O   UNL A   1      42.969  37.204  34.169  1.00  0.00    -0.237 OA
ATOM     71  O   UNL A   1      45.426  37.157  33.922  1.00  0.00    -0.237 OA
ATOM     72  O   UNL A   1      44.016  37.949  32.062  1.00  0.00    -0.744 OA
ENDBRANCH  68  69
ENDBRANCH  49  63
BRANCH  50  73
ATOM     73  C   UNL A   1      42.558  23.654  27.895  1.00  0.00    -0.014 A 
ATOM     74  C   UNL A   1      42.805  23.441  26.528  1.00  0.00     0.010 A 
ATOM     75  C   UNL A   1      42.165  22.568  28.697  1.00  0.00     0.010 A 
ATOM     76  C   UNL A   1      42.646  22.171  25.968  1.00  0.00     0.020 A 
ATOM     77  C   UNL A   1      42.026  21.290  28.145  1.00  0.00     0.020 A 
ATOM     78  C   UNL A   1      42.258  21.102  26.781  1.00  0.00     0.054 A 
BRANCH  78  79
ATOM     79  S   UNL A   1      42.112  19.449  26.047  1.00  0.00     0.124 S 
ATOM     80  O   UNL A   1      42.620  18.597  27.117  1.00  0.00    -0.237 OA
ATOM     81  O   UNL A   1      40.678  19.345  25.782  1.00  0.00    -0.237 OA
ATOM     82  O   UNL A   1      42.952  19.531  24.855  1.00  0.00    -0.744 OA
ENDBRANCH  78  79
ENDBRANCH  50  73
BRANCH  62  83
ATOM     83  C   UNL A   1      47.888  26.894  31.003  1.00  0.00    -0.014 A 
ATOM     84  C   UNL A   1      48.164  26.255  32.224  1.00  0.00     0.010 A 
ATOM     85  C   UNL A   1      48.923  27.074  30.069  1.00  0.00     0.010 A 
ATOM     86  C   UNL A   1      49.463  25.828  32.517  1.00  0.00     0.020 A 
ATOM     87  C   UNL A   1      50.216  26.627  30.349  1.00  0.00     0.020 A 
ATOM     88  C   UNL A   1      50.481  26.019  31.577  1.00  0.00     0.054 A 
BRANCH  88  89
ATOM     89  S   UNL A   1      52.148  25.415  31.960  1.00  0.00     0.124 S 
ATOM     90  O   UNL A   1      52.462  26.146  33.184  1.00  0.00    -0.237 OA
ATOM     91  O   UNL A   1      51.943  23.977  32.119  1.00  0.00    -0.237 OA
ATOM     92  O   UNL A   1      52.931  25.798  30.786  1.00  0.00    -0.744 OA
ENDBRANCH  88  89
ENDBRANCH  62  83
ENDBRANCH  36  37
ENDBRANCH  28  31
ENDBRANCH  26  27
ENDBRANCH  25  26
ENDBRANCH   1  25
TORSDOF 17
ENDMDL
MODEL 3
REMARK VINA RESULT:     -11.1      4.357      7.397
REMARK SMILES Cc1ccc(Br)cc1S(=O)(=O)N[C@H]1C=C[C@H](C(=O)NCCCCNC(=O)c2ccc(-c3c4nc(c(-c5ccc(S(=O)(=O)[O-])cc5)c5ccc([nH]5)c(-c5ccc(S(=O)(=O)[O-])cc5)c5nc(c(-c6ccc(S(=O)(=O)[O-])cc6)c6ccc3[nH]6)C=C5)C=C4)cc2)C1
REMARK SMILES IDX 21 1 20 2 19 3 17 4 18 5 16 7 13 8 14 9 87 10 15 11 12 12
REMARK SMILES IDX 9 14 10 15 11 16 8 17 1 18 2 19 3 20 4 21 7 22 5 23 6 24
REMARK SMILES IDX 22 25 23 26 24 27 25 28 26 30 27 31 28 32 86 33 29 34 85 35
REMARK SMILES IDX 30 36 31 37 32 38 79 39 33 40 84 41 78 42 80 43 34 44 83 45
REMARK SMILES IDX 77 46 76 47 35 49 65 50 46 51 64 52 47 53 50 54 63 55 81 56
REMARK SMILES IDX 48 57 49 58 62 60 82 61 51 62 36 63 37 64 45 65 38 66 44 67
REMARK SMILES IDX 39 68 40 69 41 70 42 71 43 72 66 73 67 74 75 75 68 76 74 77
REMARK SMILES IDX 69 78 70 79 71 80 72 81 73 82 52 83 53 84 61 85 54 86 60 87
REMARK SMILES IDX 55 88 56 89 57 90 58 91 59 92
REMARK H PARENT 19 6 12 13 24 29 80 48 50 59
REMARK Flexibility Score: inf
ROOT
ATOM      1  C   UNL A   1      42.609  22.244  26.363  1.00  0.00     0.023 C 
ENDROOT
BRANCH   1   2
ATOM      2  C   UNL A   1      42.870  23.446  25.461  1.00  0.00     0.116 C 
BRANCH   2   3
ATOM      3  N   UNL A   1      44.075  23.273  24.674  1.00  0.00    -0.356 N 
ATOM      4  C   UNL A   1      45.357  23.692  24.798  1.00  0.00     0.226 C 
ATOM      5  O   UNL A   1      46.099  23.444  23.838  1.00  0.00    -0.274 OA
ATOM      6  H   UNL A   1      43.928  22.729  23.866  1.00  0.00     0.163 HD
BRANCH   4   7
ATOM      7  C   UNL A   1      45.939  24.460  25.991  1.00  0.00     0.103 C 
ATOM      8  C   UNL A   1      46.204  26.881  25.890  1.00  0.00     0.093 C 
ATOM      9  C   UNL A   1      47.525  26.189  25.792  1.00  0.00    -0.011 C 
ATOM     10  C   UNL A   1      45.316  25.766  26.457  1.00  0.00     0.042 C 
ATOM     11  C   UNL A   1      47.373  24.858  25.795  1.00  0.00    -0.016 C 
BRANCH   8  12
ATOM     12  N   UNL A   1      46.262  27.999  26.806  1.00  0.00    -0.204 NA
ATOM     13  H   UNL A   1      45.317  28.142  27.161  1.00  0.00     0.142 HD
BRANCH  12  14
ATOM     14  S   UNL A   1      46.808  29.490  26.257  1.00  0.00     0.241 S 
ATOM     15  O   UNL A   1      46.402  29.590  24.867  1.00  0.00    -0.207 OA
ATOM     16  O   UNL A   1      48.191  29.603  26.647  1.00  0.00    -0.207 OA
BRANCH  14  17
ATOM     17  C   UNL A   1      45.886  30.701  27.190  1.00  0.00     0.086 A 
ATOM     18  C   UNL A   1      43.573  29.660  26.692  1.00  0.00     0.046 C 
ATOM     19  C   UNL A   1      44.479  30.717  27.254  1.00  0.00    -0.031 A 
ATOM     20  C   UNL A   1      43.857  31.789  27.926  1.00  0.00     0.006 A 
ATOM     21  C   UNL A   1      44.607  32.780  28.562  1.00  0.00     0.016 A 
ATOM     22  C   UNL A   1      46.638  31.689  27.852  1.00  0.00     0.037 A 
ATOM     23  C   UNL A   1      45.993  32.710  28.543  1.00  0.00     0.019 A 
ATOM     24  Br  UNL A   1      47.009  34.010  29.465  1.00  0.00    -0.051 Br
ENDBRANCH  14  17
ENDBRANCH  12  14
ENDBRANCH   8  12
ENDBRANCH   4   7
ENDBRANCH   2   3
ENDBRANCH   1   2
BRANCH   1  25
ATOM     25  C   UNL A   1      41.380  21.426  25.966  1.00  0.00     0.023 C 
BRANCH  25  26
ATOM     26  C   UNL A   1      40.134  21.677  26.811  1.00  0.00     0.116 C 
BRANCH  26  27
ATOM     27  N   UNL A   1      38.992  22.154  26.043  1.00  0.00    -0.352 N 
ATOM     28  C   UNL A   1      38.491  23.434  25.991  1.00  0.00     0.251 C 
ATOM     29  H   UNL A   1      38.525  21.483  25.497  1.00  0.00     0.163 HD
ATOM     30  O   UNL A   1      37.470  23.686  25.362  1.00  0.00    -0.269 OA
BRANCH  28  31
ATOM     31  C   UNL A   1      39.186  24.489  26.753  1.00  0.00     0.039 A 
ATOM     32  C   UNL A   1      40.041  25.358  26.072  1.00  0.00     0.014 A 
ATOM     33  C   UNL A   1      38.905  24.675  28.109  1.00  0.00     0.014 A 
ATOM     34  C   UNL A   1      40.559  26.467  26.740  1.00  0.00     0.010 A 
ATOM     35  C   UNL A   1      39.369  25.817  28.751  1.00  0.00     0.010 A 
ATOM     36  C   UNL A   1      40.194  26.728  28.072  1.00  0.00    -0.014 A 
BRANCH  36  37
ATOM     37  C   UNL A   1      40.651  27.956  28.766  1.00  0.00     0.031 A 
ATOM     38  C   UNL A   1      42.040  28.022  29.334  1.00  0.00     0.074 A 
ATOM     39  C   UNL A   1      39.792  28.978  28.947  1.00  0.00     0.049 A 
ATOM     40  N   UNL A   1      42.603  28.982  30.023  1.00  0.00    -0.248 NA
ATOM     41  C   UNL A   1      42.901  26.846  29.127  1.00  0.00     0.031 C 
ATOM     42  C   UNL A   1      38.399  29.009  28.492  1.00  0.00     0.029 A 
ATOM     43  N   UNL A   1      39.962  30.189  29.570  1.00  0.00    -0.354 N 
ATOM     44  C   UNL A   1      43.871  28.518  30.350  1.00  0.00     0.074 A 
ATOM     45  C   UNL A   1      43.978  27.173  29.825  1.00  0.00     0.031 C 
ATOM     46  C   UNL A   1      37.853  30.190  28.827  1.00  0.00     0.029 A 
ATOM     47  C   UNL A   1      38.842  30.986  29.545  1.00  0.00     0.049 A 
ATOM     48  H   UNL A   1      40.808  30.461  29.995  1.00  0.00     0.167 HD
ATOM     49  C   UNL A   1      44.865  29.158  31.009  1.00  0.00     0.031 A 
ATOM     50  C   UNL A   1      38.637  32.220  30.042  1.00  0.00     0.031 A 
ATOM     51  C   UNL A   1      44.764  30.503  31.508  1.00  0.00     0.049 A 
ATOM     52  C   UNL A   1      39.765  32.924  30.747  1.00  0.00     0.074 A 
ATOM     53  C   UNL A   1      45.735  31.264  32.134  1.00  0.00     0.029 A 
ATOM     54  N   UNL A   1      43.623  31.287  31.435  1.00  0.00    -0.354 N 
ATOM     55  N   UNL A   1      40.980  32.492  30.986  1.00  0.00    -0.248 NA
ATOM     56  C   UNL A   1      39.497  34.283  31.233  1.00  0.00     0.031 C 
ATOM     57  C   UNL A   1      45.171  32.501  32.469  1.00  0.00     0.029 A 
ATOM     58  C   UNL A   1      43.861  32.522  32.015  1.00  0.00     0.049 A 
ATOM     59  H   UNL A   1      42.770  31.009  31.030  1.00  0.00     0.167 HD
ATOM     60  C   UNL A   1      41.628  33.536  31.636  1.00  0.00     0.074 A 
ATOM     61  C   UNL A   1      40.676  34.624  31.736  1.00  0.00     0.031 C 
ATOM     62  C   UNL A   1      42.899  33.590  32.107  1.00  0.00     0.031 A 
BRANCH  49  63
ATOM     63  C   UNL A   1      46.148  28.403  31.223  1.00  0.00    -0.014 A 
ATOM     64  C   UNL A   1      46.319  27.572  32.345  1.00  0.00     0.010 A 
ATOM     65  C   UNL A   1      47.191  28.514  30.287  1.00  0.00     0.010 A 
ATOM     66  C   UNL A   1      47.528  26.903  32.553  1.00  0.00     0.020 A 
ATOM     67  C   UNL A   1      48.393  27.826  30.477  1.00  0.00     0.020 A 
ATOM     68  C   UNL A   1      48.561  27.041  31.620  1.00  0.00     0.054 A 
BRANCH  68  69
ATOM     69  S   UNL A   1      50.118  26.157  31.908  1.00  0.00     0.124 S 
ATOM     70  O   UNL A   1      49.879  25.548  33.215  1.00  0.00    -0.237 OA
ATOM     71  O   UNL A   1      50.175  25.227  30.784  1.00  0.00    -0.237 OA
ATOM     72  O   UNL A   1      51.124  27.215  31.889  1.00  0.00    -0.744 OA
ENDBRANCH  68  69
ENDBRANCH  49  63
BRANCH  50  73
ATOM     73  C   UNL A   1      37.317  32.883  29.865  1.00  0.00    -0.014 A 
ATOM     74  C   UNL A   1      36.351  32.823  30.884  1.00  0.00     0.010 A 
ATOM     75  C   UNL A   1      37.026  33.591  28.686  1.00  0.00     0.010 A 
ATOM     76  C   UNL A   1      35.110  33.445  30.722  1.00  0.00     0.020 A 
ATOM     77  C   UNL A   1      35.794  34.234  28.529  1.00  0.00     0.020 A 
ATOM     78  C   UNL A   1      34.839  34.147  29.545  1.00  0.00     0.054 A 
BRANCH  78  79
ATOM     79  S   UNL A   1      33.244  34.996  29.376  1.00  0.00     0.124 S 
ATOM     80  O   UNL A   1      32.551  34.148  28.411  1.00  0.00    -0.237 OA
ATOM     81  O   UNL A   1      32.720  34.961  30.740  1.00  0.00    -0.237 OA
ATOM     82  O   UNL A   1      33.615  36.324  28.894  1.00  0.00    -0.744 OA
ENDBRANCH  78  79
ENDBRANCH  50  73
BRANCH  62  83
ATOM     83  C   UNL A   1      43.339  34.875  32.752  1.00  0.00    -0.014 A 
ATOM     84  C   UNL A   1      43.239  35.058  34.142  1.00  0.00     0.010 A 
ATOM     85  C   UNL A   1      43.909  35.889  31.962  1.00  0.00     0.010 A 
ATOM     86  C   UNL A   1      43.677  36.249  34.728  1.00  0.00     0.020 A 
ATOM     87  C   UNL A   1      44.369  37.070  32.548  1.00  0.00     0.020 A 
ATOM     88  C   UNL A   1      44.237  37.248  33.926  1.00  0.00     0.054 A 
BRANCH  88  89
ATOM     89  S   UNL A   1      44.839  38.766  34.715  1.00  0.00     0.124 S 
ATOM     90  O   UNL A   1      44.394  39.793  33.777  1.00  0.00    -0.237 OA
ATOM     91  O   UNL A   1      44.156  38.754  36.006  1.00  0.00    -0.237 OA
ATOM     92  O   UNL A   1      46.286  38.568  34.782  1.00  0.00    -0.744 OA
ENDBRANCH  88  89
ENDBRANCH  62  83
ENDBRANCH  36  37
ENDBRANCH  28  31
ENDBRANCH  26  27
ENDBRANCH  25  26
ENDBRANCH   1  25
TORSDOF 17
ENDMDL
