MODEL 1
REMARK VINA RESULT:     -12.7      0.000      0.000
REMARK SMILES Cc1cc(NC(=O)CCC(=O)NCCCCNC(=O)c2ccc(-c3c4nc(c(-c5ccc(S(=O)(=O)[O-])cc5)c5ccc([nH]5)c(-c5ccc(S(=O)(=O)[O-])cc5)c5nc(c(-c6ccc(S(=O)(=O)[O-])cc6)c6ccc3[nH]6)C=C5)C=C4)cc2)ccc1S(=O)(=O)[O-]
REMARK SMILES IDX 14 1 13 2 12 3 10 4 11 5 9 7 8 8 6 9 5 10 7 12 4 13 1 14
REMARK SMILES IDX 2 15 3 16 82 17 81 18 80 19 83 20 84 21 85 22 86 23 15 24
REMARK SMILES IDX 16 25 17 26 18 27 19 29 20 30 21 31 79 32 22 33 78 34 23 35
REMARK SMILES IDX 24 36 25 37 72 38 26 39 77 40 71 41 73 42 27 43 76 44 70 45
REMARK SMILES IDX 69 46 28 48 58 49 39 50 57 51 40 52 43 53 56 54 74 55 41 56
REMARK SMILES IDX 42 57 55 59 75 60 44 61 29 62 30 63 38 64 31 65 37 66 32 67
REMARK SMILES IDX 33 68 34 69 35 70 36 71 59 72 60 73 68 74 61 75 67 76 62 77
REMARK SMILES IDX 63 78 64 79 65 80 66 81 45 82 46 83 54 84 47 85 53 86 48 87
REMARK SMILES IDX 49 88 50 89 51 90 52 91
REMARK H PARENT 12 6 5 11 17 28 73 47 43 58
REMARK Flexibility Score: inf
ROOT
ATOM      1  C   UNL A   1      32.350  28.743  27.634  1.00  0.00     0.023 C 
ENDROOT
BRANCH   1   2
ATOM      2  C   UNL A   1      31.237  27.979  26.911  1.00  0.00     0.116 C 
BRANCH   2   3
ATOM      3  N   UNL A   1      31.425  26.536  26.849  1.00  0.00    -0.356 N 
ATOM      4  C   UNL A   1      31.798  25.731  25.818  1.00  0.00     0.220 C 
ATOM      5  O   UNL A   1      32.118  24.565  26.058  1.00  0.00    -0.275 OA
ATOM      6  H   UNL A   1      31.256  26.064  27.696  1.00  0.00     0.163 HD
BRANCH   4   7
ATOM      7  C   UNL A   1      31.823  26.250  24.402  1.00  0.00     0.110 C 
BRANCH   7   8
ATOM      8  C   UNL A   1      33.164  26.755  23.880  1.00  0.00     0.110 C 
BRANCH   8   9
ATOM      9  C   UNL A   1      33.542  26.408  22.454  1.00  0.00     0.224 C 
ATOM     10  N   UNL A   1      33.684  25.133  21.992  1.00  0.00    -0.326 N 
ATOM     11  H   UNL A   1      33.773  25.078  21.013  1.00  0.00     0.169 HD
ATOM     12  O   UNL A   1      33.700  27.326  21.642  1.00  0.00    -0.275 OA
BRANCH  10  13
ATOM     13  C   UNL A   1      33.729  23.882  22.627  1.00  0.00     0.041 A 
ATOM     14  C   UNL A   1      36.059  21.879  24.827  1.00  0.00     0.046 C 
ATOM     15  C   UNL A   1      34.815  22.192  24.046  1.00  0.00    -0.032 A 
ATOM     16  C   UNL A   1      34.853  23.376  23.275  1.00  0.00     0.030 A 
ATOM     17  C   UNL A   1      33.598  21.498  24.122  1.00  0.00     0.057 A 
ATOM     18  C   UNL A   1      32.495  21.941  23.371  1.00  0.00     0.021 A 
ATOM     19  C   UNL A   1      32.567  23.112  22.616  1.00  0.00     0.027 A 
BRANCH  17  20
ATOM     20  S   UNL A   1      33.296  20.064  25.129  1.00  0.00     0.124 S 
ATOM     21  O   UNL A   1      31.890  19.743  25.045  1.00  0.00    -0.237 OA
ATOM     22  O   UNL A   1      34.310  19.082  24.802  1.00  0.00    -0.237 OA
ATOM     23  O   UNL A   1      33.557  20.449  26.670  1.00  0.00    -0.744 OA
ENDBRANCH  17  20
ENDBRANCH  10  13
ENDBRANCH   8   9
ENDBRANCH   7   8
ENDBRANCH   4   7
ENDBRANCH   2   3
ENDBRANCH   1   2
BRANCH   1  24
ATOM     24  C   UNL A   1      33.188  29.684  26.771  1.00  0.00     0.023 C 
BRANCH  24  25
ATOM     25  C   UNL A   1      34.686  29.552  26.992  1.00  0.00     0.116 C 
BRANCH  25  26
ATOM     26  N   UNL A   1      35.310  30.781  27.469  1.00  0.00    -0.352 N 
ATOM     27  C   UNL A   1      36.497  30.881  28.172  1.00  0.00     0.251 C 
ATOM     28  H   UNL A   1      34.839  31.623  27.271  1.00  0.00     0.163 HD
ATOM     29  O   UNL A   1      36.861  31.898  28.750  1.00  0.00    -0.269 OA
BRANCH  27  30
ATOM     30  C   UNL A   1      37.387  29.712  28.077  1.00  0.00     0.039 A 
ATOM     31  C   UNL A   1      37.546  28.957  29.246  1.00  0.00     0.014 A 
ATOM     32  C   UNL A   1      38.305  29.649  27.031  1.00  0.00     0.014 A 
ATOM     33  C   UNL A   1      38.734  28.266  29.447  1.00  0.00     0.010 A 
ATOM     34  C   UNL A   1      39.516  29.033  27.273  1.00  0.00     0.010 A 
ATOM     35  C   UNL A   1      39.747  28.386  28.498  1.00  0.00    -0.014 A 
BRANCH  35  36
ATOM     36  C   UNL A   1      41.098  27.882  28.698  1.00  0.00     0.031 A 
ATOM     37  C   UNL A   1      41.397  26.486  28.316  1.00  0.00     0.074 A 
ATOM     38  C   UNL A   1      42.074  28.662  29.208  1.00  0.00     0.049 A 
ATOM     39  N   UNL A   1      42.422  25.819  28.723  1.00  0.00    -0.248 NA
ATOM     40  C   UNL A   1      40.494  25.701  27.482  1.00  0.00     0.031 C 
ATOM     41  C   UNL A   1      43.512  28.402  29.212  1.00  0.00     0.029 A 
ATOM     42  N   UNL A   1      41.948  29.772  30.021  1.00  0.00    -0.354 N 
ATOM     43  C   UNL A   1      42.467  24.647  28.005  1.00  0.00     0.074 A 
ATOM     44  C   UNL A   1      41.206  24.586  27.306  1.00  0.00     0.031 C 
ATOM     45  C   UNL A   1      44.089  29.159  30.160  1.00  0.00     0.029 A 
ATOM     46  C   UNL A   1      43.027  29.810  30.908  1.00  0.00     0.049 A 
ATOM     47  H   UNL A   1      41.217  30.430  29.982  1.00  0.00     0.167 HD
ATOM     48  C   UNL A   1      43.617  23.917  27.999  1.00  0.00     0.031 A 
ATOM     49  C   UNL A   1      42.830  29.667  32.256  1.00  0.00     0.031 A 
ATOM     50  C   UNL A   1      44.589  24.428  28.968  1.00  0.00     0.049 A 
ATOM     51  C   UNL A   1      43.422  28.392  32.845  1.00  0.00     0.074 A 
ATOM     52  C   UNL A   1      45.750  25.180  28.890  1.00  0.00     0.029 A 
ATOM     53  N   UNL A   1      44.238  24.411  30.309  1.00  0.00    -0.354 N 
ATOM     54  N   UNL A   1      44.059  27.479  32.162  1.00  0.00    -0.248 NA
ATOM     55  C   UNL A   1      43.259  28.010  34.250  1.00  0.00     0.031 C 
ATOM     56  C   UNL A   1      46.072  25.634  30.206  1.00  0.00     0.029 A 
ATOM     57  C   UNL A   1      45.122  25.137  31.079  1.00  0.00     0.049 A 
ATOM     58  H   UNL A   1      43.451  23.940  30.666  1.00  0.00     0.167 HD
ATOM     59  C   UNL A   1      44.318  26.400  32.966  1.00  0.00     0.074 A 
ATOM     60  C   UNL A   1      43.817  26.787  34.272  1.00  0.00     0.031 C 
ATOM     61  C   UNL A   1      44.872  25.240  32.507  1.00  0.00     0.031 A 
BRANCH  48  62
ATOM     62  C   UNL A   1      43.932  22.864  26.961  1.00  0.00    -0.014 A 
ATOM     63  C   UNL A   1      43.014  21.821  26.728  1.00  0.00     0.010 A 
ATOM     64  C   UNL A   1      45.133  22.802  26.229  1.00  0.00     0.010 A 
ATOM     65  C   UNL A   1      43.317  20.736  25.889  1.00  0.00     0.020 A 
ATOM     66  C   UNL A   1      45.467  21.710  25.418  1.00  0.00     0.020 A 
ATOM     67  C   UNL A   1      44.559  20.673  25.260  1.00  0.00     0.054 A 
BRANCH  67  68
ATOM     68  S   UNL A   1      44.973  19.234  24.243  1.00  0.00     0.124 S 
ATOM     69  O   UNL A   1      44.173  18.176  24.854  1.00  0.00    -0.237 OA
ATOM     70  O   UNL A   1      44.550  19.659  22.912  1.00  0.00    -0.237 OA
ATOM     71  O   UNL A   1      46.417  19.091  24.417  1.00  0.00    -0.744 OA
ENDBRANCH  67  68
ENDBRANCH  48  62
BRANCH  49  72
ATOM     72  C   UNL A   1      41.577  30.330  32.731  1.00  0.00    -0.014 A 
ATOM     73  C   UNL A   1      40.463  29.501  32.996  1.00  0.00     0.010 A 
ATOM     74  C   UNL A   1      41.610  31.618  33.287  1.00  0.00     0.010 A 
ATOM     75  C   UNL A   1      39.503  29.880  33.939  1.00  0.00     0.020 A 
ATOM     76  C   UNL A   1      40.638  32.008  34.219  1.00  0.00     0.020 A 
ATOM     77  C   UNL A   1      39.633  31.108  34.587  1.00  0.00     0.054 A 
BRANCH  77  78
ATOM     78  S   UNL A   1      38.589  31.421  36.043  1.00  0.00     0.124 S 
ATOM     79  O   UNL A   1      39.405  32.353  36.814  1.00  0.00    -0.237 OA
ATOM     80  O   UNL A   1      37.384  31.990  35.439  1.00  0.00    -0.237 OA
ATOM     81  O   UNL A   1      38.419  30.096  36.630  1.00  0.00    -0.744 OA
ENDBRANCH  77  78
ENDBRANCH  49  72
BRANCH  61  82
ATOM     82  C   UNL A   1      45.177  24.065  33.396  1.00  0.00    -0.014 A 
ATOM     83  C   UNL A   1      44.255  23.026  33.601  1.00  0.00     0.010 A 
ATOM     84  C   UNL A   1      46.369  24.037  34.155  1.00  0.00     0.010 A 
ATOM     85  C   UNL A   1      44.539  21.972  34.481  1.00  0.00     0.020 A 
ATOM     86  C   UNL A   1      46.652  23.001  35.047  1.00  0.00     0.020 A 
ATOM     87  C   UNL A   1      45.743  21.961  35.190  1.00  0.00     0.054 A 
BRANCH  87  88
ATOM     88  S   UNL A   1      46.085  20.603  36.338  1.00  0.00     0.124 S 
ATOM     89  O   UNL A   1      45.257  19.520  35.814  1.00  0.00    -0.237 OA
ATOM     90  O   UNL A   1      47.526  20.426  36.173  1.00  0.00    -0.237 OA
ATOM     91  O   UNL A   1      45.666  21.129  37.634  1.00  0.00    -0.744 OA
ENDBRANCH  87  88
ENDBRANCH  61  82
ENDBRANCH  35  36
ENDBRANCH  27  30
ENDBRANCH  25  26
ENDBRANCH  24  25
ENDBRANCH   1  24
TORSDOF 18
ENDMDL
MODEL 2
REMARK VINA RESULT:     -12.3      2.568      4.157
REMARK SMILES Cc1cc(NC(=O)CCC(=O)NCCCCNC(=O)c2ccc(-c3c4nc(c(-c5ccc(S(=O)(=O)[O-])cc5)c5ccc([nH]5)c(-c5ccc(S(=O)(=O)[O-])cc5)c5nc(c(-c6ccc(S(=O)(=O)[O-])cc6)c6ccc3[nH]6)C=C5)C=C4)cc2)ccc1S(=O)(=O)[O-]
REMARK SMILES IDX 14 1 13 2 12 3 10 4 11 5 9 7 8 8 6 9 5 10 7 12 4 13 1 14
REMARK SMILES IDX 2 15 3 16 82 17 81 18 80 19 83 20 84 21 85 22 86 23 15 24
REMARK SMILES IDX 16 25 17 26 18 27 19 29 20 30 21 31 79 32 22 33 78 34 23 35
REMARK SMILES IDX 24 36 25 37 72 38 26 39 77 40 71 41 73 42 27 43 76 44 70 45
REMARK SMILES IDX 69 46 28 48 58 49 39 50 57 51 40 52 43 53 56 54 74 55 41 56
REMARK SMILES IDX 42 57 55 59 75 60 44 61 29 62 30 63 38 64 31 65 37 66 32 67
REMARK SMILES IDX 33 68 34 69 35 70 36 71 59 72 60 73 68 74 61 75 67 76 62 77
REMARK SMILES IDX 63 78 64 79 65 80 66 81 45 82 46 83 54 84 47 85 53 86 48 87
REMARK SMILES IDX 49 88 50 89 51 90 52 91
REMARK H PARENT 12 6 5 11 17 28 73 47 43 58
REMARK Flexibility Score: inf
ROOT
ATOM      1  C   UNL A   1      32.171  28.284  27.185  1.00  0.00     0.023 C 
ENDROOT
BRANCH   1   2
ATOM      2  C   UNL A   1      32.564  27.008  26.436  1.00  0.00     0.116 C 
BRANCH   2   3
ATOM      3  N   UNL A   1      32.032  25.777  27.004  1.00  0.00    -0.356 N 
ATOM      4  C   UNL A   1      30.977  25.006  26.627  1.00  0.00     0.220 C 
ATOM      5  O   UNL A   1      30.855  23.882  27.118  1.00  0.00    -0.275 OA
ATOM      6  H   UNL A   1      32.518  25.446  27.793  1.00  0.00     0.163 HD
BRANCH   4   7
ATOM      7  C   UNL A   1      29.970  25.511  25.623  1.00  0.00     0.110 C 
BRANCH   7   8
ATOM      8  C   UNL A   1      30.132  25.028  24.186  1.00  0.00     0.110 C 
BRANCH   8   9
ATOM      9  C   UNL A   1      31.353  25.494  23.419  1.00  0.00     0.224 C 
ATOM     10  N   UNL A   1      31.490  26.743  22.889  1.00  0.00    -0.326 N 
ATOM     11  H   UNL A   1      32.399  26.934  22.565  1.00  0.00     0.169 HD
ATOM     12  O   UNL A   1      32.305  24.716  23.289  1.00  0.00    -0.275 OA
BRANCH  10  13
ATOM     13  C   UNL A   1      30.597  27.811  22.710  1.00  0.00     0.041 A 
ATOM     14  C   UNL A   1      26.945  28.605  23.266  1.00  0.00     0.046 C 
ATOM     15  C   UNL A   1      28.373  28.848  22.870  1.00  0.00    -0.032 A 
ATOM     16  C   UNL A   1      29.220  27.717  22.895  1.00  0.00     0.030 A 
ATOM     17  C   UNL A   1      28.956  30.098  22.615  1.00  0.00     0.057 A 
ATOM     18  C   UNL A   1      30.326  30.180  22.308  1.00  0.00     0.021 A 
ATOM     19  C   UNL A   1      31.134  29.042  22.337  1.00  0.00     0.027 A 
BRANCH  17  20
ATOM     20  S   UNL A   1      28.102  31.657  22.660  1.00  0.00     0.124 S 
ATOM     21  O   UNL A   1      29.038  32.671  23.089  1.00  0.00    -0.237 OA
ATOM     22  O   UNL A   1      27.372  31.789  21.416  1.00  0.00    -0.237 OA
ATOM     23  O   UNL A   1      26.977  31.598  23.810  1.00  0.00    -0.744 OA
ENDBRANCH  17  20
ENDBRANCH  10  13
ENDBRANCH   8   9
ENDBRANCH   7   8
ENDBRANCH   4   7
ENDBRANCH   2   3
ENDBRANCH   1   2
BRANCH   1  24
ATOM     24  C   UNL A   1      33.048  29.509  26.929  1.00  0.00     0.023 C 
BRANCH  24  25
ATOM     25  C   UNL A   1      34.476  29.357  27.426  1.00  0.00     0.116 C 
BRANCH  25  26
ATOM     26  N   UNL A   1      35.103  30.628  27.775  1.00  0.00    -0.352 N 
ATOM     27  C   UNL A   1      36.320  30.795  28.413  1.00  0.00     0.251 C 
ATOM     28  H   UNL A   1      34.612  31.446  27.534  1.00  0.00     0.163 HD
ATOM     29  O   UNL A   1      36.695  31.859  28.891  1.00  0.00    -0.269 OA
BRANCH  27  30
ATOM     30  C   UNL A   1      37.221  29.632  28.369  1.00  0.00     0.039 A 
ATOM     31  C   UNL A   1      37.419  28.954  29.579  1.00  0.00     0.014 A 
ATOM     32  C   UNL A   1      38.113  29.512  27.305  1.00  0.00     0.014 A 
ATOM     33  C   UNL A   1      38.620  28.290  29.792  1.00  0.00     0.010 A 
ATOM     34  C   UNL A   1      39.337  28.926  27.553  1.00  0.00     0.010 A 
ATOM     35  C   UNL A   1      39.607  28.361  28.810  1.00  0.00    -0.014 A 
BRANCH  35  36
ATOM     36  C   UNL A   1      40.969  27.884  29.007  1.00  0.00     0.031 A 
ATOM     37  C   UNL A   1      41.307  26.511  28.580  1.00  0.00     0.074 A 
ATOM     38  C   UNL A   1      41.919  28.671  29.554  1.00  0.00     0.049 A 
ATOM     39  N   UNL A   1      42.345  25.856  28.973  1.00  0.00    -0.248 NA
ATOM     40  C   UNL A   1      40.433  25.732  27.710  1.00  0.00     0.031 C 
ATOM     41  C   UNL A   1      43.363  28.447  29.563  1.00  0.00     0.029 A 
ATOM     42  N   UNL A   1      41.757  29.748  30.403  1.00  0.00    -0.354 N 
ATOM     43  C   UNL A   1      42.428  24.711  28.216  1.00  0.00     0.074 A 
ATOM     44  C   UNL A   1      41.175  24.643  27.502  1.00  0.00     0.031 C 
ATOM     45  C   UNL A   1      43.912  29.185  30.542  1.00  0.00     0.029 A 
ATOM     46  C   UNL A   1      42.827  29.782  31.302  1.00  0.00     0.049 A 
ATOM     47  H   UNL A   1      41.010  30.388  30.380  1.00  0.00     0.167 HD
ATOM     48  C   UNL A   1      43.596  24.012  28.197  1.00  0.00     0.031 A 
ATOM     49  C   UNL A   1      42.621  29.588  32.642  1.00  0.00     0.031 A 
ATOM     50  C   UNL A   1      44.546  24.513  29.192  1.00  0.00     0.049 A 
ATOM     51  C   UNL A   1      43.240  28.308  33.193  1.00  0.00     0.074 A 
ATOM     52  C   UNL A   1      45.687  25.297  29.152  1.00  0.00     0.029 A 
ATOM     53  N   UNL A   1      44.182  24.441  30.528  1.00  0.00    -0.354 N 
ATOM     54  N   UNL A   1      43.907  27.437  32.485  1.00  0.00    -0.248 NA
ATOM     55  C   UNL A   1      43.074  27.873  34.582  1.00  0.00     0.031 C 
ATOM     56  C   UNL A   1      45.985  25.712  30.486  1.00  0.00     0.029 A 
ATOM     57  C   UNL A   1      45.041  25.162  31.332  1.00  0.00     0.049 A 
ATOM     58  H   UNL A   1      43.405  23.937  30.861  1.00  0.00     0.167 HD
ATOM     59  C   UNL A   1      44.186  26.336  33.253  1.00  0.00     0.074 A 
ATOM     60  C   UNL A   1      43.663  26.665  34.566  1.00  0.00     0.031 C 
ATOM     61  C   UNL A   1      44.775  25.208  32.760  1.00  0.00     0.031 A 
BRANCH  48  62
ATOM     62  C   UNL A   1      43.947  23.004  27.125  1.00  0.00    -0.014 A 
ATOM     63  C   UNL A   1      43.012  22.012  26.770  1.00  0.00     0.010 A 
ATOM     64  C   UNL A   1      45.196  22.933  26.478  1.00  0.00     0.010 A 
ATOM     65  C   UNL A   1      43.336  20.963  25.895  1.00  0.00     0.020 A 
ATOM     66  C   UNL A   1      45.549  21.873  25.633  1.00  0.00     0.020 A 
ATOM     67  C   UNL A   1      44.617  20.884  25.353  1.00  0.00     0.054 A 
BRANCH  67  68
ATOM     68  S   UNL A   1      45.052  19.486  24.288  1.00  0.00     0.124 S 
ATOM     69  O   UNL A   1      44.454  19.865  23.011  1.00  0.00    -0.237 OA
ATOM     70  O   UNL A   1      46.510  19.500  24.333  1.00  0.00    -0.237 OA
ATOM     71  O   UNL A   1      44.423  18.341  24.945  1.00  0.00    -0.744 OA
ENDBRANCH  67  68
ENDBRANCH  48  62
BRANCH  49  72
ATOM     72  C   UNL A   1      41.347  30.201  33.127  1.00  0.00    -0.014 A 
ATOM     73  C   UNL A   1      41.308  31.608  33.254  1.00  0.00     0.010 A 
ATOM     74  C   UNL A   1      40.136  29.494  33.058  1.00  0.00     0.010 A 
ATOM     75  C   UNL A   1      40.101  32.301  33.125  1.00  0.00     0.020 A 
ATOM     76  C   UNL A   1      38.922  30.186  32.948  1.00  0.00     0.020 A 
ATOM     77  C   UNL A   1      38.924  31.584  32.914  1.00  0.00     0.054 A 
BRANCH  77  78
ATOM     78  S   UNL A   1      37.441  32.506  32.402  1.00  0.00     0.124 S 
ATOM     79  O   UNL A   1      36.544  31.437  31.975  1.00  0.00    -0.237 OA
ATOM     80  O   UNL A   1      37.064  33.188  33.641  1.00  0.00    -0.237 OA
ATOM     81  O   UNL A   1      37.933  33.378  31.342  1.00  0.00    -0.744 OA
ENDBRANCH  77  78
ENDBRANCH  49  72
BRANCH  61  82
ATOM     82  C   UNL A   1      45.102  24.011  33.611  1.00  0.00    -0.014 A 
ATOM     83  C   UNL A   1      46.400  23.766  34.084  1.00  0.00     0.010 A 
ATOM     84  C   UNL A   1      44.122  23.023  33.856  1.00  0.00     0.010 A 
ATOM     85  C   UNL A   1      46.693  22.612  34.826  1.00  0.00     0.020 A 
ATOM     86  C   UNL A   1      44.408  21.862  34.577  1.00  0.00     0.020 A 
ATOM     87  C   UNL A   1      45.690  21.672  35.078  1.00  0.00     0.054 A 
BRANCH  87  88
ATOM     88  S   UNL A   1      46.089  20.177  36.018  1.00  0.00     0.124 S 
ATOM     89  O   UNL A   1      45.722  20.546  37.383  1.00  0.00    -0.237 OA
ATOM     90  O   UNL A   1      45.225  19.184  35.384  1.00  0.00    -0.237 OA
ATOM     91  O   UNL A   1      47.520  19.994  35.792  1.00  0.00    -0.744 OA
ENDBRANCH  87  88
ENDBRANCH  61  82
ENDBRANCH  35  36
ENDBRANCH  27  30
ENDBRANCH  25  26
ENDBRANCH  24  25
ENDBRANCH   1  24
TORSDOF 18
ENDMDL
MODEL 3
REMARK VINA RESULT:     -11.8      2.347      3.588
REMARK SMILES Cc1cc(NC(=O)CCC(=O)NCCCCNC(=O)c2ccc(-c3c4nc(c(-c5ccc(S(=O)(=O)[O-])cc5)c5ccc([nH]5)c(-c5ccc(S(=O)(=O)[O-])cc5)c5nc(c(-c6ccc(S(=O)(=O)[O-])cc6)c6ccc3[nH]6)C=C5)C=C4)cc2)ccc1S(=O)(=O)[O-]
REMARK SMILES IDX 14 1 13 2 12 3 10 4 11 5 9 7 8 8 6 9 5 10 7 12 4 13 1 14
REMARK SMILES IDX 2 15 3 16 82 17 81 18 80 19 83 20 84 21 85 22 86 23 15 24
REMARK SMILES IDX 16 25 17 26 18 27 19 29 20 30 21 31 79 32 22 33 78 34 23 35
REMARK SMILES IDX 24 36 25 37 72 38 26 39 77 40 71 41 73 42 27 43 76 44 70 45
REMARK SMILES IDX 69 46 28 48 58 49 39 50 57 51 40 52 43 53 56 54 74 55 41 56
REMARK SMILES IDX 42 57 55 59 75 60 44 61 29 62 30 63 38 64 31 65 37 66 32 67
REMARK SMILES IDX 33 68 34 69 35 70 36 71 59 72 60 73 68 74 61 75 67 76 62 77
REMARK SMILES IDX 63 78 64 79 65 80 66 81 45 82 46 83 54 84 47 85 53 86 48 87
REMARK SMILES IDX 49 88 50 89 51 90 52 91
REMARK H PARENT 12 6 5 11 17 28 73 47 43 58
REMARK Flexibility Score: inf
ROOT
ATOM      1  C   UNL A   1      31.577  27.773  27.010  1.00  0.00     0.023 C 
ENDROOT
BRANCH   1   2
ATOM      2  C   UNL A   1      32.055  26.516  26.277  1.00  0.00     0.116 C 
BRANCH   2   3
ATOM      3  N   UNL A   1      31.674  25.259  26.907  1.00  0.00    -0.356 N 
ATOM      4  C   UNL A   1      31.914  23.972  26.540  1.00  0.00     0.220 C 
ATOM      5  O   UNL A   1      31.695  23.070  27.351  1.00  0.00    -0.275 OA
ATOM      6  H   UNL A   1      31.158  25.357  27.739  1.00  0.00     0.163 HD
BRANCH   4   7
ATOM      7  C   UNL A   1      32.443  23.645  25.164  1.00  0.00     0.110 C 
BRANCH   7   8
ATOM      8  C   UNL A   1      33.840  23.040  25.092  1.00  0.00     0.110 C 
BRANCH   8   9
ATOM      9  C   UNL A   1      33.958  21.579  24.704  1.00  0.00     0.224 C 
ATOM     10  N   UNL A   1      35.101  20.848  24.828  1.00  0.00    -0.326 N 
ATOM     11  H   UNL A   1      34.966  19.883  24.685  1.00  0.00     0.169 HD
ATOM     12  O   UNL A   1      32.953  20.996  24.282  1.00  0.00    -0.275 OA
BRANCH  10  13
ATOM     13  C   UNL A   1      36.431  21.189  25.117  1.00  0.00     0.041 A 
ATOM     14  C   UNL A   1      38.377  24.025  26.683  1.00  0.00     0.046 C 
ATOM     15  C   UNL A   1      38.151  22.691  26.031  1.00  0.00    -0.032 A 
ATOM     16  C   UNL A   1      36.832  22.436  25.593  1.00  0.00     0.030 A 
ATOM     17  C   UNL A   1      39.084  21.647  25.946  1.00  0.00     0.057 A 
ATOM     18  C   UNL A   1      38.714  20.427  25.354  1.00  0.00     0.021 A 
ATOM     19  C   UNL A   1      37.403  20.208  24.927  1.00  0.00     0.027 A 
BRANCH  17  20
ATOM     20  S   UNL A   1      40.754  21.712  26.552  1.00  0.00     0.124 S 
ATOM     21  O   UNL A   1      40.707  21.969  27.974  1.00  0.00    -0.237 OA
ATOM     22  O   UNL A   1      41.455  20.561  26.021  1.00  0.00    -0.237 OA
ATOM     23  O   UNL A   1      41.489  22.992  25.910  1.00  0.00    -0.744 OA
ENDBRANCH  17  20
ENDBRANCH  10  13
ENDBRANCH   8   9
ENDBRANCH   7   8
ENDBRANCH   4   7
ENDBRANCH   2   3
ENDBRANCH   1   2
BRANCH   1  24
ATOM     24  C   UNL A   1      32.335  29.062  26.695  1.00  0.00     0.023 C 
BRANCH  24  25
ATOM     25  C   UNL A   1      33.668  29.182  27.415  1.00  0.00     0.116 C 
BRANCH  25  26
ATOM     26  N   UNL A   1      33.979  30.545  27.830  1.00  0.00    -0.352 N 
ATOM     27  C   UNL A   1      35.056  30.944  28.602  1.00  0.00     0.251 C 
ATOM     28  H   UNL A   1      33.361  31.251  27.532  1.00  0.00     0.163 HD
ATOM     29  O   UNL A   1      35.149  32.052  29.117  1.00  0.00    -0.269 OA
BRANCH  27  30
ATOM     30  C   UNL A   1      36.175  29.990  28.665  1.00  0.00     0.039 A 
ATOM     31  C   UNL A   1      36.395  29.372  29.903  1.00  0.00     0.014 A 
ATOM     32  C   UNL A   1      37.166  30.050  27.687  1.00  0.00     0.014 A 
ATOM     33  C   UNL A   1      37.682  28.968  30.236  1.00  0.00     0.010 A 
ATOM     34  C   UNL A   1      38.456  29.728  28.056  1.00  0.00     0.010 A 
ATOM     35  C   UNL A   1      38.719  29.236  29.344  1.00  0.00    -0.014 A 
BRANCH  35  36
ATOM     36  C   UNL A   1      40.126  29.049  29.672  1.00  0.00     0.031 A 
ATOM     37  C   UNL A   1      40.798  27.811  29.227  1.00  0.00     0.074 A 
ATOM     38  C   UNL A   1      40.821  29.983  30.354  1.00  0.00     0.049 A 
ATOM     39  N   UNL A   1      41.910  27.368  29.706  1.00  0.00    -0.248 NA
ATOM     40  C   UNL A   1      40.207  26.922  28.232  1.00  0.00     0.031 C 
ATOM     41  C   UNL A   1      42.271  30.072  30.515  1.00  0.00     0.029 A 
ATOM     42  N   UNL A   1      40.343  30.942  31.225  1.00  0.00    -0.354 N 
ATOM     43  C   UNL A   1      42.316  26.320  28.915  1.00  0.00     0.074 A 
ATOM     44  C   UNL A   1      41.187  26.033  28.063  1.00  0.00     0.031 C 
ATOM     45  C   UNL A   1      42.544  30.844  31.580  1.00  0.00     0.029 A 
ATOM     46  C   UNL A   1      41.284  31.144  32.239  1.00  0.00     0.049 A 
ATOM     47  H   UNL A   1      39.479  31.408  31.146  1.00  0.00     0.167 HD
ATOM     48  C   UNL A   1      43.606  25.888  28.996  1.00  0.00     0.031 A 
ATOM     49  C   UNL A   1      40.993  30.823  33.538  1.00  0.00     0.031 A 
ATOM     50  C   UNL A   1      44.318  26.514  30.112  1.00  0.00     0.049 A 
ATOM     51  C   UNL A   1      41.819  29.671  34.099  1.00  0.00     0.074 A 
ATOM     52  C   UNL A   1      45.258  27.525  30.234  1.00  0.00     0.029 A 
ATOM     53  N   UNL A   1      43.847  26.278  31.394  1.00  0.00    -0.354 N 
ATOM     54  N   UNL A   1      42.728  29.011  33.434  1.00  0.00    -0.248 NA
ATOM     55  C   UNL A   1      41.614  29.120  35.441  1.00  0.00     0.031 C 
ATOM     56  C   UNL A   1      45.323  27.905  31.608  1.00  0.00     0.029 A 
ATOM     57  C   UNL A   1      44.442  27.111  32.319  1.00  0.00     0.049 A 
ATOM     58  H   UNL A   1      43.170  25.599  31.616  1.00  0.00     0.167 HD
ATOM     59  C   UNL A   1      43.163  27.947  34.181  1.00  0.00     0.074 A 
ATOM     60  C   UNL A   1      42.453  28.069  35.440  1.00  0.00     0.031 C 
ATOM     61  C   UNL A   1      44.031  27.006  33.709  1.00  0.00     0.031 A 
BRANCH  48  62
ATOM     62  C   UNL A   1      44.274  25.052  27.929  1.00  0.00    -0.014 A 
ATOM     63  C   UNL A   1      44.720  25.666  26.741  1.00  0.00     0.010 A 
ATOM     64  C   UNL A   1      44.435  23.655  27.997  1.00  0.00     0.010 A 
ATOM     65  C   UNL A   1      45.209  24.920  25.656  1.00  0.00     0.020 A 
ATOM     66  C   UNL A   1      44.885  22.892  26.911  1.00  0.00     0.020 A 
ATOM     67  C   UNL A   1      45.260  23.531  25.738  1.00  0.00     0.054 A 
BRANCH  67  68
ATOM     68  S   UNL A   1      45.817  22.572  24.307  1.00  0.00     0.124 S 
ATOM     69  O   UNL A   1      46.762  23.482  23.666  1.00  0.00    -0.237 OA
ATOM     70  O   UNL A   1      46.402  21.389  24.931  1.00  0.00    -0.237 OA
ATOM     71  O   UNL A   1      44.588  22.330  23.552  1.00  0.00    -0.744 OA
ENDBRANCH  67  68
ENDBRANCH  48  62
BRANCH  49  72
ATOM     72  C   UNL A   1      39.573  31.116  33.903  1.00  0.00    -0.014 A 
ATOM     73  C   UNL A   1      39.305  32.351  34.536  1.00  0.00     0.010 A 
ATOM     74  C   UNL A   1      38.515  30.426  33.290  1.00  0.00     0.010 A 
ATOM     75  C   UNL A   1      38.058  32.966  34.397  1.00  0.00     0.020 A 
ATOM     76  C   UNL A   1      37.257  31.033  33.166  1.00  0.00     0.020 A 
ATOM     77  C   UNL A   1      37.061  32.326  33.661  1.00  0.00     0.054 A 
BRANCH  77  78
ATOM     78  S   UNL A   1      35.588  33.288  33.199  1.00  0.00     0.124 S 
ATOM     79  O   UNL A   1      34.910  32.389  32.271  1.00  0.00    -0.237 OA
ATOM     80  O   UNL A   1      34.927  33.472  34.492  1.00  0.00    -0.237 OA
ATOM     81  O   UNL A   1      36.144  34.501  32.612  1.00  0.00    -0.744 OA
ENDBRANCH  77  78
ENDBRANCH  49  72
BRANCH  61  82
ATOM     82  C   UNL A   1      44.526  25.852  34.539  1.00  0.00    -0.014 A 
ATOM     83  C   UNL A   1      45.834  25.806  35.047  1.00  0.00     0.010 A 
ATOM     84  C   UNL A   1      43.714  24.712  34.730  1.00  0.00     0.010 A 
ATOM     85  C   UNL A   1      46.291  24.694  35.768  1.00  0.00     0.020 A 
ATOM     86  C   UNL A   1      44.166  23.592  35.430  1.00  0.00     0.020 A 
ATOM     87  C   UNL A   1      45.448  23.597  35.965  1.00  0.00     0.054 A 
BRANCH  87  88
ATOM     88  S   UNL A   1      46.060  22.159  36.879  1.00  0.00     0.124 S 
ATOM     89  O   UNL A   1      45.323  21.053  36.271  1.00  0.00    -0.237 OA
ATOM     90  O   UNL A   1      47.489  22.199  36.580  1.00  0.00    -0.237 OA
ATOM     91  O   UNL A   1      45.703  22.449  38.265  1.00  0.00    -0.744 OA
ENDBRANCH  87  88
ENDBRANCH  61  82
ENDBRANCH  35  36
ENDBRANCH  27  30
ENDBRANCH  25  26
ENDBRANCH  24  25
ENDBRANCH   1  24
TORSDOF 18
ENDMDL
