MODEL 1
REMARK VINA RESULT:     -11.2      0.000      0.000
REMARK SMILES COc1ccc(C(=O)Nc2cccc(C(=O)NCCCCNC(=O)c3ccc(-c4c5nc(c(-c6ccc(S(=O)(=O)[O-])cc6)c6ccc([nH]6)c(-c6ccc(S(=O)(=O)[O-])cc6)c6nc(c(-c7ccc(S(=O)(=O)[O-])cc7)c7ccc4[nH]7)C=C6)C=C5)cc3)c2)cc1
REMARK SMILES IDX 19 1 18 2 17 3 15 4 16 5 14 7 10 8 11 9 85 10 12 11 13 12
REMARK SMILES IDX 9 13 7 14 8 15 6 17 3 18 4 19 87 20 5 21 86 22 2 23 1 24
REMARK SMILES IDX 20 25 21 26 22 27 23 28 24 30 25 31 26 32 84 33 27 34 83 35
REMARK SMILES IDX 28 36 29 37 30 38 77 39 31 40 82 41 76 42 78 43 32 44 81 45
REMARK SMILES IDX 75 46 74 47 33 49 63 50 44 51 62 52 45 53 48 54 61 55 79 56
REMARK SMILES IDX 46 57 47 58 60 60 80 61 49 62 34 63 35 64 43 65 36 66 42 67
REMARK SMILES IDX 37 68 38 69 39 70 40 71 41 72 64 73 65 74 73 75 66 76 72 77
REMARK SMILES IDX 67 78 68 79 69 80 70 81 71 82 50 83 51 84 59 85 52 86 58 87
REMARK SMILES IDX 53 88 54 89 55 90 56 91 57 92
REMARK H PARENT 17 6 9 16 22 29 78 48 48 59
REMARK Flexibility Score: inf
ROOT
ATOM      1  C   UNL A   1      33.626  28.538  24.330  1.00  0.00     0.023 C 
ENDROOT
BRANCH   1   2
ATOM      2  C   UNL A   1      32.632  28.572  23.167  1.00  0.00     0.116 C 
BRANCH   2   3
ATOM      3  N   UNL A   1      33.056  27.690  22.098  1.00  0.00    -0.352 N 
ATOM      4  C   UNL A   1      33.050  26.325  21.953  1.00  0.00     0.251 C 
ATOM      5  O   UNL A   1      33.471  25.875  20.886  1.00  0.00    -0.269 OA
ATOM      6  H   UNL A   1      33.422  28.166  21.317  1.00  0.00     0.163 HD
BRANCH   4   7
ATOM      7  C   UNL A   1      32.515  25.371  22.971  1.00  0.00     0.041 A 
ATOM      8  C   UNL A   1      32.584  24.136  25.060  1.00  0.00     0.042 A 
ATOM      9  C   UNL A   1      31.288  23.671  24.861  1.00  0.00     0.026 A 
ATOM     10  C   UNL A   1      33.225  24.886  24.069  1.00  0.00     0.040 A 
ATOM     11  C   UNL A   1      30.579  24.093  23.739  1.00  0.00     0.003 A 
ATOM     12  C   UNL A   1      31.179  24.960  22.819  1.00  0.00     0.014 A 
BRANCH   8  13
ATOM     13  N   UNL A   1      33.190  23.914  26.304  1.00  0.00    -0.322 N 
ATOM     14  C   UNL A   1      33.567  22.713  26.883  1.00  0.00     0.255 C 
ATOM     15  O   UNL A   1      33.836  22.687  28.084  1.00  0.00    -0.269 OA
ATOM     16  H   UNL A   1      33.373  24.720  26.839  1.00  0.00     0.170 HD
BRANCH  14  17
ATOM     17  C   UNL A   1      33.776  21.469  26.070  1.00  0.00     0.040 A 
ATOM     18  C   UNL A   1      34.081  19.094  24.564  1.00  0.00     0.118 A 
ATOM     19  C   UNL A   1      32.839  19.443  25.103  1.00  0.00     0.047 A 
ATOM     20  C   UNL A   1      35.178  19.917  24.808  1.00  0.00     0.047 A 
ATOM     21  C   UNL A   1      32.683  20.620  25.849  1.00  0.00     0.017 A 
ATOM     22  C   UNL A   1      35.031  21.072  25.586  1.00  0.00     0.017 A 
BRANCH  18  23
ATOM     23  O   UNL A   1      34.094  17.938  23.836  1.00  0.00    -0.497 OA
ATOM     24  C   UNL A   1      34.589  16.771  24.482  1.00  0.00     0.278 C 
ENDBRANCH  18  23
ENDBRANCH  14  17
ENDBRANCH   8  13
ENDBRANCH   4   7
ENDBRANCH   2   3
ENDBRANCH   1   2
BRANCH   1  25
ATOM     25  C   UNL A   1      32.973  28.227  25.678  1.00  0.00     0.023 C 
BRANCH  25  26
ATOM     26  C   UNL A   1      33.849  28.527  26.891  1.00  0.00     0.116 C 
BRANCH  26  27
ATOM     27  N   UNL A   1      33.708  29.890  27.380  1.00  0.00    -0.352 N 
ATOM     28  C   UNL A   1      34.613  30.638  28.098  1.00  0.00     0.251 C 
ATOM     29  H   UNL A   1      32.855  30.335  27.170  1.00  0.00     0.163 HD
ATOM     30  O   UNL A   1      34.304  31.735  28.533  1.00  0.00    -0.269 OA
BRANCH  28  31
ATOM     31  C   UNL A   1      35.953  30.069  28.365  1.00  0.00     0.039 A 
ATOM     32  C   UNL A   1      36.935  30.173  27.379  1.00  0.00     0.014 A 
ATOM     33  C   UNL A   1      36.244  29.480  29.598  1.00  0.00     0.014 A 
ATOM     34  C   UNL A   1      38.233  29.740  27.656  1.00  0.00     0.010 A 
ATOM     35  C   UNL A   1      37.553  29.119  29.897  1.00  0.00     0.010 A 
ATOM     36  C   UNL A   1      38.561  29.242  28.928  1.00  0.00    -0.014 A 
BRANCH  36  37
ATOM     37  C   UNL A   1      39.952  28.844  29.259  1.00  0.00     0.031 A 
ATOM     38  C   UNL A   1      40.862  29.808  29.972  1.00  0.00     0.074 A 
ATOM     39  C   UNL A   1      40.409  27.636  28.877  1.00  0.00     0.049 A 
ATOM     40  N   UNL A   1      42.113  29.654  30.322  1.00  0.00    -0.248 NA
ATOM     41  C   UNL A   1      40.300  31.125  30.318  1.00  0.00     0.031 C 
ATOM     42  C   UNL A   1      39.638  26.629  28.144  1.00  0.00     0.029 A 
ATOM     43  N   UNL A   1      41.636  27.046  29.056  1.00  0.00    -0.354 N 
ATOM     44  C   UNL A   1      42.489  30.851  30.919  1.00  0.00     0.074 A 
ATOM     45  C   UNL A   1      41.353  31.743  30.833  1.00  0.00     0.031 C 
ATOM     46  C   UNL A   1      40.397  25.534  27.966  1.00  0.00     0.029 A 
ATOM     47  C   UNL A   1      41.718  25.774  28.538  1.00  0.00     0.049 A 
ATOM     48  H   UNL A   1      42.386  27.490  29.511  1.00  0.00     0.167 HD
ATOM     49  C   UNL A   1      43.664  31.173  31.510  1.00  0.00     0.031 A 
ATOM     50  C   UNL A   1      42.742  24.898  28.525  1.00  0.00     0.031 A 
ATOM     51  C   UNL A   1      44.788  30.281  31.604  1.00  0.00     0.049 A 
ATOM     52  C   UNL A   1      44.043  25.286  29.174  1.00  0.00     0.074 A 
ATOM     53  C   UNL A   1      46.008  30.496  32.222  1.00  0.00     0.029 A 
ATOM     54  N   UNL A   1      44.830  29.003  31.069  1.00  0.00    -0.354 N 
ATOM     55  N   UNL A   1      44.357  26.402  29.790  1.00  0.00    -0.248 NA
ATOM     56  C   UNL A   1      45.124  24.291  29.139  1.00  0.00     0.031 C 
ATOM     57  C   UNL A   1      46.806  29.366  32.018  1.00  0.00     0.029 A 
ATOM     58  C   UNL A   1      46.062  28.423  31.324  1.00  0.00     0.049 A 
ATOM     59  H   UNL A   1      44.094  28.570  30.578  1.00  0.00     0.167 HD
ATOM     60  C   UNL A   1      45.662  26.230  30.239  1.00  0.00     0.074 A 
ATOM     61  C   UNL A   1      46.071  24.899  29.840  1.00  0.00     0.031 C 
ATOM     62  C   UNL A   1      46.451  27.096  30.923  1.00  0.00     0.031 A 
BRANCH  49  63
ATOM     63  C   UNL A   1      43.788  32.549  32.108  1.00  0.00    -0.014 A 
ATOM     64  C   UNL A   1      43.430  32.790  33.449  1.00  0.00     0.010 A 
ATOM     65  C   UNL A   1      44.307  33.606  31.340  1.00  0.00     0.010 A 
ATOM     66  C   UNL A   1      43.552  34.069  33.995  1.00  0.00     0.020 A 
ATOM     67  C   UNL A   1      44.457  34.881  31.892  1.00  0.00     0.020 A 
ATOM     68  C   UNL A   1      44.063  35.108  33.213  1.00  0.00     0.054 A 
BRANCH  68  69
ATOM     69  S   UNL A   1      44.236  36.752  33.959  1.00  0.00     0.124 S 
ATOM     70  O   UNL A   1      45.685  36.936  33.949  1.00  0.00    -0.237 OA
ATOM     71  O   UNL A   1      43.489  37.603  33.034  1.00  0.00    -0.237 OA
ATOM     72  O   UNL A   1      43.637  36.598  35.282  1.00  0.00    -0.744 OA
ENDBRANCH  68  69
ENDBRANCH  49  63
BRANCH  50  73
ATOM     73  C   UNL A   1      42.575  23.559  27.896  1.00  0.00    -0.014 A 
ATOM     74  C   UNL A   1      42.094  22.473  28.648  1.00  0.00     0.010 A 
ATOM     75  C   UNL A   1      42.906  23.361  26.543  1.00  0.00     0.010 A 
ATOM     76  C   UNL A   1      41.973  21.207  28.067  1.00  0.00     0.020 A 
ATOM     77  C   UNL A   1      42.759  22.102  25.951  1.00  0.00     0.020 A 
ATOM     78  C   UNL A   1      42.307  21.029  26.722  1.00  0.00     0.054 A 
BRANCH  78  79
ATOM     79  S   UNL A   1      42.114  19.385  25.980  1.00  0.00     0.124 S 
ATOM     80  O   UNL A   1      42.952  19.489  24.789  1.00  0.00    -0.237 OA
ATOM     81  O   UNL A   1      42.615  18.503  27.031  1.00  0.00    -0.237 OA
ATOM     82  O   UNL A   1      40.678  19.290  25.730  1.00  0.00    -0.744 OA
ENDBRANCH  78  79
ENDBRANCH  50  73
BRANCH  62  83
ATOM     83  C   UNL A   1      47.823  26.620  31.317  1.00  0.00    -0.014 A 
ATOM     84  C   UNL A   1      48.066  26.061  32.584  1.00  0.00     0.010 A 
ATOM     85  C   UNL A   1      48.872  26.683  30.381  1.00  0.00     0.010 A 
ATOM     86  C   UNL A   1      49.343  25.603  32.921  1.00  0.00     0.020 A 
ATOM     87  C   UNL A   1      50.143  26.200  30.704  1.00  0.00     0.020 A 
ATOM     88  C   UNL A   1      50.373  25.675  31.977  1.00  0.00     0.054 A 
BRANCH  88  89
ATOM     89  S   UNL A   1      52.009  25.033  32.422  1.00  0.00     0.124 S 
ATOM     90  O   UNL A   1      52.134  25.456  33.814  1.00  0.00    -0.237 OA
ATOM     91  O   UNL A   1      51.857  23.595  32.213  1.00  0.00    -0.237 OA
ATOM     92  O   UNL A   1      52.911  25.700  31.485  1.00  0.00    -0.744 OA
ENDBRANCH  88  89
ENDBRANCH  62  83
ENDBRANCH  36  37
ENDBRANCH  28  31
ENDBRANCH  26  27
ENDBRANCH  25  26
ENDBRANCH   1  25
TORSDOF 17
ENDMDL
MODEL 2
REMARK VINA RESULT:     -11.0      2.686      9.533
REMARK SMILES COc1ccc(C(=O)Nc2cccc(C(=O)NCCCCNC(=O)c3ccc(-c4c5nc(c(-c6ccc(S(=O)(=O)[O-])cc6)c6ccc([nH]6)c(-c6ccc(S(=O)(=O)[O-])cc6)c6nc(c(-c7ccc(S(=O)(=O)[O-])cc7)c7ccc4[nH]7)C=C6)C=C5)cc3)c2)cc1
REMARK SMILES IDX 19 1 18 2 17 3 15 4 16 5 14 7 10 8 11 9 85 10 12 11 13 12
REMARK SMILES IDX 9 13 7 14 8 15 6 17 3 18 4 19 87 20 5 21 86 22 2 23 1 24
REMARK SMILES IDX 20 25 21 26 22 27 23 28 24 30 25 31 26 32 84 33 27 34 83 35
REMARK SMILES IDX 28 36 29 37 30 38 77 39 31 40 82 41 76 42 78 43 32 44 81 45
REMARK SMILES IDX 75 46 74 47 33 49 63 50 44 51 62 52 45 53 48 54 61 55 79 56
REMARK SMILES IDX 46 57 47 58 60 60 80 61 49 62 34 63 35 64 43 65 36 66 42 67
REMARK SMILES IDX 37 68 38 69 39 70 40 71 41 72 64 73 65 74 73 75 66 76 72 77
REMARK SMILES IDX 67 78 68 79 69 80 70 81 71 82 50 83 51 84 59 85 52 86 58 87
REMARK SMILES IDX 53 88 54 89 55 90 56 91 57 92
REMARK H PARENT 17 6 9 16 22 29 78 48 48 59
REMARK Flexibility Score: inf
ROOT
ATOM      1  C   UNL A   1      35.883  21.582  24.674  1.00  0.00     0.023 C 
ENDROOT
BRANCH   1   2
ATOM      2  C   UNL A   1      35.106  21.032  25.872  1.00  0.00     0.116 C 
BRANCH   2   3
ATOM      3  N   UNL A   1      34.060  20.128  25.438  1.00  0.00    -0.352 N 
ATOM      4  C   UNL A   1      32.772  20.324  25.008  1.00  0.00     0.251 C 
ATOM      5  O   UNL A   1      32.132  19.323  24.683  1.00  0.00    -0.269 OA
ATOM      6  H   UNL A   1      34.329  19.180  25.454  1.00  0.00     0.163 HD
BRANCH   4   7
ATOM      7  C   UNL A   1      32.128  21.664  24.854  1.00  0.00     0.041 A 
ATOM      8  C   UNL A   1      31.588  23.707  23.660  1.00  0.00     0.042 A 
ATOM      9  C   UNL A   1      30.714  24.100  24.668  1.00  0.00     0.026 A 
ATOM     10  C   UNL A   1      32.367  22.556  23.810  1.00  0.00     0.040 A 
ATOM     11  C   UNL A   1      30.504  23.253  25.753  1.00  0.00     0.003 A 
ATOM     12  C   UNL A   1      31.184  22.032  25.829  1.00  0.00     0.014 A 
BRANCH   8  13
ATOM     13  N   UNL A   1      31.599  24.438  22.463  1.00  0.00    -0.322 N 
ATOM     14  C   UNL A   1      31.597  25.812  22.286  1.00  0.00     0.255 C 
ATOM     15  O   UNL A   1      31.339  26.270  21.173  1.00  0.00    -0.269 OA
ATOM     16  H   UNL A   1      31.611  23.902  21.637  1.00  0.00     0.170 HD
BRANCH  14  17
ATOM     17  C   UNL A   1      32.019  26.755  23.374  1.00  0.00     0.040 A 
ATOM     18  C   UNL A   1      32.725  28.571  25.425  1.00  0.00     0.118 A 
ATOM     19  C   UNL A   1      31.391  28.413  25.038  1.00  0.00     0.047 A 
ATOM     20  C   UNL A   1      33.710  27.843  24.761  1.00  0.00     0.047 A 
ATOM     21  C   UNL A   1      31.037  27.513  24.023  1.00  0.00     0.017 A 
ATOM     22  C   UNL A   1      33.361  26.973  23.720  1.00  0.00     0.017 A 
BRANCH  18  23
ATOM     23  O   UNL A   1      32.934  29.457  26.443  1.00  0.00    -0.497 OA
ATOM     24  C   UNL A   1      32.275  30.715  26.352  1.00  0.00     0.278 C 
ENDBRANCH  18  23
ENDBRANCH  14  17
ENDBRANCH   8  13
ENDBRANCH   4   7
ENDBRANCH   2   3
ENDBRANCH   1   2
BRANCH   1  25
ATOM     25  C   UNL A   1      35.923  23.111  24.626  1.00  0.00     0.023 C 
BRANCH  25  26
ATOM     26  C   UNL A   1      37.193  23.732  25.201  1.00  0.00     0.116 C 
BRANCH  26  27
ATOM     27  N   UNL A   1      38.194  22.747  25.581  1.00  0.00    -0.352 N 
ATOM     28  C   UNL A   1      39.333  22.933  26.330  1.00  0.00     0.251 C 
ATOM     29  H   UNL A   1      38.035  21.829  25.261  1.00  0.00     0.163 HD
ATOM     30  O   UNL A   1      40.137  22.025  26.471  1.00  0.00    -0.269 OA
BRANCH  28  31
ATOM     31  C   UNL A   1      39.585  24.263  26.925  1.00  0.00     0.039 A 
ATOM     32  C   UNL A   1      39.154  24.507  28.230  1.00  0.00     0.014 A 
ATOM     33  C   UNL A   1      40.280  25.244  26.212  1.00  0.00     0.014 A 
ATOM     34  C   UNL A   1      39.479  25.718  28.844  1.00  0.00     0.010 A 
ATOM     35  C   UNL A   1      40.666  26.417  26.851  1.00  0.00     0.010 A 
ATOM     36  C   UNL A   1      40.267  26.668  28.172  1.00  0.00    -0.014 A 
BRANCH  36  37
ATOM     37  C   UNL A   1      40.680  27.929  28.838  1.00  0.00     0.031 A 
ATOM     38  C   UNL A   1      42.065  28.059  29.412  1.00  0.00     0.074 A 
ATOM     39  C   UNL A   1      39.795  28.936  28.966  1.00  0.00     0.049 A 
ATOM     40  N   UNL A   1      42.599  29.067  30.052  1.00  0.00    -0.248 NA
ATOM     41  C   UNL A   1      42.960  26.898  29.269  1.00  0.00     0.031 C 
ATOM     42  C   UNL A   1      38.409  28.916  28.489  1.00  0.00     0.029 A 
ATOM     43  N   UNL A   1      39.928  30.178  29.536  1.00  0.00    -0.354 N 
ATOM     44  C   UNL A   1      43.884  28.661  30.393  1.00  0.00     0.074 A 
ATOM     45  C   UNL A   1      44.030  27.295  29.941  1.00  0.00     0.031 C 
ATOM     46  C   UNL A   1      37.833  30.100  28.754  1.00  0.00     0.029 A 
ATOM     47  C   UNL A   1      38.793  30.950  29.452  1.00  0.00     0.049 A 
ATOM     48  H   UNL A   1      40.758  30.487  29.965  1.00  0.00     0.167 HD
ATOM     49  C   UNL A   1      44.864  29.368  31.003  1.00  0.00     0.031 A 
ATOM     50  C   UNL A   1      38.551  32.202  29.888  1.00  0.00     0.031 A 
ATOM     51  C   UNL A   1      44.720  30.730  31.442  1.00  0.00     0.049 A 
ATOM     52  C   UNL A   1      39.651  32.960  30.578  1.00  0.00     0.074 A 
ATOM     53  C   UNL A   1      45.667  31.550  32.032  1.00  0.00     0.029 A 
ATOM     54  N   UNL A   1      43.555  31.475  31.338  1.00  0.00    -0.354 N 
ATOM     55  N   UNL A   1      40.881  32.579  30.835  1.00  0.00    -0.248 NA
ATOM     56  C   UNL A   1      39.337  34.324  31.027  1.00  0.00     0.031 C 
ATOM     57  C   UNL A   1      45.062  32.774  32.327  1.00  0.00     0.029 A 
ATOM     58  C   UNL A   1      43.754  32.739  31.869  1.00  0.00     0.049 A 
ATOM     59  H   UNL A   1      42.712  31.155  30.945  1.00  0.00     0.167 HD
ATOM     60  C   UNL A   1      41.494  33.667  31.448  1.00  0.00     0.074 A 
ATOM     61  C   UNL A   1      40.505  34.724  31.508  1.00  0.00     0.031 C 
ATOM     62  C   UNL A   1      42.760  33.780  31.918  1.00  0.00     0.031 A 
BRANCH  49  63
ATOM     63  C   UNL A   1      46.184  28.679  31.225  1.00  0.00    -0.014 A 
ATOM     64  C   UNL A   1      47.247  28.843  30.316  1.00  0.00     0.010 A 
ATOM     65  C   UNL A   1      46.383  27.893  32.374  1.00  0.00     0.010 A 
ATOM     66  C   UNL A   1      48.469  28.202  30.532  1.00  0.00     0.020 A 
ATOM     67  C   UNL A   1      47.614  27.273  32.608  1.00  0.00     0.020 A 
ATOM     68  C   UNL A   1      48.645  27.419  31.676  1.00  0.00     0.054 A 
BRANCH  68  69
ATOM     69  S   UNL A   1      50.251  26.622  31.945  1.00  0.00     0.124 S 
ATOM     70  O   UNL A   1      50.020  25.288  31.398  1.00  0.00    -0.237 OA
ATOM     71  O   UNL A   1      51.161  27.467  31.174  1.00  0.00    -0.237 OA
ATOM     72  O   UNL A   1      50.429  26.679  33.394  1.00  0.00    -0.744 OA
ENDBRANCH  68  69
ENDBRANCH  49  63
BRANCH  50  73
ATOM     73  C   UNL A   1      37.218  32.828  29.668  1.00  0.00    -0.014 A 
ATOM     74  C   UNL A   1      36.919  33.456  28.446  1.00  0.00     0.010 A 
ATOM     75  C   UNL A   1      36.243  32.806  30.681  1.00  0.00     0.010 A 
ATOM     76  C   UNL A   1      35.681  34.077  28.252  1.00  0.00     0.020 A 
ATOM     77  C   UNL A   1      34.993  33.401  30.481  1.00  0.00     0.020 A 
ATOM     78  C   UNL A   1      34.726  34.046  29.271  1.00  0.00     0.054 A 
BRANCH  78  79
ATOM     79  S   UNL A   1      33.115  34.831  28.988  1.00  0.00     0.124 S 
ATOM     80  O   UNL A   1      33.503  36.151  28.501  1.00  0.00    -0.237 OA
ATOM     81  O   UNL A   1      32.502  33.947  28.000  1.00  0.00    -0.237 OA
ATOM     82  O   UNL A   1      32.487  34.808  30.306  1.00  0.00    -0.744 OA
ENDBRANCH  78  79
ENDBRANCH  50  73
BRANCH  62  83
ATOM     83  C   UNL A   1      43.165  35.106  32.505  1.00  0.00    -0.014 A 
ATOM     84  C   UNL A   1      43.777  36.097  31.717  1.00  0.00     0.010 A 
ATOM     85  C   UNL A   1      42.876  35.382  33.854  1.00  0.00     0.010 A 
ATOM     86  C   UNL A   1      44.123  37.330  32.276  1.00  0.00     0.020 A 
ATOM     87  C   UNL A   1      43.195  36.625  34.409  1.00  0.00     0.020 A 
ATOM     88  C   UNL A   1      43.828  37.585  33.620  1.00  0.00     0.054 A 
BRANCH  88  89
ATOM     89  S   UNL A   1      44.246  39.209  34.311  1.00  0.00     0.124 S 
ATOM     90  O   UNL A   1      43.118  40.026  33.871  1.00  0.00    -0.237 OA
ATOM     91  O   UNL A   1      44.305  38.941  35.746  1.00  0.00    -0.237 OA
ATOM     92  O   UNL A   1      45.528  39.532  33.690  1.00  0.00    -0.744 OA
ENDBRANCH  88  89
ENDBRANCH  62  83
ENDBRANCH  36  37
ENDBRANCH  28  31
ENDBRANCH  26  27
ENDBRANCH  25  26
ENDBRANCH   1  25
TORSDOF 17
ENDMDL
MODEL 3
REMARK VINA RESULT:     -10.9      3.326      4.227
REMARK SMILES COc1ccc(C(=O)Nc2cccc(C(=O)NCCCCNC(=O)c3ccc(-c4c5nc(c(-c6ccc(S(=O)(=O)[O-])cc6)c6ccc([nH]6)c(-c6ccc(S(=O)(=O)[O-])cc6)c6nc(c(-c7ccc(S(=O)(=O)[O-])cc7)c7ccc4[nH]7)C=C6)C=C5)cc3)c2)cc1
REMARK SMILES IDX 19 1 18 2 17 3 15 4 16 5 14 7 10 8 11 9 85 10 12 11 13 12
REMARK SMILES IDX 9 13 7 14 8 15 6 17 3 18 4 19 87 20 5 21 86 22 2 23 1 24
REMARK SMILES IDX 20 25 21 26 22 27 23 28 24 30 25 31 26 32 84 33 27 34 83 35
REMARK SMILES IDX 28 36 29 37 30 38 77 39 31 40 82 41 76 42 78 43 32 44 81 45
REMARK SMILES IDX 75 46 74 47 33 49 63 50 44 51 62 52 45 53 48 54 61 55 79 56
REMARK SMILES IDX 46 57 47 58 60 60 80 61 49 62 34 63 35 64 43 65 36 66 42 67
REMARK SMILES IDX 37 68 38 69 39 70 40 71 41 72 64 73 65 74 73 75 66 76 72 77
REMARK SMILES IDX 67 78 68 79 69 80 70 81 71 82 50 83 51 84 59 85 52 86 58 87
REMARK SMILES IDX 53 88 54 89 55 90 56 91 57 92
REMARK H PARENT 17 6 9 16 22 29 78 48 48 59
REMARK Flexibility Score: inf
ROOT
ATOM      1  C   UNL A   1      35.165  29.426  27.292  1.00  0.00     0.023 C 
ENDROOT
BRANCH   1   2
ATOM      2  C   UNL A   1      34.072  28.760  26.454  1.00  0.00     0.116 C 
BRANCH   2   3
ATOM      3  N   UNL A   1      33.047  29.716  26.086  1.00  0.00    -0.352 N 
ATOM      4  C   UNL A   1      31.806  29.584  25.514  1.00  0.00     0.251 C 
ATOM      5  O   UNL A   1      31.155  30.617  25.347  1.00  0.00    -0.269 OA
ATOM      6  H   UNL A   1      33.289  30.649  26.289  1.00  0.00     0.163 HD
BRANCH   4   7
ATOM      7  C   UNL A   1      31.182  28.278  25.144  1.00  0.00     0.041 A 
ATOM      8  C   UNL A   1      30.302  26.065  25.609  1.00  0.00     0.042 A 
ATOM      9  C   UNL A   1      29.851  25.937  24.299  1.00  0.00     0.026 A 
ATOM     10  C   UNL A   1      31.056  27.178  25.990  1.00  0.00     0.040 A 
ATOM     11  C   UNL A   1      30.018  27.000  23.416  1.00  0.00     0.003 A 
ATOM     12  C   UNL A   1      30.652  28.172  23.845  1.00  0.00     0.014 A 
BRANCH   8  13
ATOM     13  N   UNL A   1      29.906  25.102  26.548  1.00  0.00    -0.322 N 
ATOM     14  C   UNL A   1      30.361  23.803  26.704  1.00  0.00     0.255 C 
ATOM     15  O   UNL A   1      29.714  23.024  27.403  1.00  0.00    -0.269 OA
ATOM     16  H   UNL A   1      29.212  25.389  27.186  1.00  0.00     0.170 HD
BRANCH  14  17
ATOM     17  C   UNL A   1      31.679  23.349  26.147  1.00  0.00     0.040 A 
ATOM     18  C   UNL A   1      34.117  22.418  25.057  1.00  0.00     0.118 A 
ATOM     19  C   UNL A   1      32.899  21.851  24.671  1.00  0.00     0.047 A 
ATOM     20  C   UNL A   1      34.116  23.430  26.015  1.00  0.00     0.047 A 
ATOM     21  C   UNL A   1      31.688  22.311  25.207  1.00  0.00     0.017 A 
ATOM     22  C   UNL A   1      32.910  23.862  26.581  1.00  0.00     0.017 A 
BRANCH  18  23
ATOM     23  O   UNL A   1      35.221  21.900  24.441  1.00  0.00    -0.497 OA
ATOM     24  C   UNL A   1      35.925  20.872  25.130  1.00  0.00     0.278 C 
ENDBRANCH  18  23
ENDBRANCH  14  17
ENDBRANCH   8  13
ENDBRANCH   4   7
ENDBRANCH   2   3
ENDBRANCH   1   2
BRANCH   1  25
ATOM     25  C   UNL A   1      34.754  30.788  27.855  1.00  0.00     0.023 C 
BRANCH  25  26
ATOM     26  C   UNL A   1      35.773  31.418  28.800  1.00  0.00     0.116 C 
BRANCH  26  27
ATOM     27  N   UNL A   1      35.625  30.982  30.180  1.00  0.00    -0.352 N 
ATOM     28  C   UNL A   1      36.551  30.352  30.980  1.00  0.00     0.251 C 
ATOM     29  H   UNL A   1      34.749  31.160  30.594  1.00  0.00     0.163 HD
ATOM     30  O   UNL A   1      36.238  29.948  32.088  1.00  0.00    -0.269 OA
BRANCH  28  31
ATOM     31  C   UNL A   1      37.918  30.141  30.457  1.00  0.00     0.039 A 
ATOM     32  C   UNL A   1      38.956  29.915  31.362  1.00  0.00     0.014 A 
ATOM     33  C   UNL A   1      38.160  30.122  29.080  1.00  0.00     0.014 A 
ATOM     34  C   UNL A   1      40.230  29.607  30.882  1.00  0.00     0.010 A 
ATOM     35  C   UNL A   1      39.410  29.741  28.606  1.00  0.00     0.010 A 
ATOM     36  C   UNL A   1      40.459  29.483  29.501  1.00  0.00    -0.014 A 
BRANCH  36  37
ATOM     37  C   UNL A   1      41.790  29.086  28.979  1.00  0.00     0.031 A 
ATOM     38  C   UNL A   1      42.897  30.101  28.887  1.00  0.00     0.074 A 
ATOM     39  C   UNL A   1      41.988  27.826  28.544  1.00  0.00     0.049 A 
ATOM     40  N   UNL A   1      44.115  29.952  28.435  1.00  0.00    -0.248 NA
ATOM     41  C   UNL A   1      42.589  31.467  29.343  1.00  0.00     0.031 C 
ATOM     42  C   UNL A   1      40.982  26.760  28.541  1.00  0.00     0.029 A 
ATOM     43  N   UNL A   1      43.106  27.224  28.022  1.00  0.00    -0.354 N 
ATOM     44  C   UNL A   1      44.714  31.202  28.544  1.00  0.00     0.074 A 
ATOM     45  C   UNL A   1      43.709  32.111  29.049  1.00  0.00     0.031 C 
ATOM     46  C   UNL A   1      41.538  25.629  28.075  1.00  0.00     0.029 A 
ATOM     47  C   UNL A   1      42.926  25.896  27.712  1.00  0.00     0.049 A 
ATOM     48  H   UNL A   1      43.957  27.698  27.882  1.00  0.00     0.167 HD
ATOM     49  C   UNL A   1      45.992  31.557  28.273  1.00  0.00     0.031 A 
ATOM     50  C   UNL A   1      43.781  24.994  27.192  1.00  0.00     0.031 A 
ATOM     51  C   UNL A   1      46.993  30.649  27.780  1.00  0.00     0.049 A 
ATOM     52  C   UNL A   1      45.191  25.418  26.884  1.00  0.00     0.074 A 
ATOM     53  C   UNL A   1      48.328  30.900  27.515  1.00  0.00     0.029 A 
ATOM     54  N   UNL A   1      46.770  29.314  27.480  1.00  0.00    -0.354 N 
ATOM     55  N   UNL A   1      45.756  26.591  27.053  1.00  0.00    -0.248 NA
ATOM     56  C   UNL A   1      46.085  24.394  26.326  1.00  0.00     0.031 C 
ATOM     57  C   UNL A   1      48.901  29.730  27.010  1.00  0.00     0.029 A 
ATOM     58  C   UNL A   1      47.938  28.733  27.015  1.00  0.00     0.049 A 
ATOM     59  H   UNL A   1      45.909  28.848  27.582  1.00  0.00     0.167 HD
ATOM     60  C   UNL A   1      47.078  26.436  26.650  1.00  0.00     0.074 A 
ATOM     61  C   UNL A   1      47.232  25.054  26.245  1.00  0.00     0.031 C 
ATOM     62  C   UNL A   1      48.075  27.355  26.620  1.00  0.00     0.031 A 
BRANCH  49  63
ATOM     63  C   UNL A   1      46.381  32.993  28.512  1.00  0.00    -0.014 A 
ATOM     64  C   UNL A   1      46.269  33.951  27.487  1.00  0.00     0.010 A 
ATOM     65  C   UNL A   1      46.822  33.400  29.783  1.00  0.00     0.010 A 
ATOM     66  C   UNL A   1      46.629  35.281  27.719  1.00  0.00     0.020 A 
ATOM     67  C   UNL A   1      47.156  34.735  30.027  1.00  0.00     0.020 A 
ATOM     68  C   UNL A   1      47.072  35.664  28.987  1.00  0.00     0.054 A 
BRANCH  68  69
ATOM     69  S   UNL A   1      47.506  37.403  29.266  1.00  0.00     0.124 S 
ATOM     70  O   UNL A   1      47.924  37.827  27.932  1.00  0.00    -0.237 OA
ATOM     71  O   UNL A   1      46.248  37.975  29.741  1.00  0.00    -0.237 OA
ATOM     72  O   UNL A   1      48.573  37.339  30.262  1.00  0.00    -0.744 OA
ENDBRANCH  68  69
ENDBRANCH  49  63
BRANCH  50  73
ATOM     73  C   UNL A   1      43.338  23.593  26.949  1.00  0.00    -0.014 A 
ATOM     74  C   UNL A   1      43.064  23.149  25.643  1.00  0.00     0.010 A 
ATOM     75  C   UNL A   1      43.178  22.700  28.023  1.00  0.00     0.010 A 
ATOM     76  C   UNL A   1      42.612  21.846  25.419  1.00  0.00     0.020 A 
ATOM     77  C   UNL A   1      42.754  21.386  27.799  1.00  0.00     0.020 A 
ATOM     78  C   UNL A   1      42.458  20.972  26.498  1.00  0.00     0.054 A 
BRANCH  78  79
ATOM     79  S   UNL A   1      41.899  19.275  26.181  1.00  0.00     0.124 S 
ATOM     80  O   UNL A   1      42.714  18.898  25.031  1.00  0.00    -0.237 OA
ATOM     81  O   UNL A   1      42.221  18.597  27.435  1.00  0.00    -0.237 OA
ATOM     82  O   UNL A   1      40.472  19.430  25.915  1.00  0.00    -0.744 OA
ENDBRANCH  78  79
ENDBRANCH  50  73
BRANCH  62  83
ATOM     83  C   UNL A   1      49.433  26.888  26.167  1.00  0.00    -0.014 A 
ATOM     84  C   UNL A   1      49.883  27.115  24.855  1.00  0.00     0.010 A 
ATOM     85  C   UNL A   1      50.291  26.261  27.089  1.00  0.00     0.010 A 
ATOM     86  C   UNL A   1      51.156  26.695  24.463  1.00  0.00     0.020 A 
ATOM     87  C   UNL A   1      51.576  25.864  26.709  1.00  0.00     0.020 A 
ATOM     88  C   UNL A   1      51.995  26.072  25.394  1.00  0.00     0.054 A 
BRANCH  88  89
ATOM     89  S   UNL A   1      53.659  25.576  24.873  1.00  0.00     0.124 S 
ATOM     90  O   UNL A   1      53.651  24.142  25.153  1.00  0.00    -0.237 OA
ATOM     91  O   UNL A   1      53.675  25.940  23.458  1.00  0.00    -0.237 OA
ATOM     92  O   UNL A   1      54.541  26.371  25.724  1.00  0.00    -0.744 OA
ENDBRANCH  88  89
ENDBRANCH  62  83
ENDBRANCH  36  37
ENDBRANCH  28  31
ENDBRANCH  26  27
ENDBRANCH  25  26
ENDBRANCH   1  25
TORSDOF 17
ENDMDL
