MODEL 1
REMARK VINA RESULT:     -12.6      0.000      0.000
REMARK SMILES CC1=C2C(=O)CC(C)(C)CC2=N[C@@H]1C(=O)NCCCCNC(=O)c1ccc(-c2c3nc(c(-c4ccc(S(=O)(=O)[O-])cc4)c4ccc([nH]4)c(-c4ccc(S(=O)(=O)[O-])cc4)c4nc(c(-c5ccc(S(=O)(=O)[O-])cc5)c5ccc2[nH]5)C=C4)C=C3)cc1
REMARK SMILES IDX 20 1 19 2 18 3 17 4 16 5 14 6 15 7 13 9 1 10 2 11 3 12 4 13
REMARK SMILES IDX 11 14 12 15 5 16 6 17 10 18 7 19 8 20 9 21 21 22 22 23 23 25
REMARK SMILES IDX 24 26 25 27 83 28 26 29 82 30 27 31 28 32 29 33 76 34 30 35
REMARK SMILES IDX 81 36 75 37 77 38 31 39 80 40 74 41 73 42 32 44 62 45 43 46
REMARK SMILES IDX 61 47 44 48 47 49 60 50 78 51 45 52 46 53 59 55 79 56 48 57
REMARK SMILES IDX 33 58 34 59 42 60 35 61 41 62 36 63 37 64 38 65 39 66 40 67
REMARK SMILES IDX 63 68 64 69 72 70 65 71 71 72 66 73 67 74 68 75 69 76 70 77
REMARK SMILES IDX 49 78 50 79 58 80 51 81 57 82 52 83 53 84 54 85 55 86 56 87
REMARK H PARENT 16 8 21 24 77 43 47 54
REMARK Flexibility Score: inf
ROOT
ATOM      1  C   UNL A   1      38.962  20.230  25.633  1.00  0.00     0.116 C 
ENDROOT
BRANCH   1   2
ATOM      2  C   UNL A   1      37.720  19.698  24.951  1.00  0.00     0.023 C 
BRANCH   2   3
ATOM      3  C   UNL A   1      36.537  20.679  24.970  1.00  0.00     0.023 C 
BRANCH   3   4
ATOM      4  C   UNL A   1      35.127  20.060  24.934  1.00  0.00     0.116 C 
BRANCH   4   5
ATOM      5  N   UNL A   1      34.236  20.778  25.813  1.00  0.00    -0.354 N 
ATOM      6  C   UNL A   1      33.572  21.943  25.584  1.00  0.00     0.249 C 
ATOM      7  O   UNL A   1      33.335  22.642  26.576  1.00  0.00    -0.272 OA
ATOM      8  H   UNL A   1      34.088  20.369  26.697  1.00  0.00     0.163 HD
BRANCH   6   9
ATOM      9  C   UNL A   1      33.114  22.339  24.141  1.00  0.00     0.221 C 
ATOM     10  C   UNL A   1      35.359  23.576  23.461  1.00  0.00     0.043 C 
ATOM     11  C   UNL A   1      33.880  23.468  23.484  1.00  0.00    -0.027 C 
ATOM     12  C   UNL A   1      33.065  24.480  23.177  1.00  0.00     0.040 C 
ATOM     13  C   UNL A   1      33.320  25.840  22.690  1.00  0.00     0.165 C 
ATOM     14  C   UNL A   1      31.998  24.184  24.113  1.00  0.00     0.048 C 
ATOM     15  N   UNL A   1      31.749  22.936  24.368  1.00  0.00    -0.271 NA
ATOM     16  O   UNL A   1      33.787  26.036  21.571  1.00  0.00    -0.294 OA
ATOM     17  C   UNL A   1      32.917  26.973  23.616  1.00  0.00     0.088 C 
ATOM     18  C   UNL A   1      31.443  25.327  24.910  1.00  0.00     0.063 C 
ATOM     19  C   UNL A   1      32.497  26.483  25.027  1.00  0.00    -0.023 C 
ATOM     20  C   UNL A   1      33.778  26.090  25.814  1.00  0.00     0.012 C 
ATOM     21  C   UNL A   1      31.846  27.633  25.810  1.00  0.00     0.012 C 
ENDBRANCH   6   9
ENDBRANCH   4   5
ENDBRANCH   3   4
ENDBRANCH   2   3
ENDBRANCH   1   2
BRANCH   1  22
ATOM     22  N   UNL A   1      39.998  19.204  25.797  1.00  0.00    -0.352 N 
ATOM     23  C   UNL A   1      41.355  19.391  25.993  1.00  0.00     0.251 C 
ATOM     24  H   UNL A   1      39.691  18.270  25.762  1.00  0.00     0.163 HD
ATOM     25  O   UNL A   1      42.158  18.492  25.746  1.00  0.00    -0.269 OA
BRANCH  23  26
ATOM     26  C   UNL A   1      41.805  20.687  26.521  1.00  0.00     0.039 A 
ATOM     27  C   UNL A   1      42.407  21.672  25.735  1.00  0.00     0.014 A 
ATOM     28  C   UNL A   1      41.531  20.919  27.863  1.00  0.00     0.014 A 
ATOM     29  C   UNL A   1      42.663  22.914  26.316  1.00  0.00     0.010 A 
ATOM     30  C   UNL A   1      41.518  22.196  28.332  1.00  0.00     0.010 A 
ATOM     31  C   UNL A   1      42.201  23.163  27.618  1.00  0.00    -0.014 A 
BRANCH  31  32
ATOM     32  C   UNL A   1      42.359  24.440  28.290  1.00  0.00     0.031 A 
ATOM     33  C   UNL A   1      41.263  25.403  28.045  1.00  0.00     0.074 A 
ATOM     34  C   UNL A   1      43.288  24.635  29.253  1.00  0.00     0.049 A 
ATOM     35  N   UNL A   1      41.293  26.422  27.256  1.00  0.00    -0.248 NA
ATOM     36  C   UNL A   1      39.930  25.112  28.595  1.00  0.00     0.031 C 
ATOM     37  C   UNL A   1      44.224  23.671  29.855  1.00  0.00     0.029 A 
ATOM     38  N   UNL A   1      43.513  25.749  29.991  1.00  0.00    -0.354 N 
ATOM     39  C   UNL A   1      40.062  27.050  27.400  1.00  0.00     0.074 A 
ATOM     40  C   UNL A   1      39.203  26.091  28.049  1.00  0.00     0.031 C 
ATOM     41  C   UNL A   1      44.729  24.179  31.003  1.00  0.00     0.029 A 
ATOM     42  C   UNL A   1      44.307  25.562  31.116  1.00  0.00     0.049 A 
ATOM     43  H   UNL A   1      43.139  26.627  29.748  1.00  0.00     0.167 HD
ATOM     44  C   UNL A   1      39.930  28.393  27.210  1.00  0.00     0.031 A 
ATOM     45  C   UNL A   1      44.583  26.486  32.071  1.00  0.00     0.031 A 
ATOM     46  C   UNL A   1      41.133  28.962  26.653  1.00  0.00     0.049 A 
ATOM     47  C   UNL A   1      44.328  27.814  31.453  1.00  0.00     0.074 A 
ATOM     48  C   UNL A   1      41.855  28.761  25.493  1.00  0.00     0.029 A 
ATOM     49  N   UNL A   1      41.998  29.565  27.542  1.00  0.00    -0.354 N 
ATOM     50  N   UNL A   1      45.028  28.278  30.452  1.00  0.00    -0.248 NA
ATOM     51  C   UNL A   1      43.002  28.394  31.605  1.00  0.00     0.031 C 
ATOM     52  C   UNL A   1      43.219  28.797  25.904  1.00  0.00     0.029 A 
ATOM     53  C   UNL A   1      43.261  29.108  27.265  1.00  0.00     0.049 A 
ATOM     54  H   UNL A   1      41.753  30.206  28.247  1.00  0.00     0.167 HD
ATOM     55  C   UNL A   1      44.097  28.866  29.607  1.00  0.00     0.074 A 
ATOM     56  C   UNL A   1      42.881  28.989  30.413  1.00  0.00     0.031 C 
ATOM     57  C   UNL A   1      44.304  28.933  28.258  1.00  0.00     0.031 A 
BRANCH  44  58
ATOM     58  C   UNL A   1      38.902  29.259  27.892  1.00  0.00    -0.014 A 
ATOM     59  C   UNL A   1      37.630  29.381  27.297  1.00  0.00     0.010 A 
ATOM     60  C   UNL A   1      39.213  30.159  28.931  1.00  0.00     0.010 A 
ATOM     61  C   UNL A   1      36.750  30.405  27.665  1.00  0.00     0.020 A 
ATOM     62  C   UNL A   1      38.324  31.157  29.336  1.00  0.00     0.020 A 
ATOM     63  C   UNL A   1      37.113  31.297  28.674  1.00  0.00     0.054 A 
BRANCH  63  64
ATOM     64  S   UNL A   1      36.017  32.681  29.063  1.00  0.00     0.124 S 
ATOM     65  O   UNL A   1      36.907  33.567  29.808  1.00  0.00    -0.237 OA
ATOM     66  O   UNL A   1      35.623  33.145  27.736  1.00  0.00    -0.237 OA
ATOM     67  O   UNL A   1      34.949  32.062  29.845  1.00  0.00    -0.744 OA
ENDBRANCH  63  64
ENDBRANCH  44  58
BRANCH  45  68
ATOM     68  C   UNL A   1      44.746  26.293  33.534  1.00  0.00    -0.014 A 
ATOM     69  C   UNL A   1      45.169  27.347  34.366  1.00  0.00     0.010 A 
ATOM     70  C   UNL A   1      44.199  25.152  34.156  1.00  0.00     0.010 A 
ATOM     71  C   UNL A   1      44.988  27.291  35.762  1.00  0.00     0.020 A 
ATOM     72  C   UNL A   1      44.017  25.087  35.545  1.00  0.00     0.020 A 
ATOM     73  C   UNL A   1      44.389  26.169  36.340  1.00  0.00     0.054 A 
BRANCH  73  74
ATOM     74  S   UNL A   1      43.980  26.185  38.114  1.00  0.00     0.124 S 
ATOM     75  O   UNL A   1      44.519  24.906  38.569  1.00  0.00    -0.237 OA
ATOM     76  O   UNL A   1      44.683  27.372  38.593  1.00  0.00    -0.237 OA
ATOM     77  O   UNL A   1      42.522  26.285  38.132  1.00  0.00    -0.744 OA
ENDBRANCH  73  74
ENDBRANCH  45  68
BRANCH  57  78
ATOM     78  C   UNL A   1      45.673  28.588  27.714  1.00  0.00    -0.014 A 
ATOM     79  C   UNL A   1      46.069  27.288  27.340  1.00  0.00     0.010 A 
ATOM     80  C   UNL A   1      46.516  29.663  27.384  1.00  0.00     0.010 A 
ATOM     81  C   UNL A   1      47.279  27.075  26.657  1.00  0.00     0.020 A 
ATOM     82  C   UNL A   1      47.711  29.461  26.691  1.00  0.00     0.020 A 
ATOM     83  C   UNL A   1      48.090  28.167  26.333  1.00  0.00     0.054 A 
BRANCH  83  84
ATOM     84  S   UNL A   1      49.617  27.904  25.385  1.00  0.00     0.124 S 
ATOM     85  O   UNL A   1      49.130  27.837  24.011  1.00  0.00    -0.237 OA
ATOM     86  O   UNL A   1      50.412  29.085  25.715  1.00  0.00    -0.237 OA
ATOM     87  O   UNL A   1      50.145  26.647  25.916  1.00  0.00    -0.744 OA
ENDBRANCH  83  84
ENDBRANCH  57  78
ENDBRANCH  31  32
ENDBRANCH  23  26
ENDBRANCH   1  22
TORSDOF 14
ENDMDL
MODEL 2
REMARK VINA RESULT:     -12.5      3.396      8.154
REMARK SMILES CC1=C2C(=O)CC(C)(C)CC2=N[C@@H]1C(=O)NCCCCNC(=O)c1ccc(-c2c3nc(c(-c4ccc(S(=O)(=O)[O-])cc4)c4ccc([nH]4)c(-c4ccc(S(=O)(=O)[O-])cc4)c4nc(c(-c5ccc(S(=O)(=O)[O-])cc5)c5ccc2[nH]5)C=C4)C=C3)cc1
REMARK SMILES IDX 20 1 19 2 18 3 17 4 16 5 14 6 15 7 13 9 1 10 2 11 3 12 4 13
REMARK SMILES IDX 11 14 12 15 5 16 6 17 10 18 7 19 8 20 9 21 21 22 22 23 23 25
REMARK SMILES IDX 24 26 25 27 83 28 26 29 82 30 27 31 28 32 29 33 76 34 30 35
REMARK SMILES IDX 81 36 75 37 77 38 31 39 80 40 74 41 73 42 32 44 62 45 43 46
REMARK SMILES IDX 61 47 44 48 47 49 60 50 78 51 45 52 46 53 59 55 79 56 48 57
REMARK SMILES IDX 33 58 34 59 42 60 35 61 41 62 36 63 37 64 38 65 39 66 40 67
REMARK SMILES IDX 63 68 64 69 72 70 65 71 71 72 66 73 67 74 68 75 69 76 70 77
REMARK SMILES IDX 49 78 50 79 58 80 51 81 57 82 52 83 53 84 54 85 55 86 56 87
REMARK H PARENT 16 8 21 24 77 43 47 54
REMARK Flexibility Score: inf
ROOT
ATOM      1  C   UNL A   1      40.084  22.424  27.308  1.00  0.00     0.116 C 
ENDROOT
BRANCH   1   2
ATOM      2  C   UNL A   1      38.945  22.565  26.321  1.00  0.00     0.023 C 
BRANCH   2   3
ATOM      3  C   UNL A   1      38.710  21.309  25.468  1.00  0.00     0.023 C 
BRANCH   3   4
ATOM      4  C   UNL A   1      37.280  21.092  24.938  1.00  0.00     0.116 C 
BRANCH   4   5
ATOM      5  N   UNL A   1      36.906  22.158  24.041  1.00  0.00    -0.354 N 
ATOM      6  C   UNL A   1      35.886  23.051  24.160  1.00  0.00     0.249 C 
ATOM      7  O   UNL A   1      35.408  23.480  23.104  1.00  0.00    -0.272 OA
ATOM      8  H   UNL A   1      37.463  22.252  23.234  1.00  0.00     0.163 HD
BRANCH   6   9
ATOM      9  C   UNL A   1      35.386  23.520  25.567  1.00  0.00     0.221 C 
ATOM     10  C   UNL A   1      33.737  21.485  25.975  1.00  0.00     0.043 C 
ATOM     11  C   UNL A   1      34.077  22.927  26.043  1.00  0.00    -0.027 C 
ATOM     12  C   UNL A   1      33.175  23.885  26.267  1.00  0.00     0.040 C 
ATOM     13  C   UNL A   1      31.741  23.839  26.574  1.00  0.00     0.165 C 
ATOM     14  C   UNL A   1      33.751  24.920  25.432  1.00  0.00     0.048 C 
ATOM     15  N   UNL A   1      35.045  24.971  25.342  1.00  0.00    -0.271 NA
ATOM     16  O   UNL A   1      31.333  23.373  27.635  1.00  0.00    -0.294 OA
ATOM     17  C   UNL A   1      30.813  24.450  25.541  1.00  0.00     0.088 C 
ATOM     18  C   UNL A   1      32.821  25.678  24.534  1.00  0.00     0.063 C 
ATOM     19  C   UNL A   1      31.538  24.831  24.223  1.00  0.00    -0.023 C 
ATOM     20  C   UNL A   1      31.821  23.529  23.423  1.00  0.00     0.012 C 
ATOM     21  C   UNL A   1      30.613  25.685  23.343  1.00  0.00     0.012 C 
ENDBRANCH   6   9
ENDBRANCH   4   5
ENDBRANCH   3   4
ENDBRANCH   2   3
ENDBRANCH   1   2
BRANCH   1  22
ATOM     22  N   UNL A   1      41.370  22.165  26.650  1.00  0.00    -0.352 N 
ATOM     23  C   UNL A   1      42.219  23.080  26.053  1.00  0.00     0.251 C 
ATOM     24  H   UNL A   1      41.664  21.226  26.631  1.00  0.00     0.163 HD
ATOM     25  O   UNL A   1      43.057  22.719  25.227  1.00  0.00    -0.269 OA
BRANCH  23  26
ATOM     26  C   UNL A   1      42.101  24.492  26.447  1.00  0.00     0.039 A 
ATOM     27  C   UNL A   1      41.359  25.432  25.730  1.00  0.00     0.014 A 
ATOM     28  C   UNL A   1      42.723  24.838  27.639  1.00  0.00     0.014 A 
ATOM     29  C   UNL A   1      41.206  26.707  26.276  1.00  0.00     0.010 A 
ATOM     30  C   UNL A   1      42.337  25.967  28.292  1.00  0.00     0.010 A 
ATOM     31  C   UNL A   1      41.694  26.955  27.568  1.00  0.00    -0.014 A 
BRANCH  31  32
ATOM     32  C   UNL A   1      41.531  28.225  28.253  1.00  0.00     0.031 A 
ATOM     33  C   UNL A   1      42.592  29.215  27.970  1.00  0.00     0.074 A 
ATOM     34  C   UNL A   1      40.383  28.559  28.884  1.00  0.00     0.049 A 
ATOM     35  N   UNL A   1      43.574  29.537  28.741  1.00  0.00    -0.248 NA
ATOM     36  C   UNL A   1      42.683  29.788  26.618  1.00  0.00     0.031 C 
ATOM     37  C   UNL A   1      39.110  27.822  28.957  1.00  0.00     0.029 A 
ATOM     38  N   UNL A   1      40.077  29.718  29.515  1.00  0.00    -0.354 N 
ATOM     39  C   UNL A   1      44.268  30.539  28.076  1.00  0.00     0.074 A 
ATOM     40  C   UNL A   1      43.816  30.490  26.708  1.00  0.00     0.031 C 
ATOM     41  C   UNL A   1      38.127  28.648  29.381  1.00  0.00     0.029 A 
ATOM     42  C   UNL A   1      38.728  29.903  29.789  1.00  0.00     0.049 A 
ATOM     43  H   UNL A   1      40.762  30.381  29.761  1.00  0.00     0.167 HD
ATOM     44  C   UNL A   1      44.960  31.492  28.762  1.00  0.00     0.031 A 
ATOM     45  C   UNL A   1      38.156  31.020  30.306  1.00  0.00     0.031 A 
ATOM     46  C   UNL A   1      45.036  31.171  30.167  1.00  0.00     0.049 A 
ATOM     47  C   UNL A   1      39.245  31.772  30.983  1.00  0.00     0.074 A 
ATOM     48  C   UNL A   1      45.553  30.119  30.895  1.00  0.00     0.029 A 
ATOM     49  N   UNL A   1      44.122  31.794  30.990  1.00  0.00    -0.354 N 
ATOM     50  N   UNL A   1      39.880  31.313  32.029  1.00  0.00    -0.248 NA
ATOM     51  C   UNL A   1      39.961  32.778  30.213  1.00  0.00     0.031 C 
ATOM     52  C   UNL A   1      44.584  29.870  31.911  1.00  0.00     0.029 A 
ATOM     53  C   UNL A   1      43.580  30.836  31.808  1.00  0.00     0.049 A 
ATOM     54  H   UNL A   1      43.900  32.753  30.990  1.00  0.00     0.167 HD
ATOM     55  C   UNL A   1      41.213  31.633  31.806  1.00  0.00     0.074 A 
ATOM     56  C   UNL A   1      41.188  32.614  30.719  1.00  0.00     0.031 C 
ATOM     57  C   UNL A   1      42.223  30.867  32.316  1.00  0.00     0.031 A 
BRANCH  44  58
ATOM     58  C   UNL A   1      45.209  32.893  28.268  1.00  0.00    -0.014 A 
ATOM     59  C   UNL A   1      46.541  33.346  28.184  1.00  0.00     0.010 A 
ATOM     60  C   UNL A   1      44.194  33.863  28.142  1.00  0.00     0.010 A 
ATOM     61  C   UNL A   1      46.842  34.707  28.065  1.00  0.00     0.020 A 
ATOM     62  C   UNL A   1      44.482  35.219  27.979  1.00  0.00     0.020 A 
ATOM     63  C   UNL A   1      45.806  35.637  27.980  1.00  0.00     0.054 A 
BRANCH  63  64
ATOM     64  S   UNL A   1      46.204  37.400  27.940  1.00  0.00     0.124 S 
ATOM     65  O   UNL A   1      47.569  37.410  28.459  1.00  0.00    -0.237 OA
ATOM     66  O   UNL A   1      46.060  37.718  26.523  1.00  0.00    -0.237 OA
ATOM     67  O   UNL A   1      45.196  37.997  28.814  1.00  0.00    -0.744 OA
ENDBRANCH  63  64
ENDBRANCH  44  58
BRANCH  45  68
ATOM     68  C   UNL A   1      36.833  31.619  29.996  1.00  0.00    -0.014 A 
ATOM     69  C   UNL A   1      36.001  32.122  31.014  1.00  0.00     0.010 A 
ATOM     70  C   UNL A   1      36.515  31.967  28.666  1.00  0.00     0.010 A 
ATOM     71  C   UNL A   1      34.936  32.994  30.722  1.00  0.00     0.020 A 
ATOM     72  C   UNL A   1      35.455  32.835  28.366  1.00  0.00     0.020 A 
ATOM     73  C   UNL A   1      34.685  33.365  29.399  1.00  0.00     0.054 A 
BRANCH  73  74
ATOM     74  S   UNL A   1      33.436  34.642  29.046  1.00  0.00     0.124 S 
ATOM     75  O   UNL A   1      34.248  35.732  28.511  1.00  0.00    -0.237 OA
ATOM     76  O   UNL A   1      32.562  33.976  28.085  1.00  0.00    -0.237 OA
ATOM     77  O   UNL A   1      32.831  34.903  30.350  1.00  0.00    -0.744 OA
ENDBRANCH  73  74
ENDBRANCH  45  68
BRANCH  57  78
ATOM     78  C   UNL A   1      41.884  29.807  33.342  1.00  0.00    -0.014 A 
ATOM     79  C   UNL A   1      41.611  28.461  33.024  1.00  0.00     0.010 A 
ATOM     80  C   UNL A   1      42.050  30.153  34.694  1.00  0.00     0.010 A 
ATOM     81  C   UNL A   1      41.504  27.493  34.037  1.00  0.00     0.020 A 
ATOM     82  C   UNL A   1      41.963  29.194  35.703  1.00  0.00     0.020 A 
ATOM     83  C   UNL A   1      41.686  27.866  35.372  1.00  0.00     0.054 A 
BRANCH  83  84
ATOM     84  S   UNL A   1      41.624  26.605  36.677  1.00  0.00     0.124 S 
ATOM     85  O   UNL A   1      41.513  25.366  35.916  1.00  0.00    -0.237 OA
ATOM     86  O   UNL A   1      42.889  26.802  37.381  1.00  0.00    -0.237 OA
ATOM     87  O   UNL A   1      40.434  26.964  37.451  1.00  0.00    -0.744 OA
ENDBRANCH  83  84
ENDBRANCH  57  78
ENDBRANCH  31  32
ENDBRANCH  23  26
ENDBRANCH   1  22
TORSDOF 14
ENDMDL
MODEL 3
REMARK VINA RESULT:     -12.5      2.645      7.418
REMARK SMILES CC1=C2C(=O)CC(C)(C)CC2=N[C@@H]1C(=O)NCCCCNC(=O)c1ccc(-c2c3nc(c(-c4ccc(S(=O)(=O)[O-])cc4)c4ccc([nH]4)c(-c4ccc(S(=O)(=O)[O-])cc4)c4nc(c(-c5ccc(S(=O)(=O)[O-])cc5)c5ccc2[nH]5)C=C4)C=C3)cc1
REMARK SMILES IDX 20 1 19 2 18 3 17 4 16 5 14 6 15 7 13 9 1 10 2 11 3 12 4 13
REMARK SMILES IDX 11 14 12 15 5 16 6 17 10 18 7 19 8 20 9 21 21 22 22 23 23 25
REMARK SMILES IDX 24 26 25 27 83 28 26 29 82 30 27 31 28 32 29 33 76 34 30 35
REMARK SMILES IDX 81 36 75 37 77 38 31 39 80 40 74 41 73 42 32 44 62 45 43 46
REMARK SMILES IDX 61 47 44 48 47 49 60 50 78 51 45 52 46 53 59 55 79 56 48 57
REMARK SMILES IDX 33 58 34 59 42 60 35 61 41 62 36 63 37 64 38 65 39 66 40 67
REMARK SMILES IDX 63 68 64 69 72 70 65 71 71 72 66 73 67 74 68 75 69 76 70 77
REMARK SMILES IDX 49 78 50 79 58 80 51 81 57 82 52 83 53 84 54 85 55 86 56 87
REMARK H PARENT 16 8 21 24 77 43 47 54
REMARK Flexibility Score: inf
ROOT
ATOM      1  C   UNL A   1      42.113  19.905  27.170  1.00  0.00     0.116 C 
ENDROOT
BRANCH   1   2
ATOM      2  C   UNL A   1      40.860  20.446  26.517  1.00  0.00     0.023 C 
BRANCH   2   3
ATOM      3  C   UNL A   1      40.290  21.692  27.213  1.00  0.00     0.023 C 
BRANCH   3   4
ATOM      4  C   UNL A   1      39.357  22.585  26.374  1.00  0.00     0.116 C 
BRANCH   4   5
ATOM      5  N   UNL A   1      38.452  21.779  25.591  1.00  0.00    -0.354 N 
ATOM      6  C   UNL A   1      37.094  21.840  25.532  1.00  0.00     0.249 C 
ATOM      7  O   UNL A   1      36.510  20.782  25.273  1.00  0.00    -0.272 OA
ATOM      8  H   UNL A   1      38.874  21.095  25.022  1.00  0.00     0.163 HD
BRANCH   6   9
ATOM      9  C   UNL A   1      36.338  23.192  25.751  1.00  0.00     0.221 C 
ATOM     10  C   UNL A   1      34.630  22.274  27.559  1.00  0.00     0.043 C 
ATOM     11  C   UNL A   1      34.959  23.094  26.368  1.00  0.00    -0.027 C 
ATOM     12  C   UNL A   1      34.035  23.609  25.553  1.00  0.00     0.040 C 
ATOM     13  C   UNL A   1      32.569  23.614  25.600  1.00  0.00     0.165 C 
ATOM     14  C   UNL A   1      34.766  23.495  24.306  1.00  0.00     0.048 C 
ATOM     15  N   UNL A   1      36.054  23.655  24.345  1.00  0.00    -0.271 NA
ATOM     16  O   UNL A   1      31.964  24.227  26.475  1.00  0.00    -0.294 OA
ATOM     17  C   UNL A   1      31.858  22.877  24.480  1.00  0.00     0.088 C 
ATOM     18  C   UNL A   1      34.028  22.946  23.122  1.00  0.00     0.063 C 
ATOM     19  C   UNL A   1      32.823  22.054  23.586  1.00  0.00    -0.023 C 
ATOM     20  C   UNL A   1      33.247  20.777  24.364  1.00  0.00     0.012 C 
ATOM     21  C   UNL A   1      32.088  21.567  22.328  1.00  0.00     0.012 C 
ENDBRANCH   6   9
ENDBRANCH   4   5
ENDBRANCH   3   4
ENDBRANCH   2   3
ENDBRANCH   1   2
BRANCH   1  22
ATOM     22  N   UNL A   1      43.199  19.683  26.208  1.00  0.00    -0.352 N 
ATOM     23  C   UNL A   1      43.797  20.610  25.374  1.00  0.00     0.251 C 
ATOM     24  H   UNL A   1      43.542  18.762  26.148  1.00  0.00     0.163 HD
ATOM     25  O   UNL A   1      44.415  20.252  24.371  1.00  0.00    -0.269 OA
BRANCH  23  26
ATOM     26  C   UNL A   1      43.689  22.032  25.730  1.00  0.00     0.039 A 
ATOM     27  C   UNL A   1      42.974  22.964  24.974  1.00  0.00     0.014 A 
ATOM     28  C   UNL A   1      44.290  22.402  26.927  1.00  0.00     0.014 A 
ATOM     29  C   UNL A   1      42.825  24.253  25.484  1.00  0.00     0.010 A 
ATOM     30  C   UNL A   1      43.903  23.551  27.542  1.00  0.00     0.010 A 
ATOM     31  C   UNL A   1      43.288  24.528  26.781  1.00  0.00    -0.014 A 
BRANCH  31  32
ATOM     32  C   UNL A   1      43.126  25.816  27.429  1.00  0.00     0.031 A 
ATOM     33  C   UNL A   1      44.120  26.835  27.028  1.00  0.00     0.074 A 
ATOM     34  C   UNL A   1      42.018  26.130  28.137  1.00  0.00     0.049 A 
ATOM     35  N   UNL A   1      45.145  27.224  27.707  1.00  0.00    -0.248 NA
ATOM     36  C   UNL A   1      44.082  27.357  25.654  1.00  0.00     0.031 C 
ATOM     37  C   UNL A   1      40.787  25.348  28.337  1.00  0.00     0.029 A 
ATOM     38  N   UNL A   1      41.715  27.301  28.749  1.00  0.00    -0.354 N 
ATOM     39  C   UNL A   1      45.744  28.225  26.953  1.00  0.00     0.074 A 
ATOM     40  C   UNL A   1      45.189  28.106  25.628  1.00  0.00     0.031 C 
ATOM     41  C   UNL A   1      39.805  26.152  28.808  1.00  0.00     0.029 A 
ATOM     42  C   UNL A   1      40.384  27.445  29.121  1.00  0.00     0.049 A 
ATOM     43  H   UNL A   1      42.388  27.998  28.916  1.00  0.00     0.167 HD
ATOM     44  C   UNL A   1      46.446  29.230  27.547  1.00  0.00     0.031 A 
ATOM     45  C   UNL A   1      39.808  28.558  29.642  1.00  0.00     0.031 A 
ATOM     46  C   UNL A   1      46.644  28.968  28.952  1.00  0.00     0.049 A 
ATOM     47  C   UNL A   1      40.915  29.377  30.202  1.00  0.00     0.074 A 
ATOM     48  C   UNL A   1      47.260  27.966  29.675  1.00  0.00     0.029 A 
ATOM     49  N   UNL A   1      45.772  29.587  29.823  1.00  0.00    -0.354 N 
ATOM     50  N   UNL A   1      41.647  28.985  31.211  1.00  0.00    -0.248 NA
ATOM     51  C   UNL A   1      41.526  30.379  29.342  1.00  0.00     0.031 C 
ATOM     52  C   UNL A   1      46.384  27.720  30.773  1.00  0.00     0.029 A 
ATOM     53  C   UNL A   1      45.336  28.642  30.714  1.00  0.00     0.049 A 
ATOM     54  H   UNL A   1      45.511  30.536  29.806  1.00  0.00     0.167 HD
ATOM     55  C   UNL A   1      42.944  29.346  30.871  1.00  0.00     0.074 A 
ATOM     56  C   UNL A   1      42.795  30.283  29.755  1.00  0.00     0.031 C 
ATOM     57  C   UNL A   1      44.022  28.640  31.327  1.00  0.00     0.031 A 
BRANCH  44  58
ATOM     58  C   UNL A   1      46.598  30.620  26.985  1.00  0.00    -0.014 A 
ATOM     59  C   UNL A   1      47.880  31.207  26.989  1.00  0.00     0.010 A 
ATOM     60  C   UNL A   1      45.506  31.467  26.705  1.00  0.00     0.010 A 
ATOM     61  C   UNL A   1      48.051  32.584  26.807  1.00  0.00     0.020 A 
ATOM     62  C   UNL A   1      45.670  32.835  26.478  1.00  0.00     0.020 A 
ATOM     63  C   UNL A   1      46.938  33.391  26.568  1.00  0.00     0.054 A 
BRANCH  63  64
ATOM     64  S   UNL A   1      47.158  35.181  26.447  1.00  0.00     0.124 S 
ATOM     65  O   UNL A   1      47.599  35.521  27.797  1.00  0.00    -0.237 OA
ATOM     66  O   UNL A   1      48.168  35.298  25.400  1.00  0.00    -0.237 OA
ATOM     67  O   UNL A   1      45.828  35.664  26.082  1.00  0.00    -0.744 OA
ENDBRANCH  63  64
ENDBRANCH  44  58
BRANCH  45  68
ATOM     68  C   UNL A   1      38.441  29.093  29.415  1.00  0.00    -0.014 A 
ATOM     69  C   UNL A   1      37.721  29.718  30.451  1.00  0.00     0.010 A 
ATOM     70  C   UNL A   1      37.960  29.254  28.099  1.00  0.00     0.010 A 
ATOM     71  C   UNL A   1      36.604  30.530  30.175  1.00  0.00     0.020 A 
ATOM     72  C   UNL A   1      36.848  30.060  27.815  1.00  0.00     0.020 A 
ATOM     73  C   UNL A   1      36.190  30.715  28.854  1.00  0.00     0.054 A 
BRANCH  73  74
ATOM     74  S   UNL A   1      34.872  31.918  28.487  1.00  0.00     0.124 S 
ATOM     75  O   UNL A   1      34.513  32.401  29.817  1.00  0.00    -0.237 OA
ATOM     76  O   UNL A   1      35.552  32.883  27.628  1.00  0.00    -0.237 OA
ATOM     77  O   UNL A   1      33.848  31.115  27.822  1.00  0.00    -0.744 OA
ENDBRANCH  73  74
ENDBRANCH  45  68
BRANCH  57  78
ATOM     78  C   UNL A   1      43.808  27.609  32.414  1.00  0.00    -0.014 A 
ATOM     79  C   UNL A   1      43.888  26.217  32.207  1.00  0.00     0.010 A 
ATOM     80  C   UNL A   1      43.722  28.084  33.734  1.00  0.00     0.010 A 
ATOM     81  C   UNL A   1      43.879  25.329  33.296  1.00  0.00     0.020 A 
ATOM     82  C   UNL A   1      43.731  27.208  34.821  1.00  0.00     0.020 A 
ATOM     83  C   UNL A   1      43.806  25.833  34.598  1.00  0.00     0.054 A 
BRANCH  83  84
ATOM     84  S   UNL A   1      43.870  24.693  36.011  1.00  0.00     0.124 S 
ATOM     85  O   UNL A   1      45.262  24.792  36.436  1.00  0.00    -0.237 OA
ATOM     86  O   UNL A   1      42.887  25.260  36.932  1.00  0.00    -0.237 OA
ATOM     87  O   UNL A   1      43.490  23.403  35.434  1.00  0.00    -0.744 OA
ENDBRANCH  83  84
ENDBRANCH  57  78
ENDBRANCH  31  32
ENDBRANCH  23  26
ENDBRANCH   1  22
TORSDOF 14
ENDMDL
