MODEL 1
REMARK VINA RESULT:     -12.4      0.000      0.000
REMARK SMILES O=C(NCCCCNC(=O)[C@H]1CC2(CCN(C(=O)c3cc4ccccc4[nH]3)CC2)CN1C(=O)C1CC1)c1ccc(-c2c3nc(c(-c4ccc(S(=O)(=O)[O-])cc4)c4ccc([nH]4)c(-c4ccc(S(=O)(=O)[O-])cc4)c4nc(c(-c5ccc(S(=O)(=O)[O-])cc5)c5ccc2[nH]5)C=C4)C=C3)cc1
REMARK SMILES IDX 5 1 4 2 3 3 1 4 2 5 37 7 38 8 96 9 39 10 95 11 40 12 41 13
REMARK SMILES IDX 42 14 89 15 43 16 94 17 88 18 90 19 44 20 93 21 87 22 86 23
REMARK SMILES IDX 45 25 75 26 56 27 74 28 57 29 60 30 73 31 91 32 58 33 59 34
REMARK SMILES IDX 72 36 92 37 61 38 46 39 47 40 55 41 48 42 54 43 49 44 50 45
REMARK SMILES IDX 51 46 52 47 53 48 76 49 77 50 85 51 78 52 84 53 79 54 80 55
REMARK SMILES IDX 81 56 82 57 83 58 62 59 63 60 71 61 64 62 70 63 65 64 66 65
REMARK SMILES IDX 67 66 68 67 69 68 6 69 7 70 8 71 9 72 10 74 11 75 12 76
REMARK SMILES IDX 31 77 13 78 30 79 14 80 29 81 15 82 28 83 16 84 17 85 18 86
REMARK SMILES IDX 32 87 33 88 34 89 35 90 36 91 19 92 20 93 27 94 21 95 26 96
REMARK SMILES IDX 22 98 25 99 23 100 24 101
REMARK H PARENT 3 6 90 24 60 35 8 73 27 97
REMARK Flexibility Score: inf
ROOT
ATOM      1  C   UNL A   1      40.027  22.208  26.879  1.00  0.00     0.023 C 
ENDROOT
BRANCH   1   2
ATOM      2  C   UNL A   1      41.127  23.195  27.244  1.00  0.00     0.116 C 
BRANCH   2   3
ATOM      3  N   UNL A   1      41.666  23.906  26.097  1.00  0.00    -0.352 N 
ATOM      4  O   UNL A   1      42.215  25.703  24.845  1.00  0.00    -0.269 OA
ATOM      5  C   UNL A   1      41.870  25.257  25.937  1.00  0.00     0.251 C 
ATOM      6  H   UNL A   1      41.920  23.344  25.329  1.00  0.00     0.163 HD
BRANCH   5   7
ATOM      7  C   UNL A   1      41.634  26.167  27.077  1.00  0.00     0.039 A 
ATOM      8  C   UNL A   1      42.472  27.264  27.289  1.00  0.00     0.014 A 
ATOM      9  C   UNL A   1      40.585  25.899  27.959  1.00  0.00     0.014 A 
ATOM     10  C   UNL A   1      42.366  27.991  28.468  1.00  0.00     0.010 A 
ATOM     11  C   UNL A   1      40.418  26.696  29.095  1.00  0.00     0.010 A 
ATOM     12  C   UNL A   1      41.326  27.730  29.375  1.00  0.00    -0.014 A 
BRANCH  12  13
ATOM     13  C   UNL A   1      41.160  28.603  30.563  1.00  0.00     0.031 A 
ATOM     14  C   UNL A   1      42.049  28.468  31.768  1.00  0.00     0.074 A 
ATOM     15  C   UNL A   1      40.190  29.539  30.534  1.00  0.00     0.049 A 
ATOM     16  N   UNL A   1      42.022  29.150  32.885  1.00  0.00    -0.248 NA
ATOM     17  C   UNL A   1      43.098  27.438  31.721  1.00  0.00     0.031 C 
ATOM     18  C   UNL A   1      39.263  29.758  29.418  1.00  0.00     0.029 A 
ATOM     19  N   UNL A   1      39.827  30.486  31.454  1.00  0.00    -0.354 N 
ATOM     20  C   UNL A   1      43.027  28.617  33.684  1.00  0.00     0.074 A 
ATOM     21  C   UNL A   1      43.639  27.544  32.928  1.00  0.00     0.031 C 
ATOM     22  C   UNL A   1      38.469  30.799  29.702  1.00  0.00     0.029 A 
ATOM     23  C   UNL A   1      38.776  31.274  31.045  1.00  0.00     0.049 A 
ATOM     24  H   UNL A   1      40.274  30.593  32.325  1.00  0.00     0.167 HD
ATOM     25  C   UNL A   1      43.403  28.990  34.932  1.00  0.00     0.031 A 
ATOM     26  C   UNL A   1      38.109  32.250  31.686  1.00  0.00     0.031 A 
ATOM     27  C   UNL A   1      42.787  30.061  35.674  1.00  0.00     0.049 A 
ATOM     28  C   UNL A   1      38.522  32.617  33.079  1.00  0.00     0.074 A 
ATOM     29  C   UNL A   1      43.124  30.542  36.928  1.00  0.00     0.029 A 
ATOM     30  N   UNL A   1      41.705  30.811  35.237  1.00  0.00    -0.354 N 
ATOM     31  N   UNL A   1      39.503  32.127  33.801  1.00  0.00    -0.248 NA
ATOM     32  C   UNL A   1      37.741  33.664  33.748  1.00  0.00     0.031 C 
ATOM     33  C   UNL A   1      42.210  31.544  37.272  1.00  0.00     0.029 A 
ATOM     34  C   UNL A   1      41.341  31.727  36.209  1.00  0.00     0.049 A 
ATOM     35  H   UNL A   1      41.262  30.707  34.364  1.00  0.00     0.167 HD
ATOM     36  C   UNL A   1      39.462  32.814  35.005  1.00  0.00     0.074 A 
ATOM     37  C   UNL A   1      38.376  33.769  34.908  1.00  0.00     0.031 C 
ATOM     38  C   UNL A   1      40.252  32.665  36.098  1.00  0.00     0.031 A 
BRANCH  25  39
ATOM     39  C   UNL A   1      44.513  28.216  35.595  1.00  0.00    -0.014 A 
ATOM     40  C   UNL A   1      44.246  27.087  36.390  1.00  0.00     0.010 A 
ATOM     41  C   UNL A   1      45.851  28.590  35.367  1.00  0.00     0.010 A 
ATOM     42  C   UNL A   1      45.295  26.367  36.971  1.00  0.00     0.020 A 
ATOM     43  C   UNL A   1      46.903  27.858  35.928  1.00  0.00     0.020 A 
ATOM     44  C   UNL A   1      46.617  26.759  36.740  1.00  0.00     0.054 A 
BRANCH  44  45
ATOM     45  S   UNL A   1      47.957  25.793  37.490  1.00  0.00     0.124 S 
ATOM     46  O   UNL A   1      49.142  26.495  37.003  1.00  0.00    -0.237 OA
ATOM     47  O   UNL A   1      47.691  25.930  38.919  1.00  0.00    -0.237 OA
ATOM     48  O   UNL A   1      47.763  24.450  36.949  1.00  0.00    -0.744 OA
ENDBRANCH  44  45
ENDBRANCH  25  39
BRANCH  26  49
ATOM     49  C   UNL A   1      36.962  32.916  31.016  1.00  0.00    -0.014 A 
ATOM     50  C   UNL A   1      37.174  33.901  30.036  1.00  0.00     0.010 A 
ATOM     51  C   UNL A   1      35.643  32.537  31.332  1.00  0.00     0.010 A 
ATOM     52  C   UNL A   1      36.088  34.503  29.394  1.00  0.00     0.020 A 
ATOM     53  C   UNL A   1      34.557  33.113  30.671  1.00  0.00     0.020 A 
ATOM     54  C   UNL A   1      34.786  34.103  29.715  1.00  0.00     0.054 A 
BRANCH  54  55
ATOM     55  S   UNL A   1      33.394  34.857  28.829  1.00  0.00     0.124 S 
ATOM     56  O   UNL A   1      33.059  33.820  27.858  1.00  0.00    -0.237 OA
ATOM     57  O   UNL A   1      32.417  35.067  29.894  1.00  0.00    -0.237 OA
ATOM     58  O   UNL A   1      33.967  36.079  28.269  1.00  0.00    -0.744 OA
ENDBRANCH  54  55
ENDBRANCH  26  49
BRANCH  38  59
ATOM     59  C   UNL A   1      39.981  33.570  37.267  1.00  0.00    -0.014 A 
ATOM     60  C   UNL A   1      40.674  34.784  37.420  1.00  0.00     0.010 A 
ATOM     61  C   UNL A   1      38.983  33.225  38.197  1.00  0.00     0.010 A 
ATOM     62  C   UNL A   1      40.391  35.626  38.499  1.00  0.00     0.020 A 
ATOM     63  C   UNL A   1      38.680  34.077  39.261  1.00  0.00     0.020 A 
ATOM     64  C   UNL A   1      39.395  35.267  39.412  1.00  0.00     0.054 A 
BRANCH  64  65
ATOM     65  S   UNL A   1      39.010  36.401  40.774  1.00  0.00     0.124 S 
ATOM     66  O   UNL A   1      38.095  35.603  41.585  1.00  0.00    -0.237 OA
ATOM     67  O   UNL A   1      40.323  36.648  41.366  1.00  0.00    -0.237 OA
ATOM     68  O   UNL A   1      38.407  37.552  40.106  1.00  0.00    -0.744 OA
ENDBRANCH  64  65
ENDBRANCH  38  59
ENDBRANCH  12  13
ENDBRANCH   5   7
ENDBRANCH   2   3
ENDBRANCH   1   2
BRANCH   1  69
ATOM     69  C   UNL A   1      38.774  22.821  26.267  1.00  0.00     0.023 C 
BRANCH  69  70
ATOM     70  C   UNL A   1      37.832  21.840  25.586  1.00  0.00     0.116 C 
BRANCH  70  71
ATOM     71  N   UNL A   1      37.542  22.127  24.186  1.00  0.00    -0.354 N 
ATOM     72  C   UNL A   1      36.361  22.620  23.668  1.00  0.00     0.242 C 
ATOM     73  H   UNL A   1      38.265  21.949  23.541  1.00  0.00     0.163 HD
ATOM     74  O   UNL A   1      36.362  23.148  22.559  1.00  0.00    -0.273 OA
BRANCH  72  75
ATOM     75  C   UNL A   1      35.123  22.539  24.571  1.00  0.00     0.175 C 
ATOM     76  C   UNL A   1      34.428  23.890  24.371  1.00  0.00     0.044 C 
ATOM     77  N   UNL A   1      34.024  21.599  24.394  1.00  0.00    -0.330 N 
ATOM     78  C   UNL A   1      33.001  23.726  24.902  1.00  0.00    -0.006 C 
ATOM     79  C   UNL A   1      32.768  22.211  24.815  1.00  0.00     0.127 C 
ATOM     80  C   UNL A   1      32.014  24.505  24.016  1.00  0.00     0.030 C 
ATOM     81  C   UNL A   1      32.872  24.252  26.350  1.00  0.00     0.030 C 
ATOM     82  C   UNL A   1      32.287  26.005  24.090  1.00  0.00     0.120 C 
ATOM     83  C   UNL A   1      32.988  25.778  26.454  1.00  0.00     0.120 C 
ATOM     84  N   UNL A   1      32.167  26.482  25.468  1.00  0.00    -0.337 N 
ATOM     85  C   UNL A   1      31.673  27.746  25.826  1.00  0.00     0.270 C 
ATOM     86  O   UNL A   1      31.931  28.239  26.923  1.00  0.00    -0.267 OA
BRANCH  77  87
ATOM     87  C   UNL A   1      34.081  20.212  24.419  1.00  0.00     0.226 C 
ATOM     88  O   UNL A   1      35.093  19.626  24.803  1.00  0.00    -0.275 OA
BRANCH  87  89
ATOM     89  C   UNL A   1      32.880  19.372  24.168  1.00  0.00     0.079 C 
ATOM     90  C   UNL A   1      32.740  17.918  23.825  1.00  0.00     0.014 C 
ATOM     91  C   UNL A   1      32.532  18.345  25.236  1.00  0.00     0.014 C 
ENDBRANCH  87  89
ENDBRANCH  77  87
BRANCH  85  92
ATOM     92  C   UNL A   1      30.857  28.460  24.867  1.00  0.00     0.105 A 
ATOM     93  C   UNL A   1      30.904  29.807  24.548  1.00  0.00     0.042 A 
ATOM     94  N   UNL A   1      29.802  27.935  24.157  1.00  0.00    -0.351 N 
ATOM     95  C   UNL A   1      29.940  30.066  23.538  1.00  0.00     0.000 A 
ATOM     96  C   UNL A   1      29.277  28.865  23.291  1.00  0.00     0.046 A 
ATOM     97  H   UNL A   1      29.465  27.015  24.256  1.00  0.00     0.167 HD
ATOM     98  C   UNL A   1      29.570  31.208  22.803  1.00  0.00     0.010 A 
ATOM     99  C   UNL A   1      28.272  28.739  22.325  1.00  0.00     0.026 A 
ATOM    100  C   UNL A   1      28.564  31.102  21.837  1.00  0.00     0.001 A 
ATOM    101  C   UNL A   1      27.930  29.884  21.599  1.00  0.00     0.002 A 
ENDBRANCH  85  92
ENDBRANCH  72  75
ENDBRANCH  70  71
ENDBRANCH  69  70
ENDBRANCH   1  69
TORSDOF 17
ENDMDL
MODEL 2
REMARK VINA RESULT:     -12.3      0.639      7.793
REMARK SMILES O=C(NCCCCNC(=O)[C@H]1CC2(CCN(C(=O)c3cc4ccccc4[nH]3)CC2)CN1C(=O)C1CC1)c1ccc(-c2c3nc(c(-c4ccc(S(=O)(=O)[O-])cc4)c4ccc([nH]4)c(-c4ccc(S(=O)(=O)[O-])cc4)c4nc(c(-c5ccc(S(=O)(=O)[O-])cc5)c5ccc2[nH]5)C=C4)C=C3)cc1
REMARK SMILES IDX 5 1 4 2 3 3 1 4 2 5 37 7 38 8 96 9 39 10 95 11 40 12 41 13
REMARK SMILES IDX 42 14 89 15 43 16 94 17 88 18 90 19 44 20 93 21 87 22 86 23
REMARK SMILES IDX 45 25 75 26 56 27 74 28 57 29 60 30 73 31 91 32 58 33 59 34
REMARK SMILES IDX 72 36 92 37 61 38 46 39 47 40 55 41 48 42 54 43 49 44 50 45
REMARK SMILES IDX 51 46 52 47 53 48 76 49 77 50 85 51 78 52 84 53 79 54 80 55
REMARK SMILES IDX 81 56 82 57 83 58 62 59 63 60 71 61 64 62 70 63 65 64 66 65
REMARK SMILES IDX 67 66 68 67 69 68 6 69 7 70 8 71 9 72 10 74 11 75 12 76
REMARK SMILES IDX 31 77 13 78 30 79 14 80 29 81 15 82 28 83 16 84 17 85 18 86
REMARK SMILES IDX 32 87 33 88 34 89 35 90 36 91 19 92 20 93 27 94 21 95 26 96
REMARK SMILES IDX 22 98 25 99 23 100 24 101
REMARK H PARENT 3 6 90 24 60 35 8 73 27 97
REMARK Flexibility Score: inf
ROOT
ATOM      1  C   UNL A   1      39.812  22.694  27.029  1.00  0.00     0.023 C 
ENDROOT
BRANCH   1   2
ATOM      2  C   UNL A   1      41.085  23.470  27.337  1.00  0.00     0.116 C 
BRANCH   2   3
ATOM      3  N   UNL A   1      41.601  24.205  26.194  1.00  0.00    -0.352 N 
ATOM      4  O   UNL A   1      42.077  26.025  24.947  1.00  0.00    -0.269 OA
ATOM      5  C   UNL A   1      41.743  25.564  26.036  1.00  0.00     0.251 C 
ATOM      6  H   UNL A   1      41.889  23.655  25.430  1.00  0.00     0.163 HD
BRANCH   5   7
ATOM      7  C   UNL A   1      41.453  26.463  27.172  1.00  0.00     0.039 A 
ATOM      8  C   UNL A   1      42.280  27.558  27.435  1.00  0.00     0.014 A 
ATOM      9  C   UNL A   1      40.365  26.184  28.003  1.00  0.00     0.014 A 
ATOM     10  C   UNL A   1      42.118  28.272  28.615  1.00  0.00     0.010 A 
ATOM     11  C   UNL A   1      40.144  26.970  29.137  1.00  0.00     0.010 A 
ATOM     12  C   UNL A   1      41.038  28.001  29.469  1.00  0.00    -0.014 A 
BRANCH  12  13
ATOM     13  C   UNL A   1      40.816  28.862  30.657  1.00  0.00     0.031 A 
ATOM     14  C   UNL A   1      39.717  29.888  30.691  1.00  0.00     0.074 A 
ATOM     15  C   UNL A   1      41.624  28.695  31.724  1.00  0.00     0.049 A 
ATOM     16  N   UNL A   1      39.404  30.721  31.651  1.00  0.00    -0.248 NA
ATOM     17  C   UNL A   1      38.863  30.000  29.498  1.00  0.00     0.031 C 
ATOM     18  C   UNL A   1      42.728  27.732  31.802  1.00  0.00     0.029 A 
ATOM     19  N   UNL A   1      41.639  29.314  32.946  1.00  0.00    -0.354 N 
ATOM     20  C   UNL A   1      38.337  31.474  31.173  1.00  0.00     0.074 A 
ATOM     21  C   UNL A   1      38.065  31.008  29.829  1.00  0.00     0.031 C 
ATOM     22  C   UNL A   1      43.283  27.796  33.020  1.00  0.00     0.029 A 
ATOM     23  C   UNL A   1      42.628  28.851  33.782  1.00  0.00     0.049 A 
ATOM     24  H   UNL A   1      41.004  30.022  33.202  1.00  0.00     0.167 HD
ATOM     25  C   UNL A   1      37.652  32.461  31.799  1.00  0.00     0.031 A 
ATOM     26  C   UNL A   1      42.994  29.249  35.014  1.00  0.00     0.031 A 
ATOM     27  C   UNL A   1      37.932  32.915  33.137  1.00  0.00     0.049 A 
ATOM     28  C   UNL A   1      42.240  30.369  35.668  1.00  0.00     0.074 A 
ATOM     29  C   UNL A   1      37.267  33.881  33.874  1.00  0.00     0.029 A 
ATOM     30  N   UNL A   1      38.963  32.444  33.937  1.00  0.00    -0.354 N 
ATOM     31  N   UNL A   1      41.209  31.040  35.212  1.00  0.00    -0.248 NA
ATOM     32  C   UNL A   1      42.700  30.788  36.997  1.00  0.00     0.031 C 
ATOM     33  C   UNL A   1      37.930  34.032  35.096  1.00  0.00     0.029 A 
ATOM     34  C   UNL A   1      38.972  33.121  35.145  1.00  0.00     0.049 A 
ATOM     35  H   UNL A   1      39.594  31.733  33.683  1.00  0.00     0.167 HD
ATOM     36  C   UNL A   1      40.889  31.955  36.206  1.00  0.00     0.074 A 
ATOM     37  C   UNL A   1      41.821  31.737  37.294  1.00  0.00     0.031 C 
ATOM     38  C   UNL A   1      39.913  32.896  36.213  1.00  0.00     0.031 A 
BRANCH  25  39
ATOM     39  C   UNL A   1      36.548  33.147  31.035  1.00  0.00    -0.014 A 
ATOM     40  C   UNL A   1      35.194  32.920  31.341  1.00  0.00     0.010 A 
ATOM     41  C   UNL A   1      36.875  34.083  30.035  1.00  0.00     0.010 A 
ATOM     42  C   UNL A   1      34.188  33.590  30.637  1.00  0.00     0.020 A 
ATOM     43  C   UNL A   1      35.871  34.772  29.346  1.00  0.00     0.020 A 
ATOM     44  C   UNL A   1      34.533  34.510  29.642  1.00  0.00     0.054 A 
BRANCH  44  45
ATOM     45  S   UNL A   1      33.206  35.380  28.762  1.00  0.00     0.124 S 
ATOM     46  O   UNL A   1      32.469  35.995  29.863  1.00  0.00    -0.237 OA
ATOM     47  O   UNL A   1      33.941  36.305  27.905  1.00  0.00    -0.237 OA
ATOM     48  O   UNL A   1      32.497  34.313  28.058  1.00  0.00    -0.744 OA
ENDBRANCH  44  45
ENDBRANCH  25  39
BRANCH  26  49
ATOM     49  C   UNL A   1      44.150  28.597  35.683  1.00  0.00    -0.014 A 
ATOM     50  C   UNL A   1      43.953  27.558  36.608  1.00  0.00     0.010 A 
ATOM     51  C   UNL A   1      45.463  28.992  35.364  1.00  0.00     0.010 A 
ATOM     52  C   UNL A   1      45.049  26.935  37.212  1.00  0.00     0.020 A 
ATOM     53  C   UNL A   1      46.561  28.351  35.941  1.00  0.00     0.020 A 
ATOM     54  C   UNL A   1      46.346  27.334  36.872  1.00  0.00     0.054 A 
BRANCH  54  55
ATOM     55  S   UNL A   1      47.754  26.473  37.625  1.00  0.00     0.124 S 
ATOM     56  O   UNL A   1      47.361  26.426  39.030  1.00  0.00    -0.237 OA
ATOM     57  O   UNL A   1      47.753  25.191  36.924  1.00  0.00    -0.237 OA
ATOM     58  O   UNL A   1      48.888  27.341  37.319  1.00  0.00    -0.744 OA
ENDBRANCH  54  55
ENDBRANCH  26  49
BRANCH  38  59
ATOM     59  C   UNL A   1      39.792  33.746  37.448  1.00  0.00    -0.014 A 
ATOM     60  C   UNL A   1      40.535  34.932  37.587  1.00  0.00     0.010 A 
ATOM     61  C   UNL A   1      38.885  33.380  38.459  1.00  0.00     0.010 A 
ATOM     62  C   UNL A   1      40.391  35.724  38.728  1.00  0.00     0.020 A 
ATOM     63  C   UNL A   1      38.719  34.183  39.588  1.00  0.00     0.020 A 
ATOM     64  C   UNL A   1      39.483  35.345  39.722  1.00  0.00     0.054 A 
BRANCH  64  65
ATOM     65  S   UNL A   1      39.276  36.417  41.171  1.00  0.00     0.124 S 
ATOM     66  O   UNL A   1      38.611  37.582  40.594  1.00  0.00    -0.237 OA
ATOM     67  O   UNL A   1      38.453  35.600  42.060  1.00  0.00    -0.237 OA
ATOM     68  O   UNL A   1      40.644  36.645  41.631  1.00  0.00    -0.744 OA
ENDBRANCH  64  65
ENDBRANCH  38  59
ENDBRANCH  12  13
ENDBRANCH   5   7
ENDBRANCH   2   3
ENDBRANCH   1   2
BRANCH   1  69
ATOM     69  C   UNL A   1      38.753  23.458  26.245  1.00  0.00     0.023 C 
BRANCH  69  70
ATOM     70  C   UNL A   1      37.566  22.632  25.773  1.00  0.00     0.116 C 
BRANCH  70  71
ATOM     71  N   UNL A   1      37.317  22.665  24.337  1.00  0.00    -0.354 N 
ATOM     72  C   UNL A   1      36.128  22.979  23.709  1.00  0.00     0.242 C 
ATOM     73  H   UNL A   1      38.077  22.440  23.753  1.00  0.00     0.163 HD
ATOM     74  O   UNL A   1      36.140  23.318  22.529  1.00  0.00    -0.273 OA
BRANCH  72  75
ATOM     75  C   UNL A   1      34.861  22.954  24.574  1.00  0.00     0.175 C 
ATOM     76  C   UNL A   1      34.221  24.327  24.337  1.00  0.00     0.044 C 
ATOM     77  N   UNL A   1      33.735  22.051  24.375  1.00  0.00    -0.330 N 
ATOM     78  C   UNL A   1      32.774  24.220  24.827  1.00  0.00    -0.006 C 
ATOM     79  C   UNL A   1      32.489  22.713  24.750  1.00  0.00     0.127 C 
ATOM     80  C   UNL A   1      31.843  25.023  23.901  1.00  0.00     0.030 C 
ATOM     81  C   UNL A   1      32.620  24.769  26.263  1.00  0.00     0.030 C 
ATOM     82  C   UNL A   1      32.168  26.512  23.966  1.00  0.00     0.120 C 
ATOM     83  C   UNL A   1      32.789  26.291  26.352  1.00  0.00     0.120 C 
ATOM     84  N   UNL A   1      32.024  27.011  25.334  1.00  0.00    -0.337 N 
ATOM     85  C   UNL A   1      31.565  28.296  25.661  1.00  0.00     0.270 C 
ATOM     86  O   UNL A   1      31.807  28.794  26.760  1.00  0.00    -0.267 OA
BRANCH  77  87
ATOM     87  C   UNL A   1      33.741  20.663  24.418  1.00  0.00     0.226 C 
ATOM     88  O   UNL A   1      34.705  20.048  24.872  1.00  0.00    -0.275 OA
BRANCH  87  89
ATOM     89  C   UNL A   1      32.529  19.863  24.101  1.00  0.00     0.079 C 
ATOM     90  C   UNL A   1      32.245  18.887  22.998  1.00  0.00     0.014 C 
ATOM     91  C   UNL A   1      32.622  18.363  24.339  1.00  0.00     0.014 C 
ENDBRANCH  87  89
ENDBRANCH  77  87
BRANCH  85  92
ATOM     92  C   UNL A   1      30.804  29.027  24.670  1.00  0.00     0.105 A 
ATOM     93  C   UNL A   1      30.271  28.548  23.484  1.00  0.00     0.042 A 
ATOM     94  N   UNL A   1      30.552  30.380  24.683  1.00  0.00    -0.351 N 
ATOM     95  C   UNL A   1      29.583  29.608  22.838  1.00  0.00     0.000 A 
ATOM     96  C   UNL A   1      29.753  30.745  23.626  1.00  0.00     0.046 A 
ATOM     97  H   UNL A   1      30.899  31.005  25.361  1.00  0.00     0.167 HD
ATOM     98  C   UNL A   1      28.824  29.710  21.657  1.00  0.00     0.010 A 
ATOM     99  C   UNL A   1      29.181  31.981  23.306  1.00  0.00     0.026 A 
ATOM    100  C   UNL A   1      28.248  30.939  21.318  1.00  0.00     0.001 A 
ATOM    101  C   UNL A   1      28.421  32.055  22.135  1.00  0.00     0.002 A 
ENDBRANCH  85  92
ENDBRANCH  72  75
ENDBRANCH  70  71
ENDBRANCH  69  70
ENDBRANCH   1  69
TORSDOF 17
ENDMDL
MODEL 3
REMARK VINA RESULT:     -11.9      5.653      7.743
REMARK SMILES O=C(NCCCCNC(=O)[C@H]1CC2(CCN(C(=O)c3cc4ccccc4[nH]3)CC2)CN1C(=O)C1CC1)c1ccc(-c2c3nc(c(-c4ccc(S(=O)(=O)[O-])cc4)c4ccc([nH]4)c(-c4ccc(S(=O)(=O)[O-])cc4)c4nc(c(-c5ccc(S(=O)(=O)[O-])cc5)c5ccc2[nH]5)C=C4)C=C3)cc1
REMARK SMILES IDX 5 1 4 2 3 3 1 4 2 5 37 7 38 8 96 9 39 10 95 11 40 12 41 13
REMARK SMILES IDX 42 14 89 15 43 16 94 17 88 18 90 19 44 20 93 21 87 22 86 23
REMARK SMILES IDX 45 25 75 26 56 27 74 28 57 29 60 30 73 31 91 32 58 33 59 34
REMARK SMILES IDX 72 36 92 37 61 38 46 39 47 40 55 41 48 42 54 43 49 44 50 45
REMARK SMILES IDX 51 46 52 47 53 48 76 49 77 50 85 51 78 52 84 53 79 54 80 55
REMARK SMILES IDX 81 56 82 57 83 58 62 59 63 60 71 61 64 62 70 63 65 64 66 65
REMARK SMILES IDX 67 66 68 67 69 68 6 69 7 70 8 71 9 72 10 74 11 75 12 76
REMARK SMILES IDX 31 77 13 78 30 79 14 80 29 81 15 82 28 83 16 84 17 85 18 86
REMARK SMILES IDX 32 87 33 88 34 89 35 90 36 91 19 92 20 93 27 94 21 95 26 96
REMARK SMILES IDX 22 98 25 99 23 100 24 101
REMARK H PARENT 3 6 90 24 60 35 8 73 27 97
REMARK Flexibility Score: inf
ROOT
ATOM      1  C   UNL A   1      38.732  20.906  25.533  1.00  0.00     0.023 C 
ENDROOT
BRANCH   1   2
ATOM      2  C   UNL A   1      39.891  20.740  26.507  1.00  0.00     0.116 C 
BRANCH   2   3
ATOM      3  N   UNL A   1      40.899  19.801  26.045  1.00  0.00    -0.352 N 
ATOM      4  O   UNL A   1      42.911  19.145  25.259  1.00  0.00    -0.269 OA
ATOM      5  C   UNL A   1      42.228  20.029  25.768  1.00  0.00     0.251 C 
ATOM      6  H   UNL A   1      40.590  18.876  25.912  1.00  0.00     0.163 HD
BRANCH   5   7
ATOM      7  C   UNL A   1      42.812  21.356  26.054  1.00  0.00     0.039 A 
ATOM      8  C   UNL A   1      43.293  21.655  27.331  1.00  0.00     0.014 A 
ATOM      9  C   UNL A   1      42.845  22.320  25.044  1.00  0.00     0.014 A 
ATOM     10  C   UNL A   1      43.650  22.961  27.641  1.00  0.00     0.010 A 
ATOM     11  C   UNL A   1      43.303  23.608  25.334  1.00  0.00     0.010 A 
ATOM     12  C   UNL A   1      43.680  23.947  26.643  1.00  0.00    -0.014 A 
BRANCH  12  13
ATOM     13  C   UNL A   1      44.187  25.302  26.974  1.00  0.00     0.031 A 
ATOM     14  C   UNL A   1      45.588  25.723  26.627  1.00  0.00     0.074 A 
ATOM     15  C   UNL A   1      43.351  26.162  27.589  1.00  0.00     0.049 A 
ATOM     16  N   UNL A   1      46.180  26.868  26.858  1.00  0.00    -0.248 NA
ATOM     17  C   UNL A   1      46.438  24.738  25.938  1.00  0.00     0.031 C 
ATOM     18  C   UNL A   1      41.970  25.860  27.980  1.00  0.00     0.029 A 
ATOM     19  N   UNL A   1      43.529  27.461  27.985  1.00  0.00    -0.354 N 
ATOM     20  C   UNL A   1      47.476  26.736  26.371  1.00  0.00     0.074 A 
ATOM     21  C   UNL A   1      47.589  25.392  25.842  1.00  0.00     0.031 C 
ATOM     22  C   UNL A   1      41.415  26.955  28.518  1.00  0.00     0.029 A 
ATOM     23  C   UNL A   1      42.417  28.010  28.581  1.00  0.00     0.049 A 
ATOM     24  H   UNL A   1      44.371  27.956  27.856  1.00  0.00     0.167 HD
ATOM     25  C   UNL A   1      48.475  27.651  26.367  1.00  0.00     0.031 A 
ATOM     26  C   UNL A   1      42.229  29.216  29.146  1.00  0.00     0.031 A 
ATOM     27  C   UNL A   1      48.350  28.985  26.895  1.00  0.00     0.049 A 
ATOM     28  C   UNL A   1      43.364  30.196  29.160  1.00  0.00     0.074 A 
ATOM     29  C   UNL A   1      49.292  30.000  26.899  1.00  0.00     0.029 A 
ATOM     30  N   UNL A   1      47.218  29.490  27.520  1.00  0.00    -0.354 N 
ATOM     31  N   UNL A   1      44.569  30.063  28.657  1.00  0.00    -0.248 NA
ATOM     32  C   UNL A   1      43.118  31.484  29.818  1.00  0.00     0.031 C 
ATOM     33  C   UNL A   1      48.750  31.097  27.576  1.00  0.00     0.029 A 
ATOM     34  C   UNL A   1      47.450  30.788  27.942  1.00  0.00     0.049 A 
ATOM     35  H   UNL A   1      46.375  28.997  27.644  1.00  0.00     0.167 HD
ATOM     36  C   UNL A   1      45.222  31.257  28.929  1.00  0.00     0.074 A 
ATOM     37  C   UNL A   1      44.273  32.107  29.621  1.00  0.00     0.031 C 
ATOM     38  C   UNL A   1      46.496  31.616  28.636  1.00  0.00     0.031 A 
BRANCH  25  39
ATOM     39  C   UNL A   1      49.809  27.236  25.801  1.00  0.00    -0.014 A 
ATOM     40  C   UNL A   1      50.159  27.516  24.468  1.00  0.00     0.010 A 
ATOM     41  C   UNL A   1      50.753  26.610  26.638  1.00  0.00     0.010 A 
ATOM     42  C   UNL A   1      51.415  27.146  23.974  1.00  0.00     0.020 A 
ATOM     43  C   UNL A   1      52.017  26.261  26.153  1.00  0.00     0.020 A 
ATOM     44  C   UNL A   1      52.335  26.518  24.819  1.00  0.00     0.054 A 
BRANCH  44  45
ATOM     45  S   UNL A   1      53.963  26.070  24.155  1.00  0.00     0.124 S 
ATOM     46  O   UNL A   1      54.805  27.144  24.678  1.00  0.00    -0.237 OA
ATOM     47  O   UNL A   1      54.196  24.752  24.737  1.00  0.00    -0.237 OA
ATOM     48  O   UNL A   1      53.765  26.083  22.708  1.00  0.00    -0.744 OA
ENDBRANCH  44  45
ENDBRANCH  25  39
BRANCH  26  49
ATOM     49  C   UNL A   1      40.919  29.537  29.771  1.00  0.00    -0.014 A 
ATOM     50  C   UNL A   1      39.853  30.023  28.996  1.00  0.00     0.010 A 
ATOM     51  C   UNL A   1      40.722  29.319  31.148  1.00  0.00     0.010 A 
ATOM     52  C   UNL A   1      38.618  30.297  29.589  1.00  0.00     0.020 A 
ATOM     53  C   UNL A   1      39.481  29.562  31.739  1.00  0.00     0.020 A 
ATOM     54  C   UNL A   1      38.439  30.063  30.957  1.00  0.00     0.054 A 
BRANCH  54  55
ATOM     55  S   UNL A   1      36.811  30.372  31.694  1.00  0.00     0.124 S 
ATOM     56  O   UNL A   1      35.929  30.252  30.538  1.00  0.00    -0.237 OA
ATOM     57  O   UNL A   1      36.704  29.304  32.686  1.00  0.00    -0.237 OA
ATOM     58  O   UNL A   1      36.938  31.717  32.251  1.00  0.00    -0.744 OA
ENDBRANCH  54  55
ENDBRANCH  26  49
BRANCH  38  59
ATOM     59  C   UNL A   1      46.930  32.996  29.047  1.00  0.00    -0.014 A 
ATOM     60  C   UNL A   1      46.729  34.101  28.200  1.00  0.00     0.010 A 
ATOM     61  C   UNL A   1      47.500  33.197  30.317  1.00  0.00     0.010 A 
ATOM     62  C   UNL A   1      47.114  35.380  28.607  1.00  0.00     0.020 A 
ATOM     63  C   UNL A   1      47.862  34.478  30.737  1.00  0.00     0.020 A 
ATOM     64  C   UNL A   1      47.678  35.561  29.875  1.00  0.00     0.054 A 
BRANCH  64  65
ATOM     65  S   UNL A   1      48.121  37.239  30.401  1.00  0.00     0.124 S 
ATOM     66  O   UNL A   1      49.082  37.635  29.375  1.00  0.00    -0.237 OA
ATOM     67  O   UNL A   1      46.838  37.937  30.364  1.00  0.00    -0.237 OA
ATOM     68  O   UNL A   1      48.681  37.046  31.737  1.00  0.00    -0.744 OA
ENDBRANCH  64  65
ENDBRANCH  38  59
ENDBRANCH  12  13
ENDBRANCH   5   7
ENDBRANCH   2   3
ENDBRANCH   1   2
BRANCH   1  69
ATOM     69  C   UNL A   1      37.910  22.176  25.704  1.00  0.00     0.023 C 
BRANCH  69  70
ATOM     70  C   UNL A   1      36.426  22.041  25.397  1.00  0.00     0.116 C 
BRANCH  70  71
ATOM     71  N   UNL A   1      36.057  22.257  24.004  1.00  0.00    -0.354 N 
ATOM     72  C   UNL A   1      34.948  22.933  23.534  1.00  0.00     0.242 C 
ATOM     73  H   UNL A   1      36.664  21.881  23.324  1.00  0.00     0.163 HD
ATOM     74  O   UNL A   1      34.939  23.350  22.380  1.00  0.00    -0.273 OA
BRANCH  72  75
ATOM     75  C   UNL A   1      33.815  23.184  24.539  1.00  0.00     0.175 C 
ATOM     76  C   UNL A   1      33.327  24.597  24.204  1.00  0.00     0.044 C 
ATOM     77  N   UNL A   1      32.568  22.431  24.591  1.00  0.00    -0.330 N 
ATOM     78  C   UNL A   1      31.957  24.751  24.870  1.00  0.00    -0.006 C 
ATOM     79  C   UNL A   1      31.477  23.300  25.022  1.00  0.00     0.127 C 
ATOM     80  C   UNL A   1      31.018  25.567  23.965  1.00  0.00     0.030 C 
ATOM     81  C   UNL A   1      32.066  25.473  26.231  1.00  0.00     0.030 C 
ATOM     82  C   UNL A   1      31.532  26.994  23.798  1.00  0.00     0.120 C 
ATOM     83  C   UNL A   1      32.434  26.957  26.103  1.00  0.00     0.120 C 
ATOM     84  N   UNL A   1      31.637  27.659  25.097  1.00  0.00    -0.337 N 
ATOM     85  C   UNL A   1      31.390  29.024  25.308  1.00  0.00     0.270 C 
ATOM     86  O   UNL A   1      31.838  29.602  26.297  1.00  0.00    -0.267 OA
BRANCH  77  87
ATOM     87  C   UNL A   1      32.406  21.070  24.813  1.00  0.00     0.226 C 
ATOM     88  O   UNL A   1      31.471  20.645  25.490  1.00  0.00    -0.275 OA
BRANCH  87  89
ATOM     89  C   UNL A   1      33.228  20.056  24.101  1.00  0.00     0.079 C 
ATOM     90  C   UNL A   1      34.089  18.940  24.614  1.00  0.00     0.014 C 
ATOM     91  C   UNL A   1      32.717  18.623  24.131  1.00  0.00     0.014 C 
ENDBRANCH  87  89
ENDBRANCH  77  87
BRANCH  85  92
ATOM     92  C   UNL A   1      30.601  29.739  24.327  1.00  0.00     0.105 A 
ATOM     93  C   UNL A   1      30.161  29.283  23.095  1.00  0.00     0.042 A 
ATOM     94  N   UNL A   1      30.222  31.059  24.405  1.00  0.00    -0.351 N 
ATOM     95  C   UNL A   1      29.400  30.312  22.480  1.00  0.00     0.000 A 
ATOM     96  C   UNL A   1      29.431  31.411  23.336  1.00  0.00     0.046 A 
ATOM     97  H   UNL A   1      30.483  31.673  25.130  1.00  0.00     0.167 HD
ATOM     98  C   UNL A   1      28.679  30.413  21.274  1.00  0.00     0.010 A 
ATOM     99  C   UNL A   1      28.758  32.606  23.061  1.00  0.00     0.026 A 
ATOM    100  C   UNL A   1      28.003  31.601  20.980  1.00  0.00     0.001 A 
ATOM    101  C   UNL A   1      28.038  32.678  21.864  1.00  0.00     0.002 A 
ENDBRANCH  85  92
ENDBRANCH  72  75
ENDBRANCH  70  71
ENDBRANCH  69  70
ENDBRANCH   1  69
TORSDOF 17
ENDMDL
