MODEL 1
REMARK VINA RESULT:     -10.2      0.000      0.000
REMARK SMILES CC1(C)CSC[C@](O)([C@H](F)C(=O)NCCCCNC(=O)c2ccc(-c3c4nc(c(-c5ccc(S(=O)(=O)[O-])cc5)c5ccc([nH]5)c(-c5ccc(S(=O)(=O)[O-])cc5)c5nc(c(-c6ccc(S(=O)(=O)[O-])cc6)c6ccc3[nH]6)C=C5)C=C4)cc2)C1
REMARK SMILES IDX 16 1 15 2 14 3 13 4 11 5 12 6 9 8 10 9 7 10 1 11 2 12 3 13
REMARK SMILES IDX 4 14 81 15 5 16 6 17 8 18 17 20 18 21 19 22 20 24 21 25
REMARK SMILES IDX 22 26 80 27 23 28 79 29 24 30 25 31 26 32 73 33 27 34 78 35
REMARK SMILES IDX 72 36 74 37 28 38 77 39 71 40 70 41 29 43 59 44 40 45 58 46
REMARK SMILES IDX 41 47 44 48 57 49 75 50 42 51 43 52 56 54 76 55 45 56 30 57
REMARK SMILES IDX 31 58 39 59 32 60 38 61 33 62 34 63 35 64 36 65 37 66 60 67
REMARK SMILES IDX 61 68 69 69 62 70 68 71 63 72 64 73 65 74 66 75 67 76 46 77
REMARK SMILES IDX 47 78 55 79 48 80 54 81 49 82 50 83 51 84 52 85 53 86
REMARK H PARENT 13 7 8 19 18 23 74 42 44 53
REMARK Flexibility Score: inf
ROOT
ATOM      1  C   UNL A   1      33.586  33.627  28.260  1.00  0.00     0.023 C 
ENDROOT
BRANCH   1   2
ATOM      2  C   UNL A   1      34.259  34.938  28.658  1.00  0.00     0.023 C 
BRANCH   2   3
ATOM      3  C   UNL A   1      33.343  35.948  29.334  1.00  0.00     0.116 C 
BRANCH   3   4
ATOM      4  N   UNL A   1      32.530  35.373  30.391  1.00  0.00    -0.353 N 
ATOM      5  C   UNL A   1      32.830  35.325  31.730  1.00  0.00     0.257 C 
ATOM      6  O   UNL A   1      31.950  34.998  32.531  1.00  0.00    -0.272 OA
ATOM      7  H   UNL A   1      31.671  34.976  30.119  1.00  0.00     0.163 HD
BRANCH   5   8
ATOM      8  C   UNL A   1      34.238  35.677  32.211  1.00  0.00     0.287 C 
ATOM      9  F   UNL A   1      34.207  36.745  33.071  1.00  0.00    -0.234 F 
BRANCH   8  10
ATOM     10  C   UNL A   1      35.005  34.481  32.863  1.00  0.00     0.114 C 
ATOM     11  C   UNL A   1      37.024  33.469  35.248  1.00  0.00     0.012 C 
ATOM     12  C   UNL A   1      37.405  33.851  33.802  1.00  0.00    -0.023 C 
ATOM     13  C   UNL A   1      38.812  34.492  33.875  1.00  0.00     0.012 C 
ATOM     14  C   UNL A   1      37.482  32.609  32.893  1.00  0.00     0.076 C 
ATOM     15  C   UNL A   1      36.452  34.914  33.197  1.00  0.00     0.047 C 
ATOM     16  S   UNL A   1      35.868  31.836  32.544  1.00  0.00    -0.158 SA
ATOM     17  C   UNL A   1      34.987  33.292  31.882  1.00  0.00     0.108 C 
BRANCH  10  18
ATOM     18  O   UNL A   1      34.371  34.076  34.087  1.00  0.00    -0.385 OA
ATOM     19  H   UNL A   1      35.020  34.092  34.808  1.00  0.00     0.211 HD
ENDBRANCH  10  18
ENDBRANCH   8  10
ENDBRANCH   5   8
ENDBRANCH   3   4
ENDBRANCH   2   3
ENDBRANCH   1   2
BRANCH   1  20
ATOM     20  C   UNL A   1      34.529  32.519  27.803  1.00  0.00     0.116 C 
BRANCH  20  21
ATOM     21  N   UNL A   1      33.883  31.217  27.714  1.00  0.00    -0.352 N 
ATOM     22  C   UNL A   1      34.437  29.960  27.822  1.00  0.00     0.251 C 
ATOM     23  H   UNL A   1      32.912  31.237  27.552  1.00  0.00     0.163 HD
ATOM     24  O   UNL A   1      33.761  28.967  27.585  1.00  0.00    -0.269 OA
BRANCH  22  25
ATOM     25  C   UNL A   1      35.863  29.822  28.192  1.00  0.00     0.039 A 
ATOM     26  C   UNL A   1      36.192  29.452  29.497  1.00  0.00     0.014 A 
ATOM     27  C   UNL A   1      36.870  30.025  27.244  1.00  0.00     0.014 A 
ATOM     28  C   UNL A   1      37.526  29.206  29.830  1.00  0.00     0.010 A 
ATOM     29  C   UNL A   1      38.187  29.704  27.555  1.00  0.00     0.010 A 
ATOM     30  C   UNL A   1      38.530  29.286  28.851  1.00  0.00    -0.014 A 
BRANCH  30  31
ATOM     31  C   UNL A   1      39.939  28.923  29.154  1.00  0.00     0.031 A 
ATOM     32  C   UNL A   1      40.866  29.937  29.771  1.00  0.00     0.074 A 
ATOM     33  C   UNL A   1      40.406  27.706  28.810  1.00  0.00     0.049 A 
ATOM     34  N   UNL A   1      42.141  29.829  30.044  1.00  0.00    -0.248 NA
ATOM     35  C   UNL A   1      40.291  31.252  30.098  1.00  0.00     0.031 C 
ATOM     36  C   UNL A   1      39.623  26.648  28.166  1.00  0.00     0.029 A 
ATOM     37  N   UNL A   1      41.655  27.155  28.944  1.00  0.00    -0.354 N 
ATOM     38  C   UNL A   1      42.524  31.063  30.556  1.00  0.00     0.074 A 
ATOM     39  C   UNL A   1      41.359  31.919  30.511  1.00  0.00     0.031 C 
ATOM     40  C   UNL A   1      40.403  25.569  27.988  1.00  0.00     0.029 A 
ATOM     41  C   UNL A   1      41.749  25.869  28.463  1.00  0.00     0.049 A 
ATOM     42  H   UNL A   1      42.415  27.634  29.349  1.00  0.00     0.167 HD
ATOM     43  C   UNL A   1      43.731  31.444  31.039  1.00  0.00     0.031 A 
ATOM     44  C   UNL A   1      42.800  25.029  28.402  1.00  0.00     0.031 A 
ATOM     45  C   UNL A   1      44.885  30.588  31.096  1.00  0.00     0.049 A 
ATOM     46  C   UNL A   1      44.132  25.476  28.940  1.00  0.00     0.074 A 
ATOM     47  C   UNL A   1      46.136  30.865  31.620  1.00  0.00     0.029 A 
ATOM     48  N   UNL A   1      44.933  29.289  30.611  1.00  0.00    -0.354 N 
ATOM     49  N   UNL A   1      44.456  26.627  29.481  1.00  0.00    -0.248 NA
ATOM     50  C   UNL A   1      45.236  24.510  28.868  1.00  0.00     0.031 C 
ATOM     51  C   UNL A   1      46.955  29.751  31.409  1.00  0.00     0.029 A 
ATOM     52  C   UNL A   1      46.198  28.760  30.803  1.00  0.00     0.049 A 
ATOM     53  H   UNL A   1      44.180  28.815  30.191  1.00  0.00     0.167 HD
ATOM     54  C   UNL A   1      45.795  26.511  29.840  1.00  0.00     0.074 A 
ATOM     55  C   UNL A   1      46.215  25.176  29.467  1.00  0.00     0.031 C 
ATOM     56  C   UNL A   1      46.602  27.428  30.428  1.00  0.00     0.031 A 
BRANCH  43  57
ATOM     57  C   UNL A   1      43.862  32.858  31.544  1.00  0.00    -0.014 A 
ATOM     58  C   UNL A   1      43.558  33.184  32.879  1.00  0.00     0.010 A 
ATOM     59  C   UNL A   1      44.329  33.868  30.683  1.00  0.00     0.010 A 
ATOM     60  C   UNL A   1      43.676  34.500  33.331  1.00  0.00     0.020 A 
ATOM     61  C   UNL A   1      44.478  35.181  31.140  1.00  0.00     0.020 A 
ATOM     62  C   UNL A   1      44.132  35.491  32.456  1.00  0.00     0.054 A 
BRANCH  62  63
ATOM     63  S   UNL A   1      44.294  37.188  33.077  1.00  0.00     0.124 S 
ATOM     64  O   UNL A   1      43.194  37.263  34.036  1.00  0.00    -0.237 OA
ATOM     65  O   UNL A   1      45.634  37.191  33.657  1.00  0.00    -0.237 OA
ATOM     66  O   UNL A   1      44.133  38.012  31.881  1.00  0.00    -0.744 OA
ENDBRANCH  62  63
ENDBRANCH  43  57
BRANCH  44  67
ATOM     67  C   UNL A   1      42.631  23.667  27.824  1.00  0.00    -0.014 A 
ATOM     68  C   UNL A   1      42.250  22.588  28.640  1.00  0.00     0.010 A 
ATOM     69  C   UNL A   1      42.838  23.445  26.450  1.00  0.00     0.010 A 
ATOM     70  C   UNL A   1      42.098  21.308  28.098  1.00  0.00     0.020 A 
ATOM     71  C   UNL A   1      42.659  22.173  25.899  1.00  0.00     0.020 A 
ATOM     72  C   UNL A   1      42.301  21.109  26.730  1.00  0.00     0.054 A 
BRANCH  72  73
ATOM     73  S   UNL A   1      42.045  19.451  26.039  1.00  0.00     0.124 S 
ATOM     74  O   UNL A   1      42.499  18.594  27.130  1.00  0.00    -0.237 OA
ATOM     75  O   UNL A   1      40.607  19.436  25.778  1.00  0.00    -0.237 OA
ATOM     76  O   UNL A   1      42.886  19.445  24.846  1.00  0.00    -0.744 OA
ENDBRANCH  72  73
ENDBRANCH  44  67
BRANCH  56  77
ATOM     77  C   UNL A   1      48.015  27.012  30.738  1.00  0.00    -0.014 A 
ATOM     78  C   UNL A   1      49.052  27.192  29.804  1.00  0.00     0.010 A 
ATOM     79  C   UNL A   1      48.319  26.484  32.006  1.00  0.00     0.010 A 
ATOM     80  C   UNL A   1      50.361  26.824  30.125  1.00  0.00     0.020 A 
ATOM     81  C   UNL A   1      49.631  26.142  32.339  1.00  0.00     0.020 A 
ATOM     82  C   UNL A   1      50.643  26.302  31.390  1.00  0.00     0.054 A 
BRANCH  82  83
ATOM     83  S   UNL A   1      52.358  25.876  31.799  1.00  0.00     0.124 S 
ATOM     84  O   UNL A   1      52.249  24.456  32.125  1.00  0.00    -0.237 OA
ATOM     85  O   UNL A   1      53.069  26.183  30.561  1.00  0.00    -0.237 OA
ATOM     86  O   UNL A   1      52.674  26.750  32.925  1.00  0.00    -0.744 OA
ENDBRANCH  82  83
ENDBRANCH  56  77
ENDBRANCH  30  31
ENDBRANCH  22  25
ENDBRANCH  20  21
ENDBRANCH   1  20
TORSDOF 16
ENDMDL
MODEL 2
REMARK VINA RESULT:     -10.1      3.566      6.053
REMARK SMILES CC1(C)CSC[C@](O)([C@H](F)C(=O)NCCCCNC(=O)c2ccc(-c3c4nc(c(-c5ccc(S(=O)(=O)[O-])cc5)c5ccc([nH]5)c(-c5ccc(S(=O)(=O)[O-])cc5)c5nc(c(-c6ccc(S(=O)(=O)[O-])cc6)c6ccc3[nH]6)C=C5)C=C4)cc2)C1
REMARK SMILES IDX 16 1 15 2 14 3 13 4 11 5 12 6 9 8 10 9 7 10 1 11 2 12 3 13
REMARK SMILES IDX 4 14 81 15 5 16 6 17 8 18 17 20 18 21 19 22 20 24 21 25
REMARK SMILES IDX 22 26 80 27 23 28 79 29 24 30 25 31 26 32 73 33 27 34 78 35
REMARK SMILES IDX 72 36 74 37 28 38 77 39 71 40 70 41 29 43 59 44 40 45 58 46
REMARK SMILES IDX 41 47 44 48 57 49 75 50 42 51 43 52 56 54 76 55 45 56 30 57
REMARK SMILES IDX 31 58 39 59 32 60 38 61 33 62 34 63 35 64 36 65 37 66 60 67
REMARK SMILES IDX 61 68 69 69 62 70 68 71 63 72 64 73 65 74 66 75 67 76 46 77
REMARK SMILES IDX 47 78 55 79 48 80 54 81 49 82 50 83 51 84 52 85 53 86
REMARK H PARENT 13 7 8 19 18 23 74 42 44 53
REMARK Flexibility Score: inf
ROOT
ATOM      1  C   UNL A   1      33.675  28.318  25.762  1.00  0.00     0.023 C 
ENDROOT
BRANCH   1   2
ATOM      2  C   UNL A   1      33.017  29.383  24.888  1.00  0.00     0.023 C 
BRANCH   2   3
ATOM      3  C   UNL A   1      31.605  29.049  24.427  1.00  0.00     0.116 C 
BRANCH   3   4
ATOM      4  N   UNL A   1      31.556  28.455  23.103  1.00  0.00    -0.353 N 
ATOM      5  C   UNL A   1      31.118  27.195  22.779  1.00  0.00     0.257 C 
ATOM      6  O   UNL A   1      30.936  26.909  21.593  1.00  0.00    -0.272 OA
ATOM      7  H   UNL A   1      31.870  29.016  22.357  1.00  0.00     0.163 HD
BRANCH   5   8
ATOM      8  C   UNL A   1      30.859  26.169  23.882  1.00  0.00     0.287 C 
ATOM      9  F   UNL A   1      29.715  25.456  23.627  1.00  0.00    -0.234 F 
BRANCH   8  10
ATOM     10  C   UNL A   1      32.055  25.196  24.141  1.00  0.00     0.114 C 
ATOM     11  C   UNL A   1      34.158  23.010  22.881  1.00  0.00     0.012 C 
ATOM     12  C   UNL A   1      32.833  22.715  23.616  1.00  0.00    -0.023 C 
ATOM     13  C   UNL A   1      32.243  21.443  22.961  1.00  0.00     0.012 C 
ATOM     14  C   UNL A   1      33.071  22.428  25.111  1.00  0.00     0.076 C 
ATOM     15  C   UNL A   1      31.788  23.846  23.435  1.00  0.00     0.047 C 
ATOM     16  S   UNL A   1      33.591  23.882  26.080  1.00  0.00    -0.158 SA
ATOM     17  C   UNL A   1      32.218  25.012  25.663  1.00  0.00     0.108 C 
BRANCH  10  18
ATOM     18  O   UNL A   1      33.276  25.738  23.611  1.00  0.00    -0.385 OA
ATOM     19  H   UNL A   1      33.820  25.020  23.253  1.00  0.00     0.211 HD
ENDBRANCH  10  18
ENDBRANCH   8  10
ENDBRANCH   5   8
ENDBRANCH   3   4
ENDBRANCH   2   3
ENDBRANCH   1   2
BRANCH   1  20
ATOM     20  C   UNL A   1      33.520  28.517  27.266  1.00  0.00     0.116 C 
BRANCH  20  21
ATOM     21  N   UNL A   1      33.472  29.919  27.657  1.00  0.00    -0.352 N 
ATOM     22  C   UNL A   1      34.444  30.691  28.255  1.00  0.00     0.251 C 
ATOM     23  H   UNL A   1      32.623  30.382  27.468  1.00  0.00     0.163 HD
ATOM     24  O   UNL A   1      34.182  31.824  28.636  1.00  0.00    -0.269 OA
BRANCH  22  25
ATOM     25  C   UNL A   1      35.796  30.127  28.463  1.00  0.00     0.039 A 
ATOM     26  C   UNL A   1      36.700  30.125  27.399  1.00  0.00     0.014 A 
ATOM     27  C   UNL A   1      36.179  29.632  29.713  1.00  0.00     0.014 A 
ATOM     28  C   UNL A   1      38.015  29.703  27.611  1.00  0.00     0.010 A 
ATOM     29  C   UNL A   1      37.507  29.287  29.942  1.00  0.00     0.010 A 
ATOM     30  C   UNL A   1      38.442  29.323  28.894  1.00  0.00    -0.014 A 
BRANCH  30  31
ATOM     31  C   UNL A   1      39.861  28.975  29.168  1.00  0.00     0.031 A 
ATOM     32  C   UNL A   1      40.793  30.000  29.758  1.00  0.00     0.074 A 
ATOM     33  C   UNL A   1      40.330  27.760  28.820  1.00  0.00     0.049 A 
ATOM     34  N   UNL A   1      42.074  29.905  30.002  1.00  0.00    -0.248 NA
ATOM     35  C   UNL A   1      40.213  31.312  30.090  1.00  0.00     0.031 C 
ATOM     36  C   UNL A   1      39.543  26.690  28.200  1.00  0.00     0.029 A 
ATOM     37  N   UNL A   1      41.588  27.220  28.929  1.00  0.00    -0.354 N 
ATOM     38  C   UNL A   1      42.457  31.145  30.499  1.00  0.00     0.074 A 
ATOM     39  C   UNL A   1      41.284  31.990  30.475  1.00  0.00     0.031 C 
ATOM     40  C   UNL A   1      40.328  25.618  28.011  1.00  0.00     0.029 A 
ATOM     41  C   UNL A   1      41.682  25.933  28.453  1.00  0.00     0.049 A 
ATOM     42  H   UNL A   1      42.352  27.709  29.314  1.00  0.00     0.167 HD
ATOM     43  C   UNL A   1      43.671  31.540  30.953  1.00  0.00     0.031 A 
ATOM     44  C   UNL A   1      42.739  25.101  28.374  1.00  0.00     0.031 A 
ATOM     45  C   UNL A   1      44.834  30.695  30.989  1.00  0.00     0.049 A 
ATOM     46  C   UNL A   1      44.078  25.564  28.879  1.00  0.00     0.074 A 
ATOM     47  C   UNL A   1      46.093  30.985  31.483  1.00  0.00     0.029 A 
ATOM     48  N   UNL A   1      44.883  29.394  30.510  1.00  0.00    -0.354 N 
ATOM     49  N   UNL A   1      44.404  26.720  29.406  1.00  0.00    -0.248 NA
ATOM     50  C   UNL A   1      45.189  24.607  28.788  1.00  0.00     0.031 C 
ATOM     51  C   UNL A   1      46.918  29.878  31.259  1.00  0.00     0.029 A 
ATOM     52  C   UNL A   1      46.157  28.876  30.677  1.00  0.00     0.049 A 
ATOM     53  H   UNL A   1      44.124  28.910  30.110  1.00  0.00     0.167 HD
ATOM     54  C   UNL A   1      45.752  26.618  29.735  1.00  0.00     0.074 A 
ATOM     55  C   UNL A   1      46.176  25.285  29.360  1.00  0.00     0.031 C 
ATOM     56  C   UNL A   1      46.564  27.546  30.300  1.00  0.00     0.031 A 
BRANCH  43  57
ATOM     57  C   UNL A   1      43.801  32.958  31.446  1.00  0.00    -0.014 A 
ATOM     58  C   UNL A   1      44.069  34.015  30.556  1.00  0.00     0.010 A 
ATOM     59  C   UNL A   1      43.617  33.244  32.811  1.00  0.00     0.010 A 
ATOM     60  C   UNL A   1      44.194  35.323  31.028  1.00  0.00     0.020 A 
ATOM     61  C   UNL A   1      43.711  34.556  33.283  1.00  0.00     0.020 A 
ATOM     62  C   UNL A   1      44.018  35.585  32.390  1.00  0.00     0.054 A 
BRANCH  62  63
ATOM     63  S   UNL A   1      44.168  37.297  32.972  1.00  0.00     0.124 S 
ATOM     64  O   UNL A   1      45.466  37.274  33.640  1.00  0.00    -0.237 OA
ATOM     65  O   UNL A   1      44.114  38.063  31.730  1.00  0.00    -0.237 OA
ATOM     66  O   UNL A   1      43.016  37.465  33.855  1.00  0.00    -0.744 OA
ENDBRANCH  62  63
ENDBRANCH  43  57
BRANCH  44  67
ATOM     67  C   UNL A   1      42.570  23.735  27.808  1.00  0.00    -0.014 A 
ATOM     68  C   UNL A   1      42.246  22.652  28.643  1.00  0.00     0.010 A 
ATOM     69  C   UNL A   1      42.718  23.512  26.426  1.00  0.00     0.010 A 
ATOM     70  C   UNL A   1      42.093  21.367  28.112  1.00  0.00     0.020 A 
ATOM     71  C   UNL A   1      42.537  22.235  25.887  1.00  0.00     0.020 A 
ATOM     72  C   UNL A   1      42.237  21.167  26.736  1.00  0.00     0.054 A 
BRANCH  72  73
ATOM     73  S   UNL A   1      41.981  19.503  26.062  1.00  0.00     0.124 S 
ATOM     74  O   UNL A   1      42.408  18.656  27.172  1.00  0.00    -0.237 OA
ATOM     75  O   UNL A   1      40.549  19.495  25.774  1.00  0.00    -0.237 OA
ATOM     76  O   UNL A   1      42.845  19.474  24.885  1.00  0.00    -0.744 OA
ENDBRANCH  72  73
ENDBRANCH  44  67
BRANCH  56  77
ATOM     77  C   UNL A   1      47.987  27.144  30.580  1.00  0.00    -0.014 A 
ATOM     78  C   UNL A   1      49.013  27.390  29.650  1.00  0.00     0.010 A 
ATOM     79  C   UNL A   1      48.311  26.561  31.819  1.00  0.00     0.010 A 
ATOM     80  C   UNL A   1      50.332  27.035  29.944  1.00  0.00     0.020 A 
ATOM     81  C   UNL A   1      49.632  26.230  32.127  1.00  0.00     0.020 A 
ATOM     82  C   UNL A   1      50.634  26.457  31.181  1.00  0.00     0.054 A 
BRANCH  82  83
ATOM     83  S   UNL A   1      52.360  26.047  31.558  1.00  0.00     0.124 S 
ATOM     84  O   UNL A   1      52.710  27.075  32.534  1.00  0.00    -0.237 OA
ATOM     85  O   UNL A   1      52.259  24.688  32.085  1.00  0.00    -0.237 OA
ATOM     86  O   UNL A   1      53.033  26.160  30.266  1.00  0.00    -0.744 OA
ENDBRANCH  82  83
ENDBRANCH  56  77
ENDBRANCH  30  31
ENDBRANCH  22  25
ENDBRANCH  20  21
ENDBRANCH   1  20
TORSDOF 16
ENDMDL
MODEL 3
REMARK VINA RESULT:      -9.9      3.760      6.364
REMARK SMILES CC1(C)CSC[C@](O)([C@H](F)C(=O)NCCCCNC(=O)c2ccc(-c3c4nc(c(-c5ccc(S(=O)(=O)[O-])cc5)c5ccc([nH]5)c(-c5ccc(S(=O)(=O)[O-])cc5)c5nc(c(-c6ccc(S(=O)(=O)[O-])cc6)c6ccc3[nH]6)C=C5)C=C4)cc2)C1
REMARK SMILES IDX 16 1 15 2 14 3 13 4 11 5 12 6 9 8 10 9 7 10 1 11 2 12 3 13
REMARK SMILES IDX 4 14 81 15 5 16 6 17 8 18 17 20 18 21 19 22 20 24 21 25
REMARK SMILES IDX 22 26 80 27 23 28 79 29 24 30 25 31 26 32 73 33 27 34 78 35
REMARK SMILES IDX 72 36 74 37 28 38 77 39 71 40 70 41 29 43 59 44 40 45 58 46
REMARK SMILES IDX 41 47 44 48 57 49 75 50 42 51 43 52 56 54 76 55 45 56 30 57
REMARK SMILES IDX 31 58 39 59 32 60 38 61 33 62 34 63 35 64 36 65 37 66 60 67
REMARK SMILES IDX 61 68 69 69 62 70 68 71 63 72 64 73 65 74 66 75 67 76 46 77
REMARK SMILES IDX 47 78 55 79 48 80 54 81 49 82 50 83 51 84 52 85 53 86
REMARK H PARENT 13 7 8 19 18 23 74 42 44 53
REMARK Flexibility Score: inf
ROOT
ATOM      1  C   UNL A   1      32.403  28.105  26.314  1.00  0.00     0.023 C 
ENDROOT
BRANCH   1   2
ATOM      2  C   UNL A   1      31.326  27.151  26.824  1.00  0.00     0.023 C 
BRANCH   2   3
ATOM      3  C   UNL A   1      30.593  26.374  25.740  1.00  0.00     0.116 C 
BRANCH   3   4
ATOM      4  N   UNL A   1      29.806  25.267  26.254  1.00  0.00    -0.353 N 
ATOM      5  C   UNL A   1      30.279  24.128  26.856  1.00  0.00     0.257 C 
ATOM      6  O   UNL A   1      29.486  23.378  27.431  1.00  0.00    -0.272 OA
ATOM      7  H   UNL A   1      28.829  25.341  26.162  1.00  0.00     0.163 HD
BRANCH   5   8
ATOM      8  C   UNL A   1      31.773  23.804  26.813  1.00  0.00     0.287 C 
ATOM      9  F   UNL A   1      32.112  22.928  27.813  1.00  0.00    -0.234 F 
BRANCH   8  10
ATOM     10  C   UNL A   1      32.268  23.265  25.432  1.00  0.00     0.114 C 
ATOM     11  C   UNL A   1      32.447  20.717  23.366  1.00  0.00     0.012 C 
ATOM     12  C   UNL A   1      33.522  21.182  24.372  1.00  0.00    -0.023 C 
ATOM     13  C   UNL A   1      34.241  19.903  24.866  1.00  0.00     0.012 C 
ATOM     14  C   UNL A   1      34.564  22.097  23.699  1.00  0.00     0.076 C 
ATOM     15  C   UNL A   1      32.912  21.871  25.619  1.00  0.00     0.047 C 
ATOM     16  S   UNL A   1      33.924  23.736  23.223  1.00  0.00    -0.158 SA
ATOM     17  C   UNL A   1      33.274  24.274  24.843  1.00  0.00     0.108 C 
BRANCH  10  18
ATOM     18  O   UNL A   1      31.169  23.125  24.517  1.00  0.00    -0.385 OA
ATOM     19  H   UNL A   1      31.106  22.202  24.226  1.00  0.00     0.211 HD
ENDBRANCH  10  18
ENDBRANCH   8  10
ENDBRANCH   5   8
ENDBRANCH   3   4
ENDBRANCH   2   3
ENDBRANCH   1   2
BRANCH   1  20
ATOM     20  C   UNL A   1      33.436  28.539  27.348  1.00  0.00     0.116 C 
BRANCH  20  21
ATOM     21  N   UNL A   1      33.458  29.979  27.568  1.00  0.00    -0.352 N 
ATOM     22  C   UNL A   1      34.469  30.769  28.067  1.00  0.00     0.251 C 
ATOM     23  H   UNL A   1      32.630  30.455  27.328  1.00  0.00     0.163 HD
ATOM     24  O   UNL A   1      34.264  31.951  28.311  1.00  0.00    -0.269 OA
BRANCH  22  25
ATOM     25  C   UNL A   1      35.795  30.170  28.338  1.00  0.00     0.039 A 
ATOM     26  C   UNL A   1      36.771  30.204  27.340  1.00  0.00     0.014 A 
ATOM     27  C   UNL A   1      36.083  29.607  29.585  1.00  0.00     0.014 A 
ATOM     28  C   UNL A   1      38.061  29.748  27.620  1.00  0.00     0.010 A 
ATOM     29  C   UNL A   1      37.387  29.226  29.886  1.00  0.00     0.010 A 
ATOM     30  C   UNL A   1      38.392  29.296  28.908  1.00  0.00    -0.014 A 
BRANCH  30  31
ATOM     31  C   UNL A   1      39.783  28.908  29.260  1.00  0.00     0.031 A 
ATOM     32  C   UNL A   1      40.699  29.898  29.931  1.00  0.00     0.074 A 
ATOM     33  C   UNL A   1      40.247  27.691  28.911  1.00  0.00     0.049 A 
ATOM     34  N   UNL A   1      41.960  29.767  30.252  1.00  0.00    -0.248 NA
ATOM     35  C   UNL A   1      40.129  31.215  30.260  1.00  0.00     0.031 C 
ATOM     36  C   UNL A   1      39.476  26.656  28.218  1.00  0.00     0.029 A 
ATOM     37  N   UNL A   1      41.483  27.120  29.085  1.00  0.00    -0.354 N 
ATOM     38  C   UNL A   1      42.339  30.985  30.802  1.00  0.00     0.074 A 
ATOM     39  C   UNL A   1      41.188  31.858  30.727  1.00  0.00     0.031 C 
ATOM     40  C   UNL A   1      40.248  25.570  28.050  1.00  0.00     0.029 A 
ATOM     41  C   UNL A   1      41.578  25.842  28.583  1.00  0.00     0.049 A 
ATOM     42  H   UNL A   1      42.232  27.581  29.527  1.00  0.00     0.167 HD
ATOM     43  C   UNL A   1      43.531  31.341  31.340  1.00  0.00     0.031 A 
ATOM     44  C   UNL A   1      42.619  24.988  28.548  1.00  0.00     0.031 A 
ATOM     45  C   UNL A   1      44.670  30.468  31.426  1.00  0.00     0.049 A 
ATOM     46  C   UNL A   1      43.935  25.407  29.146  1.00  0.00     0.074 A 
ATOM     47  C   UNL A   1      45.902  30.717  32.004  1.00  0.00     0.029 A 
ATOM     48  N   UNL A   1      44.720  29.178  30.919  1.00  0.00    -0.354 N 
ATOM     49  N   UNL A   1      44.252  26.543  29.721  1.00  0.00    -0.248 NA
ATOM     50  C   UNL A   1      45.028  24.427  29.100  1.00  0.00     0.031 C 
ATOM     51  C   UNL A   1      46.715  29.596  31.804  1.00  0.00     0.029 A 
ATOM     52  C   UNL A   1      45.969  28.627  31.151  1.00  0.00     0.049 A 
ATOM     53  H   UNL A   1      43.978  28.722  30.461  1.00  0.00     0.167 HD
ATOM     54  C   UNL A   1      45.575  26.402  30.130  1.00  0.00     0.074 A 
ATOM     55  C   UNL A   1      45.991  25.068  29.749  1.00  0.00     0.031 C 
ATOM     56  C   UNL A   1      46.370  27.297  30.767  1.00  0.00     0.031 A 
BRANCH  43  57
ATOM     57  C   UNL A   1      43.660  32.744  31.875  1.00  0.00    -0.014 A 
ATOM     58  C   UNL A   1      43.408  33.030  33.230  1.00  0.00     0.010 A 
ATOM     59  C   UNL A   1      44.075  33.783  31.023  1.00  0.00     0.010 A 
ATOM     60  C   UNL A   1      43.525  34.335  33.711  1.00  0.00     0.020 A 
ATOM     61  C   UNL A   1      44.222  35.086  31.508  1.00  0.00     0.020 A 
ATOM     62  C   UNL A   1      43.927  35.357  32.845  1.00  0.00     0.054 A 
BRANCH  62  63
ATOM     63  S   UNL A   1      44.088  37.039  33.503  1.00  0.00     0.124 S 
ATOM     64  O   UNL A   1      45.447  37.024  34.038  1.00  0.00    -0.237 OA
ATOM     65  O   UNL A   1      43.890  37.868  32.317  1.00  0.00    -0.237 OA
ATOM     66  O   UNL A   1      43.026  37.124  34.504  1.00  0.00    -0.744 OA
ENDBRANCH  62  63
ENDBRANCH  43  57
BRANCH  44  67
ATOM     67  C   UNL A   1      42.456  23.640  27.939  1.00  0.00    -0.014 A 
ATOM     68  C   UNL A   1      42.870  23.400  26.617  1.00  0.00     0.010 A 
ATOM     69  C   UNL A   1      41.897  22.584  28.682  1.00  0.00     0.010 A 
ATOM     70  C   UNL A   1      42.710  22.135  26.042  1.00  0.00     0.020 A 
ATOM     71  C   UNL A   1      41.762  21.311  28.121  1.00  0.00     0.020 A 
ATOM     72  C   UNL A   1      42.159  21.097  26.799  1.00  0.00     0.054 A 
BRANCH  72  73
ATOM     73  S   UNL A   1      42.012  19.451  26.052  1.00  0.00     0.124 S 
ATOM     74  O   UNL A   1      40.568  19.328  25.871  1.00  0.00    -0.237 OA
ATOM     75  O   UNL A   1      42.793  19.589  24.825  1.00  0.00    -0.237 OA
ATOM     76  O   UNL A   1      42.595  18.566  27.057  1.00  0.00    -0.744 OA
ENDBRANCH  72  73
ENDBRANCH  44  67
BRANCH  56  77
ATOM     77  C   UNL A   1      47.764  26.855  31.125  1.00  0.00    -0.014 A 
ATOM     78  C   UNL A   1      48.019  26.117  32.294  1.00  0.00     0.010 A 
ATOM     79  C   UNL A   1      48.826  27.137  30.247  1.00  0.00     0.010 A 
ATOM     80  C   UNL A   1      49.317  25.693  32.591  1.00  0.00     0.020 A 
ATOM     81  C   UNL A   1      50.119  26.691  30.526  1.00  0.00     0.020 A 
ATOM     82  C   UNL A   1      50.360  25.982  31.706  1.00  0.00     0.054 A 
BRANCH  82  83
ATOM     83  S   UNL A   1      52.027  25.382  32.090  1.00  0.00     0.124 S 
ATOM     84  O   UNL A   1      52.772  25.766  30.894  1.00  0.00    -0.237 OA
ATOM     85  O   UNL A   1      52.363  26.122  33.304  1.00  0.00    -0.237 OA
ATOM     86  O   UNL A   1      51.844  23.944  32.274  1.00  0.00    -0.744 OA
ENDBRANCH  82  83
ENDBRANCH  56  77
ENDBRANCH  30  31
ENDBRANCH  22  25
ENDBRANCH  20  21
ENDBRANCH   1  20
TORSDOF 16
ENDMDL
