MODEL 1
REMARK VINA RESULT:     -13.4      0.000      0.000
REMARK SMILES CC1(C)CC(=O)C(C)(C)c2ccc(NC(=O)c3ccc(C(=O)NCCCCNC(=O)c4ccc(-c5c6nc(c(-c7ccc(S(=O)(=O)[O-])cc7)c7ccc([nH]7)c(-c7ccc(S(=O)(=O)[O-])cc7)c7nc(c(-c8ccc(S(=O)(=O)[O-])cc8)c8ccc5[nH]8)C=C7)C=C6)cc4)cc3)cc21
REMARK SMILES IDX 26 1 25 2 24 3 23 4 21 5 22 6 20 8 17 9 18 10 92 11 19 12
REMARK SMILES IDX 91 13 15 14 14 15 16 17 13 18 1 19 2 20 3 21 4 22 94 23 5 24
REMARK SMILES IDX 10 25 93 26 6 27 7 28 11 29 8 30 9 31 12 32 27 33 28 34
REMARK SMILES IDX 29 35 30 37 31 38 32 39 90 40 33 41 89 42 34 43 35 44 36 45
REMARK SMILES IDX 83 46 37 47 88 48 82 49 84 50 38 51 87 52 81 53 80 54 39 56
REMARK SMILES IDX 69 57 50 58 68 59 51 60 54 61 67 62 85 63 52 64 53 65 66 67
REMARK SMILES IDX 86 68 55 69 40 70 41 71 49 72 42 73 48 74 43 75 44 76 45 77
REMARK SMILES IDX 46 78 47 79 70 80 71 81 79 82 72 83 78 84 73 85 74 86 75 87
REMARK SMILES IDX 76 88 77 89 56 90 57 91 65 92 58 93 64 94 59 95 60 96 61 97
REMARK SMILES IDX 62 98 63 99
REMARK H PARENT 23 7 14 16 28 36 84 55 54 66
REMARK Flexibility Score: inf
ROOT
ATOM      1  C   UNL A   1      39.804  22.485  27.108  1.00  0.00     0.023 C 
ENDROOT
BRANCH   1   2
ATOM      2  C   UNL A   1      38.670  23.036  26.253  1.00  0.00     0.023 C 
BRANCH   2   3
ATOM      3  C   UNL A   1      37.869  22.045  25.417  1.00  0.00     0.116 C 
BRANCH   3   4
ATOM      4  N   UNL A   1      37.409  22.520  24.125  1.00  0.00    -0.352 N 
ATOM      5  C   UNL A   1      36.144  22.857  23.691  1.00  0.00     0.251 C 
ATOM      6  O   UNL A   1      36.019  23.334  22.564  1.00  0.00    -0.269 OA
ATOM      7  H   UNL A   1      38.116  22.618  23.447  1.00  0.00     0.163 HD
BRANCH   5   8
ATOM      8  C   UNL A   1      34.919  22.540  24.482  1.00  0.00     0.039 A 
ATOM      9  C   UNL A   1      32.333  22.507  25.527  1.00  0.00     0.040 A 
ATOM     10  C   UNL A   1      33.258  23.424  26.028  1.00  0.00     0.014 A 
ATOM     11  C   UNL A   1      32.770  21.460  24.710  1.00  0.00     0.014 A 
ATOM     12  C   UNL A   1      34.545  23.455  25.480  1.00  0.00     0.014 A 
ATOM     13  C   UNL A   1      34.077  21.458  24.221  1.00  0.00     0.014 A 
BRANCH   9  14
ATOM     14  C   UNL A   1      30.889  22.613  25.799  1.00  0.00     0.255 C 
ATOM     15  N   UNL A   1      30.176  23.786  25.661  1.00  0.00    -0.322 N 
ATOM     16  H   UNL A   1      29.238  23.690  25.944  1.00  0.00     0.170 HD
ATOM     17  O   UNL A   1      30.294  21.592  26.148  1.00  0.00    -0.269 OA
BRANCH  15  18
ATOM     18  C   UNL A   1      30.470  25.091  25.210  1.00  0.00     0.041 A 
ATOM     19  C   UNL A   1      31.404  28.587  27.625  1.00  0.00     0.016 C 
ATOM     20  C   UNL A   1      32.226  28.327  26.336  1.00  0.00    -0.003 C 
ATOM     21  C   UNL A   1      33.612  27.757  26.726  1.00  0.00     0.016 C 
ATOM     22  C   UNL A   1      32.500  29.676  25.653  1.00  0.00     0.087 C 
ATOM     23  C   UNL A   1      31.432  27.356  25.439  1.00  0.00    -0.036 A 
ATOM     24  C   UNL A   1      31.265  30.170  24.950  1.00  0.00     0.143 C 
ATOM     25  C   UNL A   1      30.688  27.795  24.324  1.00  0.00    -0.031 A 
ATOM     26  C   UNL A   1      31.349  25.988  25.813  1.00  0.00     0.030 A 
ATOM     27  O   UNL A   1      30.799  31.281  25.206  1.00  0.00    -0.299 OA
ATOM     28  C   UNL A   1      30.703  29.255  23.858  1.00  0.00     0.049 C 
ATOM     29  C   UNL A   1      29.924  26.842  23.621  1.00  0.00     0.007 A 
ATOM     30  C   UNL A   1      29.288  29.758  23.496  1.00  0.00     0.024 C 
ATOM     31  C   UNL A   1      31.613  29.394  22.624  1.00  0.00     0.024 C 
ATOM     32  C   UNL A   1      29.800  25.523  24.069  1.00  0.00     0.026 A 
ENDBRANCH  15  18
ENDBRANCH   9  14
ENDBRANCH   5   8
ENDBRANCH   3   4
ENDBRANCH   2   3
ENDBRANCH   1   2
BRANCH   1  33
ATOM     33  C   UNL A   1      41.185  23.087  26.891  1.00  0.00     0.116 C 
BRANCH  33  34
ATOM     34  N   UNL A   1      41.232  24.148  25.896  1.00  0.00    -0.352 N 
ATOM     35  C   UNL A   1      41.312  25.516  26.051  1.00  0.00     0.251 C 
ATOM     36  H   UNL A   1      41.200  23.840  24.961  1.00  0.00     0.163 HD
ATOM     37  O   UNL A   1      41.308  26.241  25.067  1.00  0.00    -0.269 OA
BRANCH  35  38
ATOM     38  C   UNL A   1      41.331  26.106  27.410  1.00  0.00     0.039 A 
ATOM     39  C   UNL A   1      40.247  25.964  28.277  1.00  0.00     0.014 A 
ATOM     40  C   UNL A   1      42.433  26.878  27.788  1.00  0.00     0.014 A 
ATOM     41  C   UNL A   1      40.160  26.775  29.404  1.00  0.00     0.010 A 
ATOM     42  C   UNL A   1      42.386  27.617  28.973  1.00  0.00     0.010 A 
ATOM     43  C   UNL A   1      41.218  27.632  29.751  1.00  0.00    -0.014 A 
BRANCH  43  44
ATOM     44  C   UNL A   1      41.066  28.580  30.886  1.00  0.00     0.031 A 
ATOM     45  C   UNL A   1      39.974  29.621  30.866  1.00  0.00     0.074 A 
ATOM     46  C   UNL A   1      41.865  28.469  31.965  1.00  0.00     0.049 A 
ATOM     47  N   UNL A   1      39.714  30.559  31.741  1.00  0.00    -0.248 NA
ATOM     48  C   UNL A   1      39.050  29.608  29.717  1.00  0.00     0.031 C 
ATOM     49  C   UNL A   1      42.917  27.464  32.133  1.00  0.00     0.029 A 
ATOM     50  N   UNL A   1      41.899  29.185  33.136  1.00  0.00    -0.354 N 
ATOM     51  C   UNL A   1      38.619  31.255  31.243  1.00  0.00     0.074 A 
ATOM     52  C   UNL A   1      38.274  30.652  29.975  1.00  0.00     0.031 C 
ATOM     53  C   UNL A   1      43.450  27.589  33.358  1.00  0.00     0.029 A 
ATOM     54  C   UNL A   1      42.840  28.732  34.030  1.00  0.00     0.049 A 
ATOM     55  H   UNL A   1      41.306  29.949  33.318  1.00  0.00     0.167 HD
ATOM     56  C   UNL A   1      37.953  32.295  31.798  1.00  0.00     0.031 A 
ATOM     57  C   UNL A   1      43.193  29.191  35.248  1.00  0.00     0.031 A 
ATOM     58  C   UNL A   1      38.287  32.878  33.071  1.00  0.00     0.049 A 
ATOM     59  C   UNL A   1      42.499  30.400  35.806  1.00  0.00     0.074 A 
ATOM     60  C   UNL A   1      37.673  33.938  33.713  1.00  0.00     0.029 A 
ATOM     61  N   UNL A   1      39.311  32.445  33.899  1.00  0.00    -0.354 N 
ATOM     62  N   UNL A   1      41.498  31.074  35.297  1.00  0.00    -0.248 NA
ATOM     63  C   UNL A   1      42.991  30.922  37.088  1.00  0.00     0.031 C 
ATOM     64  C   UNL A   1      38.358  34.182  34.904  1.00  0.00     0.029 A 
ATOM     65  C   UNL A   1      39.361  33.234  35.035  1.00  0.00     0.049 A 
ATOM     66  H   UNL A   1      39.912  31.688  33.709  1.00  0.00     0.167 HD
ATOM     67  C   UNL A   1      41.235  32.099  36.198  1.00  0.00     0.074 A 
ATOM     68  C   UNL A   1      42.172  31.948  37.291  1.00  0.00     0.031 C 
ATOM     69  C   UNL A   1      40.302  33.077  36.116  1.00  0.00     0.031 A 
BRANCH  56  70
ATOM     70  C   UNL A   1      36.795  32.891  31.042  1.00  0.00    -0.014 A 
ATOM     71  C   UNL A   1      37.041  33.773  29.972  1.00  0.00     0.010 A 
ATOM     72  C   UNL A   1      35.470  32.672  31.455  1.00  0.00     0.010 A 
ATOM     73  C   UNL A   1      35.986  34.442  29.345  1.00  0.00     0.020 A 
ATOM     74  C   UNL A   1      34.409  33.320  30.814  1.00  0.00     0.020 A 
ATOM     75  C   UNL A   1      34.676  34.217  29.777  1.00  0.00     0.054 A 
BRANCH  75  76
ATOM     76  S   UNL A   1      33.316  35.095  28.957  1.00  0.00     0.124 S 
ATOM     77  O   UNL A   1      32.413  35.372  30.068  1.00  0.00    -0.237 OA
ATOM     78  O   UNL A   1      33.987  36.260  28.382  1.00  0.00    -0.237 OA
ATOM     79  O   UNL A   1      32.830  34.127  27.977  1.00  0.00    -0.744 OA
ENDBRANCH  75  76
ENDBRANCH  56  70
BRANCH  57  80
ATOM     80  C   UNL A   1      44.267  28.486  35.999  1.00  0.00    -0.014 A 
ATOM     81  C   UNL A   1      43.946  27.440  36.884  1.00  0.00     0.010 A 
ATOM     82  C   UNL A   1      45.598  28.930  35.918  1.00  0.00     0.010 A 
ATOM     83  C   UNL A   1      44.919  26.898  37.726  1.00  0.00     0.020 A 
ATOM     84  C   UNL A   1      46.581  28.370  36.740  1.00  0.00     0.020 A 
ATOM     85  C   UNL A   1      46.227  27.382  37.663  1.00  0.00     0.054 A 
BRANCH  85  86
ATOM     86  S   UNL A   1      47.460  26.720  38.817  1.00  0.00     0.124 S 
ATOM     87  O   UNL A   1      48.580  27.636  38.615  1.00  0.00    -0.237 OA
ATOM     88  O   UNL A   1      46.784  26.828  40.107  1.00  0.00    -0.237 OA
ATOM     89  O   UNL A   1      47.674  25.355  38.342  1.00  0.00    -0.744 OA
ENDBRANCH  85  86
ENDBRANCH  57  80
BRANCH  69  90
ATOM     90  C   UNL A   1      40.227  34.089  37.227  1.00  0.00    -0.014 A 
ATOM     91  C   UNL A   1      39.470  33.805  38.378  1.00  0.00     0.010 A 
ATOM     92  C   UNL A   1      40.755  35.379  37.050  1.00  0.00     0.010 A 
ATOM     93  C   UNL A   1      39.196  34.809  39.310  1.00  0.00     0.020 A 
ATOM     94  C   UNL A   1      40.503  36.381  37.992  1.00  0.00     0.020 A 
ATOM     95  C   UNL A   1      39.699  36.096  39.099  1.00  0.00     0.054 A 
BRANCH  95  96
ATOM     96  S   UNL A   1      39.267  37.405  40.279  1.00  0.00     0.124 S 
ATOM     97  O   UNL A   1      40.580  37.906  40.674  1.00  0.00    -0.237 OA
ATOM     98  O   UNL A   1      38.464  38.317  39.468  1.00  0.00    -0.237 OA
ATOM     99  O   UNL A   1      38.528  36.696  41.322  1.00  0.00    -0.744 OA
ENDBRANCH  95  96
ENDBRANCH  69  90
ENDBRANCH  43  44
ENDBRANCH  35  38
ENDBRANCH  33  34
ENDBRANCH   1  33
TORSDOF 16
ENDMDL
MODEL 2
REMARK VINA RESULT:     -13.3      0.558      7.843
REMARK SMILES CC1(C)CC(=O)C(C)(C)c2ccc(NC(=O)c3ccc(C(=O)NCCCCNC(=O)c4ccc(-c5c6nc(c(-c7ccc(S(=O)(=O)[O-])cc7)c7ccc([nH]7)c(-c7ccc(S(=O)(=O)[O-])cc7)c7nc(c(-c8ccc(S(=O)(=O)[O-])cc8)c8ccc5[nH]8)C=C7)C=C6)cc4)cc3)cc21
REMARK SMILES IDX 26 1 25 2 24 3 23 4 21 5 22 6 20 8 17 9 18 10 92 11 19 12
REMARK SMILES IDX 91 13 15 14 14 15 16 17 13 18 1 19 2 20 3 21 4 22 94 23 5 24
REMARK SMILES IDX 10 25 93 26 6 27 7 28 11 29 8 30 9 31 12 32 27 33 28 34
REMARK SMILES IDX 29 35 30 37 31 38 32 39 90 40 33 41 89 42 34 43 35 44 36 45
REMARK SMILES IDX 83 46 37 47 88 48 82 49 84 50 38 51 87 52 81 53 80 54 39 56
REMARK SMILES IDX 69 57 50 58 68 59 51 60 54 61 67 62 85 63 52 64 53 65 66 67
REMARK SMILES IDX 86 68 55 69 40 70 41 71 49 72 42 73 48 74 43 75 44 76 45 77
REMARK SMILES IDX 46 78 47 79 70 80 71 81 79 82 72 83 78 84 73 85 74 86 75 87
REMARK SMILES IDX 76 88 77 89 56 90 57 91 65 92 58 93 64 94 59 95 60 96 61 97
REMARK SMILES IDX 62 98 63 99
REMARK H PARENT 23 7 14 16 28 36 84 55 54 66
REMARK Flexibility Score: inf
ROOT
ATOM      1  C   UNL A   1      40.197  22.342  27.096  1.00  0.00     0.023 C 
ENDROOT
BRANCH   1   2
ATOM      2  C   UNL A   1      38.955  22.977  26.485  1.00  0.00     0.023 C 
BRANCH   2   3
ATOM      3  C   UNL A   1      38.026  22.077  25.677  1.00  0.00     0.116 C 
BRANCH   3   4
ATOM      4  N   UNL A   1      37.616  22.581  24.380  1.00  0.00    -0.352 N 
ATOM      5  C   UNL A   1      36.365  22.907  23.898  1.00  0.00     0.251 C 
ATOM      6  O   UNL A   1      36.282  23.413  22.779  1.00  0.00    -0.269 OA
ATOM      7  H   UNL A   1      38.350  22.709  23.737  1.00  0.00     0.163 HD
BRANCH   5   8
ATOM      8  C   UNL A   1      35.112  22.547  24.623  1.00  0.00     0.039 A 
ATOM      9  C   UNL A   1      32.489  22.454  25.564  1.00  0.00     0.040 A 
ATOM     10  C   UNL A   1      33.389  23.347  26.146  1.00  0.00     0.014 A 
ATOM     11  C   UNL A   1      32.961  21.451  24.713  1.00  0.00     0.014 A 
ATOM     12  C   UNL A   1      34.696  23.409  25.651  1.00  0.00     0.014 A 
ATOM     13  C   UNL A   1      34.286  21.478  24.275  1.00  0.00     0.014 A 
BRANCH   9  14
ATOM     14  C   UNL A   1      31.034  22.542  25.785  1.00  0.00     0.255 C 
ATOM     15  N   UNL A   1      30.311  23.705  25.619  1.00  0.00    -0.322 N 
ATOM     16  H   UNL A   1      29.365  23.598  25.869  1.00  0.00     0.170 HD
ATOM     17  O   UNL A   1      30.440  21.514  26.115  1.00  0.00    -0.269 OA
BRANCH  15  18
ATOM     18  C   UNL A   1      30.605  25.013  25.175  1.00  0.00     0.041 A 
ATOM     19  C   UNL A   1      31.411  28.525  27.613  1.00  0.00     0.016 C 
ATOM     20  C   UNL A   1      32.280  28.273  26.354  1.00  0.00    -0.003 C 
ATOM     21  C   UNL A   1      33.659  27.721  26.792  1.00  0.00     0.016 C 
ATOM     22  C   UNL A   1      32.561  29.624  25.678  1.00  0.00     0.087 C 
ATOM     23  C   UNL A   1      31.530  27.290  25.432  1.00  0.00    -0.036 A 
ATOM     24  C   UNL A   1      31.345  30.101  24.931  1.00  0.00     0.143 C 
ATOM     25  C   UNL A   1      30.820  27.718  24.291  1.00  0.00    -0.031 A 
ATOM     26  C   UNL A   1      31.451  25.922  25.806  1.00  0.00     0.030 A 
ATOM     27  O   UNL A   1      30.857  31.207  25.169  1.00  0.00    -0.299 OA
ATOM     28  C   UNL A   1      30.832  29.177  23.823  1.00  0.00     0.049 C 
ATOM     29  C   UNL A   1      30.092  26.754  23.564  1.00  0.00     0.007 A 
ATOM     30  C   UNL A   1      29.424  29.662  23.411  1.00  0.00     0.024 C 
ATOM     31  C   UNL A   1      31.782  29.325  22.621  1.00  0.00     0.024 C 
ATOM     32  C   UNL A   1      29.969  25.434  24.011  1.00  0.00     0.026 A 
ENDBRANCH  15  18
ENDBRANCH   9  14
ENDBRANCH   5   8
ENDBRANCH   3   4
ENDBRANCH   2   3
ENDBRANCH   1   2
BRANCH   1  33
ATOM     33  C   UNL A   1      41.510  23.093  26.925  1.00  0.00     0.116 C 
BRANCH  33  34
ATOM     34  N   UNL A   1      41.482  24.131  25.905  1.00  0.00    -0.352 N 
ATOM     35  C   UNL A   1      41.426  25.503  26.027  1.00  0.00     0.251 C 
ATOM     36  H   UNL A   1      41.507  23.800  24.978  1.00  0.00     0.163 HD
ATOM     37  O   UNL A   1      41.381  26.202  25.025  1.00  0.00    -0.269 OA
BRANCH  35  38
ATOM     38  C   UNL A   1      41.350  26.123  27.371  1.00  0.00     0.039 A 
ATOM     39  C   UNL A   1      40.226  25.960  28.181  1.00  0.00     0.014 A 
ATOM     40  C   UNL A   1      42.401  26.943  27.789  1.00  0.00     0.014 A 
ATOM     41  C   UNL A   1      40.049  26.792  29.282  1.00  0.00     0.010 A 
ATOM     42  C   UNL A   1      42.263  27.706  28.952  1.00  0.00     0.010 A 
ATOM     43  C   UNL A   1      41.055  27.694  29.665  1.00  0.00    -0.014 A 
BRANCH  43  44
ATOM     44  C   UNL A   1      40.808  28.660  30.768  1.00  0.00     0.031 A 
ATOM     45  C   UNL A   1      41.717  28.687  31.972  1.00  0.00     0.074 A 
ATOM     46  C   UNL A   1      39.809  29.559  30.664  1.00  0.00     0.049 A 
ATOM     47  N   UNL A   1      41.635  29.426  33.049  1.00  0.00    -0.248 NA
ATOM     48  C   UNL A   1      42.870  27.768  31.968  1.00  0.00     0.031 C 
ATOM     49  C   UNL A   1      38.900  29.676  29.522  1.00  0.00     0.029 A 
ATOM     50  N   UNL A   1      39.408  30.560  31.513  1.00  0.00    -0.354 N 
ATOM     51  C   UNL A   1      42.704  29.050  33.854  1.00  0.00     0.074 A 
ATOM     52  C   UNL A   1      43.411  27.999  33.157  1.00  0.00     0.031 C 
ATOM     53  C   UNL A   1      38.090  30.728  29.714  1.00  0.00     0.029 A 
ATOM     54  C   UNL A   1      38.363  31.308  31.026  1.00  0.00     0.049 A 
ATOM     55  H   UNL A   1      39.829  30.727  32.386  1.00  0.00     0.167 HD
ATOM     56  C   UNL A   1      43.072  29.546  35.060  1.00  0.00     0.031 A 
ATOM     57  C   UNL A   1      37.680  32.333  31.574  1.00  0.00     0.031 A 
ATOM     58  C   UNL A   1      42.378  30.607  35.739  1.00  0.00     0.049 A 
ATOM     59  C   UNL A   1      38.050  32.810  32.949  1.00  0.00     0.074 A 
ATOM     60  C   UNL A   1      42.674  31.172  36.967  1.00  0.00     0.029 A 
ATOM     61  N   UNL A   1      41.265  31.272  35.248  1.00  0.00    -0.354 N 
ATOM     62  N   UNL A   1      39.035  32.408  33.715  1.00  0.00    -0.248 NA
ATOM     63  C   UNL A   1      37.210  33.858  33.543  1.00  0.00     0.031 C 
ATOM     64  C   UNL A   1      41.708  32.142  37.244  1.00  0.00     0.029 A 
ATOM     65  C   UNL A   1      40.846  32.224  36.161  1.00  0.00     0.049 A 
ATOM     66  H   UNL A   1      40.837  31.094  34.379  1.00  0.00     0.167 HD
ATOM     67  C   UNL A   1      38.938  33.157  34.881  1.00  0.00     0.074 A 
ATOM     68  C   UNL A   1      37.808  34.047  34.715  1.00  0.00     0.031 C 
ATOM     69  C   UNL A   1      39.717  33.103  35.987  1.00  0.00     0.031 A 
BRANCH  56  70
ATOM     70  C   UNL A   1      44.275  28.950  35.743  1.00  0.00    -0.014 A 
ATOM     71  C   UNL A   1      45.566  29.389  35.390  1.00  0.00     0.010 A 
ATOM     72  C   UNL A   1      44.140  27.882  36.646  1.00  0.00     0.010 A 
ATOM     73  C   UNL A   1      46.699  28.757  35.910  1.00  0.00     0.020 A 
ATOM     74  C   UNL A   1      45.271  27.263  37.189  1.00  0.00     0.020 A 
ATOM     75  C   UNL A   1      46.543  27.692  36.801  1.00  0.00     0.054 A 
BRANCH  75  76
ATOM     76  S   UNL A   1      48.022  26.877  37.465  1.00  0.00     0.124 S 
ATOM     77  O   UNL A   1      48.645  27.949  38.235  1.00  0.00    -0.237 OA
ATOM     78  O   UNL A   1      47.460  25.779  38.249  1.00  0.00    -0.237 OA
ATOM     79  O   UNL A   1      48.747  26.462  36.267  1.00  0.00    -0.744 OA
ENDBRANCH  75  76
ENDBRANCH  56  70
BRANCH  57  80
ATOM     80  C   UNL A   1      36.575  32.959  30.798  1.00  0.00    -0.014 A 
ATOM     81  C   UNL A   1      36.861  33.811  29.715  1.00  0.00     0.010 A 
ATOM     82  C   UNL A   1      35.240  32.796  31.208  1.00  0.00     0.010 A 
ATOM     83  C   UNL A   1      35.843  34.544  29.101  1.00  0.00     0.020 A 
ATOM     84  C   UNL A   1      34.215  33.507  30.575  1.00  0.00     0.020 A 
ATOM     85  C   UNL A   1      34.529  34.402  29.549  1.00  0.00     0.054 A 
BRANCH  85  86
ATOM     86  S   UNL A   1      33.232  35.418  28.789  1.00  0.00     0.124 S 
ATOM     87  O   UNL A   1      34.019  36.397  28.044  1.00  0.00    -0.237 OA
ATOM     88  O   UNL A   1      32.500  34.450  27.977  1.00  0.00    -0.237 OA
ATOM     89  O   UNL A   1      32.498  35.947  29.935  1.00  0.00    -0.744 OA
ENDBRANCH  85  86
ENDBRANCH  57  80
BRANCH  69  90
ATOM     90  C   UNL A   1      39.393  34.019  37.136  1.00  0.00    -0.014 A 
ATOM     91  C   UNL A   1      40.000  35.285  37.210  1.00  0.00     0.010 A 
ATOM     92  C   UNL A   1      38.632  33.555  38.223  1.00  0.00     0.010 A 
ATOM     93  C   UNL A   1      39.898  36.052  38.372  1.00  0.00     0.020 A 
ATOM     94  C   UNL A   1      38.508  34.330  39.379  1.00  0.00     0.020 A 
ATOM     95  C   UNL A   1      39.168  35.559  39.457  1.00  0.00     0.054 A 
BRANCH  95  96
ATOM     96  S   UNL A   1      39.112  36.533  40.987  1.00  0.00     0.124 S 
ATOM     97  O   UNL A   1      38.324  35.676  41.867  1.00  0.00    -0.237 OA
ATOM     98  O   UNL A   1      40.524  36.666  41.336  1.00  0.00    -0.237 OA
ATOM     99  O   UNL A   1      38.461  37.776  40.577  1.00  0.00    -0.744 OA
ENDBRANCH  95  96
ENDBRANCH  69  90
ENDBRANCH  43  44
ENDBRANCH  35  38
ENDBRANCH  33  34
ENDBRANCH   1  33
TORSDOF 16
ENDMDL
MODEL 3
REMARK VINA RESULT:     -13.2      6.082     11.591
REMARK SMILES CC1(C)CC(=O)C(C)(C)c2ccc(NC(=O)c3ccc(C(=O)NCCCCNC(=O)c4ccc(-c5c6nc(c(-c7ccc(S(=O)(=O)[O-])cc7)c7ccc([nH]7)c(-c7ccc(S(=O)(=O)[O-])cc7)c7nc(c(-c8ccc(S(=O)(=O)[O-])cc8)c8ccc5[nH]8)C=C7)C=C6)cc4)cc3)cc21
REMARK SMILES IDX 26 1 25 2 24 3 23 4 21 5 22 6 20 8 17 9 18 10 92 11 19 12
REMARK SMILES IDX 91 13 15 14 14 15 16 17 13 18 1 19 2 20 3 21 4 22 94 23 5 24
REMARK SMILES IDX 10 25 93 26 6 27 7 28 11 29 8 30 9 31 12 32 27 33 28 34
REMARK SMILES IDX 29 35 30 37 31 38 32 39 90 40 33 41 89 42 34 43 35 44 36 45
REMARK SMILES IDX 83 46 37 47 88 48 82 49 84 50 38 51 87 52 81 53 80 54 39 56
REMARK SMILES IDX 69 57 50 58 68 59 51 60 54 61 67 62 85 63 52 64 53 65 66 67
REMARK SMILES IDX 86 68 55 69 40 70 41 71 49 72 42 73 48 74 43 75 44 76 45 77
REMARK SMILES IDX 46 78 47 79 70 80 71 81 79 82 72 83 78 84 73 85 74 86 75 87
REMARK SMILES IDX 76 88 77 89 56 90 57 91 65 92 58 93 64 94 59 95 60 96 61 97
REMARK SMILES IDX 62 98 63 99
REMARK H PARENT 23 7 14 16 28 36 84 55 54 66
REMARK Flexibility Score: inf
ROOT
ATOM      1  C   UNL A   1      35.885  32.991  28.790  1.00  0.00     0.023 C 
ENDROOT
BRANCH   1   2
ATOM      2  C   UNL A   1      34.413  33.089  28.414  1.00  0.00     0.023 C 
BRANCH   2   3
ATOM      3  C   UNL A   1      33.714  31.814  27.954  1.00  0.00     0.116 C 
BRANCH   3   4
ATOM      4  N   UNL A   1      34.526  30.612  27.927  1.00  0.00    -0.352 N 
ATOM      5  C   UNL A   1      34.352  29.426  27.244  1.00  0.00     0.251 C 
ATOM      6  O   UNL A   1      35.241  28.578  27.308  1.00  0.00    -0.269 OA
ATOM      7  H   UNL A   1      35.334  30.648  28.489  1.00  0.00     0.163 HD
BRANCH   5   8
ATOM      8  C   UNL A   1      33.076  29.086  26.549  1.00  0.00     0.039 A 
ATOM      9  C   UNL A   1      31.162  28.019  24.825  1.00  0.00     0.040 A 
ATOM     10  C   UNL A   1      31.884  29.145  24.428  1.00  0.00     0.014 A 
ATOM     11  C   UNL A   1      31.214  27.599  26.157  1.00  0.00     0.014 A 
ATOM     12  C   UNL A   1      32.862  29.658  25.285  1.00  0.00     0.014 A 
ATOM     13  C   UNL A   1      32.146  28.163  27.029  1.00  0.00     0.014 A 
BRANCH   9  14
ATOM     14  C   UNL A   1      30.360  27.221  23.880  1.00  0.00     0.255 C 
ATOM     15  N   UNL A   1      30.800  26.038  23.324  1.00  0.00    -0.322 N 
ATOM     16  H   UNL A   1      30.162  25.672  22.669  1.00  0.00     0.170 HD
ATOM     17  O   UNL A   1      29.233  27.630  23.596  1.00  0.00    -0.269 OA
BRANCH  15  18
ATOM     18  C   UNL A   1      31.946  25.226  23.471  1.00  0.00     0.041 A 
ATOM     19  C   UNL A   1      32.264  21.444  25.598  1.00  0.00     0.016 C 
ATOM     20  C   UNL A   1      32.967  21.590  24.224  1.00  0.00    -0.003 C 
ATOM     21  C   UNL A   1      32.135  20.852  23.148  1.00  0.00     0.016 C 
ATOM     22  C   UNL A   1      34.319  20.862  24.287  1.00  0.00     0.087 C 
ATOM     23  C   UNL A   1      33.115  23.093  23.909  1.00  0.00    -0.036 A 
ATOM     24  C   UNL A   1      35.320  21.678  25.059  1.00  0.00     0.143 C 
ATOM     25  C   UNL A   1      34.331  23.786  24.087  1.00  0.00    -0.031 A 
ATOM     26  C   UNL A   1      31.960  23.835  23.540  1.00  0.00     0.030 A 
ATOM     27  O   UNL A   1      35.900  21.200  26.034  1.00  0.00    -0.299 OA
ATOM     28  C   UNL A   1      35.622  23.072  24.502  1.00  0.00     0.049 C 
ATOM     29  C   UNL A   1      34.341  25.176  23.858  1.00  0.00     0.007 A 
ATOM     30  C   UNL A   1      36.394  23.861  25.583  1.00  0.00     0.024 C 
ATOM     31  C   UNL A   1      36.530  22.892  23.272  1.00  0.00     0.024 C 
ATOM     32  C   UNL A   1      33.167  25.884  23.579  1.00  0.00     0.026 A 
ENDBRANCH  15  18
ENDBRANCH   9  14
ENDBRANCH   5   8
ENDBRANCH   3   4
ENDBRANCH   2   3
ENDBRANCH   1   2
BRANCH   1  33
ATOM     33  C   UNL A   1      36.210  32.833  30.269  1.00  0.00     0.116 C 
BRANCH  33  34
ATOM     34  N   UNL A   1      35.887  31.526  30.821  1.00  0.00    -0.352 N 
ATOM     35  C   UNL A   1      36.635  30.368  30.873  1.00  0.00     0.251 C 
ATOM     36  H   UNL A   1      34.990  31.456  31.221  1.00  0.00     0.163 HD
ATOM     37  O   UNL A   1      36.156  29.356  31.363  1.00  0.00    -0.269 OA
BRANCH  35  38
ATOM     38  C   UNL A   1      37.990  30.335  30.274  1.00  0.00     0.039 A 
ATOM     39  C   UNL A   1      38.170  30.162  28.901  1.00  0.00     0.014 A 
ATOM     40  C   UNL A   1      39.098  30.408  31.122  1.00  0.00     0.014 A 
ATOM     41  C   UNL A   1      39.429  29.826  28.413  1.00  0.00     0.010 A 
ATOM     42  C   UNL A   1      40.377  30.168  30.612  1.00  0.00     0.010 A 
ATOM     43  C   UNL A   1      40.543  29.798  29.268  1.00  0.00    -0.014 A 
BRANCH  43  44
ATOM     44  C   UNL A   1      41.858  29.322  28.763  1.00  0.00     0.031 A 
ATOM     45  C   UNL A   1      43.055  30.241  28.777  1.00  0.00     0.074 A 
ATOM     46  C   UNL A   1      41.998  28.047  28.351  1.00  0.00     0.049 A 
ATOM     47  N   UNL A   1      44.268  30.018  28.339  1.00  0.00    -0.248 NA
ATOM     48  C   UNL A   1      42.870  31.582  29.361  1.00  0.00     0.031 C 
ATOM     49  C   UNL A   1      40.932  27.042  28.348  1.00  0.00     0.029 A 
ATOM     50  N   UNL A   1      43.096  27.368  27.885  1.00  0.00    -0.354 N 
ATOM     51  C   UNL A   1      44.980  31.190  28.573  1.00  0.00     0.074 A 
ATOM     52  C   UNL A   1      44.061  32.133  29.169  1.00  0.00     0.031 C 
ATOM     53  C   UNL A   1      41.443  25.864  27.960  1.00  0.00     0.029 A 
ATOM     54  C   UNL A   1      42.848  26.045  27.607  1.00  0.00     0.049 A 
ATOM     55  H   UNL A   1      43.977  27.788  27.762  1.00  0.00     0.167 HD
ATOM     56  C   UNL A   1      46.285  31.450  28.326  1.00  0.00     0.031 A 
ATOM     57  C   UNL A   1      43.648  25.083  27.105  1.00  0.00     0.031 A 
ATOM     58  C   UNL A   1      47.202  30.501  27.752  1.00  0.00     0.049 A 
ATOM     59  C   UNL A   1      45.069  25.418  26.757  1.00  0.00     0.074 A 
ATOM     60  C   UNL A   1      48.542  30.676  27.459  1.00  0.00     0.029 A 
ATOM     61  N   UNL A   1      46.880  29.199  27.399  1.00  0.00    -0.354 N 
ATOM     62  N   UNL A   1      45.711  26.546  26.941  1.00  0.00    -0.248 NA
ATOM     63  C   UNL A   1      45.869  24.365  26.117  1.00  0.00     0.031 C 
ATOM     64  C   UNL A   1      49.019  29.499  26.878  1.00  0.00     0.029 A 
ATOM     65  C   UNL A   1      47.991  28.569  26.866  1.00  0.00     0.049 A 
ATOM     66  H   UNL A   1      45.994  28.785  27.511  1.00  0.00     0.167 HD
ATOM     67  C   UNL A   1      46.991  26.339  26.444  1.00  0.00     0.074 A 
ATOM     68  C   UNL A   1      47.040  24.974  25.965  1.00  0.00     0.031 C 
ATOM     69  C   UNL A   1      48.028  27.209  26.389  1.00  0.00     0.031 A 
BRANCH  56  70
ATOM     70  C   UNL A   1      46.819  32.818  28.660  1.00  0.00    -0.014 A 
ATOM     71  C   UNL A   1      47.343  33.069  29.942  1.00  0.00     0.010 A 
ATOM     72  C   UNL A   1      46.700  33.884  27.751  1.00  0.00     0.010 A 
ATOM     73  C   UNL A   1      47.718  34.362  30.319  1.00  0.00     0.020 A 
ATOM     74  C   UNL A   1      47.097  35.175  28.115  1.00  0.00     0.020 A 
ATOM     75  C   UNL A   1      47.583  35.409  29.403  1.00  0.00     0.054 A 
BRANCH  75  76
ATOM     76  S   UNL A   1      48.069  37.084  29.906  1.00  0.00     0.124 S 
ATOM     77  O   UNL A   1      46.912  37.875  29.501  1.00  0.00    -0.237 OA
ATOM     78  O   UNL A   1      48.265  36.942  31.347  1.00  0.00    -0.237 OA
ATOM     79  O   UNL A   1      49.293  37.324  29.145  1.00  0.00    -0.744 OA
ENDBRANCH  75  76
ENDBRANCH  56  70
BRANCH  57  80
ATOM     80  C   UNL A   1      43.093  23.716  26.907  1.00  0.00    -0.014 A 
ATOM     81  C   UNL A   1      43.057  22.802  27.977  1.00  0.00     0.010 A 
ATOM     82  C   UNL A   1      42.705  23.287  25.627  1.00  0.00     0.010 A 
ATOM     83  C   UNL A   1      42.712  21.467  27.758  1.00  0.00     0.020 A 
ATOM     84  C   UNL A   1      42.331  21.957  25.410  1.00  0.00     0.020 A 
ATOM     85  C   UNL A   1      42.371  21.048  26.471  1.00  0.00     0.054 A 
BRANCH  85  86
ATOM     86  S   UNL A   1      41.999  19.295  26.192  1.00  0.00     0.124 S 
ATOM     87  O   UNL A   1      42.907  18.968  25.096  1.00  0.00    -0.237 OA
ATOM     88  O   UNL A   1      42.326  18.689  27.481  1.00  0.00    -0.237 OA
ATOM     89  O   UNL A   1      40.579  19.297  25.851  1.00  0.00    -0.744 OA
ENDBRANCH  85  86
ENDBRANCH  57  80
BRANCH  69  90
ATOM     90  C   UNL A   1      49.323  26.742  25.783  1.00  0.00    -0.014 A 
ATOM     91  C   UNL A   1      50.298  26.142  26.601  1.00  0.00     0.010 A 
ATOM     92  C   UNL A   1      49.640  27.059  24.451  1.00  0.00     0.010 A 
ATOM     93  C   UNL A   1      51.586  25.914  26.113  1.00  0.00     0.020 A 
ATOM     94  C   UNL A   1      50.922  26.812  23.953  1.00  0.00     0.020 A 
ATOM     95  C   UNL A   1      51.895  26.270  24.798  1.00  0.00     0.054 A 
BRANCH  95  96
ATOM     96  S   UNL A   1      53.596  26.040  24.207  1.00  0.00     0.124 S 
ATOM     97  O   UNL A   1      53.421  26.050  22.758  1.00  0.00    -0.237 OA
ATOM     98  O   UNL A   1      54.290  27.197  24.766  1.00  0.00    -0.237 OA
ATOM     99  O   UNL A   1      53.986  24.753  24.781  1.00  0.00    -0.744 OA
ENDBRANCH  95  96
ENDBRANCH  69  90
ENDBRANCH  43  44
ENDBRANCH  35  38
ENDBRANCH  33  34
ENDBRANCH   1  33
TORSDOF 16
ENDMDL
