MODEL 1
REMARK VINA RESULT:     -10.2      0.000      0.000
REMARK SMILES C=CCc1cccc(-c2ccc([C@@H](C)C(=O)NCCCCNC(=O)c3ccc(-c4c5nc(c(-c6ccc(S(=O)(=O)[O-])cc6)c6ccc([nH]6)c(-c6ccc(S(=O)(=O)[O-])cc6)c6nc(c(-c7ccc(S(=O)(=O)[O-])cc7)c7ccc4[nH]7)C=C6)C=C5)cc3)cc2)c1
REMARK SMILES IDX 19 1 18 2 17 3 15 4 16 5 13 7 14 8 12 9 9 10 10 11 86 12
REMARK SMILES IDX 11 13 85 14 8 15 4 16 5 17 87 18 6 19 7 20 3 21 2 22 1 23
REMARK SMILES IDX 20 24 21 25 22 26 23 27 24 29 25 30 26 31 84 32 27 33 83 34
REMARK SMILES IDX 28 35 29 36 30 37 77 38 31 39 82 40 76 41 78 42 32 43 81 44
REMARK SMILES IDX 75 45 74 46 33 48 63 49 44 50 62 51 45 52 48 53 61 54 79 55
REMARK SMILES IDX 46 56 47 57 60 59 80 60 49 61 34 62 35 63 43 64 36 65 42 66
REMARK SMILES IDX 37 67 38 68 39 69 40 70 41 71 64 72 65 73 73 74 66 75 72 76
REMARK SMILES IDX 67 77 68 78 69 79 70 80 71 81 50 82 51 83 59 84 52 85 58 86
REMARK SMILES IDX 53 87 54 88 55 89 56 90 57 91
REMARK H PARENT 17 6 22 28 78 47 48 58
REMARK Flexibility Score: inf
ROOT
ATOM      1  C   UNL A   1      33.737  31.642  27.861  1.00  0.00     0.023 C 
ENDROOT
BRANCH   1   2
ATOM      2  C   UNL A   1      34.374  33.030  27.787  1.00  0.00     0.116 C 
BRANCH   2   3
ATOM      3  N   UNL A   1      33.806  33.950  28.751  1.00  0.00    -0.356 N 
ATOM      4  C   UNL A   1      34.012  34.087  30.090  1.00  0.00     0.227 C 
ATOM      5  O   UNL A   1      33.333  34.940  30.673  1.00  0.00    -0.274 OA
ATOM      6  H   UNL A   1      33.157  34.586  28.372  1.00  0.00     0.163 HD
BRANCH   4   7
ATOM      7  C   UNL A   1      35.037  33.258  30.882  1.00  0.00     0.105 C 
ATOM      8  C   UNL A   1      34.615  32.971  32.323  1.00  0.00     0.023 C 
BRANCH   7   9
ATOM      9  C   UNL A   1      36.471  33.715  30.672  1.00  0.00    -0.036 A 
ATOM     10  C   UNL A   1      39.248  34.385  30.430  1.00  0.00    -0.018 A 
ATOM     11  C   UNL A   1      38.481  33.987  29.324  1.00  0.00     0.009 A 
ATOM     12  C   UNL A   1      38.567  34.489  31.654  1.00  0.00     0.009 A 
ATOM     13  C   UNL A   1      37.114  33.692  29.433  1.00  0.00     0.005 A 
ATOM     14  C   UNL A   1      37.216  34.139  31.780  1.00  0.00     0.005 A 
BRANCH  10  15
ATOM     15  C   UNL A   1      40.705  34.670  30.318  1.00  0.00    -0.018 A 
ATOM     16  C   UNL A   1      42.654  35.367  28.972  1.00  0.00    -0.044 A 
ATOM     17  C   UNL A   1      43.487  35.201  30.079  1.00  0.00     0.004 A 
ATOM     18  C   UNL A   1      41.274  35.121  29.111  1.00  0.00     0.012 A 
ATOM     19  C   UNL A   1      42.952  34.781  31.293  1.00  0.00     0.001 A 
ATOM     20  C   UNL A   1      41.584  34.507  31.405  1.00  0.00     0.009 A 
BRANCH  16  21
ATOM     21  C   UNL A   1      43.216  35.755  27.624  1.00  0.00     0.062 C 
BRANCH  21  22
ATOM     22  C   UNL A   1      43.168  34.603  26.656  1.00  0.00    -0.030 C 
ATOM     23  C   UNL A   1      43.328  34.720  25.330  1.00  0.00     0.004 C 
ENDBRANCH  21  22
ENDBRANCH  16  21
ENDBRANCH  10  15
ENDBRANCH   7   9
ENDBRANCH   4   7
ENDBRANCH   2   3
ENDBRANCH   1   2
BRANCH   1  24
ATOM     24  C   UNL A   1      34.573  30.512  27.266  1.00  0.00     0.023 C 
BRANCH  24  25
ATOM     25  C   UNL A   1      35.765  30.067  28.107  1.00  0.00     0.116 C 
BRANCH  25  26
ATOM     26  N   UNL A   1      35.538  30.132  29.544  1.00  0.00    -0.352 N 
ATOM     27  C   UNL A   1      36.473  30.049  30.553  1.00  0.00     0.251 C 
ATOM     28  H   UNL A   1      34.603  30.249  29.829  1.00  0.00     0.163 HD
ATOM     29  O   UNL A   1      36.125  30.048  31.727  1.00  0.00    -0.269 OA
BRANCH  27  30
ATOM     30  C   UNL A   1      37.899  29.909  30.190  1.00  0.00     0.039 A 
ATOM     31  C   UNL A   1      38.816  29.548  31.181  1.00  0.00     0.014 A 
ATOM     32  C   UNL A   1      38.308  30.052  28.863  1.00  0.00     0.014 A 
ATOM     33  C   UNL A   1      40.131  29.244  30.822  1.00  0.00     0.010 A 
ATOM     34  C   UNL A   1      39.597  29.680  28.499  1.00  0.00     0.010 A 
ATOM     35  C   UNL A   1      40.518  29.264  29.472  1.00  0.00    -0.014 A 
BRANCH  35  36
ATOM     36  C   UNL A   1      41.874  28.837  29.044  1.00  0.00     0.031 A 
ATOM     37  C   UNL A   1      42.981  29.849  28.943  1.00  0.00     0.074 A 
ATOM     38  C   UNL A   1      42.080  27.568  28.643  1.00  0.00     0.049 A 
ATOM     39  N   UNL A   1      44.195  29.700  28.481  1.00  0.00    -0.248 NA
ATOM     40  C   UNL A   1      42.667  31.216  29.389  1.00  0.00     0.031 C 
ATOM     41  C   UNL A   1      41.071  26.506  28.631  1.00  0.00     0.029 A 
ATOM     42  N   UNL A   1      43.206  26.962  28.144  1.00  0.00    -0.354 N 
ATOM     43  C   UNL A   1      44.779  30.959  28.549  1.00  0.00     0.074 A 
ATOM     44  C   UNL A   1      43.773  31.866  29.056  1.00  0.00     0.031 C 
ATOM     45  C   UNL A   1      41.625  25.378  28.158  1.00  0.00     0.029 A 
ATOM     46  C   UNL A   1      43.016  25.643  27.803  1.00  0.00     0.049 A 
ATOM     47  H   UNL A   1      44.067  27.426  28.040  1.00  0.00     0.167 HD
ATOM     48  C   UNL A   1      46.044  31.326  28.232  1.00  0.00     0.031 A 
ATOM     49  C   UNL A   1      43.861  24.749  27.255  1.00  0.00     0.031 A 
ATOM     50  C   UNL A   1      47.049  30.420  27.745  1.00  0.00     0.049 A 
ATOM     51  C   UNL A   1      45.273  25.162  26.950  1.00  0.00     0.074 A 
ATOM     52  C   UNL A   1      48.378  30.678  27.461  1.00  0.00     0.029 A 
ATOM     53  N   UNL A   1      46.833  29.077  27.473  1.00  0.00    -0.354 N 
ATOM     54  N   UNL A   1      45.831  26.341  27.090  1.00  0.00    -0.248 NA
ATOM     55  C   UNL A   1      46.173  24.125  26.430  1.00  0.00     0.031 C 
ATOM     56  C   UNL A   1      48.958  29.497  26.984  1.00  0.00     0.029 A 
ATOM     57  C   UNL A   1      48.001  28.495  27.011  1.00  0.00     0.049 A 
ATOM     58  H   UNL A   1      45.976  28.607  27.592  1.00  0.00     0.167 HD
ATOM     59  C   UNL A   1      47.153  26.184  26.691  1.00  0.00     0.074 A 
ATOM     60  C   UNL A   1      47.314  24.793  26.315  1.00  0.00     0.031 C 
ATOM     61  C   UNL A   1      48.143  27.109  26.640  1.00  0.00     0.031 A 
BRANCH  48  62
ATOM     62  C   UNL A   1      46.393  32.781  28.399  1.00  0.00    -0.014 A 
ATOM     63  C   UNL A   1      46.425  33.650  27.292  1.00  0.00     0.010 A 
ATOM     64  C   UNL A   1      46.716  33.281  29.673  1.00  0.00     0.010 A 
ATOM     65  C   UNL A   1      46.843  34.973  27.445  1.00  0.00     0.020 A 
ATOM     66  C   UNL A   1      47.108  34.614  29.834  1.00  0.00     0.020 A 
ATOM     67  C   UNL A   1      47.197  35.443  28.714  1.00  0.00     0.054 A 
BRANCH  67  68
ATOM     68  S   UNL A   1      47.769  37.156  28.884  1.00  0.00     0.124 S 
ATOM     69  O   UNL A   1      48.989  37.144  28.081  1.00  0.00    -0.237 OA
ATOM     70  O   UNL A   1      46.660  37.926  28.327  1.00  0.00    -0.237 OA
ATOM     71  O   UNL A   1      47.971  37.310  30.323  1.00  0.00    -0.744 OA
ENDBRANCH  67  68
ENDBRANCH  48  62
BRANCH  49  72
ATOM     72  C   UNL A   1      43.386  23.366  26.985  1.00  0.00    -0.014 A 
ATOM     73  C   UNL A   1      43.232  22.912  25.663  1.00  0.00     0.010 A 
ATOM     74  C   UNL A   1      43.144  22.478  28.049  1.00  0.00     0.010 A 
ATOM     75  C   UNL A   1      42.848  21.592  25.410  1.00  0.00     0.020 A 
ATOM     76  C   UNL A   1      42.779  21.152  27.798  1.00  0.00     0.020 A 
ATOM     77  C   UNL A   1      42.629  20.718  26.479  1.00  0.00     0.054 A 
BRANCH  77  78
ATOM     78  S   UNL A   1      42.224  18.984  26.126  1.00  0.00     0.124 S 
ATOM     79  O   UNL A   1      42.509  18.339  27.404  1.00  0.00    -0.237 OA
ATOM     80  O   UNL A   1      40.813  19.057  25.754  1.00  0.00    -0.237 OA
ATOM     81  O   UNL A   1      43.130  18.640  25.033  1.00  0.00    -0.744 OA
ENDBRANCH  77  78
ENDBRANCH  49  72
BRANCH  61  82
ATOM     82  C   UNL A   1      49.500  26.648  26.185  1.00  0.00    -0.014 A 
ATOM     83  C   UNL A   1      49.877  26.732  24.833  1.00  0.00     0.010 A 
ATOM     84  C   UNL A   1      50.433  26.194  27.133  1.00  0.00     0.010 A 
ATOM     85  C   UNL A   1      51.161  26.354  24.436  1.00  0.00     0.020 A 
ATOM     86  C   UNL A   1      51.726  25.834  26.743  1.00  0.00     0.020 A 
ATOM     87  C   UNL A   1      52.078  25.909  25.393  1.00  0.00     0.054 A 
BRANCH  87  88
ATOM     88  S   UNL A   1      53.762  25.485  24.865  1.00  0.00     0.124 S 
ATOM     89  O   UNL A   1      53.878  26.218  23.607  1.00  0.00    -0.237 OA
ATOM     90  O   UNL A   1      54.582  25.989  25.964  1.00  0.00    -0.237 OA
ATOM     91  O   UNL A   1      53.728  24.031  24.738  1.00  0.00    -0.744 OA
ENDBRANCH  87  88
ENDBRANCH  61  82
ENDBRANCH  35  36
ENDBRANCH  27  30
ENDBRANCH  25  26
ENDBRANCH  24  25
ENDBRANCH   1  24
TORSDOF 18
ENDMDL
MODEL 2
REMARK VINA RESULT:      -9.9      6.163     13.376
REMARK SMILES C=CCc1cccc(-c2ccc([C@@H](C)C(=O)NCCCCNC(=O)c3ccc(-c4c5nc(c(-c6ccc(S(=O)(=O)[O-])cc6)c6ccc([nH]6)c(-c6ccc(S(=O)(=O)[O-])cc6)c6nc(c(-c7ccc(S(=O)(=O)[O-])cc7)c7ccc4[nH]7)C=C6)C=C5)cc3)cc2)c1
REMARK SMILES IDX 19 1 18 2 17 3 15 4 16 5 13 7 14 8 12 9 9 10 10 11 86 12
REMARK SMILES IDX 11 13 85 14 8 15 4 16 5 17 87 18 6 19 7 20 3 21 2 22 1 23
REMARK SMILES IDX 20 24 21 25 22 26 23 27 24 29 25 30 26 31 84 32 27 33 83 34
REMARK SMILES IDX 28 35 29 36 30 37 77 38 31 39 82 40 76 41 78 42 32 43 81 44
REMARK SMILES IDX 75 45 74 46 33 48 63 49 44 50 62 51 45 52 48 53 61 54 79 55
REMARK SMILES IDX 46 56 47 57 60 59 80 60 49 61 34 62 35 63 43 64 36 65 42 66
REMARK SMILES IDX 37 67 38 68 39 69 40 70 41 71 64 72 65 73 73 74 66 75 72 76
REMARK SMILES IDX 67 77 68 78 69 79 70 80 71 81 50 82 51 83 59 84 52 85 58 86
REMARK SMILES IDX 53 87 54 88 55 89 56 90 57 91
REMARK H PARENT 17 6 22 28 78 47 48 58
REMARK Flexibility Score: inf
ROOT
ATOM      1  C   UNL A   1      44.496  23.878  24.857  1.00  0.00     0.023 C 
ENDROOT
BRANCH   1   2
ATOM      2  C   UNL A   1      44.888  23.174  26.157  1.00  0.00     0.116 C 
BRANCH   2   3
ATOM      3  N   UNL A   1      46.266  23.423  26.525  1.00  0.00    -0.356 N 
ATOM      4  C   UNL A   1      46.842  24.454  27.204  1.00  0.00     0.227 C 
ATOM      5  O   UNL A   1      48.072  24.423  27.324  1.00  0.00    -0.274 OA
ATOM      6  H   UNL A   1      46.897  22.726  26.233  1.00  0.00     0.163 HD
BRANCH   4   7
ATOM      7  C   UNL A   1      46.045  25.613  27.824  1.00  0.00     0.105 C 
ATOM      8  C   UNL A   1      46.588  26.996  27.463  1.00  0.00     0.023 C 
BRANCH   7   9
ATOM      9  C   UNL A   1      45.685  25.385  29.282  1.00  0.00    -0.036 A 
ATOM     10  C   UNL A   1      45.079  24.712  32.003  1.00  0.00    -0.018 A 
ATOM     11  C   UNL A   1      46.056  25.665  31.673  1.00  0.00     0.009 A 
ATOM     12  C   UNL A   1      44.377  24.144  30.927  1.00  0.00     0.009 A 
ATOM     13  C   UNL A   1      46.330  26.022  30.344  1.00  0.00     0.005 A 
ATOM     14  C   UNL A   1      44.687  24.453  29.596  1.00  0.00     0.005 A 
BRANCH  10  15
ATOM     15  C   UNL A   1      44.811  24.315  33.412  1.00  0.00    -0.018 A 
ATOM     16  C   UNL A   1      43.220  23.884  35.250  1.00  0.00    -0.044 A 
ATOM     17  C   UNL A   1      44.280  23.574  36.104  1.00  0.00     0.004 A 
ATOM     18  C   UNL A   1      43.497  24.229  33.913  1.00  0.00     0.012 A 
ATOM     19  C   UNL A   1      45.588  23.625  35.633  1.00  0.00     0.001 A 
ATOM     20  C   UNL A   1      45.848  24.003  34.310  1.00  0.00     0.009 A 
BRANCH  16  21
ATOM     21  C   UNL A   1      41.795  23.906  35.751  1.00  0.00     0.062 C 
BRANCH  21  22
ATOM     22  C   UNL A   1      41.396  25.280  36.219  1.00  0.00    -0.030 C 
ATOM     23  C   UNL A   1      40.767  25.535  37.375  1.00  0.00     0.004 C 
ENDBRANCH  21  22
ENDBRANCH  16  21
ENDBRANCH  10  15
ENDBRANCH   7   9
ENDBRANCH   4   7
ENDBRANCH   2   3
ENDBRANCH   1   2
BRANCH   1  24
ATOM     24  C   UNL A   1      44.009  25.316  25.020  1.00  0.00     0.023 C 
BRANCH  24  25
ATOM     25  C   UNL A   1      42.509  25.478  25.242  1.00  0.00     0.116 C 
BRANCH  25  26
ATOM     26  N   UNL A   1      41.862  24.308  25.819  1.00  0.00    -0.352 N 
ATOM     27  C   UNL A   1      41.175  24.222  27.011  1.00  0.00     0.251 C 
ATOM     28  H   UNL A   1      41.922  23.477  25.294  1.00  0.00     0.163 HD
ATOM     29  O   UNL A   1      40.741  23.147  27.405  1.00  0.00    -0.269 OA
BRANCH  27  30
ATOM     30  C   UNL A   1      41.018  25.443  27.829  1.00  0.00     0.039 A 
ATOM     31  C   UNL A   1      39.775  25.715  28.406  1.00  0.00     0.014 A 
ATOM     32  C   UNL A   1      42.116  26.266  28.089  1.00  0.00     0.014 A 
ATOM     33  C   UNL A   1      39.656  26.766  29.318  1.00  0.00     0.010 A 
ATOM     34  C   UNL A   1      42.011  27.265  29.050  1.00  0.00     0.010 A 
ATOM     35  C   UNL A   1      40.784  27.519  29.681  1.00  0.00    -0.014 A 
BRANCH  35  36
ATOM     36  C   UNL A   1      40.717  28.567  30.729  1.00  0.00     0.031 A 
ATOM     37  C   UNL A   1      41.612  28.482  31.934  1.00  0.00     0.074 A 
ATOM     38  C   UNL A   1      39.778  29.531  30.652  1.00  0.00     0.049 A 
ATOM     39  N   UNL A   1      41.623  29.228  33.008  1.00  0.00    -0.248 NA
ATOM     40  C   UNL A   1      42.599  27.390  31.946  1.00  0.00     0.031 C 
ATOM     41  C   UNL A   1      38.807  29.685  29.566  1.00  0.00     0.029 A 
ATOM     42  N   UNL A   1      39.474  30.551  31.518  1.00  0.00    -0.354 N 
ATOM     43  C   UNL A   1      42.593  28.678  33.836  1.00  0.00     0.074 A 
ATOM     44  C   UNL A   1      43.117  27.512  33.159  1.00  0.00     0.031 C 
ATOM     45  C   UNL A   1      38.021  30.742  29.827  1.00  0.00     0.029 A 
ATOM     46  C   UNL A   1      38.409  31.320  31.110  1.00  0.00     0.049 A 
ATOM     47  H   UNL A   1      39.969  30.717  32.351  1.00  0.00     0.167 HD
ATOM     48  C   UNL A   1      43.022  29.112  35.046  1.00  0.00     0.031 A 
ATOM     49  C   UNL A   1      37.804  32.366  31.705  1.00  0.00     0.031 A 
ATOM     50  C   UNL A   1      42.514  30.282  35.710  1.00  0.00     0.049 A 
ATOM     51  C   UNL A   1      38.321  32.860  33.026  1.00  0.00     0.074 A 
ATOM     52  C   UNL A   1      42.928  30.844  36.904  1.00  0.00     0.029 A 
ATOM     53  N   UNL A   1      41.477  31.071  35.232  1.00  0.00    -0.354 N 
ATOM     54  N   UNL A   1      39.290  32.371  33.762  1.00  0.00    -0.248 NA
ATOM     55  C   UNL A   1      37.676  34.054  33.589  1.00  0.00     0.031 C 
ATOM     56  C   UNL A   1      42.119  31.956  37.165  1.00  0.00     0.029 A 
ATOM     57  C   UNL A   1      41.229  32.109  36.114  1.00  0.00     0.049 A 
ATOM     58  H   UNL A   1      40.991  30.915  34.390  1.00  0.00     0.167 HD
ATOM     59  C   UNL A   1      39.383  33.208  34.869  1.00  0.00     0.074 A 
ATOM     60  C   UNL A   1      38.379  34.239  34.699  1.00  0.00     0.031 C 
ATOM     61  C   UNL A   1      40.224  33.126  35.929  1.00  0.00     0.031 A 
BRANCH  48  62
ATOM     62  C   UNL A   1      44.092  28.296  35.722  1.00  0.00    -0.014 A 
ATOM     63  C   UNL A   1      43.814  27.566  36.893  1.00  0.00     0.010 A 
ATOM     64  C   UNL A   1      45.395  28.278  35.196  1.00  0.00     0.010 A 
ATOM     65  C   UNL A   1      44.836  26.891  37.564  1.00  0.00     0.020 A 
ATOM     66  C   UNL A   1      46.415  27.580  35.850  1.00  0.00     0.020 A 
ATOM     67  C   UNL A   1      46.134  26.916  37.046  1.00  0.00     0.054 A 
BRANCH  67  68
ATOM     68  S   UNL A   1      47.453  26.061  37.952  1.00  0.00     0.124 S 
ATOM     69  O   UNL A   1      47.983  27.134  38.790  1.00  0.00    -0.237 OA
ATOM     70  O   UNL A   1      46.731  25.009  38.662  1.00  0.00    -0.237 OA
ATOM     71  O   UNL A   1      48.349  25.595  36.896  1.00  0.00    -0.744 OA
ENDBRANCH  67  68
ENDBRANCH  48  62
BRANCH  49  72
ATOM     72  C   UNL A   1      36.653  33.023  31.031  1.00  0.00    -0.014 A 
ATOM     73  C   UNL A   1      35.352  32.879  31.543  1.00  0.00     0.010 A 
ATOM     74  C   UNL A   1      36.863  33.846  29.909  1.00  0.00     0.010 A 
ATOM     75  C   UNL A   1      34.280  33.550  30.947  1.00  0.00     0.020 A 
ATOM     76  C   UNL A   1      35.795  34.534  29.324  1.00  0.00     0.020 A 
ATOM     77  C   UNL A   1      34.509  34.378  29.844  1.00  0.00     0.054 A 
BRANCH  77  78
ATOM     78  S   UNL A   1      33.118  35.313  29.146  1.00  0.00     0.124 S 
ATOM     79  O   UNL A   1      33.793  36.467  28.559  1.00  0.00    -0.237 OA
ATOM     80  O   UNL A   1      32.544  34.365  28.195  1.00  0.00    -0.237 OA
ATOM     81  O   UNL A   1      32.283  35.599  30.310  1.00  0.00    -0.744 OA
ENDBRANCH  77  78
ENDBRANCH  49  72
BRANCH  61  82
ATOM     82  C   UNL A   1      40.116  34.194  36.983  1.00  0.00    -0.014 A 
ATOM     83  C   UNL A   1      39.233  34.055  38.067  1.00  0.00     0.010 A 
ATOM     84  C   UNL A   1      40.964  35.314  36.925  1.00  0.00     0.010 A 
ATOM     85  C   UNL A   1      39.187  35.028  39.068  1.00  0.00     0.020 A 
ATOM     86  C   UNL A   1      40.936  36.280  37.934  1.00  0.00     0.020 A 
ATOM     87  C   UNL A   1      40.040  36.135  38.995  1.00  0.00     0.054 A 
BRANCH  87  88
ATOM     88  S   UNL A   1      40.011  37.353  40.340  1.00  0.00     0.124 S 
ATOM     89  O   UNL A   1      38.649  37.210  40.849  1.00  0.00    -0.237 OA
ATOM     90  O   UNL A   1      41.068  36.878  41.229  1.00  0.00    -0.237 OA
ATOM     91  O   UNL A   1      40.295  38.617  39.665  1.00  0.00    -0.744 OA
ENDBRANCH  87  88
ENDBRANCH  61  82
ENDBRANCH  35  36
ENDBRANCH  27  30
ENDBRANCH  25  26
ENDBRANCH  24  25
ENDBRANCH   1  24
TORSDOF 18
ENDMDL
MODEL 3
REMARK VINA RESULT:      -9.4      3.288      5.361
REMARK SMILES C=CCc1cccc(-c2ccc([C@@H](C)C(=O)NCCCCNC(=O)c3ccc(-c4c5nc(c(-c6ccc(S(=O)(=O)[O-])cc6)c6ccc([nH]6)c(-c6ccc(S(=O)(=O)[O-])cc6)c6nc(c(-c7ccc(S(=O)(=O)[O-])cc7)c7ccc4[nH]7)C=C6)C=C5)cc3)cc2)c1
REMARK SMILES IDX 19 1 18 2 17 3 15 4 16 5 13 7 14 8 12 9 9 10 10 11 86 12
REMARK SMILES IDX 11 13 85 14 8 15 4 16 5 17 87 18 6 19 7 20 3 21 2 22 1 23
REMARK SMILES IDX 20 24 21 25 22 26 23 27 24 29 25 30 26 31 84 32 27 33 83 34
REMARK SMILES IDX 28 35 29 36 30 37 77 38 31 39 82 40 76 41 78 42 32 43 81 44
REMARK SMILES IDX 75 45 74 46 33 48 63 49 44 50 62 51 45 52 48 53 61 54 79 55
REMARK SMILES IDX 46 56 47 57 60 59 80 60 49 61 34 62 35 63 43 64 36 65 42 66
REMARK SMILES IDX 37 67 38 68 39 69 40 70 41 71 64 72 65 73 73 74 66 75 72 76
REMARK SMILES IDX 67 77 68 78 69 79 70 80 71 81 50 82 51 83 59 84 52 85 58 86
REMARK SMILES IDX 53 87 54 88 55 89 56 90 57 91
REMARK H PARENT 17 6 22 28 78 47 48 58
REMARK Flexibility Score: inf
ROOT
ATOM      1  C   UNL A   1      37.121  33.584  30.428  1.00  0.00     0.023 C 
ENDROOT
BRANCH   1   2
ATOM      2  C   UNL A   1      37.575  32.388  31.265  1.00  0.00     0.116 C 
BRANCH   2   3
ATOM      3  N   UNL A   1      37.034  32.418  32.608  1.00  0.00    -0.356 N 
ATOM      4  C   UNL A   1      37.644  32.543  33.819  1.00  0.00     0.227 C 
ATOM      5  O   UNL A   1      36.917  32.480  34.818  1.00  0.00    -0.274 OA
ATOM      6  H   UNL A   1      36.054  32.332  32.654  1.00  0.00     0.163 HD
BRANCH   4   7
ATOM      7  C   UNL A   1      39.155  32.770  33.990  1.00  0.00     0.105 C 
ATOM      8  C   UNL A   1      39.668  34.038  33.308  1.00  0.00     0.023 C 
BRANCH   7   9
ATOM      9  C   UNL A   1      39.980  31.510  33.789  1.00  0.00    -0.036 A 
ATOM     10  C   UNL A   1      41.596  29.145  33.656  1.00  0.00    -0.018 A 
ATOM     11  C   UNL A   1      40.217  29.119  33.391  1.00  0.00     0.009 A 
ATOM     12  C   UNL A   1      42.150  30.405  33.938  1.00  0.00     0.009 A 
ATOM     13  C   UNL A   1      39.430  30.280  33.421  1.00  0.00     0.005 A 
ATOM     14  C   UNL A   1      41.359  31.558  34.027  1.00  0.00     0.005 A 
BRANCH  10  15
ATOM     15  C   UNL A   1      42.423  27.908  33.651  1.00  0.00    -0.018 A 
ATOM     16  C   UNL A   1      42.970  25.694  34.596  1.00  0.00    -0.044 A 
ATOM     17  C   UNL A   1      44.003  25.546  33.669  1.00  0.00     0.004 A 
ATOM     18  C   UNL A   1      42.182  26.860  34.562  1.00  0.00     0.012 A 
ATOM     19  C   UNL A   1      44.250  26.551  32.740  1.00  0.00     0.001 A 
ATOM     20  C   UNL A   1      43.480  27.719  32.742  1.00  0.00     0.009 A 
BRANCH  16  21
ATOM     21  C   UNL A   1      42.722  24.651  35.661  1.00  0.00     0.062 C 
BRANCH  21  22
ATOM     22  C   UNL A   1      43.965  23.852  35.949  1.00  0.00    -0.030 C 
ATOM     23  C   UNL A   1      44.296  22.713  35.325  1.00  0.00     0.004 C 
ENDBRANCH  21  22
ENDBRANCH  16  21
ENDBRANCH  10  15
ENDBRANCH   7   9
ENDBRANCH   4   7
ENDBRANCH   2   3
ENDBRANCH   1   2
BRANCH   1  24
ATOM     24  C   UNL A   1      35.901  33.333  29.545  1.00  0.00     0.023 C 
BRANCH  24  25
ATOM     25  C   UNL A   1      34.967  32.225  30.020  1.00  0.00     0.116 C 
BRANCH  25  26
ATOM     26  N   UNL A   1      34.205  31.589  28.955  1.00  0.00    -0.352 N 
ATOM     27  C   UNL A   1      34.602  30.559  28.129  1.00  0.00     0.251 C 
ATOM     28  H   UNL A   1      33.296  31.936  28.806  1.00  0.00     0.163 HD
ATOM     29  O   UNL A   1      33.876  30.170  27.223  1.00  0.00    -0.269 OA
BRANCH  27  30
ATOM     30  C   UNL A   1      35.944  29.969  28.325  1.00  0.00     0.039 A 
ATOM     31  C   UNL A   1      36.883  30.069  27.296  1.00  0.00     0.014 A 
ATOM     32  C   UNL A   1      36.292  29.395  29.550  1.00  0.00     0.014 A 
ATOM     33  C   UNL A   1      38.202  29.672  27.528  1.00  0.00     0.010 A 
ATOM     34  C   UNL A   1      37.619  29.068  29.801  1.00  0.00     0.010 A 
ATOM     35  C   UNL A   1      38.589  29.212  28.797  1.00  0.00    -0.014 A 
BRANCH  35  36
ATOM     36  C   UNL A   1      40.003  28.889  29.110  1.00  0.00     0.031 A 
ATOM     37  C   UNL A   1      40.912  29.954  29.656  1.00  0.00     0.074 A 
ATOM     38  C   UNL A   1      40.496  27.673  28.801  1.00  0.00     0.049 A 
ATOM     39  N   UNL A   1      42.199  29.904  29.883  1.00  0.00    -0.248 NA
ATOM     40  C   UNL A   1      40.297  31.258  29.952  1.00  0.00     0.031 C 
ATOM     41  C   UNL A   1      39.732  26.573  28.207  1.00  0.00     0.029 A 
ATOM     42  N   UNL A   1      41.766  27.168  28.924  1.00  0.00    -0.354 N 
ATOM     43  C   UNL A   1      42.554  31.175  30.316  1.00  0.00     0.074 A 
ATOM     44  C   UNL A   1      41.355  31.984  30.279  1.00  0.00     0.031 C 
ATOM     45  C   UNL A   1      40.546  25.521  28.025  1.00  0.00     0.029 A 
ATOM     46  C   UNL A   1      41.894  25.880  28.458  1.00  0.00     0.049 A 
ATOM     47  H   UNL A   1      42.514  27.677  29.309  1.00  0.00     0.167 HD
ATOM     48  C   UNL A   1      43.765  31.626  30.722  1.00  0.00     0.031 A 
ATOM     49  C   UNL A   1      42.974  25.081  28.377  1.00  0.00     0.031 A 
ATOM     50  C   UNL A   1      44.951  30.816  30.776  1.00  0.00     0.049 A 
ATOM     51  C   UNL A   1      44.300  25.583  28.873  1.00  0.00     0.074 A 
ATOM     52  C   UNL A   1      46.210  31.159  31.236  1.00  0.00     0.029 A 
ATOM     53  N   UNL A   1      45.024  29.497  30.354  1.00  0.00    -0.354 N 
ATOM     54  N   UNL A   1      44.602  26.768  29.350  1.00  0.00    -0.248 NA
ATOM     55  C   UNL A   1      45.426  24.641  28.836  1.00  0.00     0.031 C 
ATOM     56  C   UNL A   1      47.053  30.056  31.062  1.00  0.00     0.029 A 
ATOM     57  C   UNL A   1      46.309  29.014  30.532  1.00  0.00     0.049 A 
ATOM     58  H   UNL A   1      44.271  28.980  29.984  1.00  0.00     0.167 HD
ATOM     59  C   UNL A   1      45.950  26.708  29.685  1.00  0.00     0.074 A 
ATOM     60  C   UNL A   1      46.401  25.367  29.368  1.00  0.00     0.031 C 
ATOM     61  C   UNL A   1      46.740  27.677  30.209  1.00  0.00     0.031 A 
BRANCH  48  62
ATOM     62  C   UNL A   1      43.850  33.074  31.130  1.00  0.00    -0.014 A 
ATOM     63  C   UNL A   1      44.152  34.075  30.188  1.00  0.00     0.010 A 
ATOM     64  C   UNL A   1      43.650  33.434  32.474  1.00  0.00     0.010 A 
ATOM     65  C   UNL A   1      44.324  35.399  30.595  1.00  0.00     0.020 A 
ATOM     66  C   UNL A   1      43.792  34.765  32.880  1.00  0.00     0.020 A 
ATOM     67  C   UNL A   1      44.158  35.733  31.942  1.00  0.00     0.054 A 
BRANCH  67  68
ATOM     68  S   UNL A   1      44.418  37.454  32.455  1.00  0.00     0.124 S 
ATOM     69  O   UNL A   1      45.816  37.431  32.877  1.00  0.00    -0.237 OA
ATOM     70  O   UNL A   1      44.145  38.202  31.231  1.00  0.00    -0.237 OA
ATOM     71  O   UNL A   1      43.445  37.644  33.528  1.00  0.00    -0.744 OA
ENDBRANCH  67  68
ENDBRANCH  48  62
BRANCH  49  72
ATOM     72  C   UNL A   1      42.827  23.709  27.821  1.00  0.00    -0.014 A 
ATOM     73  C   UNL A   1      42.429  22.645  28.648  1.00  0.00     0.010 A 
ATOM     74  C   UNL A   1      43.024  23.475  26.448  1.00  0.00     0.010 A 
ATOM     75  C   UNL A   1      42.227  21.370  28.112  1.00  0.00     0.020 A 
ATOM     76  C   UNL A   1      42.803  22.206  25.905  1.00  0.00     0.020 A 
ATOM     77  C   UNL A   1      42.410  21.159  26.742  1.00  0.00     0.054 A 
BRANCH  77  78
ATOM     78  S   UNL A   1      42.051  19.519  26.051  1.00  0.00     0.124 S 
ATOM     79  O   UNL A   1      42.916  19.490  24.875  1.00  0.00    -0.237 OA
ATOM     80  O   UNL A   1      42.434  18.625  27.141  1.00  0.00    -0.237 OA
ATOM     81  O   UNL A   1      40.618  19.574  25.776  1.00  0.00    -0.744 OA
ENDBRANCH  77  78
ENDBRANCH  49  72
BRANCH  61  82
ATOM     82  C   UNL A   1      48.173  27.322  30.496  1.00  0.00    -0.014 A 
ATOM     83  C   UNL A   1      49.177  27.529  29.535  1.00  0.00     0.010 A 
ATOM     84  C   UNL A   1      48.527  26.845  31.771  1.00  0.00     0.010 A 
ATOM     85  C   UNL A   1      50.512  27.249  29.839  1.00  0.00     0.020 A 
ATOM     86  C   UNL A   1      49.863  26.582  32.086  1.00  0.00     0.020 A 
ATOM     87  C   UNL A   1      50.846  26.778  31.113  1.00  0.00     0.054 A 
BRANCH  87  88
ATOM     88  S   UNL A   1      52.593  26.483  31.508  1.00  0.00     0.124 S 
ATOM     89  O   UNL A   1      52.513  25.320  32.388  1.00  0.00    -0.237 OA
ATOM     90  O   UNL A   1      53.184  26.238  30.194  1.00  0.00    -0.237 OA
ATOM     91  O   UNL A   1      53.016  27.724  32.152  1.00  0.00    -0.744 OA
ENDBRANCH  87  88
ENDBRANCH  61  82
ENDBRANCH  35  36
ENDBRANCH  27  30
ENDBRANCH  25  26
ENDBRANCH  24  25
ENDBRANCH   1  24
TORSDOF 18
ENDMDL
