MODEL 1
REMARK VINA RESULT:     -11.8      0.000      0.000
REMARK SMILES Cc1ccc(C#N)cc1S(=O)(=O)Nc1cccc(C(=O)NCCCCNC(=O)c2ccc(-c3c4nc(c(-c5ccc(S(=O)(=O)[O-])cc5)c5ccc([nH]5)c(-c5ccc(S(=O)(=O)[O-])cc5)c5nc(c(-c6ccc(S(=O)(=O)[O-])cc6)c6ccc3[nH]6)C=C5)C=C4)cc2)c1
REMARK SMILES IDX 23 1 22 2 21 3 19 4 20 5 18 7 14 8 15 9 89 10 16 11 17 12
REMARK SMILES IDX 13 13 10 15 11 16 12 17 9 18 1 19 2 20 3 21 4 22 8 23 5 24
REMARK SMILES IDX 6 25 7 26 24 27 25 28 26 29 27 30 28 32 29 33 30 34 88 35
REMARK SMILES IDX 31 36 87 37 32 38 33 39 34 40 81 41 35 42 86 43 80 44 82 45
REMARK SMILES IDX 36 46 85 47 79 48 78 49 37 51 67 52 48 53 66 54 49 55 52 56
REMARK SMILES IDX 65 57 83 58 50 59 51 60 64 62 84 63 53 64 38 65 39 66 47 67
REMARK SMILES IDX 40 68 46 69 41 70 42 71 43 72 44 73 45 74 68 75 69 76 77 77
REMARK SMILES IDX 70 78 76 79 71 80 72 81 73 82 74 83 75 84 54 85 55 86 63 87
REMARK SMILES IDX 56 88 62 89 57 90 58 91 59 92 60 93 61 94
REMARK H PARENT 21 6 13 14 26 31 82 50 52 61
REMARK Flexibility Score: inf
ROOT
ATOM      1  C   UNL A   1      35.567  21.744  24.154  1.00  0.00     0.023 C 
ENDROOT
BRANCH   1   2
ATOM      2  C   UNL A   1      35.040  21.314  25.517  1.00  0.00     0.116 C 
BRANCH   2   3
ATOM      3  N   UNL A   1      34.002  20.299  25.505  1.00  0.00    -0.352 N 
ATOM      4  C   UNL A   1      32.667  20.349  25.162  1.00  0.00     0.251 C 
ATOM      5  O   UNL A   1      32.041  19.288  25.184  1.00  0.00    -0.269 OA
ATOM      6  H   UNL A   1      34.309  19.410  25.798  1.00  0.00     0.163 HD
BRANCH   4   7
ATOM      7  C   UNL A   1      31.916  21.617  24.875  1.00  0.00     0.041 A 
ATOM      8  C   UNL A   1      31.541  23.628  23.577  1.00  0.00     0.050 A 
ATOM      9  C   UNL A   1      30.937  24.249  24.662  1.00  0.00     0.027 A 
ATOM     10  C   UNL A   1      31.894  22.273  23.642  1.00  0.00     0.040 A 
ATOM     11  C   UNL A   1      30.781  23.547  25.852  1.00  0.00     0.003 A 
ATOM     12  C   UNL A   1      31.310  22.258  25.972  1.00  0.00     0.014 A 
BRANCH   8  13
ATOM     13  N   UNL A   1      31.888  24.421  22.438  1.00  0.00    -0.280 N 
ATOM     14  H   UNL A   1      31.366  24.328  21.609  1.00  0.00     0.180 HD
BRANCH  13  15
ATOM     15  S   UNL A   1      33.196  25.532  22.487  1.00  0.00     0.262 S 
ATOM     16  O   UNL A   1      33.387  25.888  21.092  1.00  0.00    -0.201 OA
ATOM     17  O   UNL A   1      34.269  24.884  23.211  1.00  0.00    -0.201 OA
BRANCH  15  18
ATOM     18  C   UNL A   1      32.818  27.063  23.352  1.00  0.00     0.092 A 
ATOM     19  C   UNL A   1      30.422  27.344  22.453  1.00  0.00     0.046 C 
ATOM     20  C   UNL A   1      31.654  27.829  23.157  1.00  0.00    -0.030 A 
ATOM     21  C   UNL A   1      31.512  29.046  23.856  1.00  0.00     0.006 A 
ATOM     22  C   UNL A   1      32.386  29.397  24.882  1.00  0.00     0.020 A 
ATOM     23  C   UNL A   1      33.655  27.392  24.442  1.00  0.00     0.042 A 
ATOM     24  C   UNL A   1      33.411  28.524  25.233  1.00  0.00     0.053 A 
BRANCH  24  25
ATOM     25  C   UNL A   1      34.145  28.754  26.441  1.00  0.00     0.099 C 
ATOM     26  N   UNL A   1      34.783  28.928  27.400  1.00  0.00    -0.192 NA
ENDBRANCH  24  25
ENDBRANCH  15  18
ENDBRANCH  13  15
ENDBRANCH   8  13
ENDBRANCH   4   7
ENDBRANCH   2   3
ENDBRANCH   1   2
BRANCH   1  27
ATOM     27  C   UNL A   1      36.763  22.682  24.136  1.00  0.00     0.023 C 
BRANCH  27  28
ATOM     28  C   UNL A   1      37.389  22.990  25.487  1.00  0.00     0.116 C 
BRANCH  28  29
ATOM     29  N   UNL A   1      38.665  22.323  25.725  1.00  0.00    -0.352 N 
ATOM     30  C   UNL A   1      39.809  22.806  26.328  1.00  0.00     0.251 C 
ATOM     31  H   UNL A   1      38.717  21.392  25.410  1.00  0.00     0.163 HD
ATOM     32  O   UNL A   1      40.824  22.118  26.365  1.00  0.00    -0.269 OA
BRANCH  30  33
ATOM     33  C   UNL A   1      39.816  24.179  26.881  1.00  0.00     0.039 A 
ATOM     34  C   UNL A   1      40.336  25.230  26.129  1.00  0.00     0.014 A 
ATOM     35  C   UNL A   1      39.394  24.401  28.194  1.00  0.00     0.014 A 
ATOM     36  C   UNL A   1      40.687  26.411  26.766  1.00  0.00     0.010 A 
ATOM     37  C   UNL A   1      39.618  25.648  28.791  1.00  0.00     0.010 A 
ATOM     38  C   UNL A   1      40.344  26.638  28.110  1.00  0.00    -0.014 A 
BRANCH  38  39
ATOM     39  C   UNL A   1      40.777  27.906  28.761  1.00  0.00     0.031 A 
ATOM     40  C   UNL A   1      42.223  28.150  29.117  1.00  0.00     0.074 A 
ATOM     41  C   UNL A   1      39.870  28.884  28.958  1.00  0.00     0.049 A 
ATOM     42  N   UNL A   1      42.777  29.236  29.596  1.00  0.00    -0.248 NA
ATOM     43  C   UNL A   1      43.171  27.039  28.925  1.00  0.00     0.031 C 
ATOM     44  C   UNL A   1      38.443  28.772  28.644  1.00  0.00     0.029 A 
ATOM     45  N   UNL A   1      40.007  30.169  29.419  1.00  0.00    -0.354 N 
ATOM     46  C   UNL A   1      44.120  28.932  29.790  1.00  0.00     0.074 A 
ATOM     47  C   UNL A   1      44.295  27.548  29.412  1.00  0.00     0.031 C 
ATOM     48  C   UNL A   1      37.856  29.960  28.839  1.00  0.00     0.029 A 
ATOM     49  C   UNL A   1      38.838  30.894  29.383  1.00  0.00     0.049 A 
ATOM     50  H   UNL A   1      40.860  30.538  29.745  1.00  0.00     0.167 HD
ATOM     51  C   UNL A   1      45.116  29.736  30.232  1.00  0.00     0.031 A 
ATOM     52  C   UNL A   1      38.565  32.163  29.750  1.00  0.00     0.031 A 
ATOM     53  C   UNL A   1      44.932  31.123  30.584  1.00  0.00     0.049 A 
ATOM     54  C   UNL A   1      39.678  33.031  30.253  1.00  0.00     0.074 A 
ATOM     55  C   UNL A   1      45.894  32.034  30.984  1.00  0.00     0.029 A 
ATOM     56  N   UNL A   1      43.719  31.799  30.587  1.00  0.00    -0.354 N 
ATOM     57  N   UNL A   1      40.951  32.739  30.380  1.00  0.00    -0.248 NA
ATOM     58  C   UNL A   1      39.331  34.401  30.648  1.00  0.00     0.031 C 
ATOM     59  C   UNL A   1      45.251  33.222  31.333  1.00  0.00     0.029 A 
ATOM     60  C   UNL A   1      43.903  33.098  31.035  1.00  0.00     0.049 A 
ATOM     61  H   UNL A   1      42.857  31.412  30.314  1.00  0.00     0.167 HD
ATOM     62  C   UNL A   1      41.561  33.896  30.851  1.00  0.00     0.074 A 
ATOM     63  C   UNL A   1      40.520  34.897  30.966  1.00  0.00     0.031 C 
ATOM     64  C   UNL A   1      42.866  34.099  31.157  1.00  0.00     0.031 A 
BRANCH  51  65
ATOM     65  C   UNL A   1      46.504  29.153  30.391  1.00  0.00    -0.014 A 
ATOM     66  C   UNL A   1      47.379  29.146  29.287  1.00  0.00     0.010 A 
ATOM     67  C   UNL A   1      46.907  28.511  31.576  1.00  0.00     0.010 A 
ATOM     68  C   UNL A   1      48.607  28.480  29.349  1.00  0.00     0.020 A 
ATOM     69  C   UNL A   1      48.154  27.880  31.657  1.00  0.00     0.020 A 
ATOM     70  C   UNL A   1      48.984  27.846  30.535  1.00  0.00     0.054 A 
BRANCH  70  71
ATOM     71  S   UNL A   1      50.568  26.965  30.584  1.00  0.00     0.124 S 
ATOM     72  O   UNL A   1      50.146  25.576  30.734  1.00  0.00    -0.237 OA
ATOM     73  O   UNL A   1      51.165  27.309  29.295  1.00  0.00    -0.237 OA
ATOM     74  O   UNL A   1      51.244  27.541  31.746  1.00  0.00    -0.744 OA
ENDBRANCH  70  71
ENDBRANCH  51  65
BRANCH  52  75
ATOM     75  C   UNL A   1      37.167  32.659  29.594  1.00  0.00    -0.014 A 
ATOM     76  C   UNL A   1      36.755  33.233  28.375  1.00  0.00     0.010 A 
ATOM     77  C   UNL A   1      36.303  32.716  30.701  1.00  0.00     0.010 A 
ATOM     78  C   UNL A   1      35.560  33.950  28.296  1.00  0.00     0.020 A 
ATOM     79  C   UNL A   1      35.084  33.398  30.613  1.00  0.00     0.020 A 
ATOM     80  C   UNL A   1      34.745  34.050  29.425  1.00  0.00     0.054 A 
BRANCH  80  81
ATOM     81  S   UNL A   1      33.278  35.113  29.339  1.00  0.00     0.124 S 
ATOM     82  O   UNL A   1      32.450  34.400  28.370  1.00  0.00    -0.237 OA
ATOM     83  O   UNL A   1      32.793  35.095  30.716  1.00  0.00    -0.237 OA
ATOM     84  O   UNL A   1      33.808  36.395  28.882  1.00  0.00    -0.744 OA
ENDBRANCH  80  81
ENDBRANCH  52  75
BRANCH  64  85
ATOM     85  C   UNL A   1      43.285  35.465  31.650  1.00  0.00    -0.014 A 
ATOM     86  C   UNL A   1      43.045  35.823  32.991  1.00  0.00     0.010 A 
ATOM     87  C   UNL A   1      43.784  36.439  30.767  1.00  0.00     0.010 A 
ATOM     88  C   UNL A   1      43.244  37.135  33.428  1.00  0.00     0.020 A 
ATOM     89  C   UNL A   1      44.029  37.744  31.211  1.00  0.00     0.020 A 
ATOM     90  C   UNL A   1      43.728  38.089  32.531  1.00  0.00     0.054 A 
BRANCH  90  91
ATOM     91  S   UNL A   1      43.940  39.796  33.109  1.00  0.00     0.124 S 
ATOM     92  O   UNL A   1      42.642  40.080  33.713  1.00  0.00    -0.237 OA
ATOM     93  O   UNL A   1      45.058  39.679  34.042  1.00  0.00    -0.237 OA
ATOM     94  O   UNL A   1      44.235  40.539  31.885  1.00  0.00    -0.744 OA
ENDBRANCH  90  91
ENDBRANCH  64  85
ENDBRANCH  38  39
ENDBRANCH  30  33
ENDBRANCH  28  29
ENDBRANCH  27  28
ENDBRANCH   1  27
TORSDOF 18
ENDMDL
MODEL 2
REMARK VINA RESULT:     -11.5      1.332      8.152
REMARK SMILES Cc1ccc(C#N)cc1S(=O)(=O)Nc1cccc(C(=O)NCCCCNC(=O)c2ccc(-c3c4nc(c(-c5ccc(S(=O)(=O)[O-])cc5)c5ccc([nH]5)c(-c5ccc(S(=O)(=O)[O-])cc5)c5nc(c(-c6ccc(S(=O)(=O)[O-])cc6)c6ccc3[nH]6)C=C5)C=C4)cc2)c1
REMARK SMILES IDX 23 1 22 2 21 3 19 4 20 5 18 7 14 8 15 9 89 10 16 11 17 12
REMARK SMILES IDX 13 13 10 15 11 16 12 17 9 18 1 19 2 20 3 21 4 22 8 23 5 24
REMARK SMILES IDX 6 25 7 26 24 27 25 28 26 29 27 30 28 32 29 33 30 34 88 35
REMARK SMILES IDX 31 36 87 37 32 38 33 39 34 40 81 41 35 42 86 43 80 44 82 45
REMARK SMILES IDX 36 46 85 47 79 48 78 49 37 51 67 52 48 53 66 54 49 55 52 56
REMARK SMILES IDX 65 57 83 58 50 59 51 60 64 62 84 63 53 64 38 65 39 66 47 67
REMARK SMILES IDX 40 68 46 69 41 70 42 71 43 72 44 73 45 74 68 75 69 76 77 77
REMARK SMILES IDX 70 78 76 79 71 80 72 81 73 82 74 83 75 84 54 85 55 86 63 87
REMARK SMILES IDX 56 88 62 89 57 90 58 91 59 92 60 93 61 94
REMARK H PARENT 21 6 13 14 26 31 82 50 52 61
REMARK Flexibility Score: inf
ROOT
ATOM      1  C   UNL A   1      35.986  21.405  24.481  1.00  0.00     0.023 C 
ENDROOT
BRANCH   1   2
ATOM      2  C   UNL A   1      35.047  21.322  25.678  1.00  0.00     0.116 C 
BRANCH   2   3
ATOM      3  N   UNL A   1      33.983  20.340  25.584  1.00  0.00    -0.352 N 
ATOM      4  C   UNL A   1      32.667  20.441  25.184  1.00  0.00     0.251 C 
ATOM      5  O   UNL A   1      32.010  19.399  25.139  1.00  0.00    -0.269 OA
ATOM      6  H   UNL A   1      34.251  19.433  25.858  1.00  0.00     0.163 HD
BRANCH   4   7
ATOM      7  C   UNL A   1      31.965  21.740  24.910  1.00  0.00     0.041 A 
ATOM      8  C   UNL A   1      31.596  23.724  23.570  1.00  0.00     0.050 A 
ATOM      9  C   UNL A   1      31.118  24.415  24.675  1.00  0.00     0.027 A 
ATOM     10  C   UNL A   1      31.877  22.355  23.658  1.00  0.00     0.040 A 
ATOM     11  C   UNL A   1      31.022  23.765  25.900  1.00  0.00     0.003 A 
ATOM     12  C   UNL A   1      31.487  22.452  26.027  1.00  0.00     0.014 A 
BRANCH   8  13
ATOM     13  N   UNL A   1      31.890  24.457  22.377  1.00  0.00    -0.280 N 
ATOM     14  H   UNL A   1      31.349  24.302  21.569  1.00  0.00     0.180 HD
BRANCH  13  15
ATOM     15  S   UNL A   1      33.167  25.604  22.325  1.00  0.00     0.262 S 
ATOM     16  O   UNL A   1      33.236  25.966  20.920  1.00  0.00    -0.201 OA
ATOM     17  O   UNL A   1      34.312  24.983  22.957  1.00  0.00    -0.201 OA
BRANCH  15  18
ATOM     18  C   UNL A   1      32.819  27.122  23.223  1.00  0.00     0.092 A 
ATOM     19  C   UNL A   1      30.405  27.432  22.384  1.00  0.00     0.046 C 
ATOM     20  C   UNL A   1      31.657  27.898  23.067  1.00  0.00    -0.030 A 
ATOM     21  C   UNL A   1      31.539  29.105  23.789  1.00  0.00     0.006 A 
ATOM     22  C   UNL A   1      32.439  29.433  24.800  1.00  0.00     0.020 A 
ATOM     23  C   UNL A   1      33.685  27.428  24.298  1.00  0.00     0.042 A 
ATOM     24  C   UNL A   1      33.466  28.548  25.113  1.00  0.00     0.053 A 
BRANCH  24  25
ATOM     25  C   UNL A   1      34.230  28.754  26.307  1.00  0.00     0.099 C 
ATOM     26  N   UNL A   1      34.846  28.875  27.288  1.00  0.00    -0.192 NA
ENDBRANCH  24  25
ENDBRANCH  15  18
ENDBRANCH  13  15
ENDBRANCH   8  13
ENDBRANCH   4   7
ENDBRANCH   2   3
ENDBRANCH   1   2
BRANCH   1  27
ATOM     27  C   UNL A   1      36.555  22.773  24.138  1.00  0.00     0.023 C 
BRANCH  27  28
ATOM     28  C   UNL A   1      37.400  23.432  25.216  1.00  0.00     0.116 C 
BRANCH  28  29
ATOM     29  N   UNL A   1      38.621  22.706  25.553  1.00  0.00    -0.352 N 
ATOM     30  C   UNL A   1      39.709  23.116  26.296  1.00  0.00     0.251 C 
ATOM     31  H   UNL A   1      38.675  21.790  25.198  1.00  0.00     0.163 HD
ATOM     32  O   UNL A   1      40.692  22.389  26.403  1.00  0.00    -0.269 OA
BRANCH  30  33
ATOM     33  C   UNL A   1      39.703  24.461  26.915  1.00  0.00     0.039 A 
ATOM     34  C   UNL A   1      40.298  25.534  26.257  1.00  0.00     0.014 A 
ATOM     35  C   UNL A   1      39.190  24.628  28.204  1.00  0.00     0.014 A 
ATOM     36  C   UNL A   1      40.624  26.674  26.977  1.00  0.00     0.010 A 
ATOM     37  C   UNL A   1      39.394  25.839  28.878  1.00  0.00     0.010 A 
ATOM     38  C   UNL A   1      40.188  26.843  28.302  1.00  0.00    -0.014 A 
BRANCH  38  39
ATOM     39  C   UNL A   1      40.597  28.068  29.045  1.00  0.00     0.031 A 
ATOM     40  C   UNL A   1      39.627  29.198  29.287  1.00  0.00     0.074 A 
ATOM     41  C   UNL A   1      41.834  28.127  29.579  1.00  0.00     0.049 A 
ATOM     42  N   UNL A   1      39.797  30.285  29.998  1.00  0.00    -0.248 NA
ATOM     43  C   UNL A   1      38.303  29.112  28.649  1.00  0.00     0.031 C 
ATOM     44  C   UNL A   1      42.858  27.092  29.424  1.00  0.00     0.029 A 
ATOM     45  N   UNL A   1      42.427  29.060  30.392  1.00  0.00    -0.354 N 
ATOM     46  C   UNL A   1      38.624  31.020  29.867  1.00  0.00     0.074 A 
ATOM     47  C   UNL A   1      37.759  30.275  28.981  1.00  0.00     0.031 C 
ATOM     48  C   UNL A   1      43.916  27.403  30.184  1.00  0.00     0.029 A 
ATOM     49  C   UNL A   1      43.690  28.705  30.806  1.00  0.00     0.049 A 
ATOM     50  H   UNL A   1      41.992  29.904  30.653  1.00  0.00     0.167 HD
ATOM     51  C   UNL A   1      38.293  32.201  30.442  1.00  0.00     0.031 A 
ATOM     52  C   UNL A   1      44.583  29.344  31.589  1.00  0.00     0.031 A 
ATOM     53  C   UNL A   1      39.157  32.923  31.346  1.00  0.00     0.049 A 
ATOM     54  C   UNL A   1      44.205  30.658  32.203  1.00  0.00     0.074 A 
ATOM     55  C   UNL A   1      38.885  34.097  32.026  1.00  0.00     0.029 A 
ATOM     56  N   UNL A   1      40.450  32.554  31.690  1.00  0.00    -0.354 N 
ATOM     57  N   UNL A   1      43.071  31.310  32.108  1.00  0.00    -0.248 NA
ATOM     58  C   UNL A   1      45.213  31.319  33.040  1.00  0.00     0.031 C 
ATOM     59  C   UNL A   1      40.046  34.495  32.691  1.00  0.00     0.029 A 
ATOM     60  C   UNL A   1      41.006  33.507  32.529  1.00  0.00     0.049 A 
ATOM     61  H   UNL A   1      40.906  31.737  31.383  1.00  0.00     0.167 HD
ATOM     62  C   UNL A   1      43.221  32.450  32.889  1.00  0.00     0.074 A 
ATOM     63  C   UNL A   1      44.549  32.386  33.466  1.00  0.00     0.031 C 
ATOM     64  C   UNL A   1      42.333  33.452  33.103  1.00  0.00     0.031 A 
BRANCH  51  65
ATOM     65  C   UNL A   1      36.953  32.821  30.112  1.00  0.00    -0.014 A 
ATOM     66  C   UNL A   1      36.758  33.406  28.845  1.00  0.00     0.010 A 
ATOM     67  C   UNL A   1      35.932  32.937  31.073  1.00  0.00     0.010 A 
ATOM     68  C   UNL A   1      35.593  34.123  28.558  1.00  0.00     0.020 A 
ATOM     69  C   UNL A   1      34.746  33.617  30.775  1.00  0.00     0.020 A 
ATOM     70  C   UNL A   1      34.595  34.228  29.529  1.00  0.00     0.054 A 
BRANCH  70  71
ATOM     71  S   UNL A   1      33.104  35.186  29.144  1.00  0.00     0.124 S 
ATOM     72  O   UNL A   1      32.417  35.219  30.432  1.00  0.00    -0.237 OA
ATOM     73  O   UNL A   1      33.653  36.461  28.687  1.00  0.00    -0.237 OA
ATOM     74  O   UNL A   1      32.447  34.394  28.106  1.00  0.00    -0.744 OA
ENDBRANCH  70  71
ENDBRANCH  51  65
BRANCH  52  75
ATOM     75  C   UNL A   1      45.897  28.685  31.846  1.00  0.00    -0.014 A 
ATOM     76  C   UNL A   1      46.958  28.849  30.933  1.00  0.00     0.010 A 
ATOM     77  C   UNL A   1      46.040  27.767  32.900  1.00  0.00     0.010 A 
ATOM     78  C   UNL A   1      48.086  28.030  31.002  1.00  0.00     0.020 A 
ATOM     79  C   UNL A   1      47.189  26.973  32.997  1.00  0.00     0.020 A 
ATOM     80  C   UNL A   1      48.181  27.078  32.019  1.00  0.00     0.054 A 
BRANCH  80  81
ATOM     81  S   UNL A   1      49.582  25.926  31.995  1.00  0.00     0.124 S 
ATOM     82  O   UNL A   1      49.472  25.352  30.656  1.00  0.00    -0.237 OA
ATOM     83  O   UNL A   1      50.723  26.811  32.210  1.00  0.00    -0.237 OA
ATOM     84  O   UNL A   1      49.291  25.007  33.093  1.00  0.00    -0.744 OA
ENDBRANCH  80  81
ENDBRANCH  52  75
BRANCH  64  85
ATOM     85  C   UNL A   1      42.738  34.590  34.011  1.00  0.00    -0.014 A 
ATOM     86  C   UNL A   1      43.409  35.704  33.471  1.00  0.00     0.010 A 
ATOM     87  C   UNL A   1      42.583  34.502  35.406  1.00  0.00     0.010 A 
ATOM     88  C   UNL A   1      43.962  36.679  34.304  1.00  0.00     0.020 A 
ATOM     89  C   UNL A   1      43.096  35.500  36.243  1.00  0.00     0.020 A 
ATOM     90  C   UNL A   1      43.808  36.565  35.687  1.00  0.00     0.054 A 
BRANCH  90  91
ATOM     91  S   UNL A   1      44.569  37.821  36.752  1.00  0.00     0.124 S 
ATOM     92  O   UNL A   1      45.803  37.162  37.172  1.00  0.00    -0.237 OA
ATOM     93  O   UNL A   1      44.738  38.951  35.842  1.00  0.00    -0.237 OA
ATOM     94  O   UNL A   1      43.580  38.023  37.808  1.00  0.00    -0.744 OA
ENDBRANCH  90  91
ENDBRANCH  64  85
ENDBRANCH  38  39
ENDBRANCH  30  33
ENDBRANCH  28  29
ENDBRANCH  27  28
ENDBRANCH   1  27
TORSDOF 18
ENDMDL
MODEL 3
REMARK VINA RESULT:     -11.4      2.854      9.594
REMARK SMILES Cc1ccc(C#N)cc1S(=O)(=O)Nc1cccc(C(=O)NCCCCNC(=O)c2ccc(-c3c4nc(c(-c5ccc(S(=O)(=O)[O-])cc5)c5ccc([nH]5)c(-c5ccc(S(=O)(=O)[O-])cc5)c5nc(c(-c6ccc(S(=O)(=O)[O-])cc6)c6ccc3[nH]6)C=C5)C=C4)cc2)c1
REMARK SMILES IDX 23 1 22 2 21 3 19 4 20 5 18 7 14 8 15 9 89 10 16 11 17 12
REMARK SMILES IDX 13 13 10 15 11 16 12 17 9 18 1 19 2 20 3 21 4 22 8 23 5 24
REMARK SMILES IDX 6 25 7 26 24 27 25 28 26 29 27 30 28 32 29 33 30 34 88 35
REMARK SMILES IDX 31 36 87 37 32 38 33 39 34 40 81 41 35 42 86 43 80 44 82 45
REMARK SMILES IDX 36 46 85 47 79 48 78 49 37 51 67 52 48 53 66 54 49 55 52 56
REMARK SMILES IDX 65 57 83 58 50 59 51 60 64 62 84 63 53 64 38 65 39 66 47 67
REMARK SMILES IDX 40 68 46 69 41 70 42 71 43 72 44 73 45 74 68 75 69 76 77 77
REMARK SMILES IDX 70 78 76 79 71 80 72 81 73 82 74 83 75 84 54 85 55 86 63 87
REMARK SMILES IDX 56 88 62 89 57 90 58 91 59 92 60 93 61 94
REMARK H PARENT 21 6 13 14 26 31 82 50 52 61
REMARK Flexibility Score: inf
ROOT
ATOM      1  C   UNL A   1      31.898  28.543  26.577  1.00  0.00     0.023 C 
ENDROOT
BRANCH   1   2
ATOM      2  C   UNL A   1      31.264  27.219  26.984  1.00  0.00     0.116 C 
BRANCH   2   3
ATOM      3  N   UNL A   1      30.910  26.324  25.898  1.00  0.00    -0.352 N 
ATOM      4  C   UNL A   1      31.263  25.018  25.626  1.00  0.00     0.251 C 
ATOM      5  O   UNL A   1      30.738  24.485  24.648  1.00  0.00    -0.269 OA
ATOM      6  H   UNL A   1      30.306  26.723  25.231  1.00  0.00     0.163 HD
BRANCH   4   7
ATOM      7  C   UNL A   1      32.319  24.256  26.374  1.00  0.00     0.041 A 
ATOM      8  C   UNL A   1      34.528  23.274  26.538  1.00  0.00     0.050 A 
ATOM      9  C   UNL A   1      34.080  22.356  27.478  1.00  0.00     0.027 A 
ATOM     10  C   UNL A   1      33.689  24.307  26.101  1.00  0.00     0.040 A 
ATOM     11  C   UNL A   1      32.758  22.403  27.904  1.00  0.00     0.003 A 
ATOM     12  C   UNL A   1      31.872  23.315  27.321  1.00  0.00     0.014 A 
BRANCH   8  13
ATOM     13  N   UNL A   1      35.820  23.083  25.953  1.00  0.00    -0.280 N 
ATOM     14  H   UNL A   1      36.565  23.664  26.228  1.00  0.00     0.180 HD
BRANCH  13  15
ATOM     15  S   UNL A   1      36.097  21.860  24.780  1.00  0.00     0.262 S 
ATOM     16  O   UNL A   1      37.159  21.064  25.369  1.00  0.00    -0.201 OA
ATOM     17  O   UNL A   1      36.327  22.533  23.520  1.00  0.00    -0.201 OA
BRANCH  15  18
ATOM     18  C   UNL A   1      34.703  20.748  24.545  1.00  0.00     0.092 A 
ATOM     19  C   UNL A   1      33.220  22.386  23.224  1.00  0.00     0.046 C 
ATOM     20  C   UNL A   1      33.466  21.119  23.988  1.00  0.00    -0.030 A 
ATOM     21  C   UNL A   1      32.432  20.161  23.920  1.00  0.00     0.006 A 
ATOM     22  C   UNL A   1      32.675  18.816  24.191  1.00  0.00     0.020 A 
ATOM     23  C   UNL A   1      34.956  19.372  24.746  1.00  0.00     0.042 A 
ATOM     24  C   UNL A   1      33.963  18.408  24.521  1.00  0.00     0.053 A 
BRANCH  24  25
ATOM     25  C   UNL A   1      34.272  17.010  24.547  1.00  0.00     0.099 C 
ATOM     26  N   UNL A   1      34.503  15.870  24.612  1.00  0.00    -0.192 NA
ENDBRANCH  24  25
ENDBRANCH  15  18
ENDBRANCH  13  15
ENDBRANCH   8  13
ENDBRANCH   4   7
ENDBRANCH   2   3
ENDBRANCH   1   2
BRANCH   1  27
ATOM     27  C   UNL A   1      33.243  28.888  27.195  1.00  0.00     0.023 C 
BRANCH  27  28
ATOM     28  C   UNL A   1      33.797  30.264  26.859  1.00  0.00     0.116 C 
BRANCH  28  29
ATOM     29  N   UNL A   1      33.806  31.200  27.980  1.00  0.00    -0.352 N 
ATOM     30  C   UNL A   1      34.764  31.394  28.954  1.00  0.00     0.251 C 
ATOM     31  H   UNL A   1      33.011  31.777  28.049  1.00  0.00     0.163 HD
ATOM     32  O   UNL A   1      34.556  32.178  29.875  1.00  0.00    -0.269 OA
BRANCH  30  33
ATOM     33  C   UNL A   1      36.018  30.609  28.908  1.00  0.00     0.039 A 
ATOM     34  C   UNL A   1      36.397  29.837  30.002  1.00  0.00     0.014 A 
ATOM     35  C   UNL A   1      36.870  30.726  27.806  1.00  0.00     0.014 A 
ATOM     36  C   UNL A   1      37.715  29.418  30.113  1.00  0.00     0.010 A 
ATOM     37  C   UNL A   1      38.154  30.173  27.864  1.00  0.00     0.010 A 
ATOM     38  C   UNL A   1      38.619  29.587  29.051  1.00  0.00    -0.014 A 
BRANCH  38  39
ATOM     39  C   UNL A   1      40.034  29.155  29.233  1.00  0.00     0.031 A 
ATOM     40  C   UNL A   1      41.028  30.018  29.971  1.00  0.00     0.074 A 
ATOM     41  C   UNL A   1      40.407  27.934  28.799  1.00  0.00     0.049 A 
ATOM     42  N   UNL A   1      42.265  29.744  30.300  1.00  0.00    -0.248 NA
ATOM     43  C   UNL A   1      40.590  31.361  30.388  1.00  0.00     0.031 C 
ATOM     44  C   UNL A   1      39.534  27.003  28.081  1.00  0.00     0.029 A 
ATOM     45  N   UNL A   1      41.587  27.246  28.932  1.00  0.00    -0.354 N 
ATOM     46  C   UNL A   1      42.760  30.882  30.928  1.00  0.00     0.074 A 
ATOM     47  C   UNL A   1      41.701  31.866  30.907  1.00  0.00     0.031 C 
ATOM     48  C   UNL A   1      40.175  25.840  27.914  1.00  0.00     0.029 A 
ATOM     49  C   UNL A   1      41.537  25.968  28.424  1.00  0.00     0.049 A 
ATOM     50  H   UNL A   1      42.392  27.629  29.351  1.00  0.00     0.167 HD
ATOM     51  C   UNL A   1      43.979  31.083  31.483  1.00  0.00     0.031 A 
ATOM     52  C   UNL A   1      42.474  24.999  28.358  1.00  0.00     0.031 A 
ATOM     53  C   UNL A   1      45.019  30.083  31.520  1.00  0.00     0.049 A 
ATOM     54  C   UNL A   1      43.823  25.247  28.963  1.00  0.00     0.074 A 
ATOM     55  C   UNL A   1      46.266  30.174  32.113  1.00  0.00     0.029 A 
ATOM     56  N   UNL A   1      44.945  28.823  30.941  1.00  0.00    -0.354 N 
ATOM     57  N   UNL A   1      44.252  26.312  29.599  1.00  0.00    -0.248 NA
ATOM     58  C   UNL A   1      44.810  24.167  28.859  1.00  0.00     0.031 C 
ATOM     59  C   UNL A   1      46.983  29.019  31.800  1.00  0.00     0.029 A 
ATOM     60  C   UNL A   1      46.144  28.151  31.117  1.00  0.00     0.049 A 
ATOM     61  H   UNL A   1      44.158  28.462  30.473  1.00  0.00     0.167 HD
ATOM     62  C   UNL A   1      45.554  26.022  29.988  1.00  0.00     0.074 A 
ATOM     63  C   UNL A   1      45.833  24.674  29.534  1.00  0.00     0.031 C 
ATOM     64  C   UNL A   1      46.431  26.808  30.661  1.00  0.00     0.031 A 
BRANCH  51  65
ATOM     65  C   UNL A   1      44.290  32.437  32.084  1.00  0.00    -0.014 A 
ATOM     66  C   UNL A   1      43.904  32.706  33.412  1.00  0.00     0.010 A 
ATOM     67  C   UNL A   1      44.849  33.477  31.320  1.00  0.00     0.010 A 
ATOM     68  C   UNL A   1      44.034  33.989  33.950  1.00  0.00     0.020 A 
ATOM     69  C   UNL A   1      45.021  34.753  31.869  1.00  0.00     0.020 A 
ATOM     70  C   UNL A   1      44.587  35.008  33.171  1.00  0.00     0.054 A 
BRANCH  70  71
ATOM     71  S   UNL A   1      44.720  36.671  33.880  1.00  0.00     0.124 S 
ATOM     72  O   UNL A   1      44.204  37.509  32.802  1.00  0.00    -0.237 OA
ATOM     73  O   UNL A   1      43.876  36.579  35.069  1.00  0.00    -0.237 OA
ATOM     74  O   UNL A   1      46.150  36.814  34.152  1.00  0.00    -0.744 OA
ENDBRANCH  70  71
ENDBRANCH  51  65
BRANCH  52  75
ATOM     75  C   UNL A   1      42.104  23.701  27.723  1.00  0.00    -0.014 A 
ATOM     76  C   UNL A   1      41.625  22.640  28.517  1.00  0.00     0.010 A 
ATOM     77  C   UNL A   1      42.387  23.465  26.367  1.00  0.00     0.010 A 
ATOM     78  C   UNL A   1      41.542  21.346  27.998  1.00  0.00     0.020 A 
ATOM     79  C   UNL A   1      42.266  22.177  25.832  1.00  0.00     0.020 A 
ATOM     80  C   UNL A   1      41.889  21.120  26.664  1.00  0.00     0.054 A 
BRANCH  80  81
ATOM     81  S   UNL A   1      41.921  19.410  26.060  1.00  0.00     0.124 S 
ATOM     82  O   UNL A   1      42.810  19.518  24.906  1.00  0.00    -0.237 OA
ATOM     83  O   UNL A   1      42.460  18.680  27.204  1.00  0.00    -0.237 OA
ATOM     84  O   UNL A   1      40.523  19.130  25.744  1.00  0.00    -0.744 OA
ENDBRANCH  80  81
ENDBRANCH  52  75
BRANCH  64  85
ATOM     85  C   UNL A   1      47.801  26.253  30.975  1.00  0.00    -0.014 A 
ATOM     86  C   UNL A   1      48.033  25.645  32.225  1.00  0.00     0.010 A 
ATOM     87  C   UNL A   1      48.887  26.450  30.105  1.00  0.00     0.010 A 
ATOM     88  C   UNL A   1      49.326  25.293  32.619  1.00  0.00     0.020 A 
ATOM     89  C   UNL A   1      50.178  26.058  30.477  1.00  0.00     0.020 A 
ATOM     90  C   UNL A   1      50.392  25.511  31.744  1.00  0.00     0.054 A 
BRANCH  90  91
ATOM     91  S   UNL A   1      52.068  25.085  32.293  1.00  0.00     0.124 S 
ATOM     92  O   UNL A   1      52.175  25.817  33.551  1.00  0.00    -0.237 OA
ATOM     93  O   UNL A   1      52.004  23.631  32.414  1.00  0.00    -0.237 OA
ATOM     94  O   UNL A   1      52.919  25.576  31.211  1.00  0.00    -0.744 OA
ENDBRANCH  90  91
ENDBRANCH  64  85
ENDBRANCH  38  39
ENDBRANCH  30  33
ENDBRANCH  28  29
ENDBRANCH  27  28
ENDBRANCH   1  27
TORSDOF 18
ENDMDL
