MODEL 1
REMARK VINA RESULT:     -10.1      0.000      0.000
REMARK SMILES CCC(CC)(CC(=O)NNC(=O)C1CC1)C(=O)NCCCCNC(=O)c1ccc(-c2c3nc(c(-c4ccc(S(=O)(=O)[O-])cc4)c4ccc([nH]4)c(-c4ccc(S(=O)(=O)[O-])cc4)c4nc(c(-c5ccc(S(=O)(=O)[O-])cc5)c5ccc2[nH]5)C=C4)C=C3)cc1
REMARK SMILES IDX 20 1 19 2 18 3 16 4 17 5 3 7 2 8 1 9 4 10 5 11 6 12 7 13
REMARK SMILES IDX 8 14 9 15 10 17 11 18 12 20 13 21 14 22 15 23 21 24 22 25
REMARK SMILES IDX 23 26 24 27 25 29 26 30 27 31 85 32 28 33 84 34 29 35 30 36
REMARK SMILES IDX 31 37 78 38 32 39 83 40 77 41 79 42 33 43 82 44 76 45 75 46
REMARK SMILES IDX 34 48 64 49 45 50 63 51 46 52 49 53 62 54 80 55 47 56 48 57
REMARK SMILES IDX 61 59 81 60 50 61 35 62 36 63 44 64 37 65 43 66 38 67 39 68
REMARK SMILES IDX 40 69 41 70 42 71 65 72 66 73 74 74 67 75 73 76 68 77 69 78
REMARK SMILES IDX 70 79 71 80 72 81 51 82 52 83 60 84 53 85 59 86 54 87 55 88
REMARK SMILES IDX 56 89 57 90 58 91
REMARK H PARENT 18 6 9 16 10 19 23 28 79 47 49 58
REMARK Flexibility Score: inf
ROOT
ATOM      1  C   UNL A   1      31.787  26.766  26.533  1.00  0.00     0.023 C 
ENDROOT
BRANCH   1   2
ATOM      2  C   UNL A   1      32.250  25.472  25.870  1.00  0.00     0.116 C 
BRANCH   2   3
ATOM      3  N   UNL A   1      33.665  25.220  26.075  1.00  0.00    -0.356 N 
ATOM      4  C   UNL A   1      34.515  24.258  25.628  1.00  0.00     0.226 C 
ATOM      5  O   UNL A   1      35.670  24.317  26.062  1.00  0.00    -0.274 OA
ATOM      6  H   UNL A   1      34.099  25.882  26.659  1.00  0.00     0.163 HD
BRANCH   4   7
ATOM      7  C   UNL A   1      34.084  23.144  24.640  1.00  0.00     0.057 C 
BRANCH   7   8
ATOM      8  C   UNL A   1      35.345  22.283  24.267  1.00  0.00     0.014 C 
ATOM      9  C   UNL A   1      36.285  22.844  23.201  1.00  0.00     0.005 C 
ENDBRANCH   7   8
BRANCH   7  10
ATOM     10  C   UNL A   1      33.492  23.779  23.344  1.00  0.00     0.014 C 
ATOM     11  C   UNL A   1      32.169  23.188  22.870  1.00  0.00     0.005 C 
ENDBRANCH   7  10
BRANCH   7  12
ATOM     12  C   UNL A   1      33.061  22.205  25.340  1.00  0.00     0.118 C 
BRANCH  12  13
ATOM     13  C   UNL A   1      33.675  21.155  26.259  1.00  0.00     0.239 C 
ATOM     14  O   UNL A   1      34.152  21.462  27.351  1.00  0.00    -0.273 OA
ATOM     15  N   UNL A   1      33.663  19.837  25.880  1.00  0.00    -0.268 N 
ATOM     16  H   UNL A   1      34.050  19.180  26.502  1.00  0.00     0.191 HD
BRANCH  15  17
ATOM     17  N   UNL A   1      33.144  19.362  24.682  1.00  0.00    -0.267 N 
ATOM     18  C   UNL A   1      32.977  18.030  24.392  1.00  0.00     0.241 C 
ATOM     19  H   UNL A   1      32.880  20.020  23.999  1.00  0.00     0.191 HD
ATOM     20  O   UNL A   1      32.708  17.659  23.252  1.00  0.00    -0.273 OA
BRANCH  18  21
ATOM     21  C   UNL A   1      33.100  17.043  25.493  1.00  0.00     0.080 C 
ATOM     22  C   UNL A   1      32.723  15.591  25.298  1.00  0.00     0.014 C 
ATOM     23  C   UNL A   1      34.168  15.974  25.368  1.00  0.00     0.014 C 
ENDBRANCH  18  21
ENDBRANCH  15  17
ENDBRANCH  12  13
ENDBRANCH   7  12
ENDBRANCH   4   7
ENDBRANCH   2   3
ENDBRANCH   1   2
BRANCH   1  24
ATOM     24  C   UNL A   1      32.638  27.995  26.213  1.00  0.00     0.023 C 
BRANCH  24  25
ATOM     25  C   UNL A   1      33.632  28.397  27.295  1.00  0.00     0.116 C 
BRANCH  25  26
ATOM     26  N   UNL A   1      33.578  29.814  27.625  1.00  0.00    -0.352 N 
ATOM     27  C   UNL A   1      34.552  30.611  28.178  1.00  0.00     0.251 C 
ATOM     28  H   UNL A   1      32.725  30.264  27.426  1.00  0.00     0.163 HD
ATOM     29  O   UNL A   1      34.293  31.765  28.502  1.00  0.00    -0.269 OA
BRANCH  27  30
ATOM     30  C   UNL A   1      35.900  30.053  28.409  1.00  0.00     0.039 A 
ATOM     31  C   UNL A   1      36.828  30.078  27.366  1.00  0.00     0.014 A 
ATOM     32  C   UNL A   1      36.258  29.546  29.661  1.00  0.00     0.014 A 
ATOM     33  C   UNL A   1      38.140  29.658  27.600  1.00  0.00     0.010 A 
ATOM     34  C   UNL A   1      37.581  29.198  29.912  1.00  0.00     0.010 A 
ATOM     35  C   UNL A   1      38.536  29.252  28.885  1.00  0.00    -0.014 A 
BRANCH  35  36
ATOM     36  C   UNL A   1      39.946  28.891  29.179  1.00  0.00     0.031 A 
ATOM     37  C   UNL A   1      40.875  29.907  29.784  1.00  0.00     0.074 A 
ATOM     38  C   UNL A   1      40.408  27.673  28.835  1.00  0.00     0.049 A 
ATOM     39  N   UNL A   1      42.151  29.801  30.049  1.00  0.00    -0.248 NA
ATOM     40  C   UNL A   1      40.300  31.223  30.110  1.00  0.00     0.031 C 
ATOM     41  C   UNL A   1      39.619  26.614  28.198  1.00  0.00     0.029 A 
ATOM     42  N   UNL A   1      41.657  27.120  28.965  1.00  0.00    -0.354 N 
ATOM     43  C   UNL A   1      42.535  31.038  30.557  1.00  0.00     0.074 A 
ATOM     44  C   UNL A   1      41.370  31.892  30.514  1.00  0.00     0.031 C 
ATOM     45  C   UNL A   1      40.397  25.536  28.013  1.00  0.00     0.029 A 
ATOM     46  C   UNL A   1      41.747  25.835  28.481  1.00  0.00     0.049 A 
ATOM     47  H   UNL A   1      42.419  27.598  29.366  1.00  0.00     0.167 HD
ATOM     48  C   UNL A   1      43.743  31.421  31.035  1.00  0.00     0.031 A 
ATOM     49  C   UNL A   1      42.798  24.995  28.415  1.00  0.00     0.031 A 
ATOM     50  C   UNL A   1      44.899  30.566  31.084  1.00  0.00     0.049 A 
ATOM     51  C   UNL A   1      44.130  25.442  28.951  1.00  0.00     0.074 A 
ATOM     52  C   UNL A   1      46.155  30.844  31.595  1.00  0.00     0.029 A 
ATOM     53  N   UNL A   1      44.942  29.265  30.605  1.00  0.00    -0.354 N 
ATOM     54  N   UNL A   1      44.456  26.595  29.485  1.00  0.00    -0.248 NA
ATOM     55  C   UNL A   1      45.230  24.471  28.888  1.00  0.00     0.031 C 
ATOM     56  C   UNL A   1      46.970  29.727  31.384  1.00  0.00     0.029 A 
ATOM     57  C   UNL A   1      46.207  28.733  30.792  1.00  0.00     0.049 A 
ATOM     58  H   UNL A   1      44.185  28.790  30.192  1.00  0.00     0.167 HD
ATOM     59  C   UNL A   1      45.795  26.479  29.844  1.00  0.00     0.074 A 
ATOM     60  C   UNL A   1      46.211  25.140  29.481  1.00  0.00     0.031 C 
ATOM     61  C   UNL A   1      46.605  27.399  30.423  1.00  0.00     0.031 A 
BRANCH  48  62
ATOM     62  C   UNL A   1      43.870  32.834  31.541  1.00  0.00    -0.014 A 
ATOM     63  C   UNL A   1      44.391  33.852  30.722  1.00  0.00     0.010 A 
ATOM     64  C   UNL A   1      43.438  33.156  32.840  1.00  0.00     0.010 A 
ATOM     65  C   UNL A   1      44.524  35.155  31.208  1.00  0.00     0.020 A 
ATOM     66  C   UNL A   1      43.543  34.465  33.321  1.00  0.00     0.020 A 
ATOM     67  C   UNL A   1      44.103  35.452  32.508  1.00  0.00     0.054 A 
BRANCH  67  68
ATOM     68  S   UNL A   1      44.276  37.154  33.109  1.00  0.00     0.124 S 
ATOM     69  O   UNL A   1      45.677  37.185  33.524  1.00  0.00    -0.237 OA
ATOM     70  O   UNL A   1      43.955  37.947  31.926  1.00  0.00    -0.237 OA
ATOM     71  O   UNL A   1      43.303  37.238  34.196  1.00  0.00    -0.744 OA
ENDBRANCH  67  68
ENDBRANCH  48  62
BRANCH  49  72
ATOM     72  C   UNL A   1      42.624  23.637  27.831  1.00  0.00    -0.014 A 
ATOM     73  C   UNL A   1      42.939  23.393  26.482  1.00  0.00     0.010 A 
ATOM     74  C   UNL A   1      42.159  22.574  28.628  1.00  0.00     0.010 A 
ATOM     75  C   UNL A   1      42.777  22.117  25.936  1.00  0.00     0.020 A 
ATOM     76  C   UNL A   1      42.022  21.289  28.091  1.00  0.00     0.020 A 
ATOM     77  C   UNL A   1      42.322  21.072  26.746  1.00  0.00     0.054 A 
BRANCH  77  78
ATOM     78  S   UNL A   1      42.176  19.410  26.031  1.00  0.00     0.124 S 
ATOM     79  O   UNL A   1      42.679  18.570  27.112  1.00  0.00    -0.237 OA
ATOM     80  O   UNL A   1      40.744  19.306  25.761  1.00  0.00    -0.237 OA
ATOM     81  O   UNL A   1      43.022  19.475  24.841  1.00  0.00    -0.744 OA
ENDBRANCH  77  78
ENDBRANCH  49  72
BRANCH  61  82
ATOM     82  C   UNL A   1      48.018  26.980  30.732  1.00  0.00    -0.014 A 
ATOM     83  C   UNL A   1      49.084  27.331  29.884  1.00  0.00     0.010 A 
ATOM     84  C   UNL A   1      48.288  26.274  31.919  1.00  0.00     0.010 A 
ATOM     85  C   UNL A   1      50.392  26.957  30.204  1.00  0.00     0.020 A 
ATOM     86  C   UNL A   1      49.598  25.921  32.255  1.00  0.00     0.020 A 
ATOM     87  C   UNL A   1      50.640  26.254  31.388  1.00  0.00     0.054 A 
BRANCH  87  88
ATOM     88  S   UNL A   1      52.351  25.819  31.803  1.00  0.00     0.124 S 
ATOM     89  O   UNL A   1      53.020  25.947  30.513  1.00  0.00    -0.237 OA
ATOM     90  O   UNL A   1      52.707  26.829  32.798  1.00  0.00    -0.237 OA
ATOM     91  O   UNL A   1      52.247  24.457  32.320  1.00  0.00    -0.744 OA
ENDBRANCH  87  88
ENDBRANCH  61  82
ENDBRANCH  35  36
ENDBRANCH  27  30
ENDBRANCH  25  26
ENDBRANCH  24  25
ENDBRANCH   1  24
TORSDOF 20
ENDMDL
MODEL 2
REMARK VINA RESULT:      -9.9      3.321      9.857
REMARK SMILES CCC(CC)(CC(=O)NNC(=O)C1CC1)C(=O)NCCCCNC(=O)c1ccc(-c2c3nc(c(-c4ccc(S(=O)(=O)[O-])cc4)c4ccc([nH]4)c(-c4ccc(S(=O)(=O)[O-])cc4)c4nc(c(-c5ccc(S(=O)(=O)[O-])cc5)c5ccc2[nH]5)C=C4)C=C3)cc1
REMARK SMILES IDX 20 1 19 2 18 3 16 4 17 5 3 7 2 8 1 9 4 10 5 11 6 12 7 13
REMARK SMILES IDX 8 14 9 15 10 17 11 18 12 20 13 21 14 22 15 23 21 24 22 25
REMARK SMILES IDX 23 26 24 27 25 29 26 30 27 31 85 32 28 33 84 34 29 35 30 36
REMARK SMILES IDX 31 37 78 38 32 39 83 40 77 41 79 42 33 43 82 44 76 45 75 46
REMARK SMILES IDX 34 48 64 49 45 50 63 51 46 52 49 53 62 54 80 55 47 56 48 57
REMARK SMILES IDX 61 59 81 60 50 61 35 62 36 63 44 64 37 65 43 66 38 67 39 68
REMARK SMILES IDX 40 69 41 70 42 71 65 72 66 73 74 74 67 75 73 76 68 77 69 78
REMARK SMILES IDX 70 79 71 80 72 81 51 82 52 83 60 84 53 85 59 86 54 87 55 88
REMARK SMILES IDX 56 89 57 90 58 91
REMARK H PARENT 18 6 9 16 10 19 23 28 79 47 49 58
REMARK Flexibility Score: inf
ROOT
ATOM      1  C   UNL A   1      35.094  23.488  23.240  1.00  0.00     0.023 C 
ENDROOT
BRANCH   1   2
ATOM      2  C   UNL A   1      33.651  23.142  22.886  1.00  0.00     0.116 C 
BRANCH   2   3
ATOM      3  N   UNL A   1      32.981  24.216  22.175  1.00  0.00    -0.356 N 
ATOM      4  C   UNL A   1      32.177  25.238  22.572  1.00  0.00     0.226 C 
ATOM      5  O   UNL A   1      31.723  25.947  21.669  1.00  0.00    -0.274 OA
ATOM      6  H   UNL A   1      33.143  24.202  21.205  1.00  0.00     0.163 HD
BRANCH   4   7
ATOM      7  C   UNL A   1      31.833  25.512  24.058  1.00  0.00     0.057 C 
BRANCH   7   8
ATOM      8  C   UNL A   1      33.087  26.151  24.759  1.00  0.00     0.014 C 
ATOM      9  C   UNL A   1      34.009  27.008  23.896  1.00  0.00     0.005 C 
ENDBRANCH   7   8
BRANCH   7  10
ATOM     10  C   UNL A   1      31.466  24.176  24.778  1.00  0.00     0.014 C 
ATOM     11  C   UNL A   1      30.729  24.328  26.104  1.00  0.00     0.005 C 
ENDBRANCH   7  10
BRANCH   7  12
ATOM     12  C   UNL A   1      30.672  26.544  24.135  1.00  0.00     0.118 C 
BRANCH  12  13
ATOM     13  C   UNL A   1      30.977  27.796  24.948  1.00  0.00     0.239 C 
ATOM     14  O   UNL A   1      31.203  27.735  26.156  1.00  0.00    -0.273 OA
ATOM     15  N   UNL A   1      31.040  29.012  24.316  1.00  0.00    -0.268 N 
ATOM     16  H   UNL A   1      31.258  29.800  24.863  1.00  0.00     0.191 HD
BRANCH  15  17
ATOM     17  N   UNL A   1      30.820  29.212  22.958  1.00  0.00    -0.267 N 
ATOM     18  C   UNL A   1      29.819  30.003  22.451  1.00  0.00     0.241 C 
ATOM     19  H   UNL A   1      31.418  28.758  22.321  1.00  0.00     0.191 HD
ATOM     20  O   UNL A   1      29.542  29.984  21.253  1.00  0.00    -0.273 OA
BRANCH  18  21
ATOM     21  C   UNL A   1      29.093  30.908  23.374  1.00  0.00     0.080 C 
ATOM     22  C   UNL A   1      28.142  31.967  22.860  1.00  0.00     0.014 C 
ATOM     23  C   UNL A   1      27.592  30.732  23.503  1.00  0.00     0.014 C 
ENDBRANCH  18  21
ENDBRANCH  15  17
ENDBRANCH  12  13
ENDBRANCH   7  12
ENDBRANCH   4   7
ENDBRANCH   2   3
ENDBRANCH   1   2
BRANCH   1  24
ATOM     24  C   UNL A   1      35.540  23.048  24.634  1.00  0.00     0.023 C 
BRANCH  24  25
ATOM     25  C   UNL A   1      36.821  23.698  25.142  1.00  0.00     0.116 C 
BRANCH  25  26
ATOM     26  N   UNL A   1      37.882  22.738  25.411  1.00  0.00    -0.352 N 
ATOM     27  C   UNL A   1      39.061  22.921  26.094  1.00  0.00     0.251 C 
ATOM     28  H   UNL A   1      37.736  21.832  25.053  1.00  0.00     0.163 HD
ATOM     29  O   UNL A   1      39.902  22.028  26.122  1.00  0.00    -0.269 OA
BRANCH  27  30
ATOM     30  C   UNL A   1      39.319  24.213  26.762  1.00  0.00     0.039 A 
ATOM     31  C   UNL A   1      38.825  24.416  28.052  1.00  0.00     0.014 A 
ATOM     32  C   UNL A   1      40.078  25.203  26.133  1.00  0.00     0.014 A 
ATOM     33  C   UNL A   1      39.154  25.586  28.741  1.00  0.00     0.010 A 
ATOM     34  C   UNL A   1      40.465  26.333  26.846  1.00  0.00     0.010 A 
ATOM     35  C   UNL A   1      40.009  26.535  28.157  1.00  0.00    -0.014 A 
BRANCH  35  36
ATOM     36  C   UNL A   1      40.447  27.741  28.905  1.00  0.00     0.031 A 
ATOM     37  C   UNL A   1      41.779  27.754  29.603  1.00  0.00     0.074 A 
ATOM     38  C   UNL A   1      39.615  28.796  29.016  1.00  0.00     0.049 A 
ATOM     39  N   UNL A   1      42.304  28.683  30.358  1.00  0.00    -0.248 NA
ATOM     40  C   UNL A   1      42.620  26.555  29.453  1.00  0.00     0.031 C 
ATOM     41  C   UNL A   1      38.277  28.887  28.426  1.00  0.00     0.029 A 
ATOM     42  N   UNL A   1      39.769  29.991  29.672  1.00  0.00    -0.354 N 
ATOM     43  C   UNL A   1      43.526  28.176  30.786  1.00  0.00     0.074 A 
ATOM     44  C   UNL A   1      43.641  26.839  30.248  1.00  0.00     0.031 C 
ATOM     45  C   UNL A   1      37.743  30.081  28.729  1.00  0.00     0.029 A 
ATOM     46  C   UNL A   1      38.680  30.825  29.564  1.00  0.00     0.049 A 
ATOM     47  H   UNL A   1      40.582  30.230  30.174  1.00  0.00     0.167 HD
ATOM     48  C   UNL A   1      44.477  28.777  31.541  1.00  0.00     0.031 A 
ATOM     49  C   UNL A   1      38.457  32.048  30.085  1.00  0.00     0.031 A 
ATOM     50  C   UNL A   1      44.365  30.111  32.067  1.00  0.00     0.049 A 
ATOM     51  C   UNL A   1      39.527  32.695  30.920  1.00  0.00     0.074 A 
ATOM     52  C   UNL A   1      45.294  30.828  32.801  1.00  0.00     0.029 A 
ATOM     53  N   UNL A   1      43.256  30.930  31.917  1.00  0.00    -0.354 N 
ATOM     54  N   UNL A   1      40.703  32.224  31.261  1.00  0.00    -0.248 NA
ATOM     55  C   UNL A   1      39.246  34.044  31.429  1.00  0.00     0.031 C 
ATOM     56  C   UNL A   1      44.729  32.064  33.132  1.00  0.00     0.029 A 
ATOM     57  C   UNL A   1      43.470  32.139  32.558  1.00  0.00     0.049 A 
ATOM     58  H   UNL A   1      42.437  30.689  31.426  1.00  0.00     0.167 HD
ATOM     59  C   UNL A   1      41.312  33.229  32.005  1.00  0.00     0.074 A 
ATOM     60  C   UNL A   1      40.381  34.338  32.050  1.00  0.00     0.031 C 
ATOM     61  C   UNL A   1      42.532  33.232  32.596  1.00  0.00     0.031 A 
BRANCH  48  62
ATOM     62  C   UNL A   1      45.724  27.987  31.841  1.00  0.00    -0.014 A 
ATOM     63  C   UNL A   1      45.818  27.197  33.001  1.00  0.00     0.010 A 
ATOM     64  C   UNL A   1      46.804  28.009  30.940  1.00  0.00     0.010 A 
ATOM     65  C   UNL A   1      46.987  26.484  33.281  1.00  0.00     0.020 A 
ATOM     66  C   UNL A   1      47.965  27.275  31.202  1.00  0.00     0.020 A 
ATOM     67  C   UNL A   1      48.055  26.532  32.381  1.00  0.00     0.054 A 
BRANCH  67  68
ATOM     68  S   UNL A   1      49.555  25.588  32.763  1.00  0.00     0.124 S 
ATOM     69  O   UNL A   1      50.348  26.569  33.500  1.00  0.00    -0.237 OA
ATOM     70  O   UNL A   1      49.041  24.474  33.556  1.00  0.00    -0.237 OA
ATOM     71  O   UNL A   1      50.080  25.223  31.449  1.00  0.00    -0.744 OA
ENDBRANCH  67  68
ENDBRANCH  48  62
BRANCH  49  72
ATOM     72  C   UNL A   1      37.171  32.744  29.813  1.00  0.00    -0.014 A 
ATOM     73  C   UNL A   1      36.102  32.651  30.723  1.00  0.00     0.010 A 
ATOM     74  C   UNL A   1      37.013  33.522  28.651  1.00  0.00     0.010 A 
ATOM     75  C   UNL A   1      34.895  33.308  30.468  1.00  0.00     0.020 A 
ATOM     76  C   UNL A   1      35.816  34.203  28.406  1.00  0.00     0.020 A 
ATOM     77  C   UNL A   1      34.761  34.082  29.311  1.00  0.00     0.054 A 
BRANCH  77  78
ATOM     78  S   UNL A   1      33.205  34.974  29.030  1.00  0.00     0.124 S 
ATOM     79  O   UNL A   1      32.601  34.953  30.358  1.00  0.00    -0.237 OA
ATOM     80  O   UNL A   1      33.668  36.279  28.565  1.00  0.00    -0.237 OA
ATOM     81  O   UNL A   1      32.526  34.165  28.019  1.00  0.00    -0.744 OA
ENDBRANCH  77  78
ENDBRANCH  49  72
BRANCH  61  82
ATOM     82  C   UNL A   1      42.949  34.486  33.317  1.00  0.00    -0.014 A 
ATOM     83  C   UNL A   1      42.739  34.636  34.700  1.00  0.00     0.010 A 
ATOM     84  C   UNL A   1      43.610  35.507  32.608  1.00  0.00     0.010 A 
ATOM     85  C   UNL A   1      43.159  35.796  35.355  1.00  0.00     0.020 A 
ATOM     86  C   UNL A   1      44.054  36.657  33.266  1.00  0.00     0.020 A 
ATOM     87  C   UNL A   1      43.814  36.799  34.634  1.00  0.00     0.054 A 
BRANCH  87  88
ATOM     88  S   UNL A   1      44.390  38.276  35.515  1.00  0.00     0.124 S 
ATOM     89  O   UNL A   1      43.773  39.351  34.744  1.00  0.00    -0.237 OA
ATOM     90  O   UNL A   1      43.852  38.078  36.859  1.00  0.00    -0.237 OA
ATOM     91  O   UNL A   1      45.845  38.193  35.417  1.00  0.00    -0.744 OA
ENDBRANCH  87  88
ENDBRANCH  61  82
ENDBRANCH  35  36
ENDBRANCH  27  30
ENDBRANCH  25  26
ENDBRANCH  24  25
ENDBRANCH   1  24
TORSDOF 20
ENDMDL
MODEL 3
REMARK VINA RESULT:      -9.8      2.908      8.478
REMARK SMILES CCC(CC)(CC(=O)NNC(=O)C1CC1)C(=O)NCCCCNC(=O)c1ccc(-c2c3nc(c(-c4ccc(S(=O)(=O)[O-])cc4)c4ccc([nH]4)c(-c4ccc(S(=O)(=O)[O-])cc4)c4nc(c(-c5ccc(S(=O)(=O)[O-])cc5)c5ccc2[nH]5)C=C4)C=C3)cc1
REMARK SMILES IDX 20 1 19 2 18 3 16 4 17 5 3 7 2 8 1 9 4 10 5 11 6 12 7 13
REMARK SMILES IDX 8 14 9 15 10 17 11 18 12 20 13 21 14 22 15 23 21 24 22 25
REMARK SMILES IDX 23 26 24 27 25 29 26 30 27 31 85 32 28 33 84 34 29 35 30 36
REMARK SMILES IDX 31 37 78 38 32 39 83 40 77 41 79 42 33 43 82 44 76 45 75 46
REMARK SMILES IDX 34 48 64 49 45 50 63 51 46 52 49 53 62 54 80 55 47 56 48 57
REMARK SMILES IDX 61 59 81 60 50 61 35 62 36 63 44 64 37 65 43 66 38 67 39 68
REMARK SMILES IDX 40 69 41 70 42 71 65 72 66 73 74 74 67 75 73 76 68 77 69 78
REMARK SMILES IDX 70 79 71 80 72 81 51 82 52 83 60 84 53 85 59 86 54 87 55 88
REMARK SMILES IDX 56 89 57 90 58 91
REMARK H PARENT 18 6 9 16 10 19 23 28 79 47 49 58
REMARK Flexibility Score: inf
ROOT
ATOM      1  C   UNL A   1      32.073  27.365  25.491  1.00  0.00     0.023 C 
ENDROOT
BRANCH   1   2
ATOM      2  C   UNL A   1      32.534  25.912  25.558  1.00  0.00     0.116 C 
BRANCH   2   3
ATOM      3  N   UNL A   1      33.304  25.520  24.391  1.00  0.00    -0.356 N 
ATOM      4  C   UNL A   1      33.562  24.322  23.803  1.00  0.00     0.226 C 
ATOM      5  O   UNL A   1      34.327  24.352  22.834  1.00  0.00    -0.274 OA
ATOM      6  H   UNL A   1      33.730  26.280  23.932  1.00  0.00     0.163 HD
BRANCH   4   7
ATOM      7  C   UNL A   1      32.948  22.989  24.300  1.00  0.00     0.057 C 
BRANCH   7   8
ATOM      8  C   UNL A   1      33.226  21.872  23.229  1.00  0.00     0.014 C 
ATOM      9  C   UNL A   1      32.031  21.351  22.435  1.00  0.00     0.005 C 
ENDBRANCH   7   8
BRANCH   7  10
ATOM     10  C   UNL A   1      31.406  23.148  24.488  1.00  0.00     0.014 C 
ATOM     11  C   UNL A   1      30.847  22.597  25.795  1.00  0.00     0.005 C 
ENDBRANCH   7  10
BRANCH   7  12
ATOM     12  C   UNL A   1      33.648  22.562  25.621  1.00  0.00     0.118 C 
BRANCH  12  13
ATOM     13  C   UNL A   1      34.874  21.674  25.441  1.00  0.00     0.239 C 
ATOM     14  O   UNL A   1      35.980  22.153  25.196  1.00  0.00    -0.273 OA
ATOM     15  N   UNL A   1      34.750  20.316  25.592  1.00  0.00    -0.268 N 
ATOM     16  H   UNL A   1      35.562  19.770  25.489  1.00  0.00     0.191 HD
BRANCH  15  17
ATOM     17  N   UNL A   1      33.562  19.656  25.882  1.00  0.00    -0.267 N 
ATOM     18  C   UNL A   1      33.116  18.545  25.207  1.00  0.00     0.241 C 
ATOM     19  H   UNL A   1      33.006  20.004  26.615  1.00  0.00     0.191 HD
ATOM     20  O   UNL A   1      31.973  18.126  25.366  1.00  0.00    -0.273 OA
BRANCH  18  21
ATOM     21  C   UNL A   1      34.056  17.842  24.300  1.00  0.00     0.080 C 
ATOM     22  C   UNL A   1      33.832  16.402  23.893  1.00  0.00     0.014 C 
ATOM     23  C   UNL A   1      33.567  17.496  22.906  1.00  0.00     0.014 C 
ENDBRANCH  18  21
ENDBRANCH  15  17
ENDBRANCH  12  13
ENDBRANCH   7  12
ENDBRANCH   4   7
ENDBRANCH   2   3
ENDBRANCH   1   2
BRANCH   1  24
ATOM     24  C   UNL A   1      33.138  28.360  25.033  1.00  0.00     0.023 C 
BRANCH  24  25
ATOM     25  C   UNL A   1      34.046  28.893  26.134  1.00  0.00     0.116 C 
BRANCH  25  26
ATOM     26  N   UNL A   1      33.666  30.220  26.597  1.00  0.00    -0.352 N 
ATOM     27  C   UNL A   1      34.285  31.021  27.528  1.00  0.00     0.251 C 
ATOM     28  H   UNL A   1      32.853  30.596  26.189  1.00  0.00     0.163 HD
ATOM     29  O   UNL A   1      33.757  32.068  27.887  1.00  0.00    -0.269 OA
BRANCH  27  30
ATOM     30  C   UNL A   1      35.571  30.592  28.113  1.00  0.00     0.039 A 
ATOM     31  C   UNL A   1      36.744  31.235  27.711  1.00  0.00     0.014 A 
ATOM     32  C   UNL A   1      35.614  29.587  29.084  1.00  0.00     0.014 A 
ATOM     33  C   UNL A   1      37.953  30.919  28.335  1.00  0.00     0.010 A 
ATOM     34  C   UNL A   1      36.805  29.327  29.755  1.00  0.00     0.010 A 
ATOM     35  C   UNL A   1      37.985  29.991  29.389  1.00  0.00    -0.014 A 
BRANCH  35  36
ATOM     36  C   UNL A   1      39.241  29.709  30.129  1.00  0.00     0.031 A 
ATOM     37  C   UNL A   1      40.157  28.609  29.668  1.00  0.00     0.074 A 
ATOM     38  C   UNL A   1      39.521  30.394  31.255  1.00  0.00     0.049 A 
ATOM     39  N   UNL A   1      41.259  28.170  30.218  1.00  0.00    -0.248 NA
ATOM     40  C   UNL A   1      39.770  27.891  28.442  1.00  0.00     0.031 C 
ATOM     41  C   UNL A   1      38.689  31.453  31.833  1.00  0.00     0.029 A 
ATOM     42  N   UNL A   1      40.580  30.297  32.122  1.00  0.00    -0.354 N 
ATOM     43  C   UNL A   1      41.688  27.116  29.418  1.00  0.00     0.074 A 
ATOM     44  C   UNL A   1      40.701  26.951  28.374  1.00  0.00     0.031 C 
ATOM     45  C   UNL A   1      39.280  31.920  32.945  1.00  0.00     0.029 A 
ATOM     46  C   UNL A   1      40.511  31.172  33.181  1.00  0.00     0.049 A 
ATOM     47  H   UNL A   1      41.322  29.660  31.998  1.00  0.00     0.167 HD
ATOM     48  C   UNL A   1      42.812  26.369  29.528  1.00  0.00     0.031 A 
ATOM     49  C   UNL A   1      41.340  31.348  34.229  1.00  0.00     0.031 A 
ATOM     50  C   UNL A   1      43.797  26.542  30.562  1.00  0.00     0.049 A 
ATOM     51  C   UNL A   1      42.582  30.506  34.331  1.00  0.00     0.074 A 
ATOM     52  C   UNL A   1      44.994  25.869  30.732  1.00  0.00     0.029 A 
ATOM     53  N   UNL A   1      43.700  27.454  31.602  1.00  0.00    -0.354 N 
ATOM     54  N   UNL A   1      43.001  29.558  33.528  1.00  0.00    -0.248 NA
ATOM     55  C   UNL A   1      43.468  30.768  35.472  1.00  0.00     0.031 C 
ATOM     56  C   UNL A   1      45.600  26.343  31.900  1.00  0.00     0.029 A 
ATOM     57  C   UNL A   1      44.807  27.350  32.428  1.00  0.00     0.049 A 
ATOM     58  H   UNL A   1      42.954  28.084  31.735  1.00  0.00     0.167 HD
ATOM     59  C   UNL A   1      44.214  29.125  34.054  1.00  0.00     0.074 A 
ATOM     60  C   UNL A   1      44.466  29.927  35.234  1.00  0.00     0.031 C 
ATOM     61  C   UNL A   1      45.042  28.154  33.600  1.00  0.00     0.031 A 
BRANCH  48  62
ATOM     62  C   UNL A   1      43.030  25.292  28.498  1.00  0.00    -0.014 A 
ATOM     63  C   UNL A   1      42.467  24.013  28.658  1.00  0.00     0.010 A 
ATOM     64  C   UNL A   1      43.783  25.567  27.342  1.00  0.00     0.010 A 
ATOM     65  C   UNL A   1      42.693  23.015  27.707  1.00  0.00     0.020 A 
ATOM     66  C   UNL A   1      43.988  24.580  26.374  1.00  0.00     0.020 A 
ATOM     67  C   UNL A   1      43.457  23.304  26.573  1.00  0.00     0.054 A 
BRANCH  67  68
ATOM     68  S   UNL A   1      43.724  21.992  25.349  1.00  0.00     0.124 S 
ATOM     69  O   UNL A   1      42.643  21.061  25.666  1.00  0.00    -0.237 OA
ATOM     70  O   UNL A   1      43.587  22.703  24.081  1.00  0.00    -0.237 OA
ATOM     71  O   UNL A   1      45.070  21.509  25.647  1.00  0.00    -0.744 OA
ENDBRANCH  67  68
ENDBRANCH  48  62
BRANCH  49  72
ATOM     72  C   UNL A   1      41.026  32.379  35.255  1.00  0.00    -0.014 A 
ATOM     73  C   UNL A   1      40.349  32.028  36.437  1.00  0.00     0.010 A 
ATOM     74  C   UNL A   1      41.420  33.717  35.064  1.00  0.00     0.010 A 
ATOM     75  C   UNL A   1      40.058  32.997  37.401  1.00  0.00     0.020 A 
ATOM     76  C   UNL A   1      41.154  34.683  36.040  1.00  0.00     0.020 A 
ATOM     77  C   UNL A   1      40.464  34.319  37.197  1.00  0.00     0.054 A 
BRANCH  77  78
ATOM     78  S   UNL A   1      40.127  35.548  38.489  1.00  0.00     0.124 S 
ATOM     79  O   UNL A   1      41.322  35.449  39.320  1.00  0.00    -0.237 OA
ATOM     80  O   UNL A   1      39.989  36.783  37.723  1.00  0.00    -0.237 OA
ATOM     81  O   UNL A   1      38.893  35.065  39.105  1.00  0.00    -0.744 OA
ENDBRANCH  77  78
ENDBRANCH  49  72
BRANCH  61  82
ATOM     82  C   UNL A   1      46.320  27.921  34.362  1.00  0.00    -0.014 A 
ATOM     83  C   UNL A   1      47.501  28.611  34.033  1.00  0.00     0.010 A 
ATOM     84  C   UNL A   1      46.322  27.040  35.459  1.00  0.00     0.010 A 
ATOM     85  C   UNL A   1      48.669  28.401  34.771  1.00  0.00     0.020 A 
ATOM     86  C   UNL A   1      47.481  26.849  36.216  1.00  0.00     0.020 A 
ATOM     87  C   UNL A   1      48.651  27.522  35.858  1.00  0.00     0.054 A 
BRANCH  87  88
ATOM     88  S   UNL A   1      50.168  27.301  36.828  1.00  0.00     0.124 S 
ATOM     89  O   UNL A   1      51.200  27.361  35.798  1.00  0.00    -0.237 OA
ATOM     90  O   UNL A   1      50.130  28.436  37.747  1.00  0.00    -0.237 OA
ATOM     91  O   UNL A   1      49.990  25.994  37.457  1.00  0.00    -0.744 OA
ENDBRANCH  87  88
ENDBRANCH  61  82
ENDBRANCH  35  36
ENDBRANCH  27  30
ENDBRANCH  25  26
ENDBRANCH  24  25
ENDBRANCH   1  24
TORSDOF 20
ENDMDL
