MODEL 1
REMARK VINA RESULT:     -12.8      0.000      0.000
REMARK SMILES C[C@H](NC(=O)c1cccc(NC(=O)c2ccccc2C(=O)NCCCCNC(=O)c2ccc(-c3c4nc(c(-c5ccc(S(=O)(=O)[O-])cc5)c5ccc([nH]5)c(-c5ccc(S(=O)(=O)[O-])cc5)c5nc(c(-c6ccc(S(=O)(=O)[O-])cc6)c6ccc3[nH]6)C=C5)C=C4)cc2)c1)c1ccccc1
REMARK SMILES IDX 23 1 22 2 20 3 21 4 19 6 14 7 15 8 16 9 18 10 17 11 12 12
REMARK SMILES IDX 11 13 13 15 10 16 6 17 7 18 90 19 8 20 9 21 4 22 3 23 5 25
REMARK SMILES IDX 2 26 1 27 91 28 92 29 96 30 93 31 95 32 94 33 24 34 25 35
REMARK SMILES IDX 26 36 27 37 28 38 29 40 30 41 31 42 89 43 32 44 88 45 33 46
REMARK SMILES IDX 34 47 35 48 82 49 36 50 87 51 81 52 83 53 37 54 86 55 80 56
REMARK SMILES IDX 79 57 38 59 68 60 49 61 67 62 50 63 53 64 66 65 84 66 51 67
REMARK SMILES IDX 52 68 65 70 85 71 54 72 39 73 40 74 48 75 41 76 47 77 42 78
REMARK SMILES IDX 43 79 44 80 45 81 46 82 69 83 70 84 78 85 71 86 77 87 72 88
REMARK SMILES IDX 73 89 74 90 75 91 76 92 55 93 56 94 64 95 57 96 63 97 58 98
REMARK SMILES IDX 59 99 60 100 61 101 62 102
REMARK H PARENT 22 5 11 14 3 24 27 39 83 58 53 69
REMARK Flexibility Score: inf
ROOT
ATOM      1  C   UNL A   1      32.450  30.417  26.267  1.00  0.00     0.116 C 
ENDROOT
BRANCH   1   2
ATOM      2  N   UNL A   1      33.360  29.598  25.494  1.00  0.00    -0.352 N 
ATOM      3  C   UNL A   1      33.117  28.574  24.616  1.00  0.00     0.252 C 
ATOM      4  O   UNL A   1      34.086  28.018  24.099  1.00  0.00    -0.269 OA
ATOM      5  H   UNL A   1      34.313  29.812  25.619  1.00  0.00     0.163 HD
BRANCH   3   6
ATOM      6  C   UNL A   1      31.761  28.042  24.320  1.00  0.00     0.052 A 
ATOM      7  C   UNL A   1      30.976  27.221  25.142  1.00  0.00     0.052 A 
ATOM      8  C   UNL A   1      29.716  26.777  24.688  1.00  0.00     0.014 A 
ATOM      9  C   UNL A   1      29.193  27.218  23.475  1.00  0.00     0.001 A 
ATOM     10  C   UNL A   1      31.197  28.507  23.111  1.00  0.00     0.014 A 
ATOM     11  C   UNL A   1      29.924  28.106  22.696  1.00  0.00     0.001 A 
BRANCH   7  12
ATOM     12  C   UNL A   1      31.339  26.751  26.491  1.00  0.00     0.256 C 
ATOM     13  N   UNL A   1      31.590  25.433  26.794  1.00  0.00    -0.322 N 
ATOM     14  H   UNL A   1      31.662  25.254  27.760  1.00  0.00     0.170 HD
ATOM     15  O   UNL A   1      31.358  27.588  27.395  1.00  0.00    -0.269 OA
BRANCH  13  16
ATOM     16  C   UNL A   1      31.764  24.298  25.990  1.00  0.00     0.042 A 
ATOM     17  C   UNL A   1      33.164  23.129  24.406  1.00  0.00     0.041 A 
ATOM     18  C   UNL A   1      32.292  22.035  24.435  1.00  0.00     0.014 A 
ATOM     19  C   UNL A   1      32.892  24.273  25.157  1.00  0.00     0.040 A 
ATOM     20  C   UNL A   1      31.145  22.083  25.218  1.00  0.00     0.003 A 
ATOM     21  C   UNL A   1      30.875  23.218  25.981  1.00  0.00     0.026 A 
BRANCH  17  22
ATOM     22  C   UNL A   1      34.325  23.019  23.512  1.00  0.00     0.251 C 
ATOM     23  N   UNL A   1      35.426  22.280  23.837  1.00  0.00    -0.346 N 
ATOM     24  H   UNL A   1      36.054  22.168  23.088  1.00  0.00     0.164 HD
ATOM     25  O   UNL A   1      34.244  23.534  22.399  1.00  0.00    -0.269 OA
BRANCH  23  26
ATOM     26  C   UNL A   1      35.872  21.613  25.070  1.00  0.00     0.109 C 
ATOM     27  C   UNL A   1      35.993  20.097  24.853  1.00  0.00     0.036 C 
BRANCH  26  28
ATOM     28  C   UNL A   1      37.168  22.244  25.621  1.00  0.00    -0.026 A 
ATOM     29  C   UNL A   1      37.222  23.598  26.005  1.00  0.00     0.006 A 
ATOM     30  C   UNL A   1      38.376  21.517  25.706  1.00  0.00     0.006 A 
ATOM     31  C   UNL A   1      38.394  24.175  26.514  1.00  0.00     0.000 A 
ATOM     32  C   UNL A   1      39.544  22.089  26.230  1.00  0.00     0.000 A 
ATOM     33  C   UNL A   1      39.551  23.417  26.639  1.00  0.00     0.000 A 
ENDBRANCH  26  28
ENDBRANCH  23  26
ENDBRANCH  17  22
ENDBRANCH  13  16
ENDBRANCH   7  12
ENDBRANCH   3   6
ENDBRANCH   1   2
BRANCH   1  34
ATOM     34  C   UNL A   1      33.091  31.070  27.488  1.00  0.00     0.023 C 
BRANCH  34  35
ATOM     35  C   UNL A   1      34.621  31.160  27.480  1.00  0.00     0.023 C 
BRANCH  35  36
ATOM     36  C   UNL A   1      35.375  30.198  28.396  1.00  0.00     0.116 C 
BRANCH  36  37
ATOM     37  N   UNL A   1      35.589  30.698  29.744  1.00  0.00    -0.352 N 
ATOM     38  C   UNL A   1      36.697  30.618  30.561  1.00  0.00     0.251 C 
ATOM     39  H   UNL A   1      34.818  31.167  30.137  1.00  0.00     0.163 HD
ATOM     40  O   UNL A   1      36.640  31.054  31.703  1.00  0.00    -0.269 OA
BRANCH  38  41
ATOM     41  C   UNL A   1      37.938  29.967  30.082  1.00  0.00     0.039 A 
ATOM     42  C   UNL A   1      38.238  30.020  28.718  1.00  0.00     0.014 A 
ATOM     43  C   UNL A   1      38.811  29.326  30.961  1.00  0.00     0.014 A 
ATOM     44  C   UNL A   1      39.466  29.532  28.254  1.00  0.00     0.010 A 
ATOM     45  C   UNL A   1      40.061  28.909  30.509  1.00  0.00     0.010 A 
ATOM     46  C   UNL A   1      40.415  29.027  29.157  1.00  0.00    -0.014 A 
BRANCH  46  47
ATOM     47  C   UNL A   1      41.791  28.667  28.719  1.00  0.00     0.031 A 
ATOM     48  C   UNL A   1      42.870  29.713  28.630  1.00  0.00     0.074 A 
ATOM     49  C   UNL A   1      42.053  27.404  28.323  1.00  0.00     0.049 A 
ATOM     50  N   UNL A   1      44.105  29.588  28.215  1.00  0.00    -0.248 NA
ATOM     51  C   UNL A   1      42.509  31.078  29.042  1.00  0.00     0.031 C 
ATOM     52  C   UNL A   1      41.087  26.302  28.306  1.00  0.00     0.029 A 
ATOM     53  N   UNL A   1      43.211  26.832  27.855  1.00  0.00    -0.354 N 
ATOM     54  C   UNL A   1      44.665  30.859  28.301  1.00  0.00     0.074 A 
ATOM     55  C   UNL A   1      43.619  31.747  28.762  1.00  0.00     0.031 C 
ATOM     56  C   UNL A   1      41.698  25.185  27.883  1.00  0.00     0.029 A 
ATOM     57  C   UNL A   1      43.087  25.494  27.559  1.00  0.00     0.049 A 
ATOM     58  H   UNL A   1      44.051  27.333  27.740  1.00  0.00     0.167 HD
ATOM     59  C   UNL A   1      45.936  31.248  28.043  1.00  0.00     0.031 A 
ATOM     60  C   UNL A   1      43.985  24.611  27.079  1.00  0.00     0.031 A 
ATOM     61  C   UNL A   1      46.982  30.364  27.599  1.00  0.00     0.049 A 
ATOM     62  C   UNL A   1      45.390  25.068  26.797  1.00  0.00     0.074 A 
ATOM     63  C   UNL A   1      48.314  30.659  27.362  1.00  0.00     0.029 A 
ATOM     64  N   UNL A   1      46.817  29.015  27.327  1.00  0.00    -0.354 N 
ATOM     65  N   UNL A   1      45.911  26.261  26.943  1.00  0.00    -0.248 NA
ATOM     66  C   UNL A   1      46.329  24.055  26.294  1.00  0.00     0.031 C 
ATOM     67  C   UNL A   1      48.944  29.498  26.903  1.00  0.00     0.029 A 
ATOM     68  C   UNL A   1      48.018  28.469  26.903  1.00  0.00     0.049 A 
ATOM     69  H   UNL A   1      45.973  28.520  27.421  1.00  0.00     0.167 HD
ATOM     70  C   UNL A   1      47.247  26.138  26.574  1.00  0.00     0.074 A 
ATOM     71  C   UNL A   1      47.454  24.751  26.211  1.00  0.00     0.031 C 
ATOM     72  C   UNL A   1      48.213  27.087  26.541  1.00  0.00     0.031 A 
BRANCH  59  73
ATOM     73  C   UNL A   1      46.267  32.705  28.235  1.00  0.00    -0.014 A 
ATOM     74  C   UNL A   1      46.243  33.603  27.152  1.00  0.00     0.010 A 
ATOM     75  C   UNL A   1      46.573  33.190  29.520  1.00  0.00     0.010 A 
ATOM     76  C   UNL A   1      46.562  34.949  27.342  1.00  0.00     0.020 A 
ATOM     77  C   UNL A   1      46.867  34.543  29.718  1.00  0.00     0.020 A 
ATOM     78  C   UNL A   1      46.878  35.410  28.623  1.00  0.00     0.054 A 
BRANCH  78  79
ATOM     79  S   UNL A   1      47.275  37.166  28.843  1.00  0.00     0.124 S 
ATOM     80  O   UNL A   1      47.967  37.157  30.130  1.00  0.00    -0.237 OA
ATOM     81  O   UNL A   1      48.113  37.454  27.682  1.00  0.00    -0.237 OA
ATOM     82  O   UNL A   1      45.968  37.820  28.843  1.00  0.00    -0.744 OA
ENDBRANCH  78  79
ENDBRANCH  59  73
BRANCH  60  83
ATOM     83  C   UNL A   1      43.586  23.195  26.850  1.00  0.00    -0.014 A 
ATOM     84  C   UNL A   1      43.777  22.595  25.594  1.00  0.00     0.010 A 
ATOM     85  C   UNL A   1      43.024  22.437  27.894  1.00  0.00     0.010 A 
ATOM     86  C   UNL A   1      43.399  21.266  25.379  1.00  0.00     0.020 A 
ATOM     87  C   UNL A   1      42.669  21.100  27.689  1.00  0.00     0.020 A 
ATOM     88  C   UNL A   1      42.849  20.527  26.429  1.00  0.00     0.054 A 
BRANCH  88  89
ATOM     89  S   UNL A   1      42.416  18.787  26.145  1.00  0.00     0.124 S 
ATOM     90  O   UNL A   1      42.664  18.195  27.455  1.00  0.00    -0.237 OA
ATOM     91  O   UNL A   1      41.015  18.871  25.741  1.00  0.00    -0.237 OA
ATOM     92  O   UNL A   1      43.336  18.378  25.086  1.00  0.00    -0.744 OA
ENDBRANCH  88  89
ENDBRANCH  60  83
BRANCH  72  93
ATOM     93  C   UNL A   1      49.594  26.658  26.124  1.00  0.00    -0.014 A 
ATOM     94  C   UNL A   1      50.132  27.043  24.883  1.00  0.00     0.010 A 
ATOM     95  C   UNL A   1      50.384  25.904  27.011  1.00  0.00     0.010 A 
ATOM     96  C   UNL A   1      51.426  26.657  24.525  1.00  0.00     0.020 A 
ATOM     97  C   UNL A   1      51.687  25.537  26.666  1.00  0.00     0.020 A 
ATOM     98  C   UNL A   1      52.195  25.905  25.419  1.00  0.00     0.054 A 
BRANCH  98  99
ATOM     99  S   UNL A   1      53.889  25.455  24.951  1.00  0.00     0.124 S 
ATOM    100  O   UNL A   1      53.878  24.006  25.128  1.00  0.00    -0.237 OA
ATOM    101  O   UNL A   1      53.976  25.918  23.568  1.00  0.00    -0.237 OA
ATOM    102  O   UNL A   1      54.719  26.192  25.901  1.00  0.00    -0.744 OA
ENDBRANCH  98  99
ENDBRANCH  72  93
ENDBRANCH  46  47
ENDBRANCH  38  41
ENDBRANCH  36  37
ENDBRANCH  35  36
ENDBRANCH  34  35
ENDBRANCH   1  34
TORSDOF 19
ENDMDL
MODEL 2
REMARK VINA RESULT:     -12.6      5.965     11.852
REMARK SMILES C[C@H](NC(=O)c1cccc(NC(=O)c2ccccc2C(=O)NCCCCNC(=O)c2ccc(-c3c4nc(c(-c5ccc(S(=O)(=O)[O-])cc5)c5ccc([nH]5)c(-c5ccc(S(=O)(=O)[O-])cc5)c5nc(c(-c6ccc(S(=O)(=O)[O-])cc6)c6ccc3[nH]6)C=C5)C=C4)cc2)c1)c1ccccc1
REMARK SMILES IDX 23 1 22 2 20 3 21 4 19 6 14 7 15 8 16 9 18 10 17 11 12 12
REMARK SMILES IDX 11 13 13 15 10 16 6 17 7 18 90 19 8 20 9 21 4 22 3 23 5 25
REMARK SMILES IDX 2 26 1 27 91 28 92 29 96 30 93 31 95 32 94 33 24 34 25 35
REMARK SMILES IDX 26 36 27 37 28 38 29 40 30 41 31 42 89 43 32 44 88 45 33 46
REMARK SMILES IDX 34 47 35 48 82 49 36 50 87 51 81 52 83 53 37 54 86 55 80 56
REMARK SMILES IDX 79 57 38 59 68 60 49 61 67 62 50 63 53 64 66 65 84 66 51 67
REMARK SMILES IDX 52 68 65 70 85 71 54 72 39 73 40 74 48 75 41 76 47 77 42 78
REMARK SMILES IDX 43 79 44 80 45 81 46 82 69 83 70 84 78 85 71 86 77 87 72 88
REMARK SMILES IDX 73 89 74 90 75 91 76 92 55 93 56 94 64 95 57 96 63 97 58 98
REMARK SMILES IDX 59 99 60 100 61 101 62 102
REMARK H PARENT 22 5 11 14 3 24 27 39 83 58 53 69
REMARK Flexibility Score: inf
ROOT
ATOM      1  C   UNL A   1      36.939  21.463  25.626  1.00  0.00     0.116 C 
ENDROOT
BRANCH   1   2
ATOM      2  N   UNL A   1      35.977  22.059  26.530  1.00  0.00    -0.352 N 
ATOM      3  C   UNL A   1      34.619  22.207  26.421  1.00  0.00     0.252 C 
ATOM      4  O   UNL A   1      34.029  22.780  27.337  1.00  0.00    -0.269 OA
ATOM      5  H   UNL A   1      36.364  22.418  27.361  1.00  0.00     0.163 HD
BRANCH   3   6
ATOM      6  C   UNL A   1      33.834  21.794  25.228  1.00  0.00     0.052 A 
ATOM      7  C   UNL A   1      33.822  22.410  23.969  1.00  0.00     0.052 A 
ATOM      8  C   UNL A   1      32.986  21.904  22.951  1.00  0.00     0.014 A 
ATOM      9  C   UNL A   1      32.243  20.742  23.144  1.00  0.00     0.001 A 
ATOM     10  C   UNL A   1      33.103  20.597  25.391  1.00  0.00     0.014 A 
ATOM     11  C   UNL A   1      32.321  20.072  24.358  1.00  0.00     0.001 A 
BRANCH   7  12
ATOM     12  C   UNL A   1      34.624  23.582  23.574  1.00  0.00     0.256 C 
ATOM     13  N   UNL A   1      34.216  24.882  23.765  1.00  0.00    -0.322 N 
ATOM     14  H   UNL A   1      34.781  25.547  23.309  1.00  0.00     0.170 HD
ATOM     15  O   UNL A   1      35.688  23.367  22.990  1.00  0.00    -0.269 OA
BRANCH  13  16
ATOM     16  C   UNL A   1      33.151  25.439  24.487  1.00  0.00     0.042 A 
ATOM     17  C   UNL A   1      30.893  26.295  24.436  1.00  0.00     0.041 A 
ATOM     18  C   UNL A   1      30.913  26.443  25.828  1.00  0.00     0.014 A 
ATOM     19  C   UNL A   1      32.017  25.822  23.757  1.00  0.00     0.040 A 
ATOM     20  C   UNL A   1      32.057  26.115  26.544  1.00  0.00     0.003 A 
ATOM     21  C   UNL A   1      33.178  25.629  25.872  1.00  0.00     0.026 A 
BRANCH  17  22
ATOM     22  C   UNL A   1      29.664  26.714  23.750  1.00  0.00     0.251 C 
ATOM     23  N   UNL A   1      29.639  27.765  22.879  1.00  0.00    -0.346 N 
ATOM     24  H   UNL A   1      28.794  27.837  22.380  1.00  0.00     0.164 HD
ATOM     25  O   UNL A   1      28.657  26.026  23.902  1.00  0.00    -0.269 OA
BRANCH  23  26
ATOM     26  C   UNL A   1      30.609  28.813  22.527  1.00  0.00     0.109 C 
ATOM     27  C   UNL A   1      29.900  30.009  21.873  1.00  0.00     0.036 C 
BRANCH  26  28
ATOM     28  C   UNL A   1      31.472  29.221  23.740  1.00  0.00    -0.026 A 
ATOM     29  C   UNL A   1      30.916  29.896  24.845  1.00  0.00     0.006 A 
ATOM     30  C   UNL A   1      32.865  28.997  23.776  1.00  0.00     0.006 A 
ATOM     31  C   UNL A   1      31.692  30.261  25.953  1.00  0.00     0.000 A 
ATOM     32  C   UNL A   1      33.639  29.347  24.892  1.00  0.00     0.000 A 
ATOM     33  C   UNL A   1      33.051  29.974  25.983  1.00  0.00     0.000 A 
ENDBRANCH  26  28
ENDBRANCH  23  26
ENDBRANCH  17  22
ENDBRANCH  13  16
ENDBRANCH   7  12
ENDBRANCH   3   6
ENDBRANCH   1   2
BRANCH   1  34
ATOM     34  C   UNL A   1      38.197  22.301  25.419  1.00  0.00     0.023 C 
BRANCH  34  35
ATOM     35  C   UNL A   1      39.328  22.081  26.429  1.00  0.00     0.023 C 
BRANCH  35  36
ATOM     36  C   UNL A   1      40.021  23.328  26.975  1.00  0.00     0.116 C 
BRANCH  36  37
ATOM     37  N   UNL A   1      40.752  24.092  25.977  1.00  0.00    -0.352 N 
ATOM     38  C   UNL A   1      41.357  25.328  26.065  1.00  0.00     0.251 C 
ATOM     39  H   UNL A   1      40.827  23.656  25.097  1.00  0.00     0.163 HD
ATOM     40  O   UNL A   1      41.868  25.824  25.070  1.00  0.00    -0.269 OA
BRANCH  38  41
ATOM     41  C   UNL A   1      41.349  26.079  27.341  1.00  0.00     0.039 A 
ATOM     42  C   UNL A   1      42.306  27.080  27.535  1.00  0.00     0.014 A 
ATOM     43  C   UNL A   1      40.404  25.821  28.334  1.00  0.00     0.014 A 
ATOM     44  C   UNL A   1      42.242  27.896  28.670  1.00  0.00     0.010 A 
ATOM     45  C   UNL A   1      40.298  26.680  29.425  1.00  0.00     0.010 A 
ATOM     46  C   UNL A   1      41.198  27.742  29.597  1.00  0.00    -0.014 A 
BRANCH  46  47
ATOM     47  C   UNL A   1      41.002  28.704  30.715  1.00  0.00     0.031 A 
ATOM     48  C   UNL A   1      41.839  28.615  31.963  1.00  0.00     0.074 A 
ATOM     49  C   UNL A   1      40.012  29.617  30.640  1.00  0.00     0.049 A 
ATOM     50  N   UNL A   1      41.766  29.332  33.056  1.00  0.00    -0.248 NA
ATOM     51  C   UNL A   1      42.878  27.574  31.997  1.00  0.00     0.031 C 
ATOM     52  C   UNL A   1      39.091  29.779  29.512  1.00  0.00     0.029 A 
ATOM     53  N   UNL A   1      39.611  30.581  31.532  1.00  0.00    -0.354 N 
ATOM     54  C   UNL A   1      42.737  28.822  33.911  1.00  0.00     0.074 A 
ATOM     55  C   UNL A   1      43.351  27.703  33.228  1.00  0.00     0.031 C 
ATOM     56  C   UNL A   1      38.256  30.799  29.766  1.00  0.00     0.029 A 
ATOM     57  C   UNL A   1      38.552  31.340  31.088  1.00  0.00     0.049 A 
ATOM     58  H   UNL A   1      40.040  30.716  32.408  1.00  0.00     0.167 HD
ATOM     59  C   UNL A   1      43.101  29.255  35.141  1.00  0.00     0.031 A 
ATOM     60  C   UNL A   1      37.889  32.355  31.676  1.00  0.00     0.031 A 
ATOM     61  C   UNL A   1      42.502  30.377  35.818  1.00  0.00     0.049 A 
ATOM     62  C   UNL A   1      38.309  32.817  33.044  1.00  0.00     0.074 A 
ATOM     63  C   UNL A   1      42.841  30.921  37.045  1.00  0.00     0.029 A 
ATOM     64  N   UNL A   1      41.445  31.125  35.326  1.00  0.00    -0.354 N 
ATOM     65  N   UNL A   1      39.269  32.357  33.809  1.00  0.00    -0.248 NA
ATOM     66  C   UNL A   1      37.561  33.942  33.625  1.00  0.00     0.031 C 
ATOM     67  C   UNL A   1      41.958  31.971  37.316  1.00  0.00     0.029 A 
ATOM     68  C   UNL A   1      41.103  32.113  36.235  1.00  0.00     0.049 A 
ATOM     69  H   UNL A   1      41.002  30.977  34.461  1.00  0.00     0.167 HD
ATOM     70  C   UNL A   1      39.258  33.152  34.949  1.00  0.00     0.074 A 
ATOM     71  C   UNL A   1      38.204  34.129  34.769  1.00  0.00     0.031 C 
ATOM     72  C   UNL A   1      40.050  33.080  36.047  1.00  0.00     0.031 A 
BRANCH  59  73
ATOM     73  C   UNL A   1      44.205  28.507  35.842  1.00  0.00    -0.014 A 
ATOM     74  C   UNL A   1      43.929  27.369  36.621  1.00  0.00     0.010 A 
ATOM     75  C   UNL A   1      45.540  28.926  35.691  1.00  0.00     0.010 A 
ATOM     76  C   UNL A   1      44.961  26.690  37.274  1.00  0.00     0.020 A 
ATOM     77  C   UNL A   1      46.578  28.233  36.321  1.00  0.00     0.020 A 
ATOM     78  C   UNL A   1      46.279  27.131  37.125  1.00  0.00     0.054 A 
BRANCH  78  79
ATOM     79  S   UNL A   1      47.601  26.222  37.971  1.00  0.00     0.124 S 
ATOM     80  O   UNL A   1      48.769  26.581  37.170  1.00  0.00    -0.237 OA
ATOM     81  O   UNL A   1      47.566  26.786  39.318  1.00  0.00    -0.237 OA
ATOM     82  O   UNL A   1      47.182  24.826  37.872  1.00  0.00    -0.744 OA
ENDBRANCH  78  79
ENDBRANCH  59  73
BRANCH  60  83
ATOM     83  C   UNL A   1      36.764  33.020  30.962  1.00  0.00    -0.014 A 
ATOM     84  C   UNL A   1      35.434  32.767  31.337  1.00  0.00     0.010 A 
ATOM     85  C   UNL A   1      37.021  33.919  29.911  1.00  0.00     0.010 A 
ATOM     86  C   UNL A   1      34.377  33.388  30.664  1.00  0.00     0.020 A 
ATOM     87  C   UNL A   1      35.968  34.562  29.253  1.00  0.00     0.020 A 
ATOM     88  C   UNL A   1      34.653  34.284  29.627  1.00  0.00     0.054 A 
BRANCH  88  89
ATOM     89  S   UNL A   1      33.270  35.123  28.803  1.00  0.00     0.124 S 
ATOM     90  O   UNL A   1      33.948  36.204  28.097  1.00  0.00    -0.237 OA
ATOM     91  O   UNL A   1      32.714  34.065  27.961  1.00  0.00    -0.237 OA
ATOM     92  O   UNL A   1      32.413  35.536  29.913  1.00  0.00    -0.744 OA
ENDBRANCH  88  89
ENDBRANCH  60  83
BRANCH  72  93
ATOM     93  C   UNL A   1      39.831  34.101  37.130  1.00  0.00    -0.014 A 
ATOM     94  C   UNL A   1      39.099  33.787  38.289  1.00  0.00     0.010 A 
ATOM     95  C   UNL A   1      40.411  35.377  37.010  1.00  0.00     0.010 A 
ATOM     96  C   UNL A   1      38.929  34.740  39.296  1.00  0.00     0.020 A 
ATOM     97  C   UNL A   1      40.263  36.325  38.025  1.00  0.00     0.020 A 
ATOM     98  C   UNL A   1      39.511  36.004  39.157  1.00  0.00     0.054 A 
BRANCH  98  99
ATOM     99  S   UNL A   1      39.315  37.210  40.498  1.00  0.00     0.124 S 
ATOM    100  O   UNL A   1      38.564  38.275  39.841  1.00  0.00    -0.237 OA
ATOM    101  O   UNL A   1      38.579  36.453  41.507  1.00  0.00    -0.237 OA
ATOM    102  O   UNL A   1      40.689  37.550  40.863  1.00  0.00    -0.744 OA
ENDBRANCH  98  99
ENDBRANCH  72  93
ENDBRANCH  46  47
ENDBRANCH  38  41
ENDBRANCH  36  37
ENDBRANCH  35  36
ENDBRANCH  34  35
ENDBRANCH   1  34
TORSDOF 19
ENDMDL
MODEL 3
REMARK VINA RESULT:     -12.3      1.315      2.335
REMARK SMILES C[C@H](NC(=O)c1cccc(NC(=O)c2ccccc2C(=O)NCCCCNC(=O)c2ccc(-c3c4nc(c(-c5ccc(S(=O)(=O)[O-])cc5)c5ccc([nH]5)c(-c5ccc(S(=O)(=O)[O-])cc5)c5nc(c(-c6ccc(S(=O)(=O)[O-])cc6)c6ccc3[nH]6)C=C5)C=C4)cc2)c1)c1ccccc1
REMARK SMILES IDX 23 1 22 2 20 3 21 4 19 6 14 7 15 8 16 9 18 10 17 11 12 12
REMARK SMILES IDX 11 13 13 15 10 16 6 17 7 18 90 19 8 20 9 21 4 22 3 23 5 25
REMARK SMILES IDX 2 26 1 27 91 28 92 29 96 30 93 31 95 32 94 33 24 34 25 35
REMARK SMILES IDX 26 36 27 37 28 38 29 40 30 41 31 42 89 43 32 44 88 45 33 46
REMARK SMILES IDX 34 47 35 48 82 49 36 50 87 51 81 52 83 53 37 54 86 55 80 56
REMARK SMILES IDX 79 57 38 59 68 60 49 61 67 62 50 63 53 64 66 65 84 66 51 67
REMARK SMILES IDX 52 68 65 70 85 71 54 72 39 73 40 74 48 75 41 76 47 77 42 78
REMARK SMILES IDX 43 79 44 80 45 81 46 82 69 83 70 84 78 85 71 86 77 87 72 88
REMARK SMILES IDX 73 89 74 90 75 91 76 92 55 93 56 94 64 95 57 96 63 97 58 98
REMARK SMILES IDX 59 99 60 100 61 101 62 102
REMARK H PARENT 22 5 11 14 3 24 27 39 83 58 53 69
REMARK Flexibility Score: inf
ROOT
ATOM      1  C   UNL A   1      31.745  30.404  26.051  1.00  0.00     0.116 C 
ENDROOT
BRANCH   1   2
ATOM      2  N   UNL A   1      32.436  29.976  24.853  1.00  0.00    -0.352 N 
ATOM      3  C   UNL A   1      32.179  28.940  23.992  1.00  0.00     0.252 C 
ATOM      4  O   UNL A   1      32.947  28.777  23.044  1.00  0.00    -0.269 OA
ATOM      5  H   UNL A   1      33.222  30.519  24.616  1.00  0.00     0.163 HD
BRANCH   3   6
ATOM      6  C   UNL A   1      31.082  27.955  24.186  1.00  0.00     0.052 A 
ATOM      7  C   UNL A   1      31.007  26.956  25.166  1.00  0.00     0.052 A 
ATOM      8  C   UNL A   1      29.902  26.079  25.186  1.00  0.00     0.014 A 
ATOM      9  C   UNL A   1      28.834  26.249  24.308  1.00  0.00     0.001 A 
ATOM     10  C   UNL A   1      29.973  28.135  23.331  1.00  0.00     0.014 A 
ATOM     11  C   UNL A   1      28.857  27.295  23.395  1.00  0.00     0.001 A 
BRANCH   7  12
ATOM     12  C   UNL A   1      32.000  26.709  26.227  1.00  0.00     0.256 C 
ATOM     13  N   UNL A   1      33.018  25.791  26.117  1.00  0.00    -0.322 N 
ATOM     14  H   UNL A   1      33.499  25.627  26.959  1.00  0.00     0.170 HD
ATOM     15  O   UNL A   1      31.862  27.327  27.284  1.00  0.00    -0.269 OA
BRANCH  13  16
ATOM     16  C   UNL A   1      33.501  25.046  25.031  1.00  0.00     0.042 A 
ATOM     17  C   UNL A   1      34.682  23.073  24.291  1.00  0.00     0.041 A 
ATOM     18  C   UNL A   1      34.412  23.407  22.958  1.00  0.00     0.014 A 
ATOM     19  C   UNL A   1      34.256  23.902  25.329  1.00  0.00     0.040 A 
ATOM     20  C   UNL A   1      33.712  24.570  22.662  1.00  0.00     0.003 A 
ATOM     21  C   UNL A   1      33.272  25.394  23.697  1.00  0.00     0.026 A 
BRANCH  17  22
ATOM     22  C   UNL A   1      35.473  21.855  24.514  1.00  0.00     0.251 C 
ATOM     23  N   UNL A   1      34.894  20.625  24.636  1.00  0.00    -0.346 N 
ATOM     24  H   UNL A   1      35.545  19.887  24.627  1.00  0.00     0.164 HD
ATOM     25  O   UNL A   1      36.697  21.952  24.489  1.00  0.00    -0.269 OA
BRANCH  23  26
ATOM     26  C   UNL A   1      33.503  20.168  24.778  1.00  0.00     0.109 C 
ATOM     27  C   UNL A   1      32.609  20.813  23.708  1.00  0.00     0.036 C 
BRANCH  26  28
ATOM     28  C   UNL A   1      33.409  18.627  24.786  1.00  0.00    -0.026 A 
ATOM     29  C   UNL A   1      32.646  17.942  25.752  1.00  0.00     0.006 A 
ATOM     30  C   UNL A   1      34.129  17.828  23.872  1.00  0.00     0.006 A 
ATOM     31  C   UNL A   1      32.548  16.543  25.760  1.00  0.00     0.000 A 
ATOM     32  C   UNL A   1      34.019  16.431  23.869  1.00  0.00     0.000 A 
ATOM     33  C   UNL A   1      33.224  15.788  24.810  1.00  0.00     0.000 A 
ENDBRANCH  26  28
ENDBRANCH  23  26
ENDBRANCH  17  22
ENDBRANCH  13  16
ENDBRANCH   7  12
ENDBRANCH   3   6
ENDBRANCH   1   2
BRANCH   1  34
ATOM     34  C   UNL A   1      32.654  30.568  27.265  1.00  0.00     0.023 C 
BRANCH  34  35
ATOM     35  C   UNL A   1      34.161  30.544  26.987  1.00  0.00     0.023 C 
BRANCH  35  36
ATOM     36  C   UNL A   1      35.041  29.829  28.010  1.00  0.00     0.116 C 
BRANCH  36  37
ATOM     37  N   UNL A   1      35.228  30.559  29.253  1.00  0.00    -0.352 N 
ATOM     38  C   UNL A   1      36.338  30.673  30.064  1.00  0.00     0.251 C 
ATOM     39  H   UNL A   1      34.434  31.049  29.568  1.00  0.00     0.163 HD
ATOM     40  O   UNL A   1      36.258  31.291  31.117  1.00  0.00    -0.269 OA
BRANCH  38  41
ATOM     41  C   UNL A   1      37.610  30.013  29.693  1.00  0.00     0.039 A 
ATOM     42  C   UNL A   1      37.965  29.954  28.342  1.00  0.00     0.014 A 
ATOM     43  C   UNL A   1      38.460  29.472  30.657  1.00  0.00     0.014 A 
ATOM     44  C   UNL A   1      39.220  29.458  27.970  1.00  0.00     0.010 A 
ATOM     45  C   UNL A   1      39.736  29.048  30.293  1.00  0.00     0.010 A 
ATOM     46  C   UNL A   1      40.142  29.057  28.950  1.00  0.00    -0.014 A 
BRANCH  46  47
ATOM     47  C   UNL A   1      41.542  28.694  28.598  1.00  0.00     0.031 A 
ATOM     48  C   UNL A   1      42.625  29.738  28.572  1.00  0.00     0.074 A 
ATOM     49  C   UNL A   1      41.826  27.429  28.224  1.00  0.00     0.049 A 
ATOM     50  N   UNL A   1      43.884  29.611  28.233  1.00  0.00    -0.248 NA
ATOM     51  C   UNL A   1      42.242  31.106  28.955  1.00  0.00     0.031 C 
ATOM     52  C   UNL A   1      40.862  26.328  28.153  1.00  0.00     0.029 A 
ATOM     53  N   UNL A   1      43.010  26.854  27.830  1.00  0.00    -0.354 N 
ATOM     54  C   UNL A   1      44.439  30.881  28.349  1.00  0.00     0.074 A 
ATOM     55  C   UNL A   1      43.368  31.772  28.741  1.00  0.00     0.031 C 
ATOM     56  C   UNL A   1      41.496  25.208  27.773  1.00  0.00     0.029 A 
ATOM     57  C   UNL A   1      42.903  25.514  27.533  1.00  0.00     0.049 A 
ATOM     58  H   UNL A   1      43.856  27.353  27.765  1.00  0.00     0.167 HD
ATOM     59  C   UNL A   1      45.724  31.268  28.167  1.00  0.00     0.031 A 
ATOM     60  C   UNL A   1      43.827  24.629  27.112  1.00  0.00     0.031 A 
ATOM     61  C   UNL A   1      46.794  30.382  27.792  1.00  0.00     0.049 A 
ATOM     62  C   UNL A   1      45.248  25.084  26.915  1.00  0.00     0.074 A 
ATOM     63  C   UNL A   1      48.138  30.675  27.636  1.00  0.00     0.029 A 
ATOM     64  N   UNL A   1      46.645  29.032  27.516  1.00  0.00    -0.354 N 
ATOM     65  N   UNL A   1      45.761  26.277  27.088  1.00  0.00    -0.248 NA
ATOM     66  C   UNL A   1      46.215  24.067  26.475  1.00  0.00     0.031 C 
ATOM     67  C   UNL A   1      48.794  29.511  27.220  1.00  0.00     0.029 A 
ATOM     68  C   UNL A   1      47.868  28.483  27.168  1.00  0.00     0.049 A 
ATOM     69  H   UNL A   1      45.795  28.537  27.559  1.00  0.00     0.167 HD
ATOM     70  C   UNL A   1      47.116  26.150  26.802  1.00  0.00     0.074 A 
ATOM     71  C   UNL A   1      47.344  24.762  26.458  1.00  0.00     0.031 C 
ATOM     72  C   UNL A   1      48.084  27.099  26.825  1.00  0.00     0.031 A 
BRANCH  59  73
ATOM     73  C   UNL A   1      46.044  32.726  28.373  1.00  0.00    -0.014 A 
ATOM     74  C   UNL A   1      45.898  33.655  27.327  1.00  0.00     0.010 A 
ATOM     75  C   UNL A   1      46.464  33.179  29.637  1.00  0.00     0.010 A 
ATOM     76  C   UNL A   1      46.209  35.002  27.528  1.00  0.00     0.020 A 
ATOM     77  C   UNL A   1      46.749  34.531  29.850  1.00  0.00     0.020 A 
ATOM     78  C   UNL A   1      46.639  35.431  28.787  1.00  0.00     0.054 A 
BRANCH  78  79
ATOM     79  S   UNL A   1      47.021  37.187  29.024  1.00  0.00     0.124 S 
ATOM     80  O   UNL A   1      45.728  37.813  28.759  1.00  0.00    -0.237 OA
ATOM     81  O   UNL A   1      47.467  37.234  30.414  1.00  0.00    -0.237 OA
ATOM     82  O   UNL A   1      48.059  37.455  28.031  1.00  0.00    -0.744 OA
ENDBRANCH  78  79
ENDBRANCH  59  73
BRANCH  60  83
ATOM     83  C   UNL A   1      43.442  23.213  26.866  1.00  0.00    -0.014 A 
ATOM     84  C   UNL A   1      43.675  22.619  25.614  1.00  0.00     0.010 A 
ATOM     85  C   UNL A   1      42.851  22.448  27.888  1.00  0.00     0.010 A 
ATOM     86  C   UNL A   1      43.309  21.289  25.381  1.00  0.00     0.020 A 
ATOM     87  C   UNL A   1      42.507  21.111  27.667  1.00  0.00     0.020 A 
ATOM     88  C   UNL A   1      42.729  20.543  26.411  1.00  0.00     0.054 A 
BRANCH  88  89
ATOM     89  S   UNL A   1      42.312  18.803  26.106  1.00  0.00     0.124 S 
ATOM     90  O   UNL A   1      42.617  18.188  27.393  1.00  0.00    -0.237 OA
ATOM     91  O   UNL A   1      40.896  18.873  25.756  1.00  0.00    -0.237 OA
ATOM     92  O   UNL A   1      43.199  18.430  25.006  1.00  0.00    -0.744 OA
ENDBRANCH  88  89
ENDBRANCH  60  83
BRANCH  72  93
ATOM     93  C   UNL A   1      49.487  26.667  26.495  1.00  0.00    -0.014 A 
ATOM     94  C   UNL A   1      49.964  26.690  25.172  1.00  0.00     0.010 A 
ATOM     95  C   UNL A   1      50.358  26.284  27.532  1.00  0.00     0.010 A 
ATOM     96  C   UNL A   1      51.279  26.311  24.890  1.00  0.00     0.020 A 
ATOM     97  C   UNL A   1      51.680  25.928  27.256  1.00  0.00     0.020 A 
ATOM     98  C   UNL A   1      52.128  25.930  25.933  1.00  0.00     0.054 A 
BRANCH  98  99
ATOM     99  S   UNL A   1      53.844  25.486  25.547  1.00  0.00     0.124 S 
ATOM    100  O   UNL A   1      53.668  24.351  24.646  1.00  0.00    -0.237 OA
ATOM    101  O   UNL A   1      54.361  26.704  24.928  1.00  0.00    -0.237 OA
ATOM    102  O   UNL A   1      54.421  25.164  26.850  1.00  0.00    -0.744 OA
ENDBRANCH  98  99
ENDBRANCH  72  93
ENDBRANCH  46  47
ENDBRANCH  38  41
ENDBRANCH  36  37
ENDBRANCH  35  36
ENDBRANCH  34  35
ENDBRANCH   1  34
TORSDOF 19
ENDMDL
