MODEL 1
REMARK VINA RESULT:     -11.5      0.000      0.000
REMARK SMILES CCOC(=O)c1c(NC(=O)[C@@H]2[C@@H]3CC[C@@H](C3)[C@@H]2C(=O)NCCCCNC(=O)c2ccc(-c3c4nc(c(-c5ccc(S(=O)(=O)[O-])cc5)c5ccc([nH]5)c(-c5ccc(S(=O)(=O)[O-])cc5)c5nc(c(-c6ccc(S(=O)(=O)[O-])cc6)c6ccc3[nH]6)C=C5)C=C4)cc2)sc2c1CCCC2
REMARK SMILES IDX 21 1 20 2 18 3 19 4 17 6 11 7 12 8 13 9 16 10 15 11 14 12
REMARK SMILES IDX 9 13 8 14 10 16 7 17 6 18 90 19 88 20 89 21 91 22 94 23
REMARK SMILES IDX 92 24 93 25 4 26 5 27 3 28 2 29 1 30 22 31 23 32 24 33 25 34
REMARK SMILES IDX 26 35 27 37 28 38 29 39 87 40 30 41 86 42 31 43 32 44 33 45
REMARK SMILES IDX 80 46 34 47 85 48 79 49 81 50 35 51 84 52 78 53 77 54 36 56
REMARK SMILES IDX 66 57 47 58 65 59 48 60 51 61 64 62 82 63 49 64 50 65 63 67
REMARK SMILES IDX 83 68 52 69 37 70 38 71 46 72 39 73 45 74 40 75 41 76 42 77
REMARK SMILES IDX 43 78 44 79 67 80 68 81 76 82 69 83 75 84 70 85 71 86 72 87
REMARK SMILES IDX 73 88 74 89 53 90 54 91 62 92 55 93 61 94 56 95 57 96 58 97
REMARK SMILES IDX 59 98 60 99
REMARK H PARENT 20 5 8 15 25 36 81 55 51 66
REMARK Flexibility Score: inf
ROOT
ATOM      1  C   UNL A   1      37.936  21.882  25.481  1.00  0.00     0.116 C 
ENDROOT
BRANCH   1   2
ATOM      2  N   UNL A   1      36.747  21.431  26.231  1.00  0.00    -0.356 N 
ATOM      3  C   UNL A   1      35.419  21.819  26.132  1.00  0.00     0.224 C 
ATOM      4  O   UNL A   1      34.552  21.324  26.849  1.00  0.00    -0.275 OA
ATOM      5  H   UNL A   1      36.927  20.744  26.911  1.00  0.00     0.163 HD
BRANCH   3   6
ATOM      6  C   UNL A   1      35.163  22.918  25.155  1.00  0.00     0.094 C 
ATOM      7  C   UNL A   1      34.455  24.281  25.300  1.00  0.00     0.094 C 
ATOM      8  C   UNL A   1      34.271  24.577  23.787  1.00  0.00     0.002 C 
ATOM      9  C   UNL A   1      32.922  24.041  23.518  1.00  0.00     0.005 C 
ATOM     10  C   UNL A   1      35.011  23.504  22.958  1.00  0.00     0.009 C 
ATOM     11  C   UNL A   1      34.528  22.387  23.866  1.00  0.00     0.002 C 
ATOM     12  C   UNL A   1      33.028  22.563  23.926  1.00  0.00     0.005 C 
BRANCH   7  13
ATOM     13  C   UNL A   1      33.227  24.500  26.281  1.00  0.00     0.229 C 
ATOM     14  N   UNL A   1      32.219  25.421  26.420  1.00  0.00    -0.317 N 
ATOM     15  H   UNL A   1      31.684  25.096  27.179  1.00  0.00     0.170 HD
ATOM     16  O   UNL A   1      33.119  23.601  27.146  1.00  0.00    -0.274 OA
BRANCH  14  17
ATOM     17  C   UNL A   1      31.571  26.616  26.005  1.00  0.00     0.110 A 
ATOM     18  C   UNL A   1      31.562  28.042  25.932  1.00  0.00     0.098 A 
ATOM     19  C   UNL A   1      30.706  28.457  24.810  1.00  0.00    -0.017 A 
ATOM     20  S   UNL A   1      30.146  26.016  25.166  1.00  0.00    -0.122 S 
ATOM     21  C   UNL A   1      29.931  27.446  24.305  1.00  0.00     0.011 A 
ATOM     22  C   UNL A   1      30.703  29.831  24.181  1.00  0.00     0.038 C 
ATOM     23  C   UNL A   1      28.973  27.582  23.160  1.00  0.00     0.047 C 
ATOM     24  C   UNL A   1      29.484  30.071  23.294  1.00  0.00     0.005 C 
ATOM     25  C   UNL A   1      29.239  28.877  22.369  1.00  0.00     0.006 C 
BRANCH  18  26
ATOM     26  C   UNL A   1      32.358  29.169  26.529  1.00  0.00     0.341 C 
ATOM     27  O   UNL A   1      31.927  29.780  27.506  1.00  0.00    -0.246 OA
BRANCH  26  28
ATOM     28  O   UNL A   1      33.606  29.466  26.005  1.00  0.00    -0.462 OA
BRANCH  28  29
ATOM     29  C   UNL A   1      34.717  28.786  26.680  1.00  0.00     0.230 C 
ATOM     30  C   UNL A   1      35.460  29.673  27.689  1.00  0.00     0.049 C 
ENDBRANCH  28  29
ENDBRANCH  26  28
ENDBRANCH  18  26
ENDBRANCH  14  17
ENDBRANCH   7  13
ENDBRANCH   3   6
ENDBRANCH   1   2
BRANCH   1  31
ATOM     31  C   UNL A   1      38.908  22.763  26.254  1.00  0.00     0.023 C 
BRANCH  31  32
ATOM     32  C   UNL A   1      40.053  21.980  26.859  1.00  0.00     0.023 C 
BRANCH  32  33
ATOM     33  C   UNL A   1      41.248  22.851  27.201  1.00  0.00     0.116 C 
BRANCH  33  34
ATOM     34  N   UNL A   1      41.699  23.659  26.073  1.00  0.00    -0.352 N 
ATOM     35  C   UNL A   1      41.922  25.014  26.063  1.00  0.00     0.251 C 
ATOM     36  H   UNL A   1      41.861  23.182  25.227  1.00  0.00     0.163 HD
ATOM     37  O   UNL A   1      42.161  25.613  25.023  1.00  0.00    -0.269 OA
BRANCH  35  38
ATOM     38  C   UNL A   1      41.821  25.722  27.351  1.00  0.00     0.039 A 
ATOM     39  C   UNL A   1      42.845  26.593  27.720  1.00  0.00     0.014 A 
ATOM     40  C   UNL A   1      40.640  25.633  28.094  1.00  0.00     0.014 A 
ATOM     41  C   UNL A   1      42.654  27.429  28.817  1.00  0.00     0.010 A 
ATOM     42  C   UNL A   1      40.419  26.530  29.129  1.00  0.00     0.010 A 
ATOM     43  C   UNL A   1      41.425  27.435  29.500  1.00  0.00    -0.014 A 
BRANCH  43  44
ATOM     44  C   UNL A   1      41.170  28.397  30.598  1.00  0.00     0.031 A 
ATOM     45  C   UNL A   1      41.987  28.331  31.858  1.00  0.00     0.074 A 
ATOM     46  C   UNL A   1      40.171  29.294  30.476  1.00  0.00     0.049 A 
ATOM     47  N   UNL A   1      41.899  29.068  32.933  1.00  0.00    -0.248 NA
ATOM     48  C   UNL A   1      43.024  27.286  31.928  1.00  0.00     0.031 C 
ATOM     49  C   UNL A   1      39.280  29.422  29.319  1.00  0.00     0.029 A 
ATOM     50  N   UNL A   1      39.737  30.272  31.336  1.00  0.00    -0.354 N 
ATOM     51  C   UNL A   1      42.861  28.576  33.807  1.00  0.00     0.074 A 
ATOM     52  C   UNL A   1      43.481  27.441  33.162  1.00  0.00     0.031 C 
ATOM     53  C   UNL A   1      38.432  30.442  29.527  1.00  0.00     0.029 A 
ATOM     54  C   UNL A   1      38.684  31.010  30.847  1.00  0.00     0.049 A 
ATOM     55  H   UNL A   1      40.141  30.431  32.219  1.00  0.00     0.167 HD
ATOM     56  C   UNL A   1      43.210  29.043  35.029  1.00  0.00     0.031 A 
ATOM     57  C   UNL A   1      37.993  32.023  31.403  1.00  0.00     0.031 A 
ATOM     58  C   UNL A   1      42.588  30.174  35.663  1.00  0.00     0.049 A 
ATOM     59  C   UNL A   1      38.385  32.504  32.774  1.00  0.00     0.074 A 
ATOM     60  C   UNL A   1      42.904  30.756  36.878  1.00  0.00     0.029 A 
ATOM     61  N   UNL A   1      41.522  30.890  35.140  1.00  0.00    -0.354 N 
ATOM     62  N   UNL A   1      39.349  32.075  33.554  1.00  0.00    -0.248 NA
ATOM     63  C   UNL A   1      37.602  33.612  33.337  1.00  0.00     0.031 C 
ATOM     64  C   UNL A   1      41.988  31.784  37.119  1.00  0.00     0.029 A 
ATOM     65  C   UNL A   1      41.147  31.889  36.022  1.00  0.00     0.049 A 
ATOM     66  H   UNL A   1      41.095  30.714  34.271  1.00  0.00     0.167 HD
ATOM     67  C   UNL A   1      39.304  32.877  34.688  1.00  0.00     0.074 A 
ATOM     68  C   UNL A   1      38.233  33.831  34.482  1.00  0.00     0.031 C 
ATOM     69  C   UNL A   1      40.076  32.829  35.802  1.00  0.00     0.031 A 
BRANCH  56  70
ATOM     70  C   UNL A   1      44.315  28.328  35.761  1.00  0.00    -0.014 A 
ATOM     71  C   UNL A   1      44.038  27.247  36.619  1.00  0.00     0.010 A 
ATOM     72  C   UNL A   1      45.653  28.702  35.543  1.00  0.00     0.010 A 
ATOM     73  C   UNL A   1      45.076  26.575  37.268  1.00  0.00     0.020 A 
ATOM     74  C   UNL A   1      46.696  28.012  36.167  1.00  0.00     0.020 A 
ATOM     75  C   UNL A   1      46.400  26.959  37.036  1.00  0.00     0.054 A 
BRANCH  75  76
ATOM     76  S   UNL A   1      47.727  26.038  37.858  1.00  0.00     0.124 S 
ATOM     77  O   UNL A   1      48.858  26.277  36.965  1.00  0.00    -0.237 OA
ATOM     78  O   UNL A   1      47.807  26.692  39.162  1.00  0.00    -0.237 OA
ATOM     79  O   UNL A   1      47.234  24.663  37.883  1.00  0.00    -0.744 OA
ENDBRANCH  75  76
ENDBRANCH  56  70
BRANCH  57  80
ATOM     80  C   UNL A   1      36.864  32.654  30.666  1.00  0.00    -0.014 A 
ATOM     81  C   UNL A   1      35.575  32.093  30.707  1.00  0.00     0.010 A 
ATOM     82  C   UNL A   1      37.073  33.823  29.910  1.00  0.00     0.010 A 
ATOM     83  C   UNL A   1      34.526  32.669  29.986  1.00  0.00     0.020 A 
ATOM     84  C   UNL A   1      36.019  34.422  29.215  1.00  0.00     0.020 A 
ATOM     85  C   UNL A   1      34.754  33.832  29.245  1.00  0.00     0.054 A 
BRANCH  85  86
ATOM     86  S   UNL A   1      33.370  34.583  28.344  1.00  0.00     0.124 S 
ATOM     87  O   UNL A   1      34.059  35.341  27.305  1.00  0.00    -0.237 OA
ATOM     88  O   UNL A   1      32.624  33.413  27.885  1.00  0.00    -0.237 OA
ATOM     89  O   UNL A   1      32.693  35.384  29.361  1.00  0.00    -0.744 OA
ENDBRANCH  85  86
ENDBRANCH  57  80
BRANCH  69  90
ATOM     90  C   UNL A   1      39.814  33.856  36.872  1.00  0.00    -0.014 A 
ATOM     91  C   UNL A   1      39.065  33.540  38.019  1.00  0.00     0.010 A 
ATOM     92  C   UNL A   1      40.374  35.142  36.751  1.00  0.00     0.010 A 
ATOM     93  C   UNL A   1      38.849  34.504  39.009  1.00  0.00     0.020 A 
ATOM     94  C   UNL A   1      40.189  36.096  37.754  1.00  0.00     0.020 A 
ATOM     95  C   UNL A   1      39.414  35.775  38.870  1.00  0.00     0.054 A 
BRANCH  95  96
ATOM     96  S   UNL A   1      39.155  36.992  40.188  1.00  0.00     0.124 S 
ATOM     97  O   UNL A   1      40.521  37.248  40.640  1.00  0.00    -0.237 OA
ATOM     98  O   UNL A   1      38.510  38.097  39.481  1.00  0.00    -0.237 OA
ATOM     99  O   UNL A   1      38.303  36.292  41.147  1.00  0.00    -0.744 OA
ENDBRANCH  95  96
ENDBRANCH  69  90
ENDBRANCH  43  44
ENDBRANCH  35  38
ENDBRANCH  33  34
ENDBRANCH  32  33
ENDBRANCH  31  32
ENDBRANCH   1  31
TORSDOF 19
ENDMDL
MODEL 2
REMARK VINA RESULT:     -11.3      5.827     10.184
REMARK SMILES CCOC(=O)c1c(NC(=O)[C@@H]2[C@@H]3CC[C@@H](C3)[C@@H]2C(=O)NCCCCNC(=O)c2ccc(-c3c4nc(c(-c5ccc(S(=O)(=O)[O-])cc5)c5ccc([nH]5)c(-c5ccc(S(=O)(=O)[O-])cc5)c5nc(c(-c6ccc(S(=O)(=O)[O-])cc6)c6ccc3[nH]6)C=C5)C=C4)cc2)sc2c1CCCC2
REMARK SMILES IDX 21 1 20 2 18 3 19 4 17 6 11 7 12 8 13 9 16 10 15 11 14 12
REMARK SMILES IDX 9 13 8 14 10 16 7 17 6 18 90 19 88 20 89 21 91 22 94 23
REMARK SMILES IDX 92 24 93 25 4 26 5 27 3 28 2 29 1 30 22 31 23 32 24 33 25 34
REMARK SMILES IDX 26 35 27 37 28 38 29 39 87 40 30 41 86 42 31 43 32 44 33 45
REMARK SMILES IDX 80 46 34 47 85 48 79 49 81 50 35 51 84 52 78 53 77 54 36 56
REMARK SMILES IDX 66 57 47 58 65 59 48 60 51 61 64 62 82 63 49 64 50 65 63 67
REMARK SMILES IDX 83 68 52 69 37 70 38 71 46 72 39 73 45 74 40 75 41 76 42 77
REMARK SMILES IDX 43 78 44 79 67 80 68 81 76 82 69 83 75 84 70 85 71 86 72 87
REMARK SMILES IDX 73 88 74 89 53 90 54 91 62 92 55 93 61 94 56 95 57 96 58 97
REMARK SMILES IDX 59 98 60 99
REMARK H PARENT 20 5 8 15 25 36 81 55 51 66
REMARK Flexibility Score: inf
ROOT
ATOM      1  C   UNL A   1      36.213  22.517  26.112  1.00  0.00     0.116 C 
ENDROOT
BRANCH   1   2
ATOM      2  N   UNL A   1      35.297  21.371  25.947  1.00  0.00    -0.356 N 
ATOM      3  C   UNL A   1      34.263  21.167  25.045  1.00  0.00     0.224 C 
ATOM      4  O   UNL A   1      33.599  20.133  25.055  1.00  0.00    -0.275 OA
ATOM      5  H   UNL A   1      35.445  20.632  26.579  1.00  0.00     0.163 HD
BRANCH   3   6
ATOM      6  C   UNL A   1      33.990  22.322  24.140  1.00  0.00     0.094 C 
ATOM      7  C   UNL A   1      33.649  23.799  24.428  1.00  0.00     0.094 C 
ATOM      8  C   UNL A   1      33.133  24.169  23.011  1.00  0.00     0.002 C 
ATOM      9  C   UNL A   1      31.680  23.935  23.130  1.00  0.00     0.005 C 
ATOM     10  C   UNL A   1      33.381  22.987  22.047  1.00  0.00     0.009 C 
ATOM     11  C   UNL A   1      32.937  21.972  23.085  1.00  0.00     0.002 C 
ATOM     12  C   UNL A   1      31.579  22.458  23.538  1.00  0.00     0.005 C 
BRANCH   7  13
ATOM     13  C   UNL A   1      32.803  24.244  25.695  1.00  0.00     0.229 C 
ATOM     14  N   UNL A   1      32.007  25.309  26.033  1.00  0.00    -0.317 N 
ATOM     15  H   UNL A   1      31.682  25.103  26.939  1.00  0.00     0.170 HD
ATOM     16  O   UNL A   1      32.842  23.413  26.632  1.00  0.00    -0.274 OA
BRANCH  14  17
ATOM     17  C   UNL A   1      31.422  26.565  25.715  1.00  0.00     0.110 A 
ATOM     18  C   UNL A   1      31.521  27.988  25.684  1.00  0.00     0.098 A 
ATOM     19  C   UNL A   1      30.601  28.508  24.660  1.00  0.00    -0.017 A 
ATOM     20  S   UNL A   1      29.881  26.107  24.998  1.00  0.00    -0.122 S 
ATOM     21  C   UNL A   1      29.705  27.580  24.202  1.00  0.00     0.011 A 
ATOM     22  C   UNL A   1      30.651  29.900  24.073  1.00  0.00     0.038 C 
ATOM     23  C   UNL A   1      28.659  27.830  23.157  1.00  0.00     0.047 C 
ATOM     24  C   UNL A   1      29.379  30.265  23.313  1.00  0.00     0.005 C 
ATOM     25  C   UNL A   1      28.954  29.128  22.382  1.00  0.00     0.006 C 
BRANCH  18  26
ATOM     26  C   UNL A   1      32.457  29.028  26.234  1.00  0.00     0.341 C 
ATOM     27  O   UNL A   1      32.152  29.660  27.245  1.00  0.00    -0.246 OA
BRANCH  26  28
ATOM     28  O   UNL A   1      33.688  29.218  25.627  1.00  0.00    -0.462 OA
BRANCH  28  29
ATOM     29  C   UNL A   1      34.091  28.126  24.733  1.00  0.00     0.230 C 
ATOM     30  C   UNL A   1      34.010  28.489  23.243  1.00  0.00     0.049 C 
ENDBRANCH  28  29
ENDBRANCH  26  28
ENDBRANCH  18  26
ENDBRANCH  14  17
ENDBRANCH   7  13
ENDBRANCH   3   6
ENDBRANCH   1   2
BRANCH   1  31
ATOM     31  C   UNL A   1      37.465  22.489  25.246  1.00  0.00     0.023 C 
BRANCH  31  32
ATOM     32  C   UNL A   1      38.158  21.143  25.261  1.00  0.00     0.023 C 
BRANCH  32  33
ATOM     33  C   UNL A   1      39.405  21.132  26.127  1.00  0.00     0.116 C 
BRANCH  33  34
ATOM     34  N   UNL A   1      40.110  19.855  26.084  1.00  0.00    -0.352 N 
ATOM     35  C   UNL A   1      41.469  19.660  26.112  1.00  0.00     0.251 C 
ATOM     36  H   UNL A   1      39.552  19.046  26.029  1.00  0.00     0.163 HD
ATOM     37  O   UNL A   1      41.958  18.553  25.924  1.00  0.00    -0.269 OA
BRANCH  35  38
ATOM     38  C   UNL A   1      42.314  20.845  26.334  1.00  0.00     0.039 A 
ATOM     39  C   UNL A   1      42.711  21.601  25.232  1.00  0.00     0.014 A 
ATOM     40  C   UNL A   1      42.565  21.277  27.640  1.00  0.00     0.014 A 
ATOM     41  C   UNL A   1      43.315  22.838  25.447  1.00  0.00     0.010 A 
ATOM     42  C   UNL A   1      43.083  22.547  27.847  1.00  0.00     0.010 A 
ATOM     43  C   UNL A   1      43.464  23.338  26.753  1.00  0.00    -0.014 A 
BRANCH  43  44
ATOM     44  C   UNL A   1      44.004  24.698  26.990  1.00  0.00     0.031 A 
ATOM     45  C   UNL A   1      43.082  25.807  27.412  1.00  0.00     0.074 A 
ATOM     46  C   UNL A   1      45.312  24.939  26.776  1.00  0.00     0.049 A 
ATOM     47  N   UNL A   1      43.361  27.062  27.646  1.00  0.00    -0.248 NA
ATOM     48  C   UNL A   1      41.657  25.468  27.574  1.00  0.00     0.031 C 
ATOM     49  C   UNL A   1      46.295  23.951  26.319  1.00  0.00     0.029 A 
ATOM     50  N   UNL A   1      46.044  26.091  26.915  1.00  0.00    -0.354 N 
ATOM     51  C   UNL A   1      42.152  27.662  27.974  1.00  0.00     0.074 A 
ATOM     52  C   UNL A   1      41.128  26.650  27.854  1.00  0.00     0.031 C 
ATOM     53  C   UNL A   1      47.504  24.532  26.252  1.00  0.00     0.029 A 
ATOM     54  C   UNL A   1      47.378  25.940  26.612  1.00  0.00     0.049 A 
ATOM     55  H   UNL A   1      45.652  26.946  27.205  1.00  0.00     0.167 HD
ATOM     56  C   UNL A   1      41.920  28.938  28.363  1.00  0.00     0.031 A 
ATOM     57  C   UNL A   1      48.383  26.836  26.615  1.00  0.00     0.031 A 
ATOM     58  C   UNL A   1      42.945  29.939  28.481  1.00  0.00     0.049 A 
ATOM     59  C   UNL A   1      48.091  28.254  27.025  1.00  0.00     0.074 A 
ATOM     60  C   UNL A   1      42.820  31.248  28.915  1.00  0.00     0.029 A 
ATOM     61  N   UNL A   1      44.280  29.750  28.159  1.00  0.00    -0.354 N 
ATOM     62  N   UNL A   1      46.953  28.784  27.407  1.00  0.00    -0.248 NA
ATOM     63  C   UNL A   1      49.221  29.193  27.013  1.00  0.00     0.031 C 
ATOM     64  C   UNL A   1      44.068  31.867  28.795  1.00  0.00     0.029 A 
ATOM     65  C   UNL A   1      44.985  30.925  28.354  1.00  0.00     0.049 A 
ATOM     66  H   UNL A   1      44.670  28.905  27.839  1.00  0.00     0.167 HD
ATOM     67  C   UNL A   1      47.236  30.112  27.704  1.00  0.00     0.074 A 
ATOM     68  C   UNL A   1      48.656  30.297  27.481  1.00  0.00     0.031 C 
ATOM     69  C   UNL A   1      46.398  31.093  28.124  1.00  0.00     0.031 A 
BRANCH  56  70
ATOM     70  C   UNL A   1      40.500  29.323  28.687  1.00  0.00    -0.014 A 
ATOM     71  C   UNL A   1      39.544  29.496  27.669  1.00  0.00     0.010 A 
ATOM     72  C   UNL A   1      40.102  29.457  30.029  1.00  0.00     0.010 A 
ATOM     73  C   UNL A   1      38.224  29.824  27.986  1.00  0.00     0.020 A 
ATOM     74  C   UNL A   1      38.776  29.756  30.352  1.00  0.00     0.020 A 
ATOM     75  C   UNL A   1      37.847  29.949  29.327  1.00  0.00     0.054 A 
BRANCH  75  76
ATOM     76  S   UNL A   1      36.116  30.332  29.709  1.00  0.00     0.124 S 
ATOM     77  O   UNL A   1      36.123  31.792  29.706  1.00  0.00    -0.237 OA
ATOM     78  O   UNL A   1      35.400  29.705  28.600  1.00  0.00    -0.237 OA
ATOM     79  O   UNL A   1      35.902  29.713  31.015  1.00  0.00    -0.744 OA
ENDBRANCH  75  76
ENDBRANCH  56  70
BRANCH  57  80
ATOM     80  C   UNL A   1      49.758  26.421  26.221  1.00  0.00    -0.014 A 
ATOM     81  C   UNL A   1      50.576  25.704  27.113  1.00  0.00     0.010 A 
ATOM     82  C   UNL A   1      50.261  26.746  24.948  1.00  0.00     0.010 A 
ATOM     83  C   UNL A   1      51.877  25.346  26.751  1.00  0.00     0.020 A 
ATOM     84  C   UNL A   1      51.549  26.361  24.569  1.00  0.00     0.020 A 
ATOM     85  C   UNL A   1      52.356  25.675  25.480  1.00  0.00     0.054 A 
BRANCH  85  86
ATOM     86  S   UNL A   1      54.036  25.171  25.019  1.00  0.00     0.124 S 
ATOM     87  O   UNL A   1      54.198  25.806  23.715  1.00  0.00    -0.237 OA
ATOM     88  O   UNL A   1      54.840  25.733  26.101  1.00  0.00    -0.237 OA
ATOM     89  O   UNL A   1      53.963  23.712  25.002  1.00  0.00    -0.744 OA
ENDBRANCH  85  86
ENDBRANCH  57  80
BRANCH  69  90
ATOM     90  C   UNL A   1      46.998  32.447  28.398  1.00  0.00    -0.014 A 
ATOM     91  C   UNL A   1      46.951  33.475  27.440  1.00  0.00     0.010 A 
ATOM     92  C   UNL A   1      47.570  32.709  29.657  1.00  0.00     0.010 A 
ATOM     93  C   UNL A   1      47.497  34.730  27.723  1.00  0.00     0.020 A 
ATOM     94  C   UNL A   1      48.086  33.972  29.956  1.00  0.00     0.020 A 
ATOM     95  C   UNL A   1      48.060  34.970  28.980  1.00  0.00     0.054 A 
BRANCH  95  96
ATOM     96  S   UNL A   1      48.723  36.620  29.336  1.00  0.00     0.124 S 
ATOM     97  O   UNL A   1      47.509  37.429  29.401  1.00  0.00    -0.237 OA
ATOM     98  O   UNL A   1      49.414  36.419  30.609  1.00  0.00    -0.237 OA
ATOM     99  O   UNL A   1      49.596  36.898  28.198  1.00  0.00    -0.744 OA
ENDBRANCH  95  96
ENDBRANCH  69  90
ENDBRANCH  43  44
ENDBRANCH  35  38
ENDBRANCH  33  34
ENDBRANCH  32  33
ENDBRANCH  31  32
ENDBRANCH   1  31
TORSDOF 19
ENDMDL
MODEL 3
REMARK VINA RESULT:     -11.3      5.795     11.361
REMARK SMILES CCOC(=O)c1c(NC(=O)[C@@H]2[C@@H]3CC[C@@H](C3)[C@@H]2C(=O)NCCCCNC(=O)c2ccc(-c3c4nc(c(-c5ccc(S(=O)(=O)[O-])cc5)c5ccc([nH]5)c(-c5ccc(S(=O)(=O)[O-])cc5)c5nc(c(-c6ccc(S(=O)(=O)[O-])cc6)c6ccc3[nH]6)C=C5)C=C4)cc2)sc2c1CCCC2
REMARK SMILES IDX 21 1 20 2 18 3 19 4 17 6 11 7 12 8 13 9 16 10 15 11 14 12
REMARK SMILES IDX 9 13 8 14 10 16 7 17 6 18 90 19 88 20 89 21 91 22 94 23
REMARK SMILES IDX 92 24 93 25 4 26 5 27 3 28 2 29 1 30 22 31 23 32 24 33 25 34
REMARK SMILES IDX 26 35 27 37 28 38 29 39 87 40 30 41 86 42 31 43 32 44 33 45
REMARK SMILES IDX 80 46 34 47 85 48 79 49 81 50 35 51 84 52 78 53 77 54 36 56
REMARK SMILES IDX 66 57 47 58 65 59 48 60 51 61 64 62 82 63 49 64 50 65 63 67
REMARK SMILES IDX 83 68 52 69 37 70 38 71 46 72 39 73 45 74 40 75 41 76 42 77
REMARK SMILES IDX 43 78 44 79 67 80 68 81 76 82 69 83 75 84 70 85 71 86 72 87
REMARK SMILES IDX 73 88 74 89 53 90 54 91 62 92 55 93 61 94 56 95 57 96 58 97
REMARK SMILES IDX 59 98 60 99
REMARK H PARENT 20 5 8 15 25 36 81 55 51 66
REMARK Flexibility Score: inf
ROOT
ATOM      1  C   UNL A   1      33.391  29.403  26.968  1.00  0.00     0.116 C 
ENDROOT
BRANCH   1   2
ATOM      2  N   UNL A   1      34.058  28.250  26.332  1.00  0.00    -0.356 N 
ATOM      3  C   UNL A   1      33.622  27.399  25.326  1.00  0.00     0.224 C 
ATOM      4  O   UNL A   1      34.326  26.480  24.914  1.00  0.00    -0.275 OA
ATOM      5  H   UNL A   1      34.958  28.053  26.677  1.00  0.00     0.163 HD
BRANCH   3   6
ATOM      6  C   UNL A   1      32.227  27.651  24.861  1.00  0.00     0.094 C 
ATOM      7  C   UNL A   1      30.869  27.081  25.319  1.00  0.00     0.094 C 
ATOM      8  C   UNL A   1      30.033  27.527  24.089  1.00  0.00     0.002 C 
ATOM      9  C   UNL A   1      30.099  26.342  23.211  1.00  0.00     0.005 C 
ATOM     10  C   UNL A   1      30.901  28.421  23.174  1.00  0.00     0.009 C 
ATOM     11  C   UNL A   1      32.109  27.516  23.339  1.00  0.00     0.002 C 
ATOM     12  C   UNL A   1      31.605  26.135  22.987  1.00  0.00     0.005 C 
BRANCH   7  13
ATOM     13  C   UNL A   1      30.709  25.597  25.858  1.00  0.00     0.229 C 
ATOM     14  N   UNL A   1      31.423  24.428  25.777  1.00  0.00    -0.317 N 
ATOM     15  H   UNL A   1      30.910  23.781  26.312  1.00  0.00     0.170 HD
ATOM     16  O   UNL A   1      29.682  25.433  26.557  1.00  0.00    -0.274 OA
BRANCH  14  17
ATOM     17  C   UNL A   1      32.541  23.694  25.296  1.00  0.00     0.110 A 
ATOM     18  C   UNL A   1      33.180  22.997  24.227  1.00  0.00     0.098 A 
ATOM     19  C   UNL A   1      34.632  22.990  24.461  1.00  0.00    -0.017 A 
ATOM     20  S   UNL A   1      33.636  23.705  26.674  1.00  0.00    -0.122 S 
ATOM     21  C   UNL A   1      34.988  23.382  25.725  1.00  0.00     0.011 A 
ATOM     22  C   UNL A   1      35.680  22.672  23.419  1.00  0.00     0.038 C 
ATOM     23  C   UNL A   1      36.394  23.475  26.236  1.00  0.00     0.047 C 
ATOM     24  C   UNL A   1      37.052  22.398  24.027  1.00  0.00     0.005 C 
ATOM     25  C   UNL A   1      37.406  23.456  25.075  1.00  0.00     0.006 C 
BRANCH  18  26
ATOM     26  C   UNL A   1      32.789  22.500  22.863  1.00  0.00     0.341 C 
ATOM     27  O   UNL A   1      32.995  23.197  21.870  1.00  0.00    -0.246 OA
BRANCH  26  28
ATOM     28  O   UNL A   1      32.256  21.227  22.734  1.00  0.00    -0.462 OA
BRANCH  28  29
ATOM     29  C   UNL A   1      32.231  20.458  23.984  1.00  0.00     0.230 C 
ATOM     30  C   UNL A   1      33.129  19.213  23.958  1.00  0.00     0.049 C 
ENDBRANCH  28  29
ENDBRANCH  26  28
ENDBRANCH  18  26
ENDBRANCH  14  17
ENDBRANCH   7  13
ENDBRANCH   3   6
ENDBRANCH   1   2
BRANCH   1  31
ATOM     31  C   UNL A   1      34.319  30.450  27.570  1.00  0.00     0.023 C 
BRANCH  31  32
ATOM     32  C   UNL A   1      35.750  29.970  27.678  1.00  0.00     0.023 C 
BRANCH  32  33
ATOM     33  C   UNL A   1      36.073  29.380  29.039  1.00  0.00     0.116 C 
BRANCH  33  34
ATOM     34  N   UNL A   1      35.783  30.296  30.136  1.00  0.00    -0.352 N 
ATOM     35  C   UNL A   1      36.690  30.906  30.967  1.00  0.00     0.251 C 
ATOM     36  H   UNL A   1      34.833  30.499  30.300  1.00  0.00     0.163 HD
ATOM     37  O   UNL A   1      36.329  31.543  31.948  1.00  0.00    -0.269 OA
BRANCH  35  38
ATOM     38  C   UNL A   1      38.117  30.726  30.650  1.00  0.00     0.039 A 
ATOM     39  C   UNL A   1      38.898  29.942  31.498  1.00  0.00     0.014 A 
ATOM     40  C   UNL A   1      38.619  31.205  29.436  1.00  0.00     0.014 A 
ATOM     41  C   UNL A   1      40.181  29.583  31.090  1.00  0.00     0.010 A 
ATOM     42  C   UNL A   1      39.861  30.770  28.996  1.00  0.00     0.010 A 
ATOM     43  C   UNL A   1      40.653  29.957  29.820  1.00  0.00    -0.014 A 
BRANCH  43  44
ATOM     44  C   UNL A   1      41.972  29.489  29.331  1.00  0.00     0.031 A 
ATOM     45  C   UNL A   1      43.132  30.444  29.275  1.00  0.00     0.074 A 
ATOM     46  C   UNL A   1      42.107  28.221  28.896  1.00  0.00     0.049 A 
ATOM     47  N   UNL A   1      44.352  30.228  28.860  1.00  0.00    -0.248 NA
ATOM     48  C   UNL A   1      42.884  31.825  29.723  1.00  0.00     0.031 C 
ATOM     49  C   UNL A   1      41.039  27.217  28.859  1.00  0.00     0.029 A 
ATOM     50  N   UNL A   1      43.200  27.558  28.399  1.00  0.00    -0.354 N 
ATOM     51  C   UNL A   1      45.014  31.443  28.990  1.00  0.00     0.074 A 
ATOM     52  C   UNL A   1      44.047  32.406  29.467  1.00  0.00     0.031 C 
ATOM     53  C   UNL A   1      41.540  26.058  28.401  1.00  0.00     0.029 A 
ATOM     54  C   UNL A   1      42.947  26.246  28.067  1.00  0.00     0.049 A 
ATOM     55  H   UNL A   1      44.083  27.979  28.291  1.00  0.00     0.167 HD
ATOM     56  C   UNL A   1      46.316  31.725  28.753  1.00  0.00     0.031 A 
ATOM     57  C   UNL A   1      43.756  25.305  27.544  1.00  0.00     0.031 A 
ATOM     58  C   UNL A   1      47.272  30.761  28.280  1.00  0.00     0.049 A 
ATOM     59  C   UNL A   1      45.193  25.653  27.265  1.00  0.00     0.074 A 
ATOM     60  C   UNL A   1      48.627  30.935  28.057  1.00  0.00     0.029 A 
ATOM     61  N   UNL A   1      46.978  29.447  27.949  1.00  0.00    -0.354 N 
ATOM     62  N   UNL A   1      45.820  26.788  27.468  1.00  0.00    -0.248 NA
ATOM     63  C   UNL A   1      46.034  24.592  26.696  1.00  0.00     0.031 C 
ATOM     64  C   UNL A   1      49.138  29.745  27.531  1.00  0.00     0.029 A 
ATOM     65  C   UNL A   1      48.117  28.807  27.494  1.00  0.00     0.049 A 
ATOM     66  H   UNL A   1      46.089  29.031  28.026  1.00  0.00     0.167 HD
ATOM     67  C   UNL A   1      47.135  26.569  27.074  1.00  0.00     0.074 A 
ATOM     68  C   UNL A   1      47.217  25.188  26.644  1.00  0.00     0.031 C 
ATOM     69  C   UNL A   1      48.182  27.432  27.066  1.00  0.00     0.031 A 
BRANCH  56  70
ATOM     70  C   UNL A   1      46.783  33.135  29.003  1.00  0.00    -0.014 A 
ATOM     71  C   UNL A   1      46.789  34.092  27.971  1.00  0.00     0.010 A 
ATOM     72  C   UNL A   1      47.166  33.525  30.299  1.00  0.00     0.010 A 
ATOM     73  C   UNL A   1      47.196  35.404  28.224  1.00  0.00     0.020 A 
ATOM     74  C   UNL A   1      47.545  34.844  30.563  1.00  0.00     0.020 A 
ATOM     75  C   UNL A   1      47.569  35.773  29.520  1.00  0.00     0.054 A 
BRANCH  75  76
ATOM     76  S   UNL A   1      48.050  37.495  29.826  1.00  0.00     0.124 S 
ATOM     77  O   UNL A   1      49.142  37.676  28.873  1.00  0.00    -0.237 OA
ATOM     78  O   UNL A   1      46.823  38.226  29.523  1.00  0.00    -0.237 OA
ATOM     79  O   UNL A   1      48.445  37.501  31.233  1.00  0.00    -0.744 OA
ENDBRANCH  75  76
ENDBRANCH  56  70
BRANCH  57  80
ATOM     80  C   UNL A   1      43.229  23.942  27.252  1.00  0.00    -0.014 A 
ATOM     81  C   UNL A   1      42.805  23.598  25.956  1.00  0.00     0.010 A 
ATOM     82  C   UNL A   1      43.144  22.980  28.275  1.00  0.00     0.010 A 
ATOM     83  C   UNL A   1      42.280  22.329  25.695  1.00  0.00     0.020 A 
ATOM     84  C   UNL A   1      42.651  21.699  28.011  1.00  0.00     0.020 A 
ATOM     85  C   UNL A   1      42.207  21.386  26.725  1.00  0.00     0.054 A 
BRANCH  85  86
ATOM     86  S   UNL A   1      41.554  19.735  26.355  1.00  0.00     0.124 S 
ATOM     87  O   UNL A   1      42.356  19.342  25.200  1.00  0.00    -0.237 OA
ATOM     88  O   UNL A   1      41.826  19.007  27.592  1.00  0.00    -0.237 OA
ATOM     89  O   UNL A   1      40.139  19.979  26.083  1.00  0.00    -0.744 OA
ENDBRANCH  85  86
ENDBRANCH  57  80
BRANCH  69  90
ATOM     90  C   UNL A   1      49.514  26.901  26.607  1.00  0.00    -0.014 A 
ATOM     91  C   UNL A   1      50.394  26.265  27.501  1.00  0.00     0.010 A 
ATOM     92  C   UNL A   1      49.866  26.994  25.248  1.00  0.00     0.010 A 
ATOM     93  C   UNL A   1      51.618  25.764  27.049  1.00  0.00     0.020 A 
ATOM     94  C   UNL A   1      51.073  26.464  24.787  1.00  0.00     0.020 A 
ATOM     95  C   UNL A   1      51.949  25.866  25.695  1.00  0.00     0.054 A 
BRANCH  95  96
ATOM     96  S   UNL A   1      53.524  25.169  25.128  1.00  0.00     0.124 S 
ATOM     97  O   UNL A   1      54.476  25.775  26.055  1.00  0.00    -0.237 OA
ATOM     98  O   UNL A   1      53.315  23.732  25.292  1.00  0.00    -0.237 OA
ATOM     99  O   UNL A   1      53.628  25.623  23.743  1.00  0.00    -0.744 OA
ENDBRANCH  95  96
ENDBRANCH  69  90
ENDBRANCH  43  44
ENDBRANCH  35  38
ENDBRANCH  33  34
ENDBRANCH  32  33
ENDBRANCH  31  32
ENDBRANCH   1  31
TORSDOF 19
ENDMDL
