MODEL 1
REMARK VINA RESULT:     -10.2      0.000      0.000
REMARK SMILES C[C@H](C(=O)NCCCCNC(=O)c1ccc(-c2c3nc(c(-c4ccc(S(=O)(=O)[O-])cc4)c4ccc([nH]4)c(-c4ccc(S(=O)(=O)[O-])cc4)c4nc(c(-c5ccc(S(=O)(=O)[O-])cc5)c5ccc2[nH]5)C=C4)C=C3)cc1)c1ccc2c3cc(Cl)ccc3n(C(=O)c3ccc(Cl)cc3)c2c1
REMARK SMILES IDX 7 1 6 2 5 3 3 4 4 5 2 7 1 8 73 9 74 10 95 11 75 12 94 13
REMARK SMILES IDX 76 14 84 15 77 16 83 17 78 18 82 19 79 20 81 21 80 22 85 23
REMARK SMILES IDX 86 24 87 25 88 26 93 27 89 28 92 29 90 30 91 31 8 32 9 33
REMARK SMILES IDX 10 34 11 35 12 37 13 38 14 39 72 40 15 41 71 42 16 43 17 44
REMARK SMILES IDX 18 45 65 46 19 47 70 48 64 49 66 50 20 51 69 52 63 53 62 54
REMARK SMILES IDX 21 56 51 57 32 58 50 59 33 60 36 61 49 62 67 63 34 64 35 65
REMARK SMILES IDX 48 67 68 68 37 69 22 70 23 71 31 72 24 73 30 74 25 75 26 76
REMARK SMILES IDX 27 77 28 78 29 79 52 80 53 81 61 82 54 83 60 84 55 85 56 86
REMARK SMILES IDX 57 87 58 88 59 89 38 90 39 91 47 92 40 93 46 94 41 95 42 96
REMARK SMILES IDX 43 97 44 98 45 99
REMARK H PARENT 5 6 10 36 66 55 36 66
REMARK Flexibility Score: inf
ROOT
ATOM      1  C   UNL A   1      34.261  34.401  28.676  1.00  0.00     0.023 C 
ENDROOT
BRANCH   1   2
ATOM      2  C   UNL A   1      33.649  35.742  29.070  1.00  0.00     0.116 C 
BRANCH   2   3
ATOM      3  N   UNL A   1      32.707  35.691  30.172  1.00  0.00    -0.356 N 
ATOM      4  C   UNL A   1      32.872  36.037  31.484  1.00  0.00     0.227 C 
ATOM      5  O   UNL A   1      31.837  36.178  32.147  1.00  0.00    -0.274 OA
ATOM      6  H   UNL A   1      31.811  35.357  29.939  1.00  0.00     0.163 HD
BRANCH   4   7
ATOM      7  C   UNL A   1      34.236  36.105  32.195  1.00  0.00     0.105 C 
ATOM      8  C   UNL A   1      34.047  37.053  33.388  1.00  0.00     0.023 C 
BRANCH   7   9
ATOM      9  C   UNL A   1      34.920  34.780  32.523  1.00  0.00    -0.034 A 
ATOM     10  C   UNL A   1      34.227  33.566  32.530  1.00  0.00     0.005 A 
ATOM     11  C   UNL A   1      36.298  34.766  32.803  1.00  0.00     0.032 A 
ATOM     12  C   UNL A   1      34.900  32.347  32.653  1.00  0.00     0.011 A 
ATOM     13  C   UNL A   1      36.993  33.537  32.817  1.00  0.00     0.057 A 
ATOM     14  C   UNL A   1      36.306  32.330  32.730  1.00  0.00     0.008 A 
ATOM     15  N   UNL A   1      38.369  33.258  32.769  1.00  0.00    -0.276 N 
ATOM     16  C   UNL A   1      37.266  31.285  32.744  1.00  0.00     0.009 A 
ATOM     17  C   UNL A   1      38.535  31.868  32.834  1.00  0.00     0.057 A 
ATOM     18  C   UNL A   1      37.144  29.880  32.689  1.00  0.00     0.031 A 
ATOM     19  C   UNL A   1      39.682  31.061  32.984  1.00  0.00     0.029 A 
ATOM     20  C   UNL A   1      38.288  29.090  32.765  1.00  0.00     0.041 A 
ATOM     21  C   UNL A   1      39.539  29.669  32.926  1.00  0.00     0.023 A 
ATOM     22  Cl  UNL A   1      38.139  27.377  32.679  1.00  0.00    -0.084 Cl
BRANCH  15  23
ATOM     23  C   UNL A   1      39.364  34.267  32.622  1.00  0.00     0.262 C 
ATOM     24  O   UNL A   1      39.620  34.924  33.624  1.00  0.00    -0.268 OA
BRANCH  23  25
ATOM     25  C   UNL A   1      40.086  34.668  31.374  1.00  0.00     0.040 A 
ATOM     26  C   UNL A   1      39.329  34.745  30.189  1.00  0.00     0.015 A 
ATOM     27  C   UNL A   1      41.472  34.843  31.291  1.00  0.00     0.015 A 
ATOM     28  C   UNL A   1      39.930  35.040  28.963  1.00  0.00     0.021 A 
ATOM     29  C   UNL A   1      42.069  35.180  30.068  1.00  0.00     0.021 A 
ATOM     30  C   UNL A   1      41.299  35.275  28.910  1.00  0.00     0.041 A 
ATOM     31  Cl  UNL A   1      42.043  35.653  27.407  1.00  0.00    -0.084 Cl
ENDBRANCH  23  25
ENDBRANCH  15  23
ENDBRANCH   7   9
ENDBRANCH   4   7
ENDBRANCH   2   3
ENDBRANCH   1   2
BRANCH   1  32
ATOM     32  C   UNL A   1      35.733  34.189  29.035  1.00  0.00     0.023 C 
BRANCH  32  33
ATOM     33  C   UNL A   1      36.204  32.740  29.149  1.00  0.00     0.116 C 
BRANCH  33  34
ATOM     34  N   UNL A   1      35.195  31.776  28.730  1.00  0.00    -0.352 N 
ATOM     35  C   UNL A   1      35.326  30.492  28.248  1.00  0.00     0.251 C 
ATOM     36  H   UNL A   1      34.267  32.094  28.805  1.00  0.00     0.163 HD
ATOM     37  O   UNL A   1      34.341  29.936  27.767  1.00  0.00    -0.269 OA
BRANCH  35  38
ATOM     38  C   UNL A   1      36.638  29.799  28.239  1.00  0.00     0.039 A 
ATOM     39  C   UNL A   1      37.450  29.930  27.107  1.00  0.00     0.014 A 
ATOM     40  C   UNL A   1      37.096  29.061  29.333  1.00  0.00     0.014 A 
ATOM     41  C   UNL A   1      38.766  29.458  27.131  1.00  0.00     0.010 A 
ATOM     42  C   UNL A   1      38.432  28.664  29.387  1.00  0.00     0.010 A 
ATOM     43  C   UNL A   1      39.292  28.898  28.304  1.00  0.00    -0.014 A 
BRANCH  43  44
ATOM     44  C   UNL A   1      40.753  28.660  28.466  1.00  0.00     0.031 A 
ATOM     45  C   UNL A   1      41.368  27.343  28.089  1.00  0.00     0.074 A 
ATOM     46  C   UNL A   1      41.502  29.594  29.087  1.00  0.00     0.049 A 
ATOM     47  N   UNL A   1      42.584  26.911  28.303  1.00  0.00    -0.248 NA
ATOM     48  C   UNL A   1      40.492  26.375  27.412  1.00  0.00     0.031 C 
ATOM     49  C   UNL A   1      41.015  30.892  29.563  1.00  0.00     0.029 A 
ATOM     50  N   UNL A   1      42.826  29.585  29.456  1.00  0.00    -0.354 N 
ATOM     51  C   UNL A   1      42.613  25.606  27.824  1.00  0.00     0.074 A 
ATOM     52  C   UNL A   1      41.283  25.314  27.329  1.00  0.00     0.031 C 
ATOM     53  C   UNL A   1      42.023  31.554  30.151  1.00  0.00     0.029 A 
ATOM     54  C   UNL A   1      43.215  30.714  30.137  1.00  0.00     0.049 A 
ATOM     55  H   UNL A   1      43.437  28.841  29.251  1.00  0.00     0.167 HD
ATOM     56  C   UNL A   1      43.649  24.734  27.798  1.00  0.00     0.031 A 
ATOM     57  C   UNL A   1      44.391  31.039  30.709  1.00  0.00     0.031 A 
ATOM     58  C   UNL A   1      44.972  25.031  28.278  1.00  0.00     0.049 A 
ATOM     59  C   UNL A   1      45.538  30.076  30.632  1.00  0.00     0.074 A 
ATOM     60  C   UNL A   1      46.105  24.235  28.231  1.00  0.00     0.029 A 
ATOM     61  N   UNL A   1      45.343  26.214  28.899  1.00  0.00    -0.354 N 
ATOM     62  N   UNL A   1      45.565  28.873  30.112  1.00  0.00    -0.248 NA
ATOM     63  C   UNL A   1      46.817  30.516  31.208  1.00  0.00     0.031 C 
ATOM     64  C   UNL A   1      47.151  24.926  28.853  1.00  0.00     0.029 A 
ATOM     65  C   UNL A   1      46.680  26.167  29.252  1.00  0.00     0.049 A 
ATOM     66  H   UNL A   1      44.741  26.976  29.065  1.00  0.00     0.167 HD
ATOM     67  C   UNL A   1      46.865  28.418  30.279  1.00  0.00     0.074 A 
ATOM     68  C   UNL A   1      47.599  29.476  30.943  1.00  0.00     0.031 C 
ATOM     69  C   UNL A   1      47.401  27.228  29.912  1.00  0.00     0.031 A 
BRANCH  56  70
ATOM     70  C   UNL A   1      43.370  23.361  27.248  1.00  0.00    -0.014 A 
ATOM     71  C   UNL A   1      42.544  22.455  27.937  1.00  0.00     0.010 A 
ATOM     72  C   UNL A   1      43.956  22.965  26.032  1.00  0.00     0.010 A 
ATOM     73  C   UNL A   1      42.367  21.154  27.457  1.00  0.00     0.020 A 
ATOM     74  C   UNL A   1      43.760  21.674  25.535  1.00  0.00     0.020 A 
ATOM     75  C   UNL A   1      42.991  20.767  26.268  1.00  0.00     0.054 A 
BRANCH  75  76
ATOM     76  S   UNL A   1      42.782  19.062  25.682  1.00  0.00     0.124 S 
ATOM     77  O   UNL A   1      41.327  18.932  25.658  1.00  0.00    -0.237 OA
ATOM     78  O   UNL A   1      43.430  19.085  24.373  1.00  0.00    -0.237 OA
ATOM     79  O   UNL A   1      43.464  18.262  26.697  1.00  0.00    -0.744 OA
ENDBRANCH  75  76
ENDBRANCH  56  70
BRANCH  57  80
ATOM     80  C   UNL A   1      44.524  32.352  31.393  1.00  0.00    -0.014 A 
ATOM     81  C   UNL A   1      44.122  32.497  32.732  1.00  0.00     0.010 A 
ATOM     82  C   UNL A   1      45.137  33.437  30.739  1.00  0.00     0.010 A 
ATOM     83  C   UNL A   1      44.340  33.701  33.409  1.00  0.00     0.020 A 
ATOM     84  C   UNL A   1      45.374  34.635  31.419  1.00  0.00     0.020 A 
ATOM     85  C   UNL A   1      44.973  34.759  32.750  1.00  0.00     0.054 A 
BRANCH  85  86
ATOM     86  S   UNL A   1      45.350  36.271  33.681  1.00  0.00     0.124 S 
ATOM     87  O   UNL A   1      45.351  35.788  35.058  1.00  0.00    -0.237 OA
ATOM     88  O   UNL A   1      46.654  36.658  33.146  1.00  0.00    -0.237 OA
ATOM     89  O   UNL A   1      44.253  37.170  33.330  1.00  0.00    -0.744 OA
ENDBRANCH  85  86
ENDBRANCH  57  80
BRANCH  69  90
ATOM     90  C   UNL A   1      48.862  27.010  30.188  1.00  0.00    -0.014 A 
ATOM     91  C   UNL A   1      49.829  27.219  29.189  1.00  0.00     0.010 A 
ATOM     92  C   UNL A   1      49.277  26.665  31.487  1.00  0.00     0.010 A 
ATOM     93  C   UNL A   1      51.188  27.078  29.484  1.00  0.00     0.020 A 
ATOM     94  C   UNL A   1      50.635  26.540  31.789  1.00  0.00     0.020 A 
ATOM     95  C   UNL A   1      51.583  26.740  30.782  1.00  0.00     0.054 A 
BRANCH  95  96
ATOM     96  S   UNL A   1      53.354  26.633  31.162  1.00  0.00     0.124 S 
ATOM     97  O   UNL A   1      53.956  27.211  29.964  1.00  0.00    -0.237 OA
ATOM     98  O   UNL A   1      53.474  27.437  32.376  1.00  0.00    -0.237 OA
ATOM     99  O   UNL A   1      53.581  25.202  31.346  1.00  0.00    -0.744 OA
ENDBRANCH  95  96
ENDBRANCH  69  90
ENDBRANCH  43  44
ENDBRANCH  35  38
ENDBRANCH  33  34
ENDBRANCH  32  33
ENDBRANCH   1  32
TORSDOF 17
ENDMDL
MODEL 2
REMARK VINA RESULT:     -10.0      2.234      2.845
REMARK SMILES C[C@H](C(=O)NCCCCNC(=O)c1ccc(-c2c3nc(c(-c4ccc(S(=O)(=O)[O-])cc4)c4ccc([nH]4)c(-c4ccc(S(=O)(=O)[O-])cc4)c4nc(c(-c5ccc(S(=O)(=O)[O-])cc5)c5ccc2[nH]5)C=C4)C=C3)cc1)c1ccc2c3cc(Cl)ccc3n(C(=O)c3ccc(Cl)cc3)c2c1
REMARK SMILES IDX 7 1 6 2 5 3 3 4 4 5 2 7 1 8 73 9 74 10 95 11 75 12 94 13
REMARK SMILES IDX 76 14 84 15 77 16 83 17 78 18 82 19 79 20 81 21 80 22 85 23
REMARK SMILES IDX 86 24 87 25 88 26 93 27 89 28 92 29 90 30 91 31 8 32 9 33
REMARK SMILES IDX 10 34 11 35 12 37 13 38 14 39 72 40 15 41 71 42 16 43 17 44
REMARK SMILES IDX 18 45 65 46 19 47 70 48 64 49 66 50 20 51 69 52 63 53 62 54
REMARK SMILES IDX 21 56 51 57 32 58 50 59 33 60 36 61 49 62 67 63 34 64 35 65
REMARK SMILES IDX 48 67 68 68 37 69 22 70 23 71 31 72 24 73 30 74 25 75 26 76
REMARK SMILES IDX 27 77 28 78 29 79 52 80 53 81 61 82 54 83 60 84 55 85 56 86
REMARK SMILES IDX 57 87 58 88 59 89 38 90 39 91 47 92 40 93 46 94 41 95 42 96
REMARK SMILES IDX 43 97 44 98 45 99
REMARK H PARENT 5 6 10 36 66 55 36 66
REMARK Flexibility Score: inf
ROOT
ATOM      1  C   UNL A   1      33.373  35.007  28.452  1.00  0.00     0.023 C 
ENDROOT
BRANCH   1   2
ATOM      2  C   UNL A   1      33.050  35.958  29.601  1.00  0.00     0.116 C 
BRANCH   2   3
ATOM      3  N   UNL A   1      32.419  35.343  30.754  1.00  0.00    -0.356 N 
ATOM      4  C   UNL A   1      32.818  35.314  32.060  1.00  0.00     0.227 C 
ATOM      5  O   UNL A   1      31.959  34.982  32.888  1.00  0.00    -0.274 OA
ATOM      6  H   UNL A   1      31.574  34.875  30.566  1.00  0.00     0.163 HD
BRANCH   4   7
ATOM      7  C   UNL A   1      34.272  35.516  32.525  1.00  0.00     0.105 C 
ATOM      8  C   UNL A   1      34.207  36.471  33.724  1.00  0.00     0.023 C 
BRANCH   7   9
ATOM      9  C   UNL A   1      35.116  34.262  32.742  1.00  0.00    -0.034 A 
ATOM     10  C   UNL A   1      35.439  33.391  31.696  1.00  0.00     0.005 A 
ATOM     11  C   UNL A   1      35.612  33.979  34.027  1.00  0.00     0.032 A 
ATOM     12  C   UNL A   1      36.358  32.353  31.874  1.00  0.00     0.011 A 
ATOM     13  C   UNL A   1      36.622  33.003  34.183  1.00  0.00     0.057 A 
ATOM     14  C   UNL A   1      37.007  32.200  33.115  1.00  0.00     0.008 A 
ATOM     15  N   UNL A   1      37.484  32.737  35.260  1.00  0.00    -0.276 N 
ATOM     16  C   UNL A   1      38.045  31.345  33.570  1.00  0.00     0.009 A 
ATOM     17  C   UNL A   1      38.287  31.641  34.916  1.00  0.00     0.057 A 
ATOM     18  C   UNL A   1      38.795  30.336  32.929  1.00  0.00     0.031 A 
ATOM     19  C   UNL A   1      39.193  30.864  35.665  1.00  0.00     0.029 A 
ATOM     20  C   UNL A   1      39.741  29.619  33.658  1.00  0.00     0.041 A 
ATOM     21  C   UNL A   1      39.929  29.868  35.011  1.00  0.00     0.023 A 
ATOM     22  Cl  UNL A   1      40.669  28.401  32.871  1.00  0.00    -0.084 Cl
BRANCH  15  23
ATOM     23  C   UNL A   1      37.517  33.527  36.446  1.00  0.00     0.262 C 
ATOM     24  O   UNL A   1      36.498  33.525  37.125  1.00  0.00    -0.268 OA
BRANCH  23  25
ATOM     25  C   UNL A   1      38.623  34.413  36.927  1.00  0.00     0.040 A 
ATOM     26  C   UNL A   1      38.774  34.554  38.319  1.00  0.00     0.015 A 
ATOM     27  C   UNL A   1      39.419  35.199  36.087  1.00  0.00     0.015 A 
ATOM     28  C   UNL A   1      39.731  35.419  38.860  1.00  0.00     0.021 A 
ATOM     29  C   UNL A   1      40.408  36.034  36.629  1.00  0.00     0.021 A 
ATOM     30  C   UNL A   1      40.558  36.143  38.011  1.00  0.00     0.041 A 
ATOM     31  Cl  UNL A   1      41.746  37.195  38.669  1.00  0.00    -0.084 Cl
ENDBRANCH  23  25
ENDBRANCH  15  23
ENDBRANCH   7   9
ENDBRANCH   4   7
ENDBRANCH   2   3
ENDBRANCH   1   2
BRANCH   1  32
ATOM     32  C   UNL A   1      34.855  34.807  28.125  1.00  0.00     0.023 C 
BRANCH  32  33
ATOM     33  C   UNL A   1      35.380  33.375  28.194  1.00  0.00     0.116 C 
BRANCH  33  34
ATOM     34  N   UNL A   1      34.327  32.373  28.083  1.00  0.00    -0.352 N 
ATOM     35  C   UNL A   1      34.400  31.000  28.002  1.00  0.00     0.251 C 
ATOM     36  H   UNL A   1      33.414  32.739  28.065  1.00  0.00     0.163 HD
ATOM     37  O   UNL A   1      33.385  30.369  27.710  1.00  0.00    -0.269 OA
BRANCH  35  38
ATOM     38  C   UNL A   1      35.683  30.280  28.192  1.00  0.00     0.039 A 
ATOM     39  C   UNL A   1      36.558  30.183  27.104  1.00  0.00     0.014 A 
ATOM     40  C   UNL A   1      36.055  29.739  29.424  1.00  0.00     0.014 A 
ATOM     41  C   UNL A   1      37.851  29.686  27.287  1.00  0.00     0.010 A 
ATOM     42  C   UNL A   1      37.371  29.320  29.626  1.00  0.00     0.010 A 
ATOM     43  C   UNL A   1      38.294  29.332  28.570  1.00  0.00    -0.014 A 
BRANCH  43  44
ATOM     44  C   UNL A   1      39.734  29.086  28.856  1.00  0.00     0.031 A 
ATOM     45  C   UNL A   1      40.372  27.766  28.533  1.00  0.00     0.074 A 
ATOM     46  C   UNL A   1      40.432  30.016  29.539  1.00  0.00     0.049 A 
ATOM     47  N   UNL A   1      41.564  27.326  28.851  1.00  0.00    -0.248 NA
ATOM     48  C   UNL A   1      39.552  26.801  27.785  1.00  0.00     0.031 C 
ATOM     49  C   UNL A   1      39.914  31.317  29.971  1.00  0.00     0.029 A 
ATOM     50  N   UNL A   1      41.720  30.000  30.019  1.00  0.00    -0.354 N 
ATOM     51  C   UNL A   1      41.626  26.022  28.377  1.00  0.00     0.074 A 
ATOM     52  C   UNL A   1      40.341  25.736  27.770  1.00  0.00     0.031 C 
ATOM     53  C   UNL A   1      40.871  31.975  30.643  1.00  0.00     0.029 A 
ATOM     54  C   UNL A   1      42.056  31.128  30.730  1.00  0.00     0.049 A 
ATOM     55  H   UNL A   1      42.342  29.253  29.868  1.00  0.00     0.167 HD
ATOM     56  C   UNL A   1      42.656  25.144  28.439  1.00  0.00     0.031 A 
ATOM     57  C   UNL A   1      43.181  31.447  31.401  1.00  0.00     0.031 A 
ATOM     58  C   UNL A   1      43.935  25.434  29.030  1.00  0.00     0.049 A 
ATOM     59  C   UNL A   1      44.325  30.478  31.423  1.00  0.00     0.074 A 
ATOM     60  C   UNL A   1      45.063  24.632  29.080  1.00  0.00     0.029 A 
ATOM     61  N   UNL A   1      44.257  26.615  29.681  1.00  0.00    -0.354 N 
ATOM     62  N   UNL A   1      44.389  29.274  30.907  1.00  0.00    -0.248 NA
ATOM     63  C   UNL A   1      45.552  30.911  32.105  1.00  0.00     0.031 C 
ATOM     64  C   UNL A   1      46.055  25.318  29.790  1.00  0.00     0.029 A 
ATOM     65  C   UNL A   1      45.559  26.561  30.147  1.00  0.00     0.049 A 
ATOM     66  H   UNL A   1      43.647  27.381  29.794  1.00  0.00     0.167 HD
ATOM     67  C   UNL A   1      45.668  28.812  31.185  1.00  0.00     0.074 A 
ATOM     68  C   UNL A   1      46.349  29.867  31.909  1.00  0.00     0.031 C 
ATOM     69  C   UNL A   1      46.227  27.619  30.865  1.00  0.00     0.031 A 
BRANCH  56  70
ATOM     70  C   UNL A   1      42.417  23.771  27.868  1.00  0.00    -0.014 A 
ATOM     71  C   UNL A   1      42.180  22.666  28.705  1.00  0.00     0.010 A 
ATOM     72  C   UNL A   1      42.446  23.583  26.474  1.00  0.00     0.010 A 
ATOM     73  C   UNL A   1      42.049  21.384  28.162  1.00  0.00     0.020 A 
ATOM     74  C   UNL A   1      42.289  22.306  25.926  1.00  0.00     0.020 A 
ATOM     75  C   UNL A   1      42.122  21.211  26.777  1.00  0.00     0.054 A 
BRANCH  75  76
ATOM     76  S   UNL A   1      41.990  19.535  26.094  1.00  0.00     0.124 S 
ATOM     77  O   UNL A   1      42.440  18.719  27.219  1.00  0.00    -0.237 OA
ATOM     78  O   UNL A   1      40.569  19.426  25.770  1.00  0.00    -0.237 OA
ATOM     79  O   UNL A   1      42.888  19.560  24.942  1.00  0.00    -0.744 OA
ENDBRANCH  75  76
ENDBRANCH  56  70
BRANCH  57  80
ATOM     80  C   UNL A   1      43.262  32.759  32.094  1.00  0.00    -0.014 A 
ATOM     81  C   UNL A   1      42.983  32.854  33.467  1.00  0.00     0.010 A 
ATOM     82  C   UNL A   1      43.708  33.902  31.403  1.00  0.00     0.010 A 
ATOM     83  C   UNL A   1      43.157  34.066  34.143  1.00  0.00     0.020 A 
ATOM     84  C   UNL A   1      43.902  35.110  32.079  1.00  0.00     0.020 A 
ATOM     85  C   UNL A   1      43.625  35.184  33.446  1.00  0.00     0.054 A 
BRANCH  85  86
ATOM     86  S   UNL A   1      43.954  36.715  34.364  1.00  0.00     0.124 S 
ATOM     87  O   UNL A   1      45.323  37.021  33.961  1.00  0.00    -0.237 OA
ATOM     88  O   UNL A   1      42.927  37.620  33.853  1.00  0.00    -0.237 OA
ATOM     89  O   UNL A   1      43.783  36.319  35.760  1.00  0.00    -0.744 OA
ENDBRANCH  85  86
ENDBRANCH  57  80
BRANCH  69  90
ATOM     90  C   UNL A   1      47.658  27.393  31.265  1.00  0.00    -0.014 A 
ATOM     91  C   UNL A   1      47.982  26.814  32.504  1.00  0.00     0.010 A 
ATOM     92  C   UNL A   1      48.687  27.693  30.354  1.00  0.00     0.010 A 
ATOM     93  C   UNL A   1      49.315  26.548  32.831  1.00  0.00     0.020 A 
ATOM     94  C   UNL A   1      50.018  27.412  30.670  1.00  0.00     0.020 A 
ATOM     95  C   UNL A   1      50.325  26.847  31.911  1.00  0.00     0.054 A 
BRANCH  95  96
ATOM     96  S   UNL A   1      52.041  26.427  32.323  1.00  0.00     0.124 S 
ATOM     97  O   UNL A   1      52.651  26.313  31.001  1.00  0.00    -0.237 OA
ATOM     98  O   UNL A   1      52.473  27.574  33.118  1.00  0.00    -0.237 OA
ATOM     99  O   UNL A   1      51.921  25.175  33.066  1.00  0.00    -0.744 OA
ENDBRANCH  95  96
ENDBRANCH  69  90
ENDBRANCH  43  44
ENDBRANCH  35  38
ENDBRANCH  33  34
ENDBRANCH  32  33
ENDBRANCH   1  32
TORSDOF 17
ENDMDL
MODEL 3
REMARK VINA RESULT:      -9.6      2.171      8.235
REMARK SMILES C[C@H](C(=O)NCCCCNC(=O)c1ccc(-c2c3nc(c(-c4ccc(S(=O)(=O)[O-])cc4)c4ccc([nH]4)c(-c4ccc(S(=O)(=O)[O-])cc4)c4nc(c(-c5ccc(S(=O)(=O)[O-])cc5)c5ccc2[nH]5)C=C4)C=C3)cc1)c1ccc2c3cc(Cl)ccc3n(C(=O)c3ccc(Cl)cc3)c2c1
REMARK SMILES IDX 7 1 6 2 5 3 3 4 4 5 2 7 1 8 73 9 74 10 95 11 75 12 94 13
REMARK SMILES IDX 76 14 84 15 77 16 83 17 78 18 82 19 79 20 81 21 80 22 85 23
REMARK SMILES IDX 86 24 87 25 88 26 93 27 89 28 92 29 90 30 91 31 8 32 9 33
REMARK SMILES IDX 10 34 11 35 12 37 13 38 14 39 72 40 15 41 71 42 16 43 17 44
REMARK SMILES IDX 18 45 65 46 19 47 70 48 64 49 66 50 20 51 69 52 63 53 62 54
REMARK SMILES IDX 21 56 51 57 32 58 50 59 33 60 36 61 49 62 67 63 34 64 35 65
REMARK SMILES IDX 48 67 68 68 37 69 22 70 23 71 31 72 24 73 30 74 25 75 26 76
REMARK SMILES IDX 27 77 28 78 29 79 52 80 53 81 61 82 54 83 60 84 55 85 56 86
REMARK SMILES IDX 57 87 58 88 59 89 38 90 39 91 47 92 40 93 46 94 41 95 42 96
REMARK SMILES IDX 43 97 44 98 45 99
REMARK H PARENT 5 6 10 36 66 55 36 66
REMARK Flexibility Score: inf
ROOT
ATOM      1  C   UNL A   1      33.670  35.297  29.088  1.00  0.00     0.023 C 
ENDROOT
BRANCH   1   2
ATOM      2  C   UNL A   1      33.531  35.611  30.576  1.00  0.00     0.116 C 
BRANCH   2   3
ATOM      3  N   UNL A   1      33.127  34.493  31.408  1.00  0.00    -0.356 N 
ATOM      4  C   UNL A   1      33.610  34.080  32.617  1.00  0.00     0.227 C 
ATOM      5  O   UNL A   1      32.901  33.285  33.248  1.00  0.00    -0.274 OA
ATOM      6  H   UNL A   1      32.390  33.949  31.046  1.00  0.00     0.163 HD
BRANCH   4   7
ATOM      7  C   UNL A   1      35.015  34.419  33.148  1.00  0.00     0.105 C 
ATOM      8  C   UNL A   1      34.802  35.327  34.367  1.00  0.00     0.023 C 
BRANCH   7   9
ATOM      9  C   UNL A   1      35.979  33.256  33.368  1.00  0.00    -0.034 A 
ATOM     10  C   UNL A   1      36.207  32.283  32.390  1.00  0.00     0.005 A 
ATOM     11  C   UNL A   1      36.684  33.165  34.581  1.00  0.00     0.032 A 
ATOM     12  C   UNL A   1      37.221  31.331  32.536  1.00  0.00     0.011 A 
ATOM     13  C   UNL A   1      37.779  32.279  34.685  1.00  0.00     0.057 A 
ATOM     14  C   UNL A   1      38.060  31.373  33.667  1.00  0.00     0.008 A 
ATOM     15  N   UNL A   1      38.813  32.202  35.633  1.00  0.00    -0.276 N 
ATOM     16  C   UNL A   1      39.219  30.646  34.045  1.00  0.00     0.009 A 
ATOM     17  C   UNL A   1      39.638  31.122  35.292  1.00  0.00     0.057 A 
ATOM     18  C   UNL A   1      39.942  29.612  33.411  1.00  0.00     0.031 A 
ATOM     19  C   UNL A   1      40.706  30.500  35.971  1.00  0.00     0.029 A 
ATOM     20  C   UNL A   1      41.040  29.050  34.057  1.00  0.00     0.041 A 
ATOM     21  C   UNL A   1      41.411  29.476  35.325  1.00  0.00     0.023 A 
ATOM     22  Cl  UNL A   1      41.932  27.801  33.275  1.00  0.00    -0.084 Cl
BRANCH  15  23
ATOM     23  C   UNL A   1      38.963  33.133  36.701  1.00  0.00     0.262 C 
ATOM     24  O   UNL A   1      38.073  33.139  37.542  1.00  0.00    -0.268 OA
BRANCH  23  25
ATOM     25  C   UNL A   1      40.041  34.155  36.882  1.00  0.00     0.040 A 
ATOM     26  C   UNL A   1      39.787  35.451  36.394  1.00  0.00     0.015 A 
ATOM     27  C   UNL A   1      41.316  33.870  37.383  1.00  0.00     0.015 A 
ATOM     28  C   UNL A   1      40.763  36.451  36.452  1.00  0.00     0.021 A 
ATOM     29  C   UNL A   1      42.280  34.884  37.480  1.00  0.00     0.021 A 
ATOM     30  C   UNL A   1      42.002  36.167  37.013  1.00  0.00     0.041 A 
ATOM     31  Cl  UNL A   1      43.200  37.396  37.101  1.00  0.00    -0.084 Cl
ENDBRANCH  23  25
ENDBRANCH  15  23
ENDBRANCH   7   9
ENDBRANCH   4   7
ENDBRANCH   2   3
ENDBRANCH   1   2
BRANCH   1  32
ATOM     32  C   UNL A   1      35.064  34.894  28.602  1.00  0.00     0.023 C 
BRANCH  32  33
ATOM     33  C   UNL A   1      35.436  33.420  28.747  1.00  0.00     0.116 C 
BRANCH  33  34
ATOM     34  N   UNL A   1      34.399  32.518  28.264  1.00  0.00    -0.352 N 
ATOM     35  C   UNL A   1      34.452  31.180  27.940  1.00  0.00     0.251 C 
ATOM     36  H   UNL A   1      33.514  32.933  28.151  1.00  0.00     0.163 HD
ATOM     37  O   UNL A   1      33.496  30.671  27.359  1.00  0.00    -0.269 OA
BRANCH  35  38
ATOM     38  C   UNL A   1      35.661  30.365  28.218  1.00  0.00     0.039 A 
ATOM     39  C   UNL A   1      36.657  30.297  27.239  1.00  0.00     0.014 A 
ATOM     40  C   UNL A   1      35.845  29.703  29.434  1.00  0.00     0.014 A 
ATOM     41  C   UNL A   1      37.888  29.704  27.531  1.00  0.00     0.010 A 
ATOM     42  C   UNL A   1      37.100  29.184  29.755  1.00  0.00     0.010 A 
ATOM     43  C   UNL A   1      38.147  29.219  28.822  1.00  0.00    -0.014 A 
BRANCH  43  44
ATOM     44  C   UNL A   1      39.525  28.858  29.256  1.00  0.00     0.031 A 
ATOM     45  C   UNL A   1      40.418  29.869  29.915  1.00  0.00     0.074 A 
ATOM     46  C   UNL A   1      40.016  27.646  28.926  1.00  0.00     0.049 A 
ATOM     47  N   UNL A   1      41.688  29.774  30.217  1.00  0.00    -0.248 NA
ATOM     48  C   UNL A   1      39.813  31.167  30.249  1.00  0.00     0.031 C 
ATOM     49  C   UNL A   1      39.275  26.592  28.227  1.00  0.00     0.029 A 
ATOM     50  N   UNL A   1      41.267  27.105  29.104  1.00  0.00    -0.354 N 
ATOM     51  C   UNL A   1      42.048  31.010  30.739  1.00  0.00     0.074 A 
ATOM     52  C   UNL A   1      40.863  31.844  30.692  1.00  0.00     0.031 C 
ATOM     53  C   UNL A   1      40.078  25.534  28.043  1.00  0.00     0.029 A 
ATOM     54  C   UNL A   1      41.403  25.846  28.567  1.00  0.00     0.049 A 
ATOM     55  H   UNL A   1      41.995  27.573  29.571  1.00  0.00     0.167 HD
ATOM     56  C   UNL A   1      43.250  31.413  31.216  1.00  0.00     0.031 A 
ATOM     57  C   UNL A   1      42.474  25.034  28.481  1.00  0.00     0.031 A 
ATOM     58  C   UNL A   1      44.421  30.580  31.274  1.00  0.00     0.049 A 
ATOM     59  C   UNL A   1      43.787  25.483  29.052  1.00  0.00     0.074 A 
ATOM     60  C   UNL A   1      45.666  30.878  31.802  1.00  0.00     0.029 A 
ATOM     61  N   UNL A   1      44.497  29.286  30.782  1.00  0.00    -0.354 N 
ATOM     62  N   UNL A   1      44.088  26.631  29.607  1.00  0.00    -0.248 NA
ATOM     63  C   UNL A   1      44.899  24.525  28.997  1.00  0.00     0.031 C 
ATOM     64  C   UNL A   1      46.503  29.774  31.600  1.00  0.00     0.029 A 
ATOM     65  C   UNL A   1      45.769  28.776  30.981  1.00  0.00     0.049 A 
ATOM     66  H   UNL A   1      43.754  28.801  30.353  1.00  0.00     0.167 HD
ATOM     67  C   UNL A   1      45.420  26.530  29.985  1.00  0.00     0.074 A 
ATOM     68  C   UNL A   1      45.866  25.205  29.603  1.00  0.00     0.031 C 
ATOM     69  C   UNL A   1      46.200  27.454  30.597  1.00  0.00     0.031 A 
BRANCH  56  70
ATOM     70  C   UNL A   1      43.353  32.839  31.688  1.00  0.00    -0.014 A 
ATOM     71  C   UNL A   1      43.570  33.892  30.781  1.00  0.00     0.010 A 
ATOM     72  C   UNL A   1      43.246  33.127  33.061  1.00  0.00     0.010 A 
ATOM     73  C   UNL A   1      43.751  35.198  31.245  1.00  0.00     0.020 A 
ATOM     74  C   UNL A   1      43.400  34.436  33.526  1.00  0.00     0.020 A 
ATOM     75  C   UNL A   1      43.683  35.458  32.617  1.00  0.00     0.054 A 
BRANCH  75  76
ATOM     76  S   UNL A   1      43.960  37.153  33.204  1.00  0.00     0.124 S 
ATOM     77  O   UNL A   1      44.976  36.948  34.234  1.00  0.00    -0.237 OA
ATOM     78  O   UNL A   1      44.418  37.844  32.001  1.00  0.00    -0.237 OA
ATOM     79  O   UNL A   1      42.648  37.567  33.695  1.00  0.00    -0.744 OA
ENDBRANCH  75  76
ENDBRANCH  56  70
BRANCH  57  80
ATOM     80  C   UNL A   1      42.325  23.705  27.832  1.00  0.00    -0.014 A 
ATOM     81  C   UNL A   1      42.716  23.522  26.495  1.00  0.00     0.010 A 
ATOM     82  C   UNL A   1      41.876  22.596  28.574  1.00  0.00     0.010 A 
ATOM     83  C   UNL A   1      42.672  22.251  25.913  1.00  0.00     0.020 A 
ATOM     84  C   UNL A   1      41.850  21.321  28.002  1.00  0.00     0.020 A 
ATOM     85  C   UNL A   1      42.248  21.157  26.673  1.00  0.00     0.054 A 
BRANCH  85  86
ATOM     86  S   UNL A   1      42.308  19.500  25.936  1.00  0.00     0.124 S 
ATOM     87  O   UNL A   1      43.336  19.661  24.913  1.00  0.00    -0.237 OA
ATOM     88  O   UNL A   1      42.673  18.658  27.073  1.00  0.00    -0.237 OA
ATOM     89  O   UNL A   1      40.949  19.300  25.436  1.00  0.00    -0.744 OA
ENDBRANCH  85  86
ENDBRANCH  57  80
BRANCH  69  90
ATOM     90  C   UNL A   1      47.614  27.061  30.925  1.00  0.00    -0.014 A 
ATOM     91  C   UNL A   1      47.922  26.386  32.119  1.00  0.00     0.010 A 
ATOM     92  C   UNL A   1      48.635  27.304  29.988  1.00  0.00     0.010 A 
ATOM     93  C   UNL A   1      49.231  25.968  32.375  1.00  0.00     0.020 A 
ATOM     94  C   UNL A   1      49.940  26.873  30.233  1.00  0.00     0.020 A 
ATOM     95  C   UNL A   1      50.232  26.213  31.429  1.00  0.00     0.054 A 
BRANCH  95  96
ATOM     96  S   UNL A   1      51.909  25.599  31.747  1.00  0.00     0.124 S 
ATOM     97  O   UNL A   1      52.602  25.954  30.512  1.00  0.00    -0.237 OA
ATOM     98  O   UNL A   1      52.311  26.353  32.932  1.00  0.00    -0.237 OA
ATOM     99  O   UNL A   1      51.717  24.167  31.965  1.00  0.00    -0.744 OA
ENDBRANCH  95  96
ENDBRANCH  69  90
ENDBRANCH  43  44
ENDBRANCH  35  38
ENDBRANCH  33  34
ENDBRANCH  32  33
ENDBRANCH   1  32
TORSDOF 17
ENDMDL
