MODEL 1
REMARK VINA RESULT:     -13.1      0.000      0.000
REMARK SMILES Cc1ccc(Nc2c(Cl)cc(Cl)cc2Cl)c(CC(=O)NCCCCNC(=O)c2ccc(-c3c4nc(c(-c5ccc(S(=O)(=O)[O-])cc5)c5ccc([nH]5)c(-c5ccc(S(=O)(=O)[O-])cc5)c5nc(c(-c6ccc(S(=O)(=O)[O-])cc6)c6ccc3[nH]6)C=C5)C=C4)cc2)c1
REMARK SMILES IDX 22 1 21 2 20 3 18 4 19 5 17 7 16 8 1 9 2 10 3 11 88 12 4 13
REMARK SMILES IDX 5 14 6 15 7 17 8 18 14 19 9 20 10 21 13 22 15 23 11 24 12 25
REMARK SMILES IDX 23 26 24 27 25 28 26 29 27 31 28 32 29 33 87 34 30 35 86 36
REMARK SMILES IDX 31 37 32 38 33 39 80 40 34 41 85 42 79 43 81 44 35 45 84 46
REMARK SMILES IDX 78 47 77 48 36 50 66 51 47 52 65 53 48 54 51 55 64 56 82 57
REMARK SMILES IDX 49 58 50 59 63 61 83 62 52 63 37 64 38 65 46 66 39 67 45 68
REMARK SMILES IDX 40 69 41 70 42 71 43 72 44 73 67 74 68 75 76 76 69 77 75 78
REMARK SMILES IDX 70 79 71 80 72 81 73 82 74 83 53 84 54 85 62 86 55 87 61 88
REMARK SMILES IDX 56 89 57 90 58 91 59 92 60 93
REMARK H PARENT 20 6 6 16 25 30 81 49 51 60
REMARK Flexibility Score: inf
ROOT
ATOM      1  C   UNL A   1      32.831  28.741  25.830  1.00  0.00     0.023 C 
ENDROOT
BRANCH   1   2
ATOM      2  C   UNL A   1      34.014  28.080  25.104  1.00  0.00     0.116 C 
BRANCH   2   3
ATOM      3  N   UNL A   1      34.149  28.504  23.717  1.00  0.00    -0.356 N 
ATOM      4  C   UNL A   1      33.950  27.802  22.567  1.00  0.00     0.224 C 
ATOM      5  O   UNL A   1      34.234  28.331  21.488  1.00  0.00    -0.275 OA
ATOM      6  H   UNL A   1      34.426  29.440  23.592  1.00  0.00     0.163 HD
BRANCH   4   7
ATOM      7  C   UNL A   1      33.432  26.376  22.595  1.00  0.00     0.137 C 
BRANCH   7   8
ATOM      8  C   UNL A   1      32.053  26.257  23.205  1.00  0.00    -0.015 A 
ATOM      9  C   UNL A   1      28.804  28.248  22.906  1.00  0.00     0.044 C 
ATOM     10  C   UNL A   1      29.804  27.218  23.335  1.00  0.00    -0.051 A 
ATOM     11  C   UNL A   1      29.522  26.362  24.397  1.00  0.00     0.005 A 
ATOM     12  C   UNL A   1      31.058  27.138  22.727  1.00  0.00     0.009 A 
ATOM     13  C   UNL A   1      30.479  25.444  24.841  1.00  0.00     0.026 A 
ATOM     14  C   UNL A   1      31.759  25.373  24.268  1.00  0.00     0.042 A 
BRANCH  14  15
ATOM     15  N   UNL A   1      32.711  24.424  24.716  1.00  0.00    -0.353 N 
ATOM     16  H   UNL A   1      33.491  24.799  25.184  1.00  0.00     0.167 HD
BRANCH  15  17
ATOM     17  C   UNL A   1      32.699  23.013  24.587  1.00  0.00     0.076 A 
ATOM     18  C   UNL A   1      32.767  22.355  23.342  1.00  0.00     0.067 A 
ATOM     19  C   UNL A   1      32.527  22.212  25.737  1.00  0.00     0.067 A 
ATOM     20  Cl  UNL A   1      33.095  23.202  21.866  1.00  0.00    -0.082 Cl
ATOM     21  C   UNL A   1      32.636  20.965  23.251  1.00  0.00     0.043 A 
ATOM     22  C   UNL A   1      32.404  20.822  25.649  1.00  0.00     0.043 A 
ATOM     23  Cl  UNL A   1      32.430  22.918  27.314  1.00  0.00    -0.082 Cl
ATOM     24  C   UNL A   1      32.448  20.209  24.403  1.00  0.00     0.044 A 
ATOM     25  Cl  UNL A   1      32.275  18.501  24.283  1.00  0.00    -0.084 Cl
ENDBRANCH  15  17
ENDBRANCH  14  15
ENDBRANCH   7   8
ENDBRANCH   4   7
ENDBRANCH   2   3
ENDBRANCH   1   2
BRANCH   1  26
ATOM     26  C   UNL A   1      33.197  29.798  26.872  1.00  0.00     0.023 C 
BRANCH  26  27
ATOM     27  C   UNL A   1      34.604  29.629  27.425  1.00  0.00     0.116 C 
BRANCH  27  28
ATOM     28  N   UNL A   1      35.325  30.879  27.614  1.00  0.00    -0.352 N 
ATOM     29  C   UNL A   1      36.598  31.034  28.139  1.00  0.00     0.251 C 
ATOM     30  H   UNL A   1      34.859  31.702  27.341  1.00  0.00     0.163 HD
ATOM     31  O   UNL A   1      37.042  32.118  28.481  1.00  0.00    -0.269 OA
BRANCH  29  32
ATOM     32  C   UNL A   1      37.457  29.832  28.146  1.00  0.00     0.039 A 
ATOM     33  C   UNL A   1      37.515  29.106  29.342  1.00  0.00     0.014 A 
ATOM     34  C   UNL A   1      38.397  29.636  27.136  1.00  0.00     0.014 A 
ATOM     35  C   UNL A   1      38.630  28.318  29.607  1.00  0.00     0.010 A 
ATOM     36  C   UNL A   1      39.543  28.926  27.440  1.00  0.00     0.010 A 
ATOM     37  C   UNL A   1      39.683  28.316  28.696  1.00  0.00    -0.014 A 
BRANCH  37  38
ATOM     38  C   UNL A   1      40.999  27.759  28.983  1.00  0.00     0.031 A 
ATOM     39  C   UNL A   1      41.266  26.331  28.696  1.00  0.00     0.074 A 
ATOM     40  C   UNL A   1      42.003  28.549  29.428  1.00  0.00     0.049 A 
ATOM     41  N   UNL A   1      42.282  25.678  29.152  1.00  0.00    -0.248 NA
ATOM     42  C   UNL A   1      40.342  25.490  27.936  1.00  0.00     0.031 C 
ATOM     43  C   UNL A   1      43.432  28.236  29.426  1.00  0.00     0.029 A 
ATOM     44  N   UNL A   1      41.919  29.706  30.208  1.00  0.00    -0.354 N 
ATOM     45  C   UNL A   1      42.335  24.489  28.469  1.00  0.00     0.074 A 
ATOM     46  C   UNL A   1      41.035  24.349  27.863  1.00  0.00     0.031 C 
ATOM     47  C   UNL A   1      44.028  28.955  30.388  1.00  0.00     0.029 A 
ATOM     48  C   UNL A   1      42.976  29.619  31.134  1.00  0.00     0.049 A 
ATOM     49  H   UNL A   1      41.258  30.431  30.127  1.00  0.00     0.167 HD
ATOM     50  C   UNL A   1      43.527  23.840  28.357  1.00  0.00     0.031 A 
ATOM     51  C   UNL A   1      42.798  29.534  32.487  1.00  0.00     0.031 A 
ATOM     52  C   UNL A   1      44.520  24.351  29.307  1.00  0.00     0.049 A 
ATOM     53  C   UNL A   1      43.414  28.294  33.116  1.00  0.00     0.074 A 
ATOM     54  C   UNL A   1      45.725  25.025  29.208  1.00  0.00     0.029 A 
ATOM     55  N   UNL A   1      44.183  24.374  30.654  1.00  0.00    -0.354 N 
ATOM     56  N   UNL A   1      44.040  27.358  32.456  1.00  0.00    -0.248 NA
ATOM     57  C   UNL A   1      43.277  27.964  34.534  1.00  0.00     0.031 C 
ATOM     58  C   UNL A   1      46.086  25.484  30.514  1.00  0.00     0.029 A 
ATOM     59  C   UNL A   1      45.120  25.057  31.405  1.00  0.00     0.049 A 
ATOM     60  H   UNL A   1      43.375  23.955  31.029  1.00  0.00     0.167 HD
ATOM     61  C   UNL A   1      44.333  26.311  33.293  1.00  0.00     0.074 A 
ATOM     62  C   UNL A   1      43.840  26.744  34.589  1.00  0.00     0.031 C 
ATOM     63  C   UNL A   1      44.911  25.155  32.845  1.00  0.00     0.031 A 
BRANCH  50  64
ATOM     64  C   UNL A   1      43.848  22.865  27.238  1.00  0.00    -0.014 A 
ATOM     65  C   UNL A   1      42.956  21.814  26.936  1.00  0.00     0.010 A 
ATOM     66  C   UNL A   1      45.070  22.849  26.530  1.00  0.00     0.010 A 
ATOM     67  C   UNL A   1      43.282  20.800  26.013  1.00  0.00     0.020 A 
ATOM     68  C   UNL A   1      45.394  21.867  25.585  1.00  0.00     0.020 A 
ATOM     69  C   UNL A   1      44.506  20.830  25.348  1.00  0.00     0.054 A 
BRANCH  69  70
ATOM     70  S   UNL A   1      44.957  19.498  24.207  1.00  0.00     0.124 S 
ATOM     71  O   UNL A   1      46.407  19.430  24.367  1.00  0.00    -0.237 OA
ATOM     72  O   UNL A   1      44.207  18.360  24.730  1.00  0.00    -0.237 OA
ATOM     73  O   UNL A   1      44.504  19.988  22.905  1.00  0.00    -0.744 OA
ENDBRANCH  69  70
ENDBRANCH  50  64
BRANCH  51  74
ATOM     74  C   UNL A   1      41.574  30.228  32.979  1.00  0.00    -0.014 A 
ATOM     75  C   UNL A   1      41.662  31.622  33.189  1.00  0.00     0.010 A 
ATOM     76  C   UNL A   1      40.306  29.644  32.810  1.00  0.00     0.010 A 
ATOM     77  C   UNL A   1      40.536  32.434  33.044  1.00  0.00     0.020 A 
ATOM     78  C   UNL A   1      39.172  30.458  32.675  1.00  0.00     0.020 A 
ATOM     79  C   UNL A   1      39.312  31.848  32.718  1.00  0.00     0.054 A 
BRANCH  79  80
ATOM     80  S   UNL A   1      37.979  32.939  32.135  1.00  0.00     0.124 S 
ATOM     81  O   UNL A   1      37.765  33.813  33.284  1.00  0.00    -0.237 OA
ATOM     82  O   UNL A   1      38.601  33.567  30.970  1.00  0.00    -0.237 OA
ATOM     83  O   UNL A   1      36.894  32.009  31.838  1.00  0.00    -0.744 OA
ENDBRANCH  79  80
ENDBRANCH  51  74
BRANCH  63  84
ATOM     84  C   UNL A   1      45.269  23.958  33.704  1.00  0.00    -0.014 A 
ATOM     85  C   UNL A   1      46.537  23.743  34.267  1.00  0.00     0.010 A 
ATOM     86  C   UNL A   1      44.314  22.928  33.889  1.00  0.00     0.010 A 
ATOM     87  C   UNL A   1      46.806  22.606  35.047  1.00  0.00     0.020 A 
ATOM     88  C   UNL A   1      44.575  21.781  34.644  1.00  0.00     0.020 A 
ATOM     89  C   UNL A   1      45.818  21.637  35.241  1.00  0.00     0.054 A 
BRANCH  89  90
ATOM     90  S   UNL A   1      46.193  20.175  36.240  1.00  0.00     0.124 S 
ATOM     91  O   UNL A   1      47.637  20.034  36.064  1.00  0.00    -0.237 OA
ATOM     92  O   UNL A   1      45.762  20.597  37.570  1.00  0.00    -0.237 OA
ATOM     93  O   UNL A   1      45.390  19.118  35.632  1.00  0.00    -0.744 OA
ENDBRANCH  89  90
ENDBRANCH  63  84
ENDBRANCH  37  38
ENDBRANCH  29  32
ENDBRANCH  27  28
ENDBRANCH  26  27
ENDBRANCH   1  26
TORSDOF 17
ENDMDL
MODEL 2
REMARK VINA RESULT:     -13.1      4.841     11.238
REMARK SMILES Cc1ccc(Nc2c(Cl)cc(Cl)cc2Cl)c(CC(=O)NCCCCNC(=O)c2ccc(-c3c4nc(c(-c5ccc(S(=O)(=O)[O-])cc5)c5ccc([nH]5)c(-c5ccc(S(=O)(=O)[O-])cc5)c5nc(c(-c6ccc(S(=O)(=O)[O-])cc6)c6ccc3[nH]6)C=C5)C=C4)cc2)c1
REMARK SMILES IDX 22 1 21 2 20 3 18 4 19 5 17 7 16 8 1 9 2 10 3 11 88 12 4 13
REMARK SMILES IDX 5 14 6 15 7 17 8 18 14 19 9 20 10 21 13 22 15 23 11 24 12 25
REMARK SMILES IDX 23 26 24 27 25 28 26 29 27 31 28 32 29 33 87 34 30 35 86 36
REMARK SMILES IDX 31 37 32 38 33 39 80 40 34 41 85 42 79 43 81 44 35 45 84 46
REMARK SMILES IDX 78 47 77 48 36 50 66 51 47 52 65 53 48 54 51 55 64 56 82 57
REMARK SMILES IDX 49 58 50 59 63 61 83 62 52 63 37 64 38 65 46 66 39 67 45 68
REMARK SMILES IDX 40 69 41 70 42 71 43 72 44 73 67 74 68 75 76 76 69 77 75 78
REMARK SMILES IDX 70 79 71 80 72 81 73 82 74 83 53 84 54 85 62 86 55 87 61 88
REMARK SMILES IDX 56 89 57 90 58 91 59 92 60 93
REMARK H PARENT 20 6 6 16 25 30 81 49 51 60
REMARK Flexibility Score: inf
ROOT
ATOM      1  C   UNL A   1      36.805  22.490  24.036  1.00  0.00     0.023 C 
ENDROOT
BRANCH   1   2
ATOM      2  C   UNL A   1      35.282  22.687  24.104  1.00  0.00     0.116 C 
BRANCH   2   3
ATOM      3  N   UNL A   1      34.779  23.633  23.118  1.00  0.00    -0.356 N 
ATOM      4  C   UNL A   1      34.255  24.878  23.291  1.00  0.00     0.224 C 
ATOM      5  O   UNL A   1      33.781  25.468  22.315  1.00  0.00    -0.275 OA
ATOM      6  H   UNL A   1      34.825  23.326  22.183  1.00  0.00     0.163 HD
BRANCH   4   7
ATOM      7  C   UNL A   1      34.204  25.527  24.662  1.00  0.00     0.137 C 
BRANCH   7   8
ATOM      8  C   UNL A   1      32.819  25.519  25.270  1.00  0.00    -0.015 A 
ATOM      9  C   UNL A   1      30.441  22.790  26.496  1.00  0.00     0.044 C 
ATOM     10  C   UNL A   1      30.999  24.137  26.147  1.00  0.00    -0.051 A 
ATOM     11  C   UNL A   1      30.184  25.267  26.181  1.00  0.00     0.005 A 
ATOM     12  C   UNL A   1      32.320  24.278  25.721  1.00  0.00     0.009 A 
ATOM     13  C   UNL A   1      30.685  26.513  25.792  1.00  0.00     0.026 A 
ATOM     14  C   UNL A   1      32.001  26.670  25.325  1.00  0.00     0.042 A 
BRANCH  14  15
ATOM     15  N   UNL A   1      32.499  27.943  24.954  1.00  0.00    -0.353 N 
ATOM     16  H   UNL A   1      33.055  27.957  24.143  1.00  0.00     0.167 HD
BRANCH  15  17
ATOM     17  C   UNL A   1      32.310  29.198  25.585  1.00  0.00     0.076 A 
ATOM     18  C   UNL A   1      31.312  30.113  25.192  1.00  0.00     0.067 A 
ATOM     19  C   UNL A   1      33.205  29.608  26.597  1.00  0.00     0.067 A 
ATOM     20  Cl  UNL A   1      30.077  29.698  24.048  1.00  0.00    -0.082 Cl
ATOM     21  C   UNL A   1      31.235  31.388  25.763  1.00  0.00     0.043 A 
ATOM     22  C   UNL A   1      33.124  30.878  27.175  1.00  0.00     0.043 A 
ATOM     23  Cl  UNL A   1      34.468  28.563  27.153  1.00  0.00    -0.082 Cl
ATOM     24  C   UNL A   1      32.144  31.765  26.744  1.00  0.00     0.044 A 
ATOM     25  Cl  UNL A   1      32.052  33.338  27.435  1.00  0.00    -0.084 Cl
ENDBRANCH  15  17
ENDBRANCH  14  15
ENDBRANCH   7   8
ENDBRANCH   4   7
ENDBRANCH   2   3
ENDBRANCH   1   2
BRANCH   1  26
ATOM     26  C   UNL A   1      37.476  22.037  25.334  1.00  0.00     0.023 C 
BRANCH  26  27
ATOM     27  C   UNL A   1      38.070  23.188  26.132  1.00  0.00     0.116 C 
BRANCH  27  28
ATOM     28  N   UNL A   1      39.249  22.831  26.906  1.00  0.00    -0.352 N 
ATOM     29  C   UNL A   1      40.149  23.699  27.502  1.00  0.00     0.251 C 
ATOM     30  H   UNL A   1      39.428  21.869  27.019  1.00  0.00     0.163 HD
ATOM     31  O   UNL A   1      41.231  23.335  27.932  1.00  0.00    -0.269 OA
BRANCH  29  32
ATOM     32  C   UNL A   1      39.681  25.085  27.715  1.00  0.00     0.039 A 
ATOM     33  C   UNL A   1      40.211  26.065  26.867  1.00  0.00     0.014 A 
ATOM     34  C   UNL A   1      39.020  25.428  28.891  1.00  0.00     0.014 A 
ATOM     35  C   UNL A   1      40.247  27.389  27.295  1.00  0.00     0.010 A 
ATOM     36  C   UNL A   1      39.138  26.726  29.352  1.00  0.00     0.010 A 
ATOM     37  C   UNL A   1      39.802  27.692  28.580  1.00  0.00    -0.014 A 
BRANCH  37  38
ATOM     38  C   UNL A   1      40.038  28.972  29.236  1.00  0.00     0.031 A 
ATOM     39  C   UNL A   1      39.089  30.087  29.023  1.00  0.00     0.074 A 
ATOM     40  C   UNL A   1      41.065  29.125  30.103  1.00  0.00     0.049 A 
ATOM     41  N   UNL A   1      39.337  31.317  29.326  1.00  0.00    -0.248 NA
ATOM     42  C   UNL A   1      37.799  29.914  28.354  1.00  0.00     0.031 C 
ATOM     43  C   UNL A   1      41.229  30.195  31.086  1.00  0.00     0.029 A 
ATOM     44  N   UNL A   1      42.305  28.480  30.107  1.00  0.00    -0.354 N 
ATOM     45  C   UNL A   1      38.150  32.001  29.237  1.00  0.00     0.074 A 
ATOM     46  C   UNL A   1      37.280  31.139  28.477  1.00  0.00     0.031 C 
ATOM     47  C   UNL A   1      42.536  30.333  31.354  1.00  0.00     0.029 A 
ATOM     48  C   UNL A   1      43.250  29.472  30.430  1.00  0.00     0.049 A 
ATOM     49  H   UNL A   1      42.480  27.529  29.920  1.00  0.00     0.167 HD
ATOM     50  C   UNL A   1      37.987  33.144  29.960  1.00  0.00     0.031 A 
ATOM     51  C   UNL A   1      44.247  29.876  29.588  1.00  0.00     0.031 A 
ATOM     52  C   UNL A   1      39.264  33.664  30.458  1.00  0.00     0.049 A 
ATOM     53  C   UNL A   1      44.219  31.363  29.264  1.00  0.00     0.074 A 
ATOM     54  C   UNL A   1      39.838  33.842  31.705  1.00  0.00     0.029 A 
ATOM     55  N   UNL A   1      40.278  33.894  29.538  1.00  0.00    -0.354 N 
ATOM     56  N   UNL A   1      43.324  32.203  29.707  1.00  0.00    -0.248 NA
ATOM     57  C   UNL A   1      45.144  31.995  28.325  1.00  0.00     0.031 C 
ATOM     58  C   UNL A   1      41.222  34.147  31.517  1.00  0.00     0.029 A 
ATOM     59  C   UNL A   1      41.476  34.189  30.159  1.00  0.00     0.049 A 
ATOM     60  H   UNL A   1      40.158  33.853  28.561  1.00  0.00     0.167 HD
ATOM     61  C   UNL A   1      43.492  33.425  29.107  1.00  0.00     0.074 A 
ATOM     62  C   UNL A   1      44.653  33.245  28.252  1.00  0.00     0.031 C 
ATOM     63  C   UNL A   1      42.636  34.471  29.321  1.00  0.00     0.031 A 
BRANCH  50  64
ATOM     64  C   UNL A   1      36.630  33.682  30.379  1.00  0.00    -0.014 A 
ATOM     65  C   UNL A   1      35.687  34.067  29.403  1.00  0.00     0.010 A 
ATOM     66  C   UNL A   1      36.268  33.954  31.717  1.00  0.00     0.010 A 
ATOM     67  C   UNL A   1      34.480  34.711  29.743  1.00  0.00     0.020 A 
ATOM     68  C   UNL A   1      35.058  34.563  32.073  1.00  0.00     0.020 A 
ATOM     69  C   UNL A   1      34.177  34.962  31.080  1.00  0.00     0.054 A 
BRANCH  69  70
ATOM     70  S   UNL A   1      32.658  35.844  31.520  1.00  0.00     0.124 S 
ATOM     71  O   UNL A   1      33.174  37.082  32.097  1.00  0.00    -0.237 OA
ATOM     72  O   UNL A   1      31.980  35.977  30.234  1.00  0.00    -0.237 OA
ATOM     73  O   UNL A   1      32.000  34.948  32.472  1.00  0.00    -0.744 OA
ENDBRANCH  69  70
ENDBRANCH  50  64
BRANCH  51  74
ATOM     74  C   UNL A   1      44.734  28.808  28.670  1.00  0.00    -0.014 A 
ATOM     75  C   UNL A   1      44.062  28.660  27.437  1.00  0.00     0.010 A 
ATOM     76  C   UNL A   1      46.035  28.292  28.803  1.00  0.00     0.010 A 
ATOM     77  C   UNL A   1      44.739  28.184  26.313  1.00  0.00     0.020 A 
ATOM     78  C   UNL A   1      46.712  27.802  27.676  1.00  0.00     0.020 A 
ATOM     79  C   UNL A   1      46.082  27.825  26.429  1.00  0.00     0.054 A 
BRANCH  79  80
ATOM     80  S   UNL A   1      47.037  27.609  24.897  1.00  0.00     0.124 S 
ATOM     81  O   UNL A   1      48.414  27.712  25.370  1.00  0.00    -0.237 OA
ATOM     82  O   UNL A   1      46.613  26.276  24.471  1.00  0.00    -0.237 OA
ATOM     83  O   UNL A   1      46.574  28.710  24.058  1.00  0.00    -0.744 OA
ENDBRANCH  79  80
ENDBRANCH  51  74
BRANCH  63  84
ATOM     84  C   UNL A   1      42.755  35.849  28.701  1.00  0.00    -0.014 A 
ATOM     85  C   UNL A   1      43.516  36.896  29.246  1.00  0.00     0.010 A 
ATOM     86  C   UNL A   1      41.985  36.159  27.552  1.00  0.00     0.010 A 
ATOM     87  C   UNL A   1      43.575  38.155  28.624  1.00  0.00     0.020 A 
ATOM     88  C   UNL A   1      42.019  37.414  26.937  1.00  0.00     0.020 A 
ATOM     89  C   UNL A   1      42.835  38.402  27.465  1.00  0.00     0.054 A 
BRANCH  89  90
ATOM     90  S   UNL A   1      42.920  40.035  26.691  1.00  0.00     0.124 S 
ATOM     91  O   UNL A   1      41.675  40.089  25.928  1.00  0.00    -0.237 OA
ATOM     92  O   UNL A   1      42.982  40.920  27.852  1.00  0.00    -0.237 OA
ATOM     93  O   UNL A   1      44.137  39.980  25.886  1.00  0.00    -0.744 OA
ENDBRANCH  89  90
ENDBRANCH  63  84
ENDBRANCH  37  38
ENDBRANCH  29  32
ENDBRANCH  27  28
ENDBRANCH  26  27
ENDBRANCH   1  26
TORSDOF 17
ENDMDL
MODEL 3
REMARK VINA RESULT:     -13.0      1.556      3.214
REMARK SMILES Cc1ccc(Nc2c(Cl)cc(Cl)cc2Cl)c(CC(=O)NCCCCNC(=O)c2ccc(-c3c4nc(c(-c5ccc(S(=O)(=O)[O-])cc5)c5ccc([nH]5)c(-c5ccc(S(=O)(=O)[O-])cc5)c5nc(c(-c6ccc(S(=O)(=O)[O-])cc6)c6ccc3[nH]6)C=C5)C=C4)cc2)c1
REMARK SMILES IDX 22 1 21 2 20 3 18 4 19 5 17 7 16 8 1 9 2 10 3 11 88 12 4 13
REMARK SMILES IDX 5 14 6 15 7 17 8 18 14 19 9 20 10 21 13 22 15 23 11 24 12 25
REMARK SMILES IDX 23 26 24 27 25 28 26 29 27 31 28 32 29 33 87 34 30 35 86 36
REMARK SMILES IDX 31 37 32 38 33 39 80 40 34 41 85 42 79 43 81 44 35 45 84 46
REMARK SMILES IDX 78 47 77 48 36 50 66 51 47 52 65 53 48 54 51 55 64 56 82 57
REMARK SMILES IDX 49 58 50 59 63 61 83 62 52 63 37 64 38 65 46 66 39 67 45 68
REMARK SMILES IDX 40 69 41 70 42 71 43 72 44 73 67 74 68 75 76 76 69 77 75 78
REMARK SMILES IDX 70 79 71 80 72 81 73 82 74 83 53 84 54 85 62 86 55 87 61 88
REMARK SMILES IDX 56 89 57 90 58 91 59 92 60 93
REMARK H PARENT 20 6 6 16 25 30 81 49 51 60
REMARK Flexibility Score: inf
ROOT
ATOM      1  C   UNL A   1      32.230  28.776  26.678  1.00  0.00     0.023 C 
ENDROOT
BRANCH   1   2
ATOM      2  C   UNL A   1      32.779  27.340  26.690  1.00  0.00     0.116 C 
BRANCH   2   3
ATOM      3  N   UNL A   1      31.752  26.331  26.910  1.00  0.00    -0.356 N 
ATOM      4  C   UNL A   1      31.772  24.995  26.651  1.00  0.00     0.224 C 
ATOM      5  O   UNL A   1      30.739  24.339  26.814  1.00  0.00    -0.275 OA
ATOM      6  H   UNL A   1      30.917  26.667  27.308  1.00  0.00     0.163 HD
BRANCH   4   7
ATOM      7  C   UNL A   1      33.022  24.314  26.124  1.00  0.00     0.137 C 
BRANCH   7   8
ATOM      8  C   UNL A   1      32.814  23.645  24.784  1.00  0.00    -0.015 A 
ATOM      9  C   UNL A   1      32.351  20.031  23.630  1.00  0.00     0.044 C 
ATOM     10  C   UNL A   1      32.501  21.522  23.605  1.00  0.00    -0.051 A 
ATOM     11  C   UNL A   1      32.662  22.193  22.395  1.00  0.00     0.005 A 
ATOM     12  C   UNL A   1      32.548  22.258  24.789  1.00  0.00     0.009 A 
ATOM     13  C   UNL A   1      32.869  23.576  22.374  1.00  0.00     0.026 A 
ATOM     14  C   UNL A   1      32.956  24.331  23.556  1.00  0.00     0.042 A 
BRANCH  14  15
ATOM     15  N   UNL A   1      33.145  25.733  23.517  1.00  0.00    -0.353 N 
ATOM     16  H   UNL A   1      34.064  26.039  23.689  1.00  0.00     0.167 HD
BRANCH  15  17
ATOM     17  C   UNL A   1      32.200  26.759  23.265  1.00  0.00     0.076 A 
ATOM     18  C   UNL A   1      30.815  26.518  23.153  1.00  0.00     0.067 A 
ATOM     19  C   UNL A   1      32.651  28.076  23.028  1.00  0.00     0.067 A 
ATOM     20  Cl  UNL A   1      30.113  24.979  23.533  1.00  0.00    -0.082 Cl
ATOM     21  C   UNL A   1      29.931  27.539  22.789  1.00  0.00     0.043 A 
ATOM     22  C   UNL A   1      31.768  29.100  22.673  1.00  0.00     0.043 A 
ATOM     23  Cl  UNL A   1      34.330  28.481  23.138  1.00  0.00    -0.082 Cl
ATOM     24  C   UNL A   1      30.413  28.819  22.544  1.00  0.00     0.044 A 
ATOM     25  Cl  UNL A   1      29.321  30.068  22.085  1.00  0.00    -0.084 Cl
ENDBRANCH  15  17
ENDBRANCH  14  15
ENDBRANCH   7   8
ENDBRANCH   4   7
ENDBRANCH   2   3
ENDBRANCH   1   2
BRANCH   1  26
ATOM     26  C   UNL A   1      33.239  29.872  26.335  1.00  0.00     0.023 C 
BRANCH  26  27
ATOM     27  C   UNL A   1      34.599  29.655  26.983  1.00  0.00     0.116 C 
BRANCH  27  28
ATOM     28  N   UNL A   1      35.275  30.882  27.376  1.00  0.00    -0.352 N 
ATOM     29  C   UNL A   1      36.479  30.989  28.053  1.00  0.00     0.251 C 
ATOM     30  H   UNL A   1      34.829  31.727  27.137  1.00  0.00     0.163 HD
ATOM     31  O   UNL A   1      36.865  32.035  28.550  1.00  0.00    -0.269 OA
BRANCH  29  32
ATOM     32  C   UNL A   1      37.351  29.796  28.036  1.00  0.00     0.039 A 
ATOM     33  C   UNL A   1      37.366  29.010  29.194  1.00  0.00     0.014 A 
ATOM     34  C   UNL A   1      38.335  29.661  27.059  1.00  0.00     0.014 A 
ATOM     35  C   UNL A   1      38.478  28.219  29.466  1.00  0.00     0.010 A 
ATOM     36  C   UNL A   1      39.475  28.948  27.375  1.00  0.00     0.010 A 
ATOM     37  C   UNL A   1      39.569  28.274  28.603  1.00  0.00    -0.014 A 
BRANCH  37  38
ATOM     38  C   UNL A   1      40.877  27.715  28.918  1.00  0.00     0.031 A 
ATOM     39  C   UNL A   1      41.153  26.291  28.622  1.00  0.00     0.074 A 
ATOM     40  C   UNL A   1      41.869  28.502  29.396  1.00  0.00     0.049 A 
ATOM     41  N   UNL A   1      42.158  25.634  29.097  1.00  0.00    -0.248 NA
ATOM     42  C   UNL A   1      40.249  25.457  27.830  1.00  0.00     0.031 C 
ATOM     43  C   UNL A   1      43.297  28.190  29.427  1.00  0.00     0.029 A 
ATOM     44  N   UNL A   1      41.764  29.650  30.186  1.00  0.00    -0.354 N 
ATOM     45  C   UNL A   1      42.230  24.452  28.403  1.00  0.00     0.074 A 
ATOM     46  C   UNL A   1      40.945  24.318  27.763  1.00  0.00     0.031 C 
ATOM     47  C   UNL A   1      43.869  28.899  30.412  1.00  0.00     0.029 A 
ATOM     48  C   UNL A   1      42.797  29.554  31.138  1.00  0.00     0.049 A 
ATOM     49  H   UNL A   1      41.104  30.375  30.096  1.00  0.00     0.167 HD
ATOM     50  C   UNL A   1      43.425  23.805  28.315  1.00  0.00     0.031 A 
ATOM     51  C   UNL A   1      42.584  29.455  32.484  1.00  0.00     0.031 A 
ATOM     52  C   UNL A   1      44.393  24.308  29.295  1.00  0.00     0.049 A 
ATOM     53  C   UNL A   1      43.185  28.209  33.116  1.00  0.00     0.074 A 
ATOM     54  C   UNL A   1      45.599  24.983  29.234  1.00  0.00     0.029 A 
ATOM     55  N   UNL A   1      44.021  24.316  30.633  1.00  0.00    -0.354 N 
ATOM     56  N   UNL A   1      43.829  27.280  32.462  1.00  0.00    -0.248 NA
ATOM     57  C   UNL A   1      43.013  27.864  34.527  1.00  0.00     0.031 C 
ATOM     58  C   UNL A   1      45.926  25.428  30.553  1.00  0.00     0.029 A 
ATOM     59  C   UNL A   1      44.938  24.991  31.415  1.00  0.00     0.049 A 
ATOM     60  H   UNL A   1      43.204  23.892  30.983  1.00  0.00     0.167 HD
ATOM     61  C   UNL A   1      44.102  26.225  33.296  1.00  0.00     0.074 A 
ATOM     62  C   UNL A   1      43.575  26.643  34.583  1.00  0.00     0.031 C 
ATOM     63  C   UNL A   1      44.692  25.073  32.850  1.00  0.00     0.031 A 
BRANCH  50  64
ATOM     64  C   UNL A   1      43.775  22.842  27.194  1.00  0.00    -0.014 A 
ATOM     65  C   UNL A   1      42.906  21.777  26.877  1.00  0.00     0.010 A 
ATOM     66  C   UNL A   1      45.004  22.853  26.499  1.00  0.00     0.010 A 
ATOM     67  C   UNL A   1      43.260  20.775  25.952  1.00  0.00     0.020 A 
ATOM     68  C   UNL A   1      45.357  21.882  25.552  1.00  0.00     0.020 A 
ATOM     69  C   UNL A   1      44.490  20.831  25.300  1.00  0.00     0.054 A 
BRANCH  69  70
ATOM     70  S   UNL A   1      44.977  19.513  24.157  1.00  0.00     0.124 S 
ATOM     71  O   UNL A   1      44.490  20.018  22.877  1.00  0.00    -0.237 OA
ATOM     72  O   UNL A   1      46.428  19.473  24.312  1.00  0.00    -0.237 OA
ATOM     73  O   UNL A   1      44.272  18.335  24.664  1.00  0.00    -0.744 OA
ENDBRANCH  69  70
ENDBRANCH  50  64
BRANCH  51  74
ATOM     74  C   UNL A   1      41.347  30.143  32.953  1.00  0.00    -0.014 A 
ATOM     75  C   UNL A   1      41.488  31.456  33.451  1.00  0.00     0.010 A 
ATOM     76  C   UNL A   1      40.083  29.713  32.513  1.00  0.00     0.010 A 
ATOM     77  C   UNL A   1      40.443  32.374  33.336  1.00  0.00     0.020 A 
ATOM     78  C   UNL A   1      39.028  30.632  32.407  1.00  0.00     0.020 A 
ATOM     79  C   UNL A   1      39.244  31.970  32.750  1.00  0.00     0.054 A 
BRANCH  79  80
ATOM     80  S   UNL A   1      38.071  33.263  32.241  1.00  0.00     0.124 S 
ATOM     81  O   UNL A   1      38.342  34.328  33.201  1.00  0.00    -0.237 OA
ATOM     82  O   UNL A   1      38.501  33.526  30.868  1.00  0.00    -0.237 OA
ATOM     83  O   UNL A   1      36.773  32.607  32.374  1.00  0.00    -0.744 OA
ENDBRANCH  79  80
ENDBRANCH  51  74
BRANCH  63  84
ATOM     84  C   UNL A   1      45.030  23.869  33.705  1.00  0.00    -0.014 A 
ATOM     85  C   UNL A   1      44.148  22.804  33.954  1.00  0.00     0.010 A 
ATOM     86  C   UNL A   1      46.272  23.832  34.389  1.00  0.00     0.010 A 
ATOM     87  C   UNL A   1      44.523  21.720  34.765  1.00  0.00     0.020 A 
ATOM     88  C   UNL A   1      46.647  22.770  35.216  1.00  0.00     0.020 A 
ATOM     89  C   UNL A   1      45.776  21.705  35.382  1.00  0.00     0.054 A 
BRANCH  89  90
ATOM     90  S   UNL A   1      46.229  20.302  36.433  1.00  0.00     0.124 S 
ATOM     91  O   UNL A   1      45.912  20.795  37.772  1.00  0.00    -0.237 OA
ATOM     92  O   UNL A   1      45.353  19.248  35.929  1.00  0.00    -0.237 OA
ATOM     93  O   UNL A   1      47.652  20.108  36.166  1.00  0.00    -0.744 OA
ENDBRANCH  89  90
ENDBRANCH  63  84
ENDBRANCH  37  38
ENDBRANCH  29  32
ENDBRANCH  27  28
ENDBRANCH  26  27
ENDBRANCH   1  26
TORSDOF 17
ENDMDL
