MODEL 1
REMARK VINA RESULT:      -7.6      0.000      0.000
REMARK SMILES NS(=O)(=O)c1ccc(-n2nc(C(=O)NCCCCCCCCCCC(=O)NCCCCNC(=O)c3ccc(-c4c5nc(c(-c6ccc(S(=O)(=O)[O-])cc6)c6ccc([nH]6)c(-c6ccc(S(=O)(=O)[O-])cc6)c6nc(c(-c7ccc(S(=O)(=O)[O-])cc7)c7ccc4[nH]7)C=C6)C=C5)cc3)cc2-c2ccccc2)cc1
REMARK SMILES IDX 22 1 21 2 20 3 19 4 18 5 17 6 16 7 15 8 14 9 12 10 13 11
REMARK SMILES IDX 11 13 9 14 10 15 96 16 95 17 8 18 5 19 6 20 104 21 7 22
REMARK SMILES IDX 103 23 2 24 3 25 4 26 1 27 97 30 98 31 102 32 99 33 101 34
REMARK SMILES IDX 100 35 23 36 24 37 25 38 26 39 27 40 28 42 29 43 30 44 31 45
REMARK SMILES IDX 32 46 33 47 34 49 35 50 36 51 94 52 37 53 93 54 38 55 39 56
REMARK SMILES IDX 40 57 87 58 41 59 92 60 86 61 88 62 42 63 91 64 85 65 84 66
REMARK SMILES IDX 43 68 73 69 54 70 72 71 55 72 58 73 71 74 89 75 56 76 57 77
REMARK SMILES IDX 70 79 90 80 59 81 44 82 45 83 53 84 46 85 52 86 47 87 48 88
REMARK SMILES IDX 49 89 50 90 51 91 74 92 75 93 83 94 76 95 82 96 77 97 78 98
REMARK SMILES IDX 79 99 80 100 81 101 60 102 61 103 69 104 62 105 68 106
REMARK SMILES IDX 63 107 64 108 65 109 66 110 67 111
REMARK H PARENT 14 12 1 28 1 29 27 41 32 48 88 67 58 78
REMARK Flexibility Score: inf
ROOT
ATOM      1  C   UNL A   1      37.565  29.357  29.603  1.00  0.00     0.001 C 
ENDROOT
BRANCH   1   2
ATOM      2  C   UNL A   1      38.082  30.477  28.695  1.00  0.00     0.000 C 
BRANCH   2   3
ATOM      3  C   UNL A   1      38.041  31.838  29.378  1.00  0.00     0.000 C 
BRANCH   3   4
ATOM      4  C   UNL A   1      39.102  31.998  30.470  1.00  0.00     0.000 C 
BRANCH   4   5
ATOM      5  C   UNL A   1      40.542  31.971  29.944  1.00  0.00     0.000 C 
BRANCH   5   6
ATOM      6  C   UNL A   1      41.252  30.624  30.140  1.00  0.00     0.002 C 
BRANCH   6   7
ATOM      7  C   UNL A   1      42.579  30.731  30.899  1.00  0.00     0.021 C 
BRANCH   7   8
ATOM      8  C   UNL A   1      42.437  30.302  32.359  1.00  0.00     0.116 C 
BRANCH   8   9
ATOM      9  N   UNL A   1      41.581  29.148  32.453  1.00  0.00    -0.351 N 
ATOM     10  C   UNL A   1      40.395  28.939  33.109  1.00  0.00     0.271 C 
ATOM     11  O   UNL A   1      39.928  27.801  33.024  1.00  0.00    -0.267 OA
ATOM     12  H   UNL A   1      41.906  28.365  31.954  1.00  0.00     0.163 HD
BRANCH  10  13
ATOM     13  C   UNL A   1      39.687  30.036  33.801  1.00  0.00     0.151 A 
ATOM     14  N   UNL A   1      38.294  31.665  33.945  1.00  0.00    -0.232 N 
ATOM     15  N   UNL A   1      38.573  30.548  33.247  1.00  0.00    -0.162 NA
ATOM     16  C   UNL A   1      39.132  31.828  35.032  1.00  0.00     0.075 A 
ATOM     17  C   UNL A   1      39.943  30.712  35.020  1.00  0.00     0.065 A 
BRANCH  14  18
ATOM     18  C   UNL A   1      37.231  32.493  33.522  1.00  0.00     0.065 A 
ATOM     19  C   UNL A   1      35.222  34.131  32.546  1.00  0.00     0.082 A 
ATOM     20  C   UNL A   1      34.962  32.774  32.760  1.00  0.00     0.024 A 
ATOM     21  C   UNL A   1      36.470  34.682  32.855  1.00  0.00     0.024 A 
ATOM     22  C   UNL A   1      35.977  31.946  33.234  1.00  0.00     0.030 A 
ATOM     23  C   UNL A   1      37.470  33.865  33.377  1.00  0.00     0.030 A 
BRANCH  19  24
ATOM     24  S   UNL A   1      34.003  35.186  31.831  1.00  0.00     0.238 S 
ATOM     25  O   UNL A   1      32.759  35.003  32.565  1.00  0.00    -0.207 OA
ATOM     26  O   UNL A   1      34.087  35.099  30.406  1.00  0.00    -0.207 OA
BRANCH  24  27
ATOM     27  N   UNL A   1      34.507  36.741  32.230  1.00  0.00    -0.225 NA
ATOM     28  H   UNL A   1      35.204  36.692  32.974  1.00  0.00     0.137 HD
ATOM     29  H   UNL A   1      33.707  37.286  32.549  1.00  0.00     0.137 HD
ENDBRANCH  24  27
ENDBRANCH  19  24
ENDBRANCH  14  18
BRANCH  16  30
ATOM     30  C   UNL A   1      39.062  32.881  36.039  1.00  0.00     0.000 A 
ATOM     31  C   UNL A   1      39.878  34.012  35.950  1.00  0.00     0.010 A 
ATOM     32  C   UNL A   1      38.148  32.773  37.096  1.00  0.00     0.010 A 
ATOM     33  C   UNL A   1      39.794  35.017  36.915  1.00  0.00     0.001 A 
ATOM     34  C   UNL A   1      38.068  33.777  38.063  1.00  0.00     0.001 A 
ATOM     35  C   UNL A   1      38.891  34.899  37.971  1.00  0.00     0.000 A 
ENDBRANCH  16  30
ENDBRANCH  10  13
ENDBRANCH   8   9
ENDBRANCH   7   8
ENDBRANCH   6   7
ENDBRANCH   5   6
ENDBRANCH   4   5
ENDBRANCH   3   4
ENDBRANCH   2   3
ENDBRANCH   1   2
BRANCH   1  36
ATOM     36  C   UNL A   1      38.483  28.146  29.677  1.00  0.00     0.010 C 
BRANCH  36  37
ATOM     37  C   UNL A   1      39.269  27.843  28.403  1.00  0.00     0.100 C 
BRANCH  37  38
ATOM     38  C   UNL A   1      40.441  26.907  28.618  1.00  0.00     0.219 C 
ATOM     39  O   UNL A   1      41.542  27.357  28.951  1.00  0.00    -0.275 OA
ATOM     40  N   UNL A   1      40.327  25.560  28.452  1.00  0.00    -0.356 N 
ATOM     41  H   UNL A   1      41.131  25.051  28.704  1.00  0.00     0.163 HD
BRANCH  40  42
ATOM     42  C   UNL A   1      39.227  24.741  27.971  1.00  0.00     0.116 C 
BRANCH  42  43
ATOM     43  C   UNL A   1      39.728  23.508  27.197  1.00  0.00     0.023 C 
BRANCH  43  44
ATOM     44  C   UNL A   1      41.241  23.260  27.191  1.00  0.00     0.023 C 
BRANCH  44  45
ATOM     45  C   UNL A   1      41.923  23.406  25.837  1.00  0.00     0.116 C 
BRANCH  45  46
ATOM     46  N   UNL A   1      42.553  22.169  25.361  1.00  0.00    -0.352 N 
ATOM     47  C   UNL A   1      43.879  21.989  24.997  1.00  0.00     0.251 C 
ATOM     48  H   UNL A   1      41.969  21.379  25.293  1.00  0.00     0.163 HD
ATOM     49  O   UNL A   1      44.218  21.078  24.253  1.00  0.00    -0.269 OA
BRANCH  47  50
ATOM     50  C   UNL A   1      44.868  22.924  25.553  1.00  0.00     0.039 A 
ATOM     51  C   UNL A   1      45.321  24.041  24.845  1.00  0.00     0.014 A 
ATOM     52  C   UNL A   1      45.230  22.715  26.880  1.00  0.00     0.014 A 
ATOM     53  C   UNL A   1      46.058  25.009  25.527  1.00  0.00     0.010 A 
ATOM     54  C   UNL A   1      45.798  23.745  27.581  1.00  0.00     0.010 A 
ATOM     55  C   UNL A   1      46.265  24.873  26.909  1.00  0.00    -0.014 A 
BRANCH  55  56
ATOM     56  C   UNL A   1      46.870  25.943  27.698  1.00  0.00     0.031 A 
ATOM     57  C   UNL A   1      48.349  25.870  27.857  1.00  0.00     0.074 A 
ATOM     58  C   UNL A   1      46.196  27.060  28.053  1.00  0.00     0.049 A 
ATOM     59  N   UNL A   1      49.018  25.597  28.928  1.00  0.00    -0.248 NA
ATOM     60  C   UNL A   1      49.185  25.994  26.652  1.00  0.00     0.031 C 
ATOM     61  C   UNL A   1      44.824  27.450  27.695  1.00  0.00     0.029 A 
ATOM     62  N   UNL A   1      46.651  28.161  28.708  1.00  0.00    -0.354 N 
ATOM     63  C   UNL A   1      50.362  25.751  28.593  1.00  0.00     0.074 A 
ATOM     64  C   UNL A   1      50.406  25.786  27.152  1.00  0.00     0.031 C 
ATOM     65  C   UNL A   1      44.656  28.773  27.906  1.00  0.00     0.029 A 
ATOM     66  C   UNL A   1      45.823  29.272  28.604  1.00  0.00     0.049 A 
ATOM     67  H   UNL A   1      47.495  28.170  29.214  1.00  0.00     0.167 HD
ATOM     68  C   UNL A   1      51.296  26.106  29.523  1.00  0.00     0.031 A 
ATOM     69  C   UNL A   1      46.075  30.525  29.054  1.00  0.00     0.031 A 
ATOM     70  C   UNL A   1      50.776  25.985  30.864  1.00  0.00     0.049 A 
ATOM     71  C   UNL A   1      47.115  30.401  30.102  1.00  0.00     0.074 A 
ATOM     72  C   UNL A   1      50.239  24.959  31.616  1.00  0.00     0.029 A 
ATOM     73  N   UNL A   1      50.391  27.150  31.488  1.00  0.00    -0.354 N 
ATOM     74  N   UNL A   1      46.921  29.778  31.231  1.00  0.00    -0.248 NA
ATOM     75  C   UNL A   1      48.505  30.579  29.720  1.00  0.00     0.031 C 
ATOM     76  C   UNL A   1      49.173  25.562  32.349  1.00  0.00     0.029 A 
ATOM     77  C   UNL A   1      49.169  26.929  32.066  1.00  0.00     0.049 A 
ATOM     78  H   UNL A   1      50.904  27.991  31.514  1.00  0.00     0.167 HD
ATOM     79  C   UNL A   1      48.111  29.109  31.477  1.00  0.00     0.074 A 
ATOM     80  C   UNL A   1      49.082  29.733  30.579  1.00  0.00     0.031 C 
ATOM     81  C   UNL A   1      48.132  27.936  32.179  1.00  0.00     0.031 A 
BRANCH  68  82
ATOM     82  C   UNL A   1      52.508  26.966  29.223  1.00  0.00    -0.014 A 
ATOM     83  C   UNL A   1      52.307  28.261  28.699  1.00  0.00     0.010 A 
ATOM     84  C   UNL A   1      53.821  26.457  29.160  1.00  0.00     0.010 A 
ATOM     85  C   UNL A   1      53.339  28.958  28.054  1.00  0.00     0.020 A 
ATOM     86  C   UNL A   1      54.868  27.162  28.563  1.00  0.00     0.020 A 
ATOM     87  C   UNL A   1      54.610  28.391  27.972  1.00  0.00     0.054 A 
BRANCH  87  88
ATOM     88  S   UNL A   1      55.900  29.228  27.020  1.00  0.00     0.124 S 
ATOM     89  O   UNL A   1      57.101  28.531  27.471  1.00  0.00    -0.237 OA
ATOM     90  O   UNL A   1      55.490  28.963  25.645  1.00  0.00    -0.237 OA
ATOM     91  O   UNL A   1      55.785  30.622  27.444  1.00  0.00    -0.744 OA
ENDBRANCH  87  88
ENDBRANCH  68  82
BRANCH  69  92
ATOM     92  C   UNL A   1      45.679  31.816  28.445  1.00  0.00    -0.014 A 
ATOM     93  C   UNL A   1      45.372  31.905  27.076  1.00  0.00     0.010 A 
ATOM     94  C   UNL A   1      45.325  32.904  29.270  1.00  0.00     0.010 A 
ATOM     95  C   UNL A   1      44.672  33.011  26.563  1.00  0.00     0.020 A 
ATOM     96  C   UNL A   1      44.634  34.012  28.766  1.00  0.00     0.020 A 
ATOM     97  C   UNL A   1      44.286  34.047  27.417  1.00  0.00     0.054 A 
BRANCH  97  98
ATOM     98  S   UNL A   1      43.219  35.375  26.784  1.00  0.00     0.124 S 
ATOM     99  O   UNL A   1      42.123  35.378  27.749  1.00  0.00    -0.237 OA
ATOM    100  O   UNL A   1      44.100  36.537  26.824  1.00  0.00    -0.237 OA
ATOM    101  O   UNL A   1      42.861  34.918  25.442  1.00  0.00    -0.744 OA
ENDBRANCH  97  98
ENDBRANCH  69  92
BRANCH  81 102
ATOM    102  C   UNL A   1      46.894  27.536  32.953  1.00  0.00    -0.014 A 
ATOM    103  C   UNL A   1      45.794  26.861  32.388  1.00  0.00     0.010 A 
ATOM    104  C   UNL A   1      46.917  27.721  34.346  1.00  0.00     0.010 A 
ATOM    105  C   UNL A   1      44.736  26.410  33.194  1.00  0.00     0.020 A 
ATOM    106  C   UNL A   1      45.878  27.259  35.157  1.00  0.00     0.020 A 
ATOM    107  C   UNL A   1      44.786  26.613  34.576  1.00  0.00     0.054 A 
BRANCH 107 108
ATOM    108  S   UNL A   1      43.439  25.991  35.623  1.00  0.00     0.124 S 
ATOM    109  O   UNL A   1      43.853  24.616  35.890  1.00  0.00    -0.237 OA
ATOM    110  O   UNL A   1      43.476  26.893  36.771  1.00  0.00    -0.237 OA
ATOM    111  O   UNL A   1      42.252  26.125  34.780  1.00  0.00    -0.744 OA
ENDBRANCH 107 108
ENDBRANCH  81 102
ENDBRANCH  55  56
ENDBRANCH  47  50
ENDBRANCH  45  46
ENDBRANCH  44  45
ENDBRANCH  43  44
ENDBRANCH  42  43
ENDBRANCH  40  42
ENDBRANCH  37  38
ENDBRANCH  36  37
ENDBRANCH   1  36
TORSDOF 29
ENDMDL
MODEL 2
REMARK VINA RESULT:      -7.5      6.342     14.141
REMARK SMILES NS(=O)(=O)c1ccc(-n2nc(C(=O)NCCCCCCCCCCC(=O)NCCCCNC(=O)c3ccc(-c4c5nc(c(-c6ccc(S(=O)(=O)[O-])cc6)c6ccc([nH]6)c(-c6ccc(S(=O)(=O)[O-])cc6)c6nc(c(-c7ccc(S(=O)(=O)[O-])cc7)c7ccc4[nH]7)C=C6)C=C5)cc3)cc2-c2ccccc2)cc1
REMARK SMILES IDX 22 1 21 2 20 3 19 4 18 5 17 6 16 7 15 8 14 9 12 10 13 11
REMARK SMILES IDX 11 13 9 14 10 15 96 16 95 17 8 18 5 19 6 20 104 21 7 22
REMARK SMILES IDX 103 23 2 24 3 25 4 26 1 27 97 30 98 31 102 32 99 33 101 34
REMARK SMILES IDX 100 35 23 36 24 37 25 38 26 39 27 40 28 42 29 43 30 44 31 45
REMARK SMILES IDX 32 46 33 47 34 49 35 50 36 51 94 52 37 53 93 54 38 55 39 56
REMARK SMILES IDX 40 57 87 58 41 59 92 60 86 61 88 62 42 63 91 64 85 65 84 66
REMARK SMILES IDX 43 68 73 69 54 70 72 71 55 72 58 73 71 74 89 75 56 76 57 77
REMARK SMILES IDX 70 79 90 80 59 81 44 82 45 83 53 84 46 85 52 86 47 87 48 88
REMARK SMILES IDX 49 89 50 90 51 91 74 92 75 93 83 94 76 95 82 96 77 97 78 98
REMARK SMILES IDX 79 99 80 100 81 101 60 102 61 103 69 104 62 105 68 106
REMARK SMILES IDX 63 107 64 108 65 109 66 110 67 111
REMARK H PARENT 14 12 1 28 1 29 27 41 32 48 88 67 58 78
REMARK Flexibility Score: inf
ROOT
ATOM      1  C   UNL A   1      46.753  30.227  29.894  1.00  0.00     0.001 C 
ENDROOT
BRANCH   1   2
ATOM      2  C   UNL A   1      47.655  29.669  30.998  1.00  0.00     0.000 C 
BRANCH   2   3
ATOM      3  C   UNL A   1      48.727  28.736  30.451  1.00  0.00     0.000 C 
BRANCH   3   4
ATOM      4  C   UNL A   1      48.425  27.256  30.699  1.00  0.00     0.000 C 
BRANCH   4   5
ATOM      5  C   UNL A   1      47.171  26.751  29.976  1.00  0.00     0.000 C 
BRANCH   5   6
ATOM      6  C   UNL A   1      47.392  26.429  28.491  1.00  0.00     0.002 C 
BRANCH   6   7
ATOM      7  C   UNL A   1      47.091  27.604  27.554  1.00  0.00     0.021 C 
BRANCH   7   8
ATOM      8  C   UNL A   1      48.261  27.901  26.618  1.00  0.00     0.116 C 
BRANCH   8   9
ATOM      9  N   UNL A   1      47.771  28.357  25.344  1.00  0.00    -0.351 N 
ATOM     10  C   UNL A   1      46.751  27.914  24.542  1.00  0.00     0.271 C 
ATOM     11  O   UNL A   1      46.614  28.507  23.470  1.00  0.00    -0.267 OA
ATOM     12  H   UNL A   1      48.259  29.131  24.980  1.00  0.00     0.163 HD
BRANCH  10  13
ATOM     13  C   UNL A   1      45.826  26.848  24.981  1.00  0.00     0.151 A 
ATOM     14  N   UNL A   1      45.113  24.825  25.111  1.00  0.00    -0.232 N 
ATOM     15  N   UNL A   1      46.217  25.563  24.884  1.00  0.00    -0.162 NA
ATOM     16  C   UNL A   1      44.030  25.600  25.482  1.00  0.00     0.075 A 
ATOM     17  C   UNL A   1      44.521  26.889  25.530  1.00  0.00     0.065 A 
BRANCH  14  18
ATOM     18  C   UNL A   1      45.182  23.423  24.965  1.00  0.00     0.065 A 
ATOM     19  C   UNL A   1      45.173  20.661  24.754  1.00  0.00     0.082 A 
ATOM     20  C   UNL A   1      44.993  21.441  23.607  1.00  0.00     0.024 A 
ATOM     21  C   UNL A   1      45.398  21.255  26.000  1.00  0.00     0.024 A 
ATOM     22  C   UNL A   1      44.980  22.829  23.715  1.00  0.00     0.030 A 
ATOM     23  C   UNL A   1      45.435  22.644  26.101  1.00  0.00     0.030 A 
BRANCH  19  24
ATOM     24  S   UNL A   1      45.073  18.902  24.678  1.00  0.00     0.238 S 
ATOM     25  O   UNL A   1      45.296  18.494  23.299  1.00  0.00    -0.207 OA
ATOM     26  O   UNL A   1      43.950  18.464  25.450  1.00  0.00    -0.207 OA
BRANCH  24  27
ATOM     27  N   UNL A   1      46.438  18.368  25.505  1.00  0.00    -0.225 NA
ATOM     28  H   UNL A   1      47.175  18.144  24.837  1.00  0.00     0.137 HD
ATOM     29  H   UNL A   1      46.204  17.536  26.046  1.00  0.00     0.137 HD
ENDBRANCH  24  27
ENDBRANCH  19  24
ENDBRANCH  14  18
BRANCH  16  30
ATOM     30  C   UNL A   1      42.708  25.123  25.873  1.00  0.00     0.000 A 
ATOM     31  C   UNL A   1      41.654  26.020  26.072  1.00  0.00     0.010 A 
ATOM     32  C   UNL A   1      42.481  23.749  26.027  1.00  0.00     0.010 A 
ATOM     33  C   UNL A   1      40.391  25.550  26.436  1.00  0.00     0.001 A 
ATOM     34  C   UNL A   1      41.218  23.281  26.394  1.00  0.00     0.001 A 
ATOM     35  C   UNL A   1      40.174  24.182  26.599  1.00  0.00     0.000 A 
ENDBRANCH  16  30
ENDBRANCH  10  13
ENDBRANCH   8   9
ENDBRANCH   7   8
ENDBRANCH   6   7
ENDBRANCH   5   6
ENDBRANCH   4   5
ENDBRANCH   3   4
ENDBRANCH   2   3
ENDBRANCH   1   2
BRANCH   1  36
ATOM     36  C   UNL A   1      47.255  31.526  29.280  1.00  0.00     0.010 C 
BRANCH  36  37
ATOM     37  C   UNL A   1      48.126  31.365  28.035  1.00  0.00     0.100 C 
BRANCH  37  38
ATOM     38  C   UNL A   1      47.452  31.824  26.757  1.00  0.00     0.219 C 
ATOM     39  O   UNL A   1      46.703  31.060  26.141  1.00  0.00    -0.275 OA
ATOM     40  N   UNL A   1      47.646  33.072  26.249  1.00  0.00    -0.356 N 
ATOM     41  H   UNL A   1      47.090  33.282  25.465  1.00  0.00     0.163 HD
BRANCH  40  42
ATOM     42  C   UNL A   1      48.530  34.151  26.660  1.00  0.00     0.116 C 
BRANCH  42  43
ATOM     43  C   UNL A   1      49.645  33.651  27.596  1.00  0.00     0.023 C 
BRANCH  43  44
ATOM     44  C   UNL A   1      51.090  33.916  27.157  1.00  0.00     0.023 C 
BRANCH  44  45
ATOM     45  C   UNL A   1      51.293  34.127  25.663  1.00  0.00     0.116 C 
BRANCH  45  46
ATOM     46  N   UNL A   1      52.375  35.066  25.344  1.00  0.00    -0.352 N 
ATOM     47  C   UNL A   1      52.258  36.421  25.076  1.00  0.00     0.251 C 
ATOM     48  H   UNL A   1      53.285  34.691  25.318  1.00  0.00     0.163 HD
ATOM     49  O   UNL A   1      53.115  37.023  24.443  1.00  0.00    -0.269 OA
BRANCH  47  50
ATOM     50  C   UNL A   1      51.070  37.116  25.597  1.00  0.00     0.039 A 
ATOM     51  C   UNL A   1      49.829  37.053  24.958  1.00  0.00     0.014 A 
ATOM     52  C   UNL A   1      51.214  37.730  26.836  1.00  0.00     0.014 A 
ATOM     53  C   UNL A   1      48.705  37.522  25.638  1.00  0.00     0.010 A 
ATOM     54  C   UNL A   1      50.092  38.023  27.564  1.00  0.00     0.010 A 
ATOM     55  C   UNL A   1      48.837  37.976  26.961  1.00  0.00    -0.014 A 
BRANCH  55  56
ATOM     56  C   UNL A   1      47.669  38.304  27.774  1.00  0.00     0.031 A 
ATOM     57  C   UNL A   1      46.940  37.141  28.354  1.00  0.00     0.074 A 
ATOM     58  C   UNL A   1      47.399  39.560  28.193  1.00  0.00     0.049 A 
ATOM     59  N   UNL A   1      45.770  36.698  28.030  1.00  0.00    -0.248 NA
ATOM     60  C   UNL A   1      47.646  36.291  29.326  1.00  0.00     0.031 C 
ATOM     61  C   UNL A   1      48.197  40.779  27.992  1.00  0.00     0.029 A 
ATOM     62  N   UNL A   1      46.405  39.993  29.012  1.00  0.00    -0.354 N 
ATOM     63  C   UNL A   1      45.489  35.664  28.920  1.00  0.00     0.074 A 
ATOM     64  C   UNL A   1      46.745  35.328  29.541  1.00  0.00     0.031 C 
ATOM     65  C   UNL A   1      47.806  41.729  28.869  1.00  0.00     0.029 A 
ATOM     66  C   UNL A   1      46.607  41.265  29.536  1.00  0.00     0.049 A 
ATOM     67  H   UNL A   1      45.608  39.452  29.218  1.00  0.00     0.167 HD
ATOM     68  C   UNL A   1      44.207  35.349  29.270  1.00  0.00     0.031 A 
ATOM     69  C   UNL A   1      45.847  41.899  30.461  1.00  0.00     0.031 A 
ATOM     70  C   UNL A   1      43.251  35.984  28.395  1.00  0.00     0.049 A 
ATOM     71  C   UNL A   1      44.516  41.248  30.438  1.00  0.00     0.074 A 
ATOM     72  C   UNL A   1      43.012  35.973  27.036  1.00  0.00     0.029 A 
ATOM     73  N   UNL A   1      42.614  37.104  28.881  1.00  0.00    -0.354 N 
ATOM     74  N   UNL A   1      43.718  41.289  29.407  1.00  0.00    -0.248 NA
ATOM     75  C   UNL A   1      44.252  40.181  31.387  1.00  0.00     0.031 C 
ATOM     76  C   UNL A   1      42.670  37.321  26.714  1.00  0.00     0.029 A 
ATOM     77  C   UNL A   1      42.643  38.059  27.899  1.00  0.00     0.049 A 
ATOM     78  H   UNL A   1      42.209  37.199  29.774  1.00  0.00     0.167 HD
ATOM     79  C   UNL A   1      43.152  40.024  29.346  1.00  0.00     0.074 A 
ATOM     80  C   UNL A   1      43.427  39.430  30.654  1.00  0.00     0.031 C 
ATOM     81  C   UNL A   1      42.759  39.481  28.155  1.00  0.00     0.031 A 
BRANCH  68  82
ATOM     82  C   UNL A   1      43.804  34.837  30.639  1.00  0.00    -0.014 A 
ATOM     83  C   UNL A   1      43.774  33.442  30.859  1.00  0.00     0.010 A 
ATOM     84  C   UNL A   1      43.181  35.642  31.614  1.00  0.00     0.010 A 
ATOM     85  C   UNL A   1      43.069  32.885  31.935  1.00  0.00     0.020 A 
ATOM     86  C   UNL A   1      42.516  35.101  32.716  1.00  0.00     0.020 A 
ATOM     87  C   UNL A   1      42.426  33.722  32.846  1.00  0.00     0.054 A 
BRANCH  87  88
ATOM     88  S   UNL A   1      41.403  33.000  34.151  1.00  0.00     0.124 S 
ATOM     89  O   UNL A   1      41.344  31.599  33.743  1.00  0.00    -0.237 OA
ATOM     90  O   UNL A   1      42.187  33.281  35.350  1.00  0.00    -0.237 OA
ATOM     91  O   UNL A   1      40.146  33.738  34.046  1.00  0.00    -0.744 OA
ENDBRANCH  87  88
ENDBRANCH  68  82
BRANCH  69  92
ATOM     92  C   UNL A   1      46.286  42.825  31.530  1.00  0.00    -0.014 A 
ATOM     93  C   UNL A   1      45.359  43.630  32.215  1.00  0.00     0.010 A 
ATOM     94  C   UNL A   1      47.582  42.706  32.075  1.00  0.00     0.010 A 
ATOM     95  C   UNL A   1      45.693  44.238  33.437  1.00  0.00     0.020 A 
ATOM     96  C   UNL A   1      47.925  43.312  33.289  1.00  0.00     0.020 A 
ATOM     97  C   UNL A   1      46.968  44.055  33.979  1.00  0.00     0.054 A 
BRANCH  97  98
ATOM     98  S   UNL A   1      47.328  44.682  35.647  1.00  0.00     0.124 S 
ATOM     99  O   UNL A   1      47.261  46.127  35.456  1.00  0.00    -0.237 OA
ATOM    100  O   UNL A   1      46.253  44.099  36.444  1.00  0.00    -0.237 OA
ATOM    101  O   UNL A   1      48.662  44.156  35.932  1.00  0.00    -0.744 OA
ENDBRANCH  97  98
ENDBRANCH  69  92
BRANCH  81 102
ATOM    102  C   UNL A   1      42.656  40.387  26.947  1.00  0.00    -0.014 A 
ATOM    103  C   UNL A   1      43.768  40.883  26.237  1.00  0.00     0.010 A 
ATOM    104  C   UNL A   1      41.373  40.621  26.423  1.00  0.00     0.010 A 
ATOM    105  C   UNL A   1      43.594  41.616  25.050  1.00  0.00     0.020 A 
ATOM    106  C   UNL A   1      41.193  41.332  25.235  1.00  0.00     0.020 A 
ATOM    107  C   UNL A   1      42.305  41.835  24.558  1.00  0.00     0.054 A 
BRANCH 107 108
ATOM    108  S   UNL A   1      42.083  42.744  23.001  1.00  0.00     0.124 S 
ATOM    109  O   UNL A   1      40.641  42.661  22.787  1.00  0.00    -0.237 OA
ATOM    110  O   UNL A   1      42.596  44.072  23.324  1.00  0.00    -0.237 OA
ATOM    111  O   UNL A   1      42.893  41.993  22.041  1.00  0.00    -0.744 OA
ENDBRANCH 107 108
ENDBRANCH  81 102
ENDBRANCH  55  56
ENDBRANCH  47  50
ENDBRANCH  45  46
ENDBRANCH  44  45
ENDBRANCH  43  44
ENDBRANCH  42  43
ENDBRANCH  40  42
ENDBRANCH  37  38
ENDBRANCH  36  37
ENDBRANCH   1  36
TORSDOF 29
ENDMDL
MODEL 3
REMARK VINA RESULT:      -7.4      5.004      8.236
REMARK SMILES NS(=O)(=O)c1ccc(-n2nc(C(=O)NCCCCCCCCCCC(=O)NCCCCNC(=O)c3ccc(-c4c5nc(c(-c6ccc(S(=O)(=O)[O-])cc6)c6ccc([nH]6)c(-c6ccc(S(=O)(=O)[O-])cc6)c6nc(c(-c7ccc(S(=O)(=O)[O-])cc7)c7ccc4[nH]7)C=C6)C=C5)cc3)cc2-c2ccccc2)cc1
REMARK SMILES IDX 22 1 21 2 20 3 19 4 18 5 17 6 16 7 15 8 14 9 12 10 13 11
REMARK SMILES IDX 11 13 9 14 10 15 96 16 95 17 8 18 5 19 6 20 104 21 7 22
REMARK SMILES IDX 103 23 2 24 3 25 4 26 1 27 97 30 98 31 102 32 99 33 101 34
REMARK SMILES IDX 100 35 23 36 24 37 25 38 26 39 27 40 28 42 29 43 30 44 31 45
REMARK SMILES IDX 32 46 33 47 34 49 35 50 36 51 94 52 37 53 93 54 38 55 39 56
REMARK SMILES IDX 40 57 87 58 41 59 92 60 86 61 88 62 42 63 91 64 85 65 84 66
REMARK SMILES IDX 43 68 73 69 54 70 72 71 55 72 58 73 71 74 89 75 56 76 57 77
REMARK SMILES IDX 70 79 90 80 59 81 44 82 45 83 53 84 46 85 52 86 47 87 48 88
REMARK SMILES IDX 49 89 50 90 51 91 74 92 75 93 83 94 76 95 82 96 77 97 78 98
REMARK SMILES IDX 79 99 80 100 81 101 60 102 61 103 69 104 62 105 68 106
REMARK SMILES IDX 63 107 64 108 65 109 66 110 67 111
REMARK H PARENT 14 12 1 28 1 29 27 41 32 48 88 67 58 78
REMARK Flexibility Score: inf
ROOT
ATOM      1  C   UNL A   1      42.549  28.399  30.498  1.00  0.00     0.001 C 
ENDROOT
BRANCH   1   2
ATOM      2  C   UNL A   1      42.263  29.318  29.307  1.00  0.00     0.000 C 
BRANCH   2   3
ATOM      3  C   UNL A   1      41.032  28.881  28.523  1.00  0.00     0.000 C 
BRANCH   3   4
ATOM      4  C   UNL A   1      41.343  28.497  27.074  1.00  0.00     0.000 C 
BRANCH   4   5
ATOM      5  C   UNL A   1      40.755  27.146  26.651  1.00  0.00     0.000 C 
BRANCH   5   6
ATOM      6  C   UNL A   1      40.726  26.099  27.774  1.00  0.00     0.002 C 
BRANCH   6   7
ATOM      7  C   UNL A   1      39.383  25.374  27.908  1.00  0.00     0.021 C 
BRANCH   7   8
ATOM      8  C   UNL A   1      38.954  24.721  26.596  1.00  0.00     0.116 C 
BRANCH   8   9
ATOM      9  N   UNL A   1      39.521  23.401  26.493  1.00  0.00    -0.351 N 
ATOM     10  C   UNL A   1      38.978  22.198  26.121  1.00  0.00     0.271 C 
ATOM     11  O   UNL A   1      39.736  21.227  26.183  1.00  0.00    -0.267 OA
ATOM     12  H   UNL A   1      40.473  23.355  26.733  1.00  0.00     0.163 HD
BRANCH  10  13
ATOM     13  C   UNL A   1      37.599  22.096  25.602  1.00  0.00     0.151 A 
ATOM     14  N   UNL A   1      35.572  22.752  25.325  1.00  0.00    -0.232 N 
ATOM     15  N   UNL A   1      36.813  23.188  25.612  1.00  0.00    -0.162 NA
ATOM     16  C   UNL A   1      35.549  21.409  25.001  1.00  0.00     0.075 A 
ATOM     17  C   UNL A   1      36.870  21.014  25.047  1.00  0.00     0.065 A 
BRANCH  14  18
ATOM     18  C   UNL A   1      34.495  23.663  25.375  1.00  0.00     0.065 A 
ATOM     19  C   UNL A   1      32.448  25.515  25.608  1.00  0.00     0.082 A 
ATOM     20  C   UNL A   1      33.379  25.643  24.572  1.00  0.00     0.024 A 
ATOM     21  C   UNL A   1      32.512  24.444  26.505  1.00  0.00     0.024 A 
ATOM     22  C   UNL A   1      34.419  24.722  24.464  1.00  0.00     0.030 A 
ATOM     23  C   UNL A   1      33.521  23.495  26.368  1.00  0.00     0.030 A 
BRANCH  19  24
ATOM     24  S   UNL A   1      31.192  26.729  25.851  1.00  0.00     0.238 S 
ATOM     25  O   UNL A   1      30.733  27.174  24.544  1.00  0.00    -0.207 OA
ATOM     26  O   UNL A   1      31.607  27.632  26.881  1.00  0.00    -0.207 OA
BRANCH  24  27
ATOM     27  N   UNL A   1      29.894  25.867  26.487  1.00  0.00    -0.225 NA
ATOM     28  H   UNL A   1      30.172  25.433  27.367  1.00  0.00     0.137 HD
ATOM     29  H   UNL A   1      29.609  25.145  25.826  1.00  0.00     0.137 HD
ENDBRANCH  24  27
ENDBRANCH  19  24
ENDBRANCH  14  18
BRANCH  16  30
ATOM     30  C   UNL A   1      34.391  20.634  24.567  1.00  0.00     0.000 A 
ATOM     31  C   UNL A   1      34.269  19.282  24.901  1.00  0.00     0.010 A 
ATOM     32  C   UNL A   1      33.375  21.256  23.829  1.00  0.00     0.010 A 
ATOM     33  C   UNL A   1      33.151  18.555  24.489  1.00  0.00     0.001 A 
ATOM     34  C   UNL A   1      32.259  20.526  23.414  1.00  0.00     0.001 A 
ATOM     35  C   UNL A   1      32.148  19.176  23.744  1.00  0.00     0.000 A 
ENDBRANCH  16  30
ENDBRANCH  10  13
ENDBRANCH   8   9
ENDBRANCH   7   8
ENDBRANCH   6   7
ENDBRANCH   5   6
ENDBRANCH   4   5
ENDBRANCH   3   4
ENDBRANCH   2   3
ENDBRANCH   1   2
BRANCH   1  36
ATOM     36  C   UNL A   1      43.748  27.483  30.300  1.00  0.00     0.010 C 
BRANCH  36  37
ATOM     37  C   UNL A   1      43.413  26.015  30.043  1.00  0.00     0.100 C 
BRANCH  37  38
ATOM     38  C   UNL A   1      44.600  25.085  30.190  1.00  0.00     0.219 C 
ATOM     39  O   UNL A   1      45.720  25.541  30.435  1.00  0.00    -0.275 OA
ATOM     40  N   UNL A   1      44.478  23.735  30.055  1.00  0.00    -0.356 N 
ATOM     41  H   UNL A   1      45.299  23.231  30.257  1.00  0.00     0.163 HD
BRANCH  40  42
ATOM     42  C   UNL A   1      43.348  22.906  29.669  1.00  0.00     0.116 C 
BRANCH  42  43
ATOM     43  C   UNL A   1      42.967  23.112  28.192  1.00  0.00     0.023 C 
BRANCH  43  44
ATOM     44  C   UNL A   1      42.669  21.853  27.369  1.00  0.00     0.023 C 
BRANCH  44  45
ATOM     45  C   UNL A   1      43.200  21.862  25.942  1.00  0.00     0.116 C 
BRANCH  45  46
ATOM     46  N   UNL A   1      44.376  21.007  25.748  1.00  0.00    -0.352 N 
ATOM     47  C   UNL A   1      45.645  21.401  25.350  1.00  0.00     0.251 C 
ATOM     48  H   UNL A   1      44.250  20.046  25.919  1.00  0.00     0.163 HD
ATOM     49  O   UNL A   1      46.426  20.613  24.835  1.00  0.00    -0.269 OA
BRANCH  47  50
ATOM     50  C   UNL A   1      46.024  22.803  25.586  1.00  0.00     0.039 A 
ATOM     51  C   UNL A   1      46.134  23.340  26.872  1.00  0.00     0.014 A 
ATOM     52  C   UNL A   1      46.402  23.532  24.464  1.00  0.00     0.014 A 
ATOM     53  C   UNL A   1      46.738  24.588  27.023  1.00  0.00     0.010 A 
ATOM     54  C   UNL A   1      47.148  24.668  24.634  1.00  0.00     0.010 A 
ATOM     55  C   UNL A   1      47.277  25.236  25.900  1.00  0.00    -0.014 A 
BRANCH  55  56
ATOM     56  C   UNL A   1      48.075  26.452  26.031  1.00  0.00     0.031 A 
ATOM     57  C   UNL A   1      49.066  26.693  24.945  1.00  0.00     0.074 A 
ATOM     58  C   UNL A   1      47.781  27.427  26.921  1.00  0.00     0.049 A 
ATOM     59  N   UNL A   1      50.355  26.626  25.021  1.00  0.00    -0.248 NA
ATOM     60  C   UNL A   1      48.564  26.914  23.580  1.00  0.00     0.031 C 
ATOM     61  C   UNL A   1      46.639  27.505  27.843  1.00  0.00     0.029 A 
ATOM     62  N   UNL A   1      48.382  28.634  27.095  1.00  0.00    -0.354 N 
ATOM     63  C   UNL A   1      50.835  27.032  23.777  1.00  0.00     0.074 A 
ATOM     64  C   UNL A   1      49.702  26.990  22.886  1.00  0.00     0.031 C 
ATOM     65  C   UNL A   1      46.487  28.776  28.274  1.00  0.00     0.029 A 
ATOM     66  C   UNL A   1      47.633  29.544  27.832  1.00  0.00     0.049 A 
ATOM     67  H   UNL A   1      49.271  28.846  26.730  1.00  0.00     0.167 HD
ATOM     68  C   UNL A   1      52.057  27.625  23.640  1.00  0.00     0.031 A 
ATOM     69  C   UNL A   1      47.927  30.847  28.063  1.00  0.00     0.031 A 
ATOM     70  C   UNL A   1      52.850  27.480  24.837  1.00  0.00     0.049 A 
ATOM     71  C   UNL A   1      49.385  31.000  27.850  1.00  0.00     0.074 A 
ATOM     72  C   UNL A   1      53.315  26.412  25.578  1.00  0.00     0.029 A 
ATOM     73  N   UNL A   1      52.930  28.576  25.665  1.00  0.00    -0.354 N 
ATOM     74  N   UNL A   1      50.281  30.418  28.598  1.00  0.00    -0.248 NA
ATOM     75  C   UNL A   1      49.851  31.436  26.546  1.00  0.00     0.031 C 
ATOM     76  C   UNL A   1      53.186  26.827  26.937  1.00  0.00     0.029 A 
ATOM     77  C   UNL A   1      52.725  28.145  26.949  1.00  0.00     0.049 A 
ATOM     78  H   UNL A   1      53.104  29.504  25.384  1.00  0.00     0.167 HD
ATOM     79  C   UNL A   1      51.277  30.023  27.716  1.00  0.00     0.074 A 
ATOM     80  C   UNL A   1      51.012  30.778  26.493  1.00  0.00     0.031 C 
ATOM     81  C   UNL A   1      52.048  28.923  27.967  1.00  0.00     0.031 A 
BRANCH  68  82
ATOM     82  C   UNL A   1      52.370  28.695  22.613  1.00  0.00    -0.014 A 
ATOM     83  C   UNL A   1      53.303  28.404  21.593  1.00  0.00     0.010 A 
ATOM     84  C   UNL A   1      52.015  30.050  22.774  1.00  0.00     0.010 A 
ATOM     85  C   UNL A   1      53.921  29.422  20.853  1.00  0.00     0.020 A 
ATOM     86  C   UNL A   1      52.589  31.068  22.010  1.00  0.00     0.020 A 
ATOM     87  C   UNL A   1      53.573  30.752  21.084  1.00  0.00     0.054 A 
BRANCH  87  88
ATOM     88  S   UNL A   1      54.470  32.069  20.229  1.00  0.00     0.124 S 
ATOM     89  O   UNL A   1      55.321  32.589  21.294  1.00  0.00    -0.237 OA
ATOM     90  O   UNL A   1      55.154  31.338  19.167  1.00  0.00    -0.237 OA
ATOM     91  O   UNL A   1      53.408  32.967  19.778  1.00  0.00    -0.744 OA
ENDBRANCH  87  88
ENDBRANCH  68  82
BRANCH  69  92
ATOM     92  C   UNL A   1      46.993  31.991  28.180  1.00  0.00    -0.014 A 
ATOM     93  C   UNL A   1      47.011  32.826  29.310  1.00  0.00     0.010 A 
ATOM     94  C   UNL A   1      46.278  32.433  27.047  1.00  0.00     0.010 A 
ATOM     95  C   UNL A   1      46.395  34.090  29.285  1.00  0.00     0.020 A 
ATOM     96  C   UNL A   1      45.657  33.687  27.015  1.00  0.00     0.020 A 
ATOM     97  C   UNL A   1      45.742  34.522  28.127  1.00  0.00     0.054 A 
BRANCH  97  98
ATOM     98  S   UNL A   1      45.119  36.227  28.038  1.00  0.00     0.124 S 
ATOM     99  O   UNL A   1      46.342  36.993  27.819  1.00  0.00    -0.237 OA
ATOM    100  O   UNL A   1      44.197  36.170  26.908  1.00  0.00    -0.237 OA
ATOM    101  O   UNL A   1      44.486  36.430  29.340  1.00  0.00    -0.744 OA
ENDBRANCH  97  98
ENDBRANCH  69  92
BRANCH  81 102
ATOM    102  C   UNL A   1      52.022  28.324  29.358  1.00  0.00    -0.014 A 
ATOM    103  C   UNL A   1      52.911  28.687  30.389  1.00  0.00     0.010 A 
ATOM    104  C   UNL A   1      50.953  27.467  29.671  1.00  0.00     0.010 A 
ATOM    105  C   UNL A   1      52.747  28.182  31.690  1.00  0.00     0.020 A 
ATOM    106  C   UNL A   1      50.772  26.976  30.966  1.00  0.00     0.020 A 
ATOM    107  C   UNL A   1      51.676  27.328  31.969  1.00  0.00     0.054 A 
BRANCH 107 108
ATOM    108  S   UNL A   1      51.438  26.711  33.660  1.00  0.00     0.124 S 
ATOM    109  O   UNL A   1      52.737  26.118  33.967  1.00  0.00    -0.237 OA
ATOM    110  O   UNL A   1      51.108  27.923  34.405  1.00  0.00    -0.237 OA
ATOM    111  O   UNL A   1      50.338  25.755  33.531  1.00  0.00    -0.744 OA
ENDBRANCH 107 108
ENDBRANCH  81 102
ENDBRANCH  55  56
ENDBRANCH  47  50
ENDBRANCH  45  46
ENDBRANCH  44  45
ENDBRANCH  43  44
ENDBRANCH  42  43
ENDBRANCH  40  42
ENDBRANCH  37  38
ENDBRANCH  36  37
ENDBRANCH   1  36
TORSDOF 29
ENDMDL
