MODEL 1
REMARK VINA RESULT:     -12.4      0.000      0.000
REMARK SMILES O=C(NCCCCNC(=O)c1cc(Cl)c2c(c1)[C@H]1C=CC[C@H]1[C@H](c1ccc(S(=O)(=O)N3CCOCC3)cc1)N2)c1ccc(-c2c3nc(c(-c4ccc(S(=O)(=O)[O-])cc4)c4ccc([nH]4)c(-c4ccc(S(=O)(=O)[O-])cc4)c4nc(c(-c5ccc(S(=O)(=O)[O-])cc5)c5ccc2[nH]5)C=C4)C=C3)cc1
REMARK SMILES IDX 5 1 4 2 3 3 1 4 2 5 40 7 41 8 99 9 42 10 98 11 43 12 44 13
REMARK SMILES IDX 45 14 92 15 46 16 97 17 91 18 93 19 47 20 96 21 90 22 89 23
REMARK SMILES IDX 48 25 78 26 59 27 77 28 60 29 63 30 76 31 94 32 61 33 62 34
REMARK SMILES IDX 75 36 95 37 64 38 49 39 50 40 58 41 51 42 57 43 52 44 53 45
REMARK SMILES IDX 54 46 55 47 56 48 79 49 80 50 88 51 81 52 87 53 82 54 83 55
REMARK SMILES IDX 84 56 85 57 86 58 65 59 66 60 74 61 67 62 73 63 68 64 69 65
REMARK SMILES IDX 70 66 71 67 72 68 6 69 7 70 8 71 9 72 10 74 11 75 12 76
REMARK SMILES IDX 17 77 13 78 16 79 14 80 15 81 18 82 39 83 19 84 22 85 23 86
REMARK SMILES IDX 20 88 21 89 24 90 25 91 38 92 26 93 37 94 27 95 28 96 29 97
REMARK SMILES IDX 30 98 31 99 32 100 36 101 33 102 35 103 34 104
REMARK H PARENT 3 6 93 24 63 35 8 73 39 87
REMARK Flexibility Score: inf
ROOT
ATOM      1  C   UNL A   1      44.854  23.459  26.863  1.00  0.00     0.023 C 
ENDROOT
BRANCH   1   2
ATOM      2  C   UNL A   1      45.044  24.958  26.653  1.00  0.00     0.116 C 
BRANCH   2   3
ATOM      3  N   UNL A   1      44.208  25.486  25.587  1.00  0.00    -0.352 N 
ATOM      4  O   UNL A   1      42.494  26.634  24.675  1.00  0.00    -0.269 OA
ATOM      5  C   UNL A   1      43.186  26.402  25.661  1.00  0.00     0.251 C 
ATOM      6  H   UNL A   1      44.402  25.141  24.686  1.00  0.00     0.163 HD
BRANCH   5   7
ATOM      7  C   UNL A   1      42.907  27.077  26.944  1.00  0.00     0.039 A 
ATOM      8  C   UNL A   1      42.079  26.478  27.899  1.00  0.00     0.014 A 
ATOM      9  C   UNL A   1      43.469  28.334  27.180  1.00  0.00     0.014 A 
ATOM     10  C   UNL A   1      41.716  27.190  29.038  1.00  0.00     0.010 A 
ATOM     11  C   UNL A   1      43.140  29.028  28.347  1.00  0.00     0.010 A 
ATOM     12  C   UNL A   1      42.236  28.474  29.267  1.00  0.00    -0.014 A 
BRANCH  12  13
ATOM     13  C   UNL A   1      41.844  29.223  30.482  1.00  0.00     0.031 A 
ATOM     14  C   UNL A   1      40.621  30.095  30.484  1.00  0.00     0.074 A 
ATOM     15  C   UNL A   1      42.583  29.090  31.599  1.00  0.00     0.049 A 
ATOM     16  N   UNL A   1      40.137  30.828  31.454  1.00  0.00    -0.248 NA
ATOM     17  C   UNL A   1      39.835  30.149  29.241  1.00  0.00     0.031 C 
ATOM     18  C   UNL A   1      43.775  28.248  31.725  1.00  0.00     0.029 A 
ATOM     19  N   UNL A   1      42.431  29.645  32.843  1.00  0.00    -0.354 N 
ATOM     20  C   UNL A   1      38.996  31.432  30.943  1.00  0.00     0.074 A 
ATOM     21  C   UNL A   1      38.867  30.996  29.568  1.00  0.00     0.031 C 
ATOM     22  C   UNL A   1      44.226  28.317  32.986  1.00  0.00     0.029 A 
ATOM     23  C   UNL A   1      43.384  29.239  33.744  1.00  0.00     0.049 A 
ATOM     24  H   UNL A   1      41.708  30.274  33.069  1.00  0.00     0.167 HD
ATOM     25  C   UNL A   1      38.132  32.268  31.564  1.00  0.00     0.031 A 
ATOM     26  C   UNL A   1      43.570  29.576  35.033  1.00  0.00     0.031 A 
ATOM     27  C   UNL A   1      38.265  32.707  32.928  1.00  0.00     0.049 A 
ATOM     28  C   UNL A   1      42.629  30.545  35.685  1.00  0.00     0.074 A 
ATOM     29  C   UNL A   1      37.447  33.570  33.637  1.00  0.00     0.029 A 
ATOM     30  N   UNL A   1      39.275  32.314  33.791  1.00  0.00    -0.354 N 
ATOM     31  N   UNL A   1      41.576  31.134  35.172  1.00  0.00    -0.248 NA
ATOM     32  C   UNL A   1      42.901  30.895  37.085  1.00  0.00     0.031 C 
ATOM     33  C   UNL A   1      37.979  33.721  34.923  1.00  0.00     0.029 A 
ATOM     34  C   UNL A   1      39.106  32.921  35.024  1.00  0.00     0.049 A 
ATOM     35  H   UNL A   1      40.006  31.695  33.561  1.00  0.00     0.167 HD
ATOM     36  C   UNL A   1      41.051  31.919  36.191  1.00  0.00     0.074 A 
ATOM     37  C   UNL A   1      41.898  31.723  37.351  1.00  0.00     0.031 C 
ATOM     38  C   UNL A   1      39.962  32.725  36.165  1.00  0.00     0.031 A 
BRANCH  25  39
ATOM     39  C   UNL A   1      36.963  32.779  30.769  1.00  0.00    -0.014 A 
ATOM     40  C   UNL A   1      37.114  33.865  29.888  1.00  0.00     0.010 A 
ATOM     41  C   UNL A   1      35.719  32.129  30.854  1.00  0.00     0.010 A 
ATOM     42  C   UNL A   1      36.034  34.303  29.117  1.00  0.00     0.020 A 
ATOM     43  C   UNL A   1      34.640  32.556  30.074  1.00  0.00     0.020 A 
ATOM     44  C   UNL A   1      34.804  33.645  29.215  1.00  0.00     0.054 A 
BRANCH  44  45
ATOM     45  S   UNL A   1      33.427  34.228  28.187  1.00  0.00     0.124 S 
ATOM     46  O   UNL A   1      34.111  35.088  27.223  1.00  0.00    -0.237 OA
ATOM     47  O   UNL A   1      32.889  32.983  27.645  1.00  0.00    -0.237 OA
ATOM     48  O   UNL A   1      32.557  34.924  29.130  1.00  0.00    -0.744 OA
ENDBRANCH  44  45
ENDBRANCH  25  39
BRANCH  26  49
ATOM     49  C   UNL A   1      44.699  28.969  35.781  1.00  0.00    -0.014 A 
ATOM     50  C   UNL A   1      44.556  27.704  36.373  1.00  0.00     0.010 A 
ATOM     51  C   UNL A   1      45.947  29.618  35.829  1.00  0.00     0.010 A 
ATOM     52  C   UNL A   1      45.648  27.088  36.989  1.00  0.00     0.020 A 
ATOM     53  C   UNL A   1      47.046  28.997  36.428  1.00  0.00     0.020 A 
ATOM     54  C   UNL A   1      46.890  27.732  37.000  1.00  0.00     0.054 A 
BRANCH  54  55
ATOM     55  S   UNL A   1      48.309  26.867  37.725  1.00  0.00     0.124 S 
ATOM     56  O   UNL A   1      48.537  27.625  38.951  1.00  0.00    -0.237 OA
ATOM     57  O   UNL A   1      47.787  25.515  37.904  1.00  0.00    -0.237 OA
ATOM     58  O   UNL A   1      49.349  26.997  36.707  1.00  0.00    -0.744 OA
ENDBRANCH  54  55
ENDBRANCH  26  49
BRANCH  38  59
ATOM     59  C   UNL A   1      39.608  33.448  37.432  1.00  0.00    -0.014 A 
ATOM     60  C   UNL A   1      38.848  32.820  38.433  1.00  0.00     0.010 A 
ATOM     61  C   UNL A   1      40.103  34.747  37.652  1.00  0.00     0.010 A 
ATOM     62  C   UNL A   1      38.577  33.486  39.632  1.00  0.00     0.020 A 
ATOM     63  C   UNL A   1      39.848  35.409  38.855  1.00  0.00     0.020 A 
ATOM     64  C   UNL A   1      39.082  34.775  39.836  1.00  0.00     0.054 A 
BRANCH  64  65
ATOM     65  S   UNL A   1      38.747  35.595  41.418  1.00  0.00     0.124 S 
ATOM     66  O   UNL A   1      39.905  35.204  42.218  1.00  0.00    -0.237 OA
ATOM     67  O   UNL A   1      38.692  37.005  41.038  1.00  0.00    -0.237 OA
ATOM     68  O   UNL A   1      37.474  35.020  41.847  1.00  0.00    -0.744 OA
ENDBRANCH  64  65
ENDBRANCH  38  59
ENDBRANCH  12  13
ENDBRANCH   5   7
ENDBRANCH   2   3
ENDBRANCH   1   2
BRANCH   1  69
ATOM     69  C   UNL A   1      43.416  23.006  27.109  1.00  0.00     0.023 C 
BRANCH  69  70
ATOM     70  C   UNL A   1      42.709  22.384  25.908  1.00  0.00     0.116 C 
BRANCH  70  71
ATOM     71  N   UNL A   1      42.233  21.034  26.164  1.00  0.00    -0.352 N 
ATOM     72  C   UNL A   1      40.941  20.585  26.276  1.00  0.00     0.251 C 
ATOM     73  H   UNL A   1      42.931  20.350  26.271  1.00  0.00     0.163 HD
ATOM     74  O   UNL A   1      40.693  19.422  26.571  1.00  0.00    -0.269 OA
BRANCH  72  75
ATOM     75  C   UNL A   1      39.835  21.540  26.092  1.00  0.00     0.041 A 
ATOM     76  C   UNL A   1      39.892  22.824  26.625  1.00  0.00     0.036 A 
ATOM     77  C   UNL A   1      38.707  21.111  25.398  1.00  0.00     0.020 A 
ATOM     78  C   UNL A   1      38.759  23.632  26.546  1.00  0.00     0.065 A 
ATOM     79  C   UNL A   1      37.574  21.938  25.307  1.00  0.00    -0.015 A 
ATOM     80  Cl  UNL A   1      38.834  25.202  27.277  1.00  0.00    -0.082 Cl
ATOM     81  C   UNL A   1      37.566  23.185  25.931  1.00  0.00     0.057 A 
ATOM     82  C   UNL A   1      36.375  21.447  24.559  1.00  0.00     0.049 C 
ATOM     83  N   UNL A   1      36.441  23.990  25.885  1.00  0.00    -0.376 N 
ATOM     84  C   UNL A   1      35.650  20.336  25.269  1.00  0.00    -0.023 C 
ATOM     85  C   UNL A   1      35.256  22.483  24.286  1.00  0.00     0.031 C 
ATOM     86  C   UNL A   1      35.130  23.555  25.403  1.00  0.00     0.114 C 
ATOM     87  H   UNL A   1      36.530  24.919  26.198  1.00  0.00     0.161 HD
ATOM     88  C   UNL A   1      34.339  20.395  25.032  1.00  0.00    -0.030 C 
ATOM     89  C   UNL A   1      34.015  21.563  24.163  1.00  0.00     0.034 C 
BRANCH  86  90
ATOM     90  C   UNL A   1      34.308  24.809  25.002  1.00  0.00    -0.025 A 
ATOM     91  C   UNL A   1      34.057  25.143  23.654  1.00  0.00     0.007 A 
ATOM     92  C   UNL A   1      33.864  25.733  25.967  1.00  0.00     0.007 A 
ATOM     93  C   UNL A   1      33.516  26.382  23.292  1.00  0.00     0.022 A 
ATOM     94  C   UNL A   1      33.257  26.943  25.618  1.00  0.00     0.022 A 
ATOM     95  C   UNL A   1      33.157  27.296  24.280  1.00  0.00     0.082 A 
BRANCH  95  96
ATOM     96  S   UNL A   1      32.786  28.975  23.822  1.00  0.00     0.243 S 
ATOM     97  O   UNL A   1      32.771  29.748  25.052  1.00  0.00    -0.207 OA
ATOM     98  O   UNL A   1      33.644  29.330  22.719  1.00  0.00    -0.207 OA
BRANCH  96  99
ATOM     99  N   UNL A   1      31.181  28.934  23.285  1.00  0.00    -0.193 NA
ATOM    100  C   UNL A   1      30.804  29.685  22.065  1.00  0.00     0.131 C 
ATOM    101  C   UNL A   1      30.394  27.683  23.463  1.00  0.00     0.131 C 
ATOM    102  C   UNL A   1      29.286  29.913  22.079  1.00  0.00     0.177 C 
ATOM    103  C   UNL A   1      28.896  27.976  23.363  1.00  0.00     0.177 C 
ATOM    104  O   UNL A   1      28.578  28.665  22.142  1.00  0.00    -0.379 OA
ENDBRANCH  96  99
ENDBRANCH  95  96
ENDBRANCH  86  90
ENDBRANCH  72  75
ENDBRANCH  70  71
ENDBRANCH  69  70
ENDBRANCH   1  69
TORSDOF 17
ENDMDL
MODEL 2
REMARK VINA RESULT:     -12.0      1.107      7.745
REMARK SMILES O=C(NCCCCNC(=O)c1cc(Cl)c2c(c1)[C@H]1C=CC[C@H]1[C@H](c1ccc(S(=O)(=O)N3CCOCC3)cc1)N2)c1ccc(-c2c3nc(c(-c4ccc(S(=O)(=O)[O-])cc4)c4ccc([nH]4)c(-c4ccc(S(=O)(=O)[O-])cc4)c4nc(c(-c5ccc(S(=O)(=O)[O-])cc5)c5ccc2[nH]5)C=C4)C=C3)cc1
REMARK SMILES IDX 5 1 4 2 3 3 1 4 2 5 40 7 41 8 99 9 42 10 98 11 43 12 44 13
REMARK SMILES IDX 45 14 92 15 46 16 97 17 91 18 93 19 47 20 96 21 90 22 89 23
REMARK SMILES IDX 48 25 78 26 59 27 77 28 60 29 63 30 76 31 94 32 61 33 62 34
REMARK SMILES IDX 75 36 95 37 64 38 49 39 50 40 58 41 51 42 57 43 52 44 53 45
REMARK SMILES IDX 54 46 55 47 56 48 79 49 80 50 88 51 81 52 87 53 82 54 83 55
REMARK SMILES IDX 84 56 85 57 86 58 65 59 66 60 74 61 67 62 73 63 68 64 69 65
REMARK SMILES IDX 70 66 71 67 72 68 6 69 7 70 8 71 9 72 10 74 11 75 12 76
REMARK SMILES IDX 17 77 13 78 16 79 14 80 15 81 18 82 39 83 19 84 22 85 23 86
REMARK SMILES IDX 20 88 21 89 24 90 25 91 38 92 26 93 37 94 27 95 28 96 29 97
REMARK SMILES IDX 30 98 31 99 32 100 36 101 33 102 35 103 34 104
REMARK H PARENT 3 6 93 24 63 35 8 73 39 87
REMARK Flexibility Score: inf
ROOT
ATOM      1  C   UNL A   1      44.445  23.987  26.415  1.00  0.00     0.023 C 
ENDROOT
BRANCH   1   2
ATOM      2  C   UNL A   1      44.970  25.404  26.211  1.00  0.00     0.116 C 
BRANCH   2   3
ATOM      3  N   UNL A   1      44.262  26.121  25.163  1.00  0.00    -0.352 N 
ATOM      4  O   UNL A   1      42.725  27.519  24.284  1.00  0.00    -0.269 OA
ATOM      5  C   UNL A   1      43.323  27.118  25.277  1.00  0.00     0.251 C 
ATOM      6  H   UNL A   1      44.485  25.855  24.241  1.00  0.00     0.163 HD
BRANCH   5   7
ATOM      7  C   UNL A   1      43.019  27.679  26.609  1.00  0.00     0.039 A 
ATOM      8  C   UNL A   1      42.157  27.009  27.483  1.00  0.00     0.014 A 
ATOM      9  C   UNL A   1      43.589  28.901  26.972  1.00  0.00     0.014 A 
ATOM     10  C   UNL A   1      41.772  27.621  28.672  1.00  0.00     0.010 A 
ATOM     11  C   UNL A   1      43.238  29.492  28.188  1.00  0.00     0.010 A 
ATOM     12  C   UNL A   1      42.302  28.870  29.030  1.00  0.00    -0.014 A 
BRANCH  12  13
ATOM     13  C   UNL A   1      41.886  29.513  30.297  1.00  0.00     0.031 A 
ATOM     14  C   UNL A   1      42.733  29.391  31.532  1.00  0.00     0.074 A 
ATOM     15  C   UNL A   1      40.751  30.235  30.323  1.00  0.00     0.049 A 
ATOM     16  N   UNL A   1      42.517  29.880  32.727  1.00  0.00    -0.248 NA
ATOM     17  C   UNL A   1      43.986  28.629  31.413  1.00  0.00     0.031 C 
ATOM     18  C   UNL A   1      39.862  30.448  29.178  1.00  0.00     0.029 A 
ATOM     19  N   UNL A   1      40.160  30.937  31.341  1.00  0.00    -0.354 N 
ATOM     20  C   UNL A   1      43.599  29.485  33.502  1.00  0.00     0.074 A 
ATOM     21  C   UNL A   1      44.465  28.699  32.648  1.00  0.00     0.031 C 
ATOM     22  C   UNL A   1      38.857  31.254  29.550  1.00  0.00     0.029 A 
ATOM     23  C   UNL A   1      39.006  31.578  30.966  1.00  0.00     0.049 A 
ATOM     24  H   UNL A   1      40.527  30.976  32.254  1.00  0.00     0.167 HD
ATOM     25  C   UNL A   1      43.851  29.759  34.803  1.00  0.00     0.031 A 
ATOM     26  C   UNL A   1      38.154  32.337  31.680  1.00  0.00     0.031 A 
ATOM     27  C   UNL A   1      42.985  30.533  35.653  1.00  0.00     0.049 A 
ATOM     28  C   UNL A   1      38.427  32.583  33.134  1.00  0.00     0.074 A 
ATOM     29  C   UNL A   1      43.150  30.845  36.992  1.00  0.00     0.029 A 
ATOM     30  N   UNL A   1      41.799  31.122  35.248  1.00  0.00    -0.354 N 
ATOM     31  N   UNL A   1      39.439  32.169  33.858  1.00  0.00    -0.248 NA
ATOM     32  C   UNL A   1      37.446  33.394  33.867  1.00  0.00     0.031 C 
ATOM     33  C   UNL A   1      42.047  31.601  37.403  1.00  0.00     0.029 A 
ATOM     34  C   UNL A   1      41.216  31.791  36.311  1.00  0.00     0.049 A 
ATOM     35  H   UNL A   1      41.424  31.072  34.339  1.00  0.00     0.167 HD
ATOM     36  C   UNL A   1      39.222  32.678  35.132  1.00  0.00     0.074 A 
ATOM     37  C   UNL A   1      37.988  33.436  35.078  1.00  0.00     0.031 C 
ATOM     38  C   UNL A   1      39.983  32.532  36.244  1.00  0.00     0.031 A 
BRANCH  25  39
ATOM     39  C   UNL A   1      45.114  29.204  35.400  1.00  0.00    -0.014 A 
ATOM     40  C   UNL A   1      45.124  27.934  36.005  1.00  0.00     0.010 A 
ATOM     41  C   UNL A   1      46.315  29.928  35.300  1.00  0.00     0.010 A 
ATOM     42  C   UNL A   1      46.313  27.405  36.514  1.00  0.00     0.020 A 
ATOM     43  C   UNL A   1      47.509  29.396  35.796  1.00  0.00     0.020 A 
ATOM     44  C   UNL A   1      47.498  28.140  36.406  1.00  0.00     0.054 A 
BRANCH  44  45
ATOM     45  S   UNL A   1      49.027  27.417  37.062  1.00  0.00     0.124 S 
ATOM     46  O   UNL A   1      49.480  28.453  37.988  1.00  0.00    -0.237 OA
ATOM     47  O   UNL A   1      48.552  26.184  37.684  1.00  0.00    -0.237 OA
ATOM     48  O   UNL A   1      49.864  27.236  35.878  1.00  0.00    -0.744 OA
ENDBRANCH  44  45
ENDBRANCH  25  39
BRANCH  26  49
ATOM     49  C   UNL A   1      36.968  32.920  31.005  1.00  0.00    -0.014 A 
ATOM     50  C   UNL A   1      35.685  32.414  31.268  1.00  0.00     0.010 A 
ATOM     51  C   UNL A   1      37.111  34.038  30.163  1.00  0.00     0.010 A 
ATOM     52  C   UNL A   1      34.559  33.028  30.713  1.00  0.00     0.020 A 
ATOM     53  C   UNL A   1      35.987  34.665  29.620  1.00  0.00     0.020 A 
ATOM     54  C   UNL A   1      34.717  34.158  29.904  1.00  0.00     0.054 A 
BRANCH  54  55
ATOM     55  S   UNL A   1      33.232  34.986  29.273  1.00  0.00     0.124 S 
ATOM     56  O   UNL A   1      32.430  35.142  30.483  1.00  0.00    -0.237 OA
ATOM     57  O   UNL A   1      33.780  36.219  28.714  1.00  0.00    -0.237 OA
ATOM     58  O   UNL A   1      32.703  34.044  28.289  1.00  0.00    -0.744 OA
ENDBRANCH  54  55
ENDBRANCH  26  49
BRANCH  38  59
ATOM     59  C   UNL A   1      39.516  33.218  37.496  1.00  0.00    -0.014 A 
ATOM     60  C   UNL A   1      38.573  32.610  38.342  1.00  0.00     0.010 A 
ATOM     61  C   UNL A   1      40.081  34.453  37.863  1.00  0.00     0.010 A 
ATOM     62  C   UNL A   1      38.194  33.234  39.534  1.00  0.00     0.020 A 
ATOM     63  C   UNL A   1      39.715  35.072  39.061  1.00  0.00     0.020 A 
ATOM     64  C   UNL A   1      38.769  34.459  39.886  1.00  0.00     0.054 A 
BRANCH  64  65
ATOM     65  S   UNL A   1      38.284  35.223  41.458  1.00  0.00     0.124 S 
ATOM     66  O   UNL A   1      36.942  34.683  41.660  1.00  0.00    -0.237 OA
ATOM     67  O   UNL A   1      39.306  34.729  42.378  1.00  0.00    -0.237 OA
ATOM     68  O   UNL A   1      38.342  36.656  41.182  1.00  0.00    -0.744 OA
ENDBRANCH  64  65
ENDBRANCH  38  59
ENDBRANCH  12  13
ENDBRANCH   5   7
ENDBRANCH   2   3
ENDBRANCH   1   2
BRANCH   1  69
ATOM     69  C   UNL A   1      43.011  23.743  25.948  1.00  0.00     0.023 C 
BRANCH  69  70
ATOM     70  C   UNL A   1      42.767  22.412  25.243  1.00  0.00     0.116 C 
BRANCH  70  71
ATOM     71  N   UNL A   1      42.445  21.331  26.159  1.00  0.00    -0.352 N 
ATOM     72  C   UNL A   1      41.249  21.050  26.771  1.00  0.00     0.251 C 
ATOM     73  H   UNL A   1      43.185  20.718  26.371  1.00  0.00     0.163 HD
ATOM     74  O   UNL A   1      41.147  20.141  27.585  1.00  0.00    -0.269 OA
BRANCH  72  75
ATOM     75  C   UNL A   1      40.081  21.898  26.479  1.00  0.00     0.041 A 
ATOM     76  C   UNL A   1      39.970  23.182  27.004  1.00  0.00     0.036 A 
ATOM     77  C   UNL A   1      39.066  21.368  25.688  1.00  0.00     0.020 A 
ATOM     78  C   UNL A   1      38.779  23.882  26.816  1.00  0.00     0.065 A 
ATOM     79  C   UNL A   1      37.874  22.086  25.487  1.00  0.00    -0.015 A 
ATOM     80  Cl  UNL A   1      38.642  25.452  27.537  1.00  0.00    -0.082 Cl
ATOM     81  C   UNL A   1      37.695  23.326  26.098  1.00  0.00     0.057 A 
ATOM     82  C   UNL A   1      36.800  21.486  24.637  1.00  0.00     0.049 C 
ATOM     83  N   UNL A   1      36.510  24.024  25.942  1.00  0.00    -0.376 N 
ATOM     84  C   UNL A   1      36.118  20.313  25.287  1.00  0.00    -0.023 C 
ATOM     85  C   UNL A   1      35.620  22.414  24.254  1.00  0.00     0.031 C 
ATOM     86  C   UNL A   1      35.293  23.470  25.346  1.00  0.00     0.114 C 
ATOM     87  H   UNL A   1      36.483  24.957  26.254  1.00  0.00     0.161 HD
ATOM     88  C   UNL A   1      34.835  20.250  24.930  1.00  0.00    -0.030 C 
ATOM     89  C   UNL A   1      34.485  21.384  24.026  1.00  0.00     0.034 C 
BRANCH  86  90
ATOM     90  C   UNL A   1      34.400  24.643  24.861  1.00  0.00    -0.025 A 
ATOM     91  C   UNL A   1      34.423  25.103  23.527  1.00  0.00     0.007 A 
ATOM     92  C   UNL A   1      33.601  25.374  25.760  1.00  0.00     0.007 A 
ATOM     93  C   UNL A   1      33.792  26.293  23.149  1.00  0.00     0.022 A 
ATOM     94  C   UNL A   1      32.907  26.526  25.376  1.00  0.00     0.022 A 
ATOM     95  C   UNL A   1      33.069  27.023  24.090  1.00  0.00     0.082 A 
BRANCH  95  96
ATOM     96  S   UNL A   1      32.553  28.682  23.700  1.00  0.00     0.243 S 
ATOM     97  O   UNL A   1      33.527  29.209  22.760  1.00  0.00    -0.207 OA
ATOM     98  O   UNL A   1      31.147  28.642  23.387  1.00  0.00    -0.207 OA
BRANCH  96  99
ATOM     99  N   UNL A   1      32.778  29.553  25.133  1.00  0.00    -0.193 NA
ATOM    100  C   UNL A   1      31.596  29.965  25.926  1.00  0.00     0.131 C 
ATOM    101  C   UNL A   1      33.968  29.258  25.977  1.00  0.00     0.131 C 
ATOM    102  C   UNL A   1      32.000  31.127  26.843  1.00  0.00     0.177 C 
ATOM    103  C   UNL A   1      34.246  30.419  26.934  1.00  0.00     0.177 C 
ATOM    104  O   UNL A   1      33.081  30.747  27.709  1.00  0.00    -0.379 OA
ENDBRANCH  96  99
ENDBRANCH  95  96
ENDBRANCH  86  90
ENDBRANCH  72  75
ENDBRANCH  70  71
ENDBRANCH  69  70
ENDBRANCH   1  69
TORSDOF 17
ENDMDL
MODEL 3
REMARK VINA RESULT:     -11.7      5.441     11.493
REMARK SMILES O=C(NCCCCNC(=O)c1cc(Cl)c2c(c1)[C@H]1C=CC[C@H]1[C@H](c1ccc(S(=O)(=O)N3CCOCC3)cc1)N2)c1ccc(-c2c3nc(c(-c4ccc(S(=O)(=O)[O-])cc4)c4ccc([nH]4)c(-c4ccc(S(=O)(=O)[O-])cc4)c4nc(c(-c5ccc(S(=O)(=O)[O-])cc5)c5ccc2[nH]5)C=C4)C=C3)cc1
REMARK SMILES IDX 5 1 4 2 3 3 1 4 2 5 40 7 41 8 99 9 42 10 98 11 43 12 44 13
REMARK SMILES IDX 45 14 92 15 46 16 97 17 91 18 93 19 47 20 96 21 90 22 89 23
REMARK SMILES IDX 48 25 78 26 59 27 77 28 60 29 63 30 76 31 94 32 61 33 62 34
REMARK SMILES IDX 75 36 95 37 64 38 49 39 50 40 58 41 51 42 57 43 52 44 53 45
REMARK SMILES IDX 54 46 55 47 56 48 79 49 80 50 88 51 81 52 87 53 82 54 83 55
REMARK SMILES IDX 84 56 85 57 86 58 65 59 66 60 74 61 67 62 73 63 68 64 69 65
REMARK SMILES IDX 70 66 71 67 72 68 6 69 7 70 8 71 9 72 10 74 11 75 12 76
REMARK SMILES IDX 17 77 13 78 16 79 14 80 15 81 18 82 39 83 19 84 22 85 23 86
REMARK SMILES IDX 20 88 21 89 24 90 25 91 38 92 26 93 37 94 27 95 28 96 29 97
REMARK SMILES IDX 30 98 31 99 32 100 36 101 33 102 35 103 34 104
REMARK H PARENT 3 6 93 24 63 35 8 73 39 87
REMARK Flexibility Score: inf
ROOT
ATOM      1  C   UNL A   1      39.652  36.066  36.983  1.00  0.00     0.023 C 
ENDROOT
BRANCH   1   2
ATOM      2  C   UNL A   1      40.679  36.290  38.088  1.00  0.00     0.116 C 
BRANCH   2   3
ATOM      3  N   UNL A   1      40.544  35.341  39.181  1.00  0.00    -0.352 N 
ATOM      4  O   UNL A   1      40.513  33.315  40.173  1.00  0.00    -0.269 OA
ATOM      5  C   UNL A   1      40.814  33.993  39.196  1.00  0.00     0.251 C 
ATOM      6  H   UNL A   1      40.215  35.715  40.030  1.00  0.00     0.163 HD
BRANCH   5   7
ATOM      7  C   UNL A   1      41.438  33.364  38.015  1.00  0.00     0.039 A 
ATOM      8  C   UNL A   1      42.791  33.571  37.729  1.00  0.00     0.014 A 
ATOM      9  C   UNL A   1      40.648  32.576  37.175  1.00  0.00     0.014 A 
ATOM     10  C   UNL A   1      43.325  33.088  36.538  1.00  0.00     0.010 A 
ATOM     11  C   UNL A   1      41.198  32.052  36.003  1.00  0.00     0.010 A 
ATOM     12  C   UNL A   1      42.530  32.332  35.661  1.00  0.00    -0.014 A 
BRANCH  12  13
ATOM     13  C   UNL A   1      43.107  31.822  34.397  1.00  0.00     0.031 A 
ATOM     14  C   UNL A   1      43.147  32.686  33.169  1.00  0.00     0.074 A 
ATOM     15  C   UNL A   1      43.625  30.580  34.369  1.00  0.00     0.049 A 
ATOM     16  N   UNL A   1      43.606  32.398  31.977  1.00  0.00    -0.248 NA
ATOM     17  C   UNL A   1      42.610  34.050  33.292  1.00  0.00     0.031 C 
ATOM     18  C   UNL A   1      43.668  29.660  35.508  1.00  0.00     0.029 A 
ATOM     19  N   UNL A   1      44.227  29.885  33.352  1.00  0.00    -0.354 N 
ATOM     20  C   UNL A   1      43.412  33.537  31.208  1.00  0.00     0.074 A 
ATOM     21  C   UNL A   1      42.775  34.519  32.061  1.00  0.00     0.031 C 
ATOM     22  C   UNL A   1      44.296  28.534  35.135  1.00  0.00     0.029 A 
ATOM     23  C   UNL A   1      44.657  28.635  33.724  1.00  0.00     0.049 A 
ATOM     24  H   UNL A   1      44.339  30.247  32.444  1.00  0.00     0.167 HD
ATOM     25  C   UNL A   1      43.740  33.748  29.912  1.00  0.00     0.031 A 
ATOM     26  C   UNL A   1      45.267  27.671  33.010  1.00  0.00     0.031 A 
ATOM     27  C   UNL A   1      44.365  32.769  29.063  1.00  0.00     0.049 A 
ATOM     28  C   UNL A   1      45.574  27.909  31.561  1.00  0.00     0.074 A 
ATOM     29  C   UNL A   1      44.717  32.887  27.729  1.00  0.00     0.029 A 
ATOM     30  N   UNL A   1      44.737  31.496  29.464  1.00  0.00    -0.354 N 
ATOM     31  N   UNL A   1      45.347  28.982  30.842  1.00  0.00    -0.248 NA
ATOM     32  C   UNL A   1      46.213  26.809  30.828  1.00  0.00     0.031 C 
ATOM     33  C   UNL A   1      45.278  31.674  27.315  1.00  0.00     0.029 A 
ATOM     34  C   UNL A   1      45.309  30.815  28.402  1.00  0.00     0.049 A 
ATOM     35  H   UNL A   1      44.612  31.129  30.369  1.00  0.00     0.167 HD
ATOM     36  C   UNL A   1      45.828  28.691  29.572  1.00  0.00     0.074 A 
ATOM     37  C   UNL A   1      46.363  27.345  29.623  1.00  0.00     0.031 C 
ATOM     38  C   UNL A   1      45.827  29.473  28.465  1.00  0.00     0.031 A 
BRANCH  25  39
ATOM     39  C   UNL A   1      43.416  35.092  29.321  1.00  0.00    -0.014 A 
ATOM     40  C   UNL A   1      42.232  35.287  28.588  1.00  0.00     0.010 A 
ATOM     41  C   UNL A   1      44.270  36.185  29.554  1.00  0.00     0.010 A 
ATOM     42  C   UNL A   1      41.916  36.551  28.083  1.00  0.00     0.020 A 
ATOM     43  C   UNL A   1      43.949  37.454  29.062  1.00  0.00     0.020 A 
ATOM     44  C   UNL A   1      42.777  37.626  28.324  1.00  0.00     0.054 A 
BRANCH  44  45
ATOM     45  S   UNL A   1      42.327  39.258  27.669  1.00  0.00     0.124 S 
ATOM     46  O   UNL A   1      41.553  38.905  26.481  1.00  0.00    -0.237 OA
ATOM     47  O   UNL A   1      41.560  39.838  28.768  1.00  0.00    -0.237 OA
ATOM     48  O   UNL A   1      43.615  39.894  27.403  1.00  0.00    -0.744 OA
ENDBRANCH  44  45
ENDBRANCH  25  39
BRANCH  26  49
ATOM     49  C   UNL A   1      45.631  26.398  33.680  1.00  0.00    -0.014 A 
ATOM     50  C   UNL A   1      44.813  25.266  33.538  1.00  0.00     0.010 A 
ATOM     51  C   UNL A   1      46.840  26.293  34.391  1.00  0.00     0.010 A 
ATOM     52  C   UNL A   1      45.205  24.041  34.083  1.00  0.00     0.020 A 
ATOM     53  C   UNL A   1      47.244  25.066  34.923  1.00  0.00     0.020 A 
ATOM     54  C   UNL A   1      46.426  23.946  34.760  1.00  0.00     0.054 A 
BRANCH  54  55
ATOM     55  S   UNL A   1      46.951  22.323  35.376  1.00  0.00     0.124 S 
ATOM     56  O   UNL A   1      48.400  22.386  35.211  1.00  0.00    -0.237 OA
ATOM     57  O   UNL A   1      46.469  22.346  36.754  1.00  0.00    -0.237 OA
ATOM     58  O   UNL A   1      46.262  21.381  34.497  1.00  0.00    -0.744 OA
ENDBRANCH  54  55
ENDBRANCH  26  49
BRANCH  38  59
ATOM     59  C   UNL A   1      46.438  28.905  27.217  1.00  0.00    -0.014 A 
ATOM     60  C   UNL A   1      45.638  28.570  26.111  1.00  0.00     0.010 A 
ATOM     61  C   UNL A   1      47.836  28.770  27.126  1.00  0.00     0.010 A 
ATOM     62  C   UNL A   1      46.228  28.098  24.935  1.00  0.00     0.020 A 
ATOM     63  C   UNL A   1      48.429  28.314  25.947  1.00  0.00     0.020 A 
ATOM     64  C   UNL A   1      47.620  27.976  24.860  1.00  0.00     0.054 A 
BRANCH  64  65
ATOM     65  S   UNL A   1      48.356  27.399  23.306  1.00  0.00     0.124 S 
ATOM     66  O   UNL A   1      48.263  25.948  23.443  1.00  0.00    -0.237 OA
ATOM     67  O   UNL A   1      47.477  27.993  22.301  1.00  0.00    -0.237 OA
ATOM     68  O   UNL A   1      49.712  27.940  23.340  1.00  0.00    -0.744 OA
ENDBRANCH  64  65
ENDBRANCH  38  59
ENDBRANCH  12  13
ENDBRANCH   5   7
ENDBRANCH   2   3
ENDBRANCH   1   2
BRANCH   1  69
ATOM     69  C   UNL A   1      40.222  35.950  35.569  1.00  0.00     0.023 C 
BRANCH  69  70
ATOM     70  C   UNL A   1      39.440  35.048  34.619  1.00  0.00     0.116 C 
BRANCH  70  71
ATOM     71  N   UNL A   1      38.169  34.606  35.168  1.00  0.00    -0.352 N 
ATOM     72  C   UNL A   1      37.339  33.607  34.723  1.00  0.00     0.251 C 
ATOM     73  H   UNL A   1      37.860  35.090  35.968  1.00  0.00     0.163 HD
ATOM     74  O   UNL A   1      36.253  33.398  35.248  1.00  0.00    -0.269 OA
BRANCH  72  75
ATOM     75  C   UNL A   1      37.746  32.811  33.553  1.00  0.00     0.041 A 
ATOM     76  C   UNL A   1      37.027  32.854  32.362  1.00  0.00     0.036 A 
ATOM     77  C   UNL A   1      38.856  31.980  33.678  1.00  0.00     0.020 A 
ATOM     78  C   UNL A   1      37.370  31.971  31.340  1.00  0.00     0.065 A 
ATOM     79  C   UNL A   1      39.208  31.104  32.636  1.00  0.00    -0.015 A 
ATOM     80  Cl  UNL A   1      36.415  31.999  29.894  1.00  0.00    -0.082 Cl
ATOM     81  C   UNL A   1      38.433  31.048  31.479  1.00  0.00     0.057 A 
ATOM     82  C   UNL A   1      40.402  30.220  32.804  1.00  0.00     0.049 C 
ATOM     83  N   UNL A   1      38.744  30.160  30.464  1.00  0.00    -0.376 N 
ATOM     84  C   UNL A   1      40.187  29.121  33.809  1.00  0.00    -0.023 C 
ATOM     85  C   UNL A   1      40.883  29.458  31.544  1.00  0.00     0.031 C 
ATOM     86  C   UNL A   1      39.724  29.080  30.579  1.00  0.00     0.114 C 
ATOM     87  H   UNL A   1      38.274  30.262  29.606  1.00  0.00     0.161 HD
ATOM     88  C   UNL A   1      40.861  28.023  33.467  1.00  0.00    -0.030 C 
ATOM     89  C   UNL A   1      41.586  28.232  32.180  1.00  0.00     0.034 C 
BRANCH  86  90
ATOM     90  C   UNL A   1      40.181  28.670  29.154  1.00  0.00    -0.025 A 
ATOM     91  C   UNL A   1      39.476  27.722  28.382  1.00  0.00     0.007 A 
ATOM     92  C   UNL A   1      41.386  29.149  28.606  1.00  0.00     0.007 A 
ATOM     93  C   UNL A   1      40.009  27.191  27.202  1.00  0.00     0.022 A 
ATOM     94  C   UNL A   1      41.893  28.678  27.391  1.00  0.00     0.022 A 
ATOM     95  C   UNL A   1      41.241  27.644  26.734  1.00  0.00     0.082 A 
BRANCH  95  96
ATOM     96  S   UNL A   1      42.064  26.748  25.435  1.00  0.00     0.243 S 
ATOM     97  O   UNL A   1      41.111  25.773  24.934  1.00  0.00    -0.207 OA
ATOM     98  O   UNL A   1      42.686  27.711  24.562  1.00  0.00    -0.207 OA
BRANCH  96  99
ATOM     99  N   UNL A   1      43.267  25.853  26.222  1.00  0.00    -0.193 NA
ATOM    100  C   UNL A   1      42.929  25.114  27.460  1.00  0.00     0.131 C 
ATOM    101  C   UNL A   1      44.308  25.171  25.404  1.00  0.00     0.131 C 
ATOM    102  C   UNL A   1      44.225  24.831  28.232  1.00  0.00     0.177 C 
ATOM    103  C   UNL A   1      45.525  24.831  26.266  1.00  0.00     0.177 C 
ATOM    104  O   UNL A   1      45.147  24.076  27.430  1.00  0.00    -0.379 OA
ENDBRANCH  96  99
ENDBRANCH  95  96
ENDBRANCH  86  90
ENDBRANCH  72  75
ENDBRANCH  70  71
ENDBRANCH  69  70
ENDBRANCH   1  69
TORSDOF 17
ENDMDL
