MODEL 1
REMARK VINA RESULT:     -10.6      0.000      0.000
REMARK SMILES C[C@H]1[C@H](C(=O)NCCCCNC(=O)c2ccc(-c3c4nc(c(-c5ccc(S(=O)(=O)[O-])cc5)c5ccc([nH]5)c(-c5ccc(S(=O)(=O)[O-])cc5)c5nc(c(-c6ccc(S(=O)(=O)[O-])cc6)c6ccc3[nH]6)C=C5)C=C4)cc2)CCN1S(=O)(=O)C(F)(F)F
REMARK SMILES IDX 9 1 8 2 7 3 6 4 4 5 5 6 3 8 1 9 2 10 76 11 74 12 75 13 77 14
REMARK SMILES IDX 78 15 79 16 80 17 81 18 82 19 83 20 10 21 11 22 12 23 13 25
REMARK SMILES IDX 14 26 15 27 73 28 16 29 72 30 17 31 18 32 19 33 66 34 20 35
REMARK SMILES IDX 71 36 65 37 67 38 21 39 70 40 64 41 63 42 22 44 52 45 33 46
REMARK SMILES IDX 51 47 34 48 37 49 50 50 68 51 35 52 36 53 49 55 69 56 38 57
REMARK SMILES IDX 23 58 24 59 32 60 25 61 31 62 26 63 27 64 28 65 29 66 30 67
REMARK SMILES IDX 53 68 54 69 62 70 55 71 61 72 56 73 57 74 58 75 59 76 60 77
REMARK SMILES IDX 39 78 40 79 48 80 41 81 47 82 42 83 43 84 44 85 45 86 46 87
REMARK H PARENT 6 7 11 24 67 43 37 54
REMARK Flexibility Score: inf
ROOT
ATOM      1  C   UNL A   1      32.358  28.051  27.561  1.00  0.00     0.023 C 
ENDROOT
BRANCH   1   2
ATOM      2  C   UNL A   1      31.433  28.115  26.351  1.00  0.00     0.023 C 
BRANCH   2   3
ATOM      3  C   UNL A   1      31.208  26.778  25.642  1.00  0.00     0.116 C 
BRANCH   3   4
ATOM      4  N   UNL A   1      31.120  25.664  26.567  1.00  0.00    -0.356 N 
ATOM      5  C   UNL A   1      31.566  24.383  26.466  1.00  0.00     0.224 C 
ATOM      6  O   UNL A   1      31.380  23.640  27.435  1.00  0.00    -0.275 OA
ATOM      7  H   UNL A   1      30.661  25.871  27.413  1.00  0.00     0.163 HD
BRANCH   5   8
ATOM      8  C   UNL A   1      32.259  23.830  25.224  1.00  0.00     0.098 C 
ATOM      9  C   UNL A   1      34.445  24.965  24.677  1.00  0.00     0.026 C 
ATOM     10  C   UNL A   1      33.782  23.767  25.358  1.00  0.00     0.082 C 
ATOM     11  N   UNL A   1      34.227  22.530  24.647  1.00  0.00    -0.190 NA
ATOM     12  C   UNL A   1      31.821  22.446  24.783  1.00  0.00     0.032 C 
ATOM     13  C   UNL A   1      33.025  21.902  24.027  1.00  0.00     0.104 C 
BRANCH  11  14
ATOM     14  S   UNL A   1      35.275  21.427  25.445  1.00  0.00     0.314 S 
ATOM     15  O   UNL A   1      35.064  21.645  26.866  1.00  0.00    -0.203 OA
ATOM     16  O   UNL A   1      34.944  20.124  24.893  1.00  0.00    -0.203 OA
BRANCH  14  17
ATOM     17  C   UNL A   1      37.037  21.899  24.983  1.00  0.00     0.511 C 
ATOM     18  F   UNL A   1      37.091  23.057  24.268  1.00  0.00    -0.155 F 
ATOM     19  F   UNL A   1      37.831  22.076  26.078  1.00  0.00    -0.155 F 
ATOM     20  F   UNL A   1      37.633  20.933  24.229  1.00  0.00    -0.155 F 
ENDBRANCH  14  17
ENDBRANCH  11  14
ENDBRANCH   5   8
ENDBRANCH   3   4
ENDBRANCH   2   3
ENDBRANCH   1   2
BRANCH   1  21
ATOM     21  C   UNL A   1      33.706  28.740  27.386  1.00  0.00     0.116 C 
BRANCH  21  22
ATOM     22  N   UNL A   1      33.718  30.144  27.772  1.00  0.00    -0.352 N 
ATOM     23  C   UNL A   1      34.759  30.861  28.324  1.00  0.00     0.251 C 
ATOM     24  H   UNL A   1      32.882  30.642  27.620  1.00  0.00     0.163 HD
ATOM     25  O   UNL A   1      34.606  32.022  28.674  1.00  0.00    -0.269 OA
BRANCH  23  26
ATOM     26  C   UNL A   1      36.055  30.179  28.531  1.00  0.00     0.039 A 
ATOM     27  C   UNL A   1      37.020  30.237  27.524  1.00  0.00     0.014 A 
ATOM     28  C   UNL A   1      36.342  29.568  29.755  1.00  0.00     0.014 A 
ATOM     29  C   UNL A   1      38.308  29.762  27.780  1.00  0.00     0.010 A 
ATOM     30  C   UNL A   1      37.645  29.174  30.035  1.00  0.00     0.010 A 
ATOM     31  C   UNL A   1      38.644  29.274  29.054  1.00  0.00    -0.014 A 
BRANCH  31  32
ATOM     32  C   UNL A   1      40.035  28.880  29.393  1.00  0.00     0.031 A 
ATOM     33  C   UNL A   1      40.941  29.852  30.099  1.00  0.00     0.074 A 
ATOM     34  C   UNL A   1      40.508  27.683  28.992  1.00  0.00     0.049 A 
ATOM     35  N   UNL A   1      42.207  29.726  30.402  1.00  0.00    -0.248 NA
ATOM     36  C   UNL A   1      40.357  31.147  30.483  1.00  0.00     0.031 C 
ATOM     37  C   UNL A   1      39.749  26.673  28.249  1.00  0.00     0.029 A 
ATOM     38  N   UNL A   1      41.750  27.116  29.143  1.00  0.00    -0.354 N 
ATOM     39  C   UNL A   1      42.577  30.930  30.987  1.00  0.00     0.074 A 
ATOM     40  C   UNL A   1      41.414  31.792  30.953  1.00  0.00     0.031 C 
ATOM     41  C   UNL A   1      40.530  25.601  28.037  1.00  0.00     0.029 A 
ATOM     42  C   UNL A   1      41.855  25.860  28.593  1.00  0.00     0.049 A 
ATOM     43  H   UNL A   1      42.495  27.567  29.603  1.00  0.00     0.167 HD
ATOM     44  C   UNL A   1      43.768  31.284  31.525  1.00  0.00     0.031 A 
ATOM     45  C   UNL A   1      42.900  25.013  28.538  1.00  0.00     0.031 A 
ATOM     46  C   UNL A   1      44.914  30.418  31.584  1.00  0.00     0.049 A 
ATOM     47  C   UNL A   1      44.207  25.416  29.164  1.00  0.00     0.074 A 
ATOM     48  C   UNL A   1      46.146  30.659  32.168  1.00  0.00     0.029 A 
ATOM     49  N   UNL A   1      44.969  29.142  31.045  1.00  0.00    -0.354 N 
ATOM     50  N   UNL A   1      44.516  26.537  29.770  1.00  0.00    -0.248 NA
ATOM     51  C   UNL A   1      45.300  24.436  29.109  1.00  0.00     0.031 C 
ATOM     52  C   UNL A   1      46.957  29.540  31.949  1.00  0.00     0.029 A 
ATOM     53  C   UNL A   1      46.216  28.587  31.270  1.00  0.00     0.049 A 
ATOM     54  H   UNL A   1      44.229  28.696  30.573  1.00  0.00     0.167 HD
ATOM     55  C   UNL A   1      45.833  26.388  30.190  1.00  0.00     0.074 A 
ATOM     56  C   UNL A   1      46.257  25.064  29.780  1.00  0.00     0.031 C 
ATOM     57  C   UNL A   1      46.621  27.268  30.856  1.00  0.00     0.031 A 
BRANCH  44  58
ATOM     58  C   UNL A   1      43.884  32.672  32.096  1.00  0.00    -0.014 A 
ATOM     59  C   UNL A   1      43.639  32.916  33.459  1.00  0.00     0.010 A 
ATOM     60  C   UNL A   1      44.263  33.741  31.265  1.00  0.00     0.010 A 
ATOM     61  C   UNL A   1      43.723  34.213  33.972  1.00  0.00     0.020 A 
ATOM     62  C   UNL A   1      44.374  35.036  31.780  1.00  0.00     0.020 A 
ATOM     63  C   UNL A   1      44.085  35.266  33.126  1.00  0.00     0.054 A 
BRANCH  63  64
ATOM     64  S   UNL A   1      44.197  36.939  33.819  1.00  0.00     0.124 S 
ATOM     65  O   UNL A   1      42.848  37.449  33.593  1.00  0.00    -0.237 OA
ATOM     66  O   UNL A   1      44.548  36.687  35.214  1.00  0.00    -0.237 OA
ATOM     67  O   UNL A   1      45.245  37.573  33.022  1.00  0.00    -0.744 OA
ENDBRANCH  63  64
ENDBRANCH  44  58
BRANCH  45  68
ATOM     68  C   UNL A   1      42.746  23.684  27.887  1.00  0.00    -0.014 A 
ATOM     69  C   UNL A   1      42.284  22.581  28.626  1.00  0.00     0.010 A 
ATOM     70  C   UNL A   1      43.044  23.516  26.523  1.00  0.00     0.010 A 
ATOM     71  C   UNL A   1      42.138  21.330  28.019  1.00  0.00     0.020 A 
ATOM     72  C   UNL A   1      42.876  22.274  25.905  1.00  0.00     0.020 A 
ATOM     73  C   UNL A   1      42.435  21.185  26.661  1.00  0.00     0.054 A 
BRANCH  73  74
ATOM     74  S   UNL A   1      42.185  19.567  25.877  1.00  0.00     0.124 S 
ATOM     75  O   UNL A   1      42.486  18.651  26.972  1.00  0.00    -0.237 OA
ATOM     76  O   UNL A   1      40.784  19.626  25.466  1.00  0.00    -0.237 OA
ATOM     77  O   UNL A   1      43.147  19.570  24.778  1.00  0.00    -0.744 OA
ENDBRANCH  73  74
ENDBRANCH  45  68
BRANCH  57  78
ATOM     78  C   UNL A   1      48.011  26.819  31.210  1.00  0.00    -0.014 A 
ATOM     79  C   UNL A   1      48.256  26.061  32.368  1.00  0.00     0.010 A 
ATOM     80  C   UNL A   1      49.078  27.114  30.342  1.00  0.00     0.010 A 
ATOM     81  C   UNL A   1      49.551  25.626  32.664  1.00  0.00     0.020 A 
ATOM     82  C   UNL A   1      50.369  26.661  30.623  1.00  0.00     0.020 A 
ATOM     83  C   UNL A   1      50.599  25.931  31.790  1.00  0.00     0.054 A 
BRANCH  83  84
ATOM     84  S   UNL A   1      52.263  25.316  32.171  1.00  0.00     0.124 S 
ATOM     85  O   UNL A   1      53.011  25.707  30.979  1.00  0.00    -0.237 OA
ATOM     86  O   UNL A   1      52.604  26.042  33.391  1.00  0.00    -0.237 OA
ATOM     87  O   UNL A   1      52.069  23.878  32.342  1.00  0.00    -0.744 OA
ENDBRANCH  83  84
ENDBRANCH  57  78
ENDBRANCH  31  32
ENDBRANCH  23  26
ENDBRANCH  21  22
ENDBRANCH   1  21
TORSDOF 16
ENDMDL
MODEL 2
REMARK VINA RESULT:     -10.4      2.545      3.075
REMARK SMILES C[C@H]1[C@H](C(=O)NCCCCNC(=O)c2ccc(-c3c4nc(c(-c5ccc(S(=O)(=O)[O-])cc5)c5ccc([nH]5)c(-c5ccc(S(=O)(=O)[O-])cc5)c5nc(c(-c6ccc(S(=O)(=O)[O-])cc6)c6ccc3[nH]6)C=C5)C=C4)cc2)CCN1S(=O)(=O)C(F)(F)F
REMARK SMILES IDX 9 1 8 2 7 3 6 4 4 5 5 6 3 8 1 9 2 10 76 11 74 12 75 13 77 14
REMARK SMILES IDX 78 15 79 16 80 17 81 18 82 19 83 20 10 21 11 22 12 23 13 25
REMARK SMILES IDX 14 26 15 27 73 28 16 29 72 30 17 31 18 32 19 33 66 34 20 35
REMARK SMILES IDX 71 36 65 37 67 38 21 39 70 40 64 41 63 42 22 44 52 45 33 46
REMARK SMILES IDX 51 47 34 48 37 49 50 50 68 51 35 52 36 53 49 55 69 56 38 57
REMARK SMILES IDX 23 58 24 59 32 60 25 61 31 62 26 63 27 64 28 65 29 66 30 67
REMARK SMILES IDX 53 68 54 69 62 70 55 71 61 72 56 73 57 74 58 75 59 76 60 77
REMARK SMILES IDX 39 78 40 79 48 80 41 81 47 82 42 83 43 84 44 85 45 86 46 87
REMARK H PARENT 6 7 11 24 67 43 37 54
REMARK Flexibility Score: inf
ROOT
ATOM      1  C   UNL A   1      33.178  28.074  26.699  1.00  0.00     0.023 C 
ENDROOT
BRANCH   1   2
ATOM      2  C   UNL A   1      31.662  28.098  26.539  1.00  0.00     0.023 C 
BRANCH   2   3
ATOM      3  C   UNL A   1      31.066  26.860  25.866  1.00  0.00     0.116 C 
BRANCH   3   4
ATOM      4  N   UNL A   1      31.061  25.700  26.737  1.00  0.00    -0.356 N 
ATOM      5  C   UNL A   1      31.513  24.432  26.538  1.00  0.00     0.224 C 
ATOM      6  O   UNL A   1      31.409  23.640  27.479  1.00  0.00    -0.275 OA
ATOM      7  H   UNL A   1      30.664  25.858  27.624  1.00  0.00     0.163 HD
BRANCH   5   8
ATOM      8  C   UNL A   1      32.118  23.954  25.221  1.00  0.00     0.098 C 
ATOM      9  C   UNL A   1      34.219  25.179  24.551  1.00  0.00     0.026 C 
ATOM     10  C   UNL A   1      33.648  23.934  25.231  1.00  0.00     0.082 C 
ATOM     11  N   UNL A   1      34.068  22.742  24.433  1.00  0.00    -0.190 NA
ATOM     12  C   UNL A   1      31.686  22.575  24.757  1.00  0.00     0.032 C 
ATOM     13  C   UNL A   1      32.839  22.101  23.885  1.00  0.00     0.104 C 
BRANCH  11  14
ATOM     14  S   UNL A   1      35.210  21.641  25.096  1.00  0.00     0.314 S 
ATOM     15  O   UNL A   1      35.210  21.893  26.527  1.00  0.00    -0.203 OA
ATOM     16  O   UNL A   1      34.786  20.331  24.628  1.00  0.00    -0.203 OA
BRANCH  14  17
ATOM     17  C   UNL A   1      36.890  22.077  24.372  1.00  0.00     0.511 C 
ATOM     18  F   UNL A   1      37.761  21.030  24.421  1.00  0.00    -0.155 F 
ATOM     19  F   UNL A   1      36.809  22.457  23.064  1.00  0.00    -0.155 F 
ATOM     20  F   UNL A   1      37.470  23.115  25.037  1.00  0.00    -0.155 F 
ENDBRANCH  14  17
ENDBRANCH  11  14
ENDBRANCH   5   8
ENDBRANCH   3   4
ENDBRANCH   2   3
ENDBRANCH   1   2
BRANCH   1  21
ATOM     21  C   UNL A   1      33.920  29.230  26.040  1.00  0.00     0.116 C 
BRANCH  21  22
ATOM     22  N   UNL A   1      33.669  30.530  26.647  1.00  0.00    -0.352 N 
ATOM     23  C   UNL A   1      34.406  31.163  27.626  1.00  0.00     0.251 C 
ATOM     24  H   UNL A   1      32.876  31.015  26.320  1.00  0.00     0.163 HD
ATOM     25  O   UNL A   1      34.034  32.225  28.104  1.00  0.00    -0.269 OA
BRANCH  23  26
ATOM     26  C   UNL A   1      35.633  30.504  28.123  1.00  0.00     0.039 A 
ATOM     27  C   UNL A   1      36.868  30.888  27.598  1.00  0.00     0.014 A 
ATOM     28  C   UNL A   1      35.563  29.581  29.170  1.00  0.00     0.014 A 
ATOM     29  C   UNL A   1      38.042  30.413  28.188  1.00  0.00     0.010 A 
ATOM     30  C   UNL A   1      36.730  29.177  29.807  1.00  0.00     0.010 A 
ATOM     31  C   UNL A   1      37.982  29.595  29.328  1.00  0.00    -0.014 A 
BRANCH  31  32
ATOM     32  C   UNL A   1      39.210  29.178  30.051  1.00  0.00     0.031 A 
ATOM     33  C   UNL A   1      39.611  29.881  31.320  1.00  0.00     0.074 A 
ATOM     34  C   UNL A   1      40.008  28.229  29.523  1.00  0.00     0.049 A 
ATOM     35  N   UNL A   1      40.688  29.720  32.045  1.00  0.00    -0.248 NA
ATOM     36  C   UNL A   1      38.699  30.922  31.820  1.00  0.00     0.031 C 
ATOM     37  C   UNL A   1      39.762  27.512  28.268  1.00  0.00     0.029 A 
ATOM     38  N   UNL A   1      41.198  27.710  29.970  1.00  0.00    -0.354 N 
ATOM     39  C   UNL A   1      40.596  30.655  33.068  1.00  0.00     0.074 A 
ATOM     40  C   UNL A   1      39.382  31.410  32.845  1.00  0.00     0.031 C 
ATOM     41  C   UNL A   1      40.753  26.628  28.063  1.00  0.00     0.029 A 
ATOM     42  C   UNL A   1      41.722  26.740  29.148  1.00  0.00     0.049 A 
ATOM     43  H   UNL A   1      41.635  28.005  30.802  1.00  0.00     0.167 HD
ATOM     44  C   UNL A   1      41.433  30.854  34.115  1.00  0.00     0.031 A 
ATOM     45  C   UNL A   1      42.858  26.023  29.254  1.00  0.00     0.031 A 
ATOM     46  C   UNL A   1      42.623  30.084  34.352  1.00  0.00     0.049 A 
ATOM     47  C   UNL A   1      43.759  26.243  30.438  1.00  0.00     0.074 A 
ATOM     48  C   UNL A   1      43.501  30.164  35.420  1.00  0.00     0.029 A 
ATOM     49  N   UNL A   1      43.101  29.088  33.515  1.00  0.00    -0.354 N 
ATOM     50  N   UNL A   1      43.620  27.089  31.430  1.00  0.00    -0.248 NA
ATOM     51  C   UNL A   1      44.963  25.405  30.520  1.00  0.00     0.031 C 
ATOM     52  C   UNL A   1      44.530  29.241  35.207  1.00  0.00     0.029 A 
ATOM     53  C   UNL A   1      44.268  28.555  34.032  1.00  0.00     0.049 A 
ATOM     54  H   UNL A   1      42.672  28.802  32.676  1.00  0.00     0.167 HD
ATOM     55  C   UNL A   1      44.707  26.868  32.268  1.00  0.00     0.074 A 
ATOM     56  C   UNL A   1      45.486  25.801  31.673  1.00  0.00     0.031 C 
ATOM     57  C   UNL A   1      45.030  27.493  33.427  1.00  0.00     0.031 A 
BRANCH  44  58
ATOM     58  C   UNL A   1      41.079  31.951  35.082  1.00  0.00    -0.014 A 
ATOM     59  C   UNL A   1      40.283  31.691  36.212  1.00  0.00     0.010 A 
ATOM     60  C   UNL A   1      41.566  33.254  34.872  1.00  0.00     0.010 A 
ATOM     61  C   UNL A   1      39.939  32.724  37.089  1.00  0.00     0.020 A 
ATOM     62  C   UNL A   1      41.247  34.284  35.761  1.00  0.00     0.020 A 
ATOM     63  C   UNL A   1      40.419  34.016  36.853  1.00  0.00     0.054 A 
BRANCH  63  64
ATOM     64  S   UNL A   1      39.967  35.336  38.011  1.00  0.00     0.124 S 
ATOM     65  O   UNL A   1      38.823  34.749  38.704  1.00  0.00    -0.237 OA
ATOM     66  O   UNL A   1      41.177  35.488  38.815  1.00  0.00    -0.237 OA
ATOM     67  O   UNL A   1      39.655  36.467  37.141  1.00  0.00    -0.744 OA
ENDBRANCH  63  64
ENDBRANCH  44  58
BRANCH  45  68
ATOM     68  C   UNL A   1      43.193  25.006  28.219  1.00  0.00    -0.014 A 
ATOM     69  C   UNL A   1      42.601  23.732  28.260  1.00  0.00     0.010 A 
ATOM     70  C   UNL A   1      44.092  25.312  27.182  1.00  0.00     0.010 A 
ATOM     71  C   UNL A   1      42.914  22.774  27.290  1.00  0.00     0.020 A 
ATOM     72  C   UNL A   1      44.389  24.366  26.197  1.00  0.00     0.020 A 
ATOM     73  C   UNL A   1      43.805  23.098  26.264  1.00  0.00     0.054 A 
BRANCH  73  74
ATOM     74  S   UNL A   1      44.155  21.860  24.984  1.00  0.00     0.124 S 
ATOM     75  O   UNL A   1      43.768  22.566  23.767  1.00  0.00    -0.237 OA
ATOM     76  O   UNL A   1      45.586  21.623  25.153  1.00  0.00    -0.237 OA
ATOM     77  O   UNL A   1      43.299  20.735  25.356  1.00  0.00    -0.744 OA
ENDBRANCH  73  74
ENDBRANCH  45  68
BRANCH  57  78
ATOM     78  C   UNL A   1      46.262  27.019  34.146  1.00  0.00    -0.014 A 
ATOM     79  C   UNL A   1      47.513  27.617  33.914  1.00  0.00     0.010 A 
ATOM     80  C   UNL A   1      46.156  25.998  35.109  1.00  0.00     0.010 A 
ATOM     81  C   UNL A   1      48.642  27.184  34.615  1.00  0.00     0.020 A 
ATOM     82  C   UNL A   1      47.277  25.579  35.827  1.00  0.00     0.020 A 
ATOM     83  C   UNL A   1      48.517  26.166  35.566  1.00  0.00     0.054 A 
BRANCH  83  84
ATOM     84  S   UNL A   1      49.987  25.653  36.497  1.00  0.00     0.124 S 
ATOM     85  O   UNL A   1      50.974  25.484  35.435  1.00  0.00    -0.237 OA
ATOM     86  O   UNL A   1      50.213  26.785  37.391  1.00  0.00    -0.237 OA
ATOM     87  O   UNL A   1      49.564  24.420  37.158  1.00  0.00    -0.744 OA
ENDBRANCH  83  84
ENDBRANCH  57  78
ENDBRANCH  31  32
ENDBRANCH  23  26
ENDBRANCH  21  22
ENDBRANCH   1  21
TORSDOF 16
ENDMDL
MODEL 3
REMARK VINA RESULT:     -10.3      1.464      2.043
REMARK SMILES C[C@H]1[C@H](C(=O)NCCCCNC(=O)c2ccc(-c3c4nc(c(-c5ccc(S(=O)(=O)[O-])cc5)c5ccc([nH]5)c(-c5ccc(S(=O)(=O)[O-])cc5)c5nc(c(-c6ccc(S(=O)(=O)[O-])cc6)c6ccc3[nH]6)C=C5)C=C4)cc2)CCN1S(=O)(=O)C(F)(F)F
REMARK SMILES IDX 9 1 8 2 7 3 6 4 4 5 5 6 3 8 1 9 2 10 76 11 74 12 75 13 77 14
REMARK SMILES IDX 78 15 79 16 80 17 81 18 82 19 83 20 10 21 11 22 12 23 13 25
REMARK SMILES IDX 14 26 15 27 73 28 16 29 72 30 17 31 18 32 19 33 66 34 20 35
REMARK SMILES IDX 71 36 65 37 67 38 21 39 70 40 64 41 63 42 22 44 52 45 33 46
REMARK SMILES IDX 51 47 34 48 37 49 50 50 68 51 35 52 36 53 49 55 69 56 38 57
REMARK SMILES IDX 23 58 24 59 32 60 25 61 31 62 26 63 27 64 28 65 29 66 30 67
REMARK SMILES IDX 53 68 54 69 62 70 55 71 61 72 56 73 57 74 58 75 59 76 60 77
REMARK SMILES IDX 39 78 40 79 48 80 41 81 47 82 42 83 43 84 44 85 45 86 46 87
REMARK H PARENT 6 7 11 24 67 43 37 54
REMARK Flexibility Score: inf
ROOT
ATOM      1  C   UNL A   1      32.216  27.887  27.115  1.00  0.00     0.023 C 
ENDROOT
BRANCH   1   2
ATOM      2  C   UNL A   1      32.026  27.007  25.885  1.00  0.00     0.023 C 
BRANCH   2   3
ATOM      3  C   UNL A   1      33.213  26.983  24.921  1.00  0.00     0.116 C 
BRANCH   3   4
ATOM      4  N   UNL A   1      32.951  26.195  23.732  1.00  0.00    -0.356 N 
ATOM      5  C   UNL A   1      33.447  24.993  23.330  1.00  0.00     0.224 C 
ATOM      6  O   UNL A   1      33.018  24.531  22.269  1.00  0.00    -0.275 OA
ATOM      7  H   UNL A   1      32.302  26.598  23.110  1.00  0.00     0.163 HD
BRANCH   5   8
ATOM      8  C   UNL A   1      34.502  24.217  24.112  1.00  0.00     0.098 C 
ATOM      9  C   UNL A   1      33.994  23.989  26.573  1.00  0.00     0.026 C 
ATOM     10  C   UNL A   1      33.908  23.320  25.202  1.00  0.00     0.082 C 
ATOM     11  N   UNL A   1      34.744  22.081  25.242  1.00  0.00    -0.190 NA
ATOM     12  C   UNL A   1      35.414  23.326  23.289  1.00  0.00     0.032 C 
ATOM     13  C   UNL A   1      35.860  22.250  24.269  1.00  0.00     0.104 C 
BRANCH  11  14
ATOM     14  S   UNL A   1      33.978  20.544  25.188  1.00  0.00     0.314 S 
ATOM     15  O   UNL A   1      34.983  19.623  24.684  1.00  0.00    -0.203 OA
ATOM     16  O   UNL A   1      33.463  20.331  26.531  1.00  0.00    -0.203 OA
BRANCH  14  17
ATOM     17  C   UNL A   1      32.558  20.671  23.961  1.00  0.00     0.511 C 
ATOM     18  F   UNL A   1      32.877  21.435  22.879  1.00  0.00    -0.155 F 
ATOM     19  F   UNL A   1      32.176  19.452  23.481  1.00  0.00    -0.155 F 
ATOM     20  F   UNL A   1      31.450  21.222  24.531  1.00  0.00    -0.155 F 
ENDBRANCH  14  17
ENDBRANCH  11  14
ENDBRANCH   5   8
ENDBRANCH   3   4
ENDBRANCH   2   3
ENDBRANCH   1   2
BRANCH   1  21
ATOM     21  C   UNL A   1      33.583  28.546  27.238  1.00  0.00     0.116 C 
BRANCH  21  22
ATOM     22  N   UNL A   1      33.545  29.931  27.688  1.00  0.00    -0.352 N 
ATOM     23  C   UNL A   1      34.561  30.660  28.270  1.00  0.00     0.251 C 
ATOM     24  H   UNL A   1      32.690  30.404  27.563  1.00  0.00     0.163 HD
ATOM     25  O   UNL A   1      34.366  31.798  28.674  1.00  0.00    -0.269 OA
BRANCH  23  26
ATOM     26  C   UNL A   1      35.882  30.019  28.441  1.00  0.00     0.039 A 
ATOM     27  C   UNL A   1      36.806  30.081  27.396  1.00  0.00     0.014 A 
ATOM     28  C   UNL A   1      36.233  29.444  29.666  1.00  0.00     0.014 A 
ATOM     29  C   UNL A   1      38.116  29.647  27.612  1.00  0.00     0.010 A 
ATOM     30  C   UNL A   1      37.556  29.092  29.903  1.00  0.00     0.010 A 
ATOM     31  C   UNL A   1      38.513  29.198  28.882  1.00  0.00    -0.014 A 
BRANCH  31  32
ATOM     32  C   UNL A   1      39.927  28.850  29.175  1.00  0.00     0.031 A 
ATOM     33  C   UNL A   1      40.845  29.877  29.781  1.00  0.00     0.074 A 
ATOM     34  C   UNL A   1      40.407  27.641  28.819  1.00  0.00     0.049 A 
ATOM     35  N   UNL A   1      42.126  29.792  30.030  1.00  0.00    -0.248 NA
ATOM     36  C   UNL A   1      40.251  31.180  30.121  1.00  0.00     0.031 C 
ATOM     37  C   UNL A   1      39.635  26.576  28.171  1.00  0.00     0.029 A 
ATOM     38  N   UNL A   1      41.666  27.107  28.942  1.00  0.00    -0.354 N 
ATOM     39  C   UNL A   1      42.496  31.034  30.529  1.00  0.00     0.074 A 
ATOM     40  C   UNL A   1      41.315  31.870  30.503  1.00  0.00     0.031 C 
ATOM     41  C   UNL A   1      40.429  25.509  27.982  1.00  0.00     0.029 A 
ATOM     42  C   UNL A   1      41.772  25.824  28.458  1.00  0.00     0.049 A 
ATOM     43  H   UNL A   1      42.422  27.597  29.339  1.00  0.00     0.167 HD
ATOM     44  C   UNL A   1      43.704  31.440  30.988  1.00  0.00     0.031 A 
ATOM     45  C   UNL A   1      42.832  24.995  28.400  1.00  0.00     0.031 A 
ATOM     46  C   UNL A   1      44.870  30.601  31.040  1.00  0.00     0.049 A 
ATOM     47  C   UNL A   1      44.157  25.458  28.939  1.00  0.00     0.074 A 
ATOM     48  C   UNL A   1      46.122  30.898  31.550  1.00  0.00     0.029 A 
ATOM     49  N   UNL A   1      44.927  29.297  30.571  1.00  0.00    -0.354 N 
ATOM     50  N   UNL A   1      44.470  26.616  29.467  1.00  0.00    -0.248 NA
ATOM     51  C   UNL A   1      45.268  24.497  28.886  1.00  0.00     0.031 C 
ATOM     52  C   UNL A   1      46.946  29.784  31.355  1.00  0.00     0.029 A 
ATOM     53  C   UNL A   1      46.195  28.780  30.766  1.00  0.00     0.049 A 
ATOM     54  H   UNL A   1      44.175  28.811  30.161  1.00  0.00     0.167 HD
ATOM     55  C   UNL A   1      45.809  26.516  29.830  1.00  0.00     0.074 A 
ATOM     56  C   UNL A   1      46.241  25.180  29.474  1.00  0.00     0.031 C 
ATOM     57  C   UNL A   1      46.607  27.447  30.407  1.00  0.00     0.031 A 
BRANCH  44  58
ATOM     58  C   UNL A   1      43.817  32.860  31.475  1.00  0.00    -0.014 A 
ATOM     59  C   UNL A   1      44.172  33.900  30.596  1.00  0.00     0.010 A 
ATOM     60  C   UNL A   1      43.543  33.163  32.821  1.00  0.00     0.010 A 
ATOM     61  C   UNL A   1      44.299  35.209  31.066  1.00  0.00     0.020 A 
ATOM     62  C   UNL A   1      43.644  34.476  33.288  1.00  0.00     0.020 A 
ATOM     63  C   UNL A   1      44.040  35.488  32.411  1.00  0.00     0.054 A 
BRANCH  63  64
ATOM     64  S   UNL A   1      44.203  37.198  32.992  1.00  0.00     0.124 S 
ATOM     65  O   UNL A   1      43.026  37.339  33.845  1.00  0.00    -0.237 OA
ATOM     66  O   UNL A   1      45.486  37.181  33.691  1.00  0.00    -0.237 OA
ATOM     67  O   UNL A   1      44.179  37.985  31.761  1.00  0.00    -0.744 OA
ENDBRANCH  63  64
ENDBRANCH  44  58
BRANCH  45  68
ATOM     68  C   UNL A   1      42.676  23.628  27.832  1.00  0.00    -0.014 A 
ATOM     69  C   UNL A   1      41.892  22.669  28.497  1.00  0.00     0.010 A 
ATOM     70  C   UNL A   1      43.295  23.283  26.617  1.00  0.00     0.010 A 
ATOM     71  C   UNL A   1      41.744  21.384  27.968  1.00  0.00     0.020 A 
ATOM     72  C   UNL A   1      43.128  22.007  26.071  1.00  0.00     0.020 A 
ATOM     73  C   UNL A   1      42.362  21.062  26.757  1.00  0.00     0.054 A 
BRANCH  73  74
ATOM     74  S   UNL A   1      42.110  19.406  26.057  1.00  0.00     0.124 S 
ATOM     75  O   UNL A   1      40.660  19.358  25.906  1.00  0.00    -0.237 OA
ATOM     76  O   UNL A   1      42.877  19.466  24.815  1.00  0.00    -0.237 OA
ATOM     77  O   UNL A   1      42.665  18.518  27.077  1.00  0.00    -0.744 OA
ENDBRANCH  73  74
ENDBRANCH  45  68
BRANCH  57  78
ATOM     78  C   UNL A   1      48.022  27.045  30.719  1.00  0.00    -0.014 A 
ATOM     79  C   UNL A   1      49.058  27.256  29.792  1.00  0.00     0.010 A 
ATOM     80  C   UNL A   1      48.328  26.500  31.979  1.00  0.00     0.010 A 
ATOM     81  C   UNL A   1      50.372  26.905  30.112  1.00  0.00     0.020 A 
ATOM     82  C   UNL A   1      49.643  26.169  32.311  1.00  0.00     0.020 A 
ATOM     83  C   UNL A   1      50.655  26.362  31.369  1.00  0.00     0.054 A 
BRANCH  83  84
ATOM     84  S   UNL A   1      52.376  25.957  31.780  1.00  0.00     0.124 S 
ATOM     85  O   UNL A   1      52.278  24.543  32.131  1.00  0.00    -0.237 OA
ATOM     86  O   UNL A   1      53.081  26.247  30.534  1.00  0.00    -0.237 OA
ATOM     87  O   UNL A   1      52.687  26.855  32.889  1.00  0.00    -0.744 OA
ENDBRANCH  83  84
ENDBRANCH  57  78
ENDBRANCH  31  32
ENDBRANCH  23  26
ENDBRANCH  21  22
ENDBRANCH   1  21
TORSDOF 16
ENDMDL
