MODEL 1
REMARK VINA RESULT:     -10.6      0.000      0.000
REMARK SMILES CCOc1c(Br)cc(CNc2cccc(C(=O)NCCCCNC(=O)c3ccc(-c4c5nc(c(-c6ccc(S(=O)(=O)[O-])cc6)c6ccc([nH]6)c(-c6ccc(S(=O)(=O)[O-])cc6)c6nc(c(-c7ccc(S(=O)(=O)[O-])cc7)c7ccc4[nH]7)C=C6)C=C5)cc3)c2C)cc1OC
REMARK SMILES IDX 19 1 18 2 16 3 17 4 15 6 11 7 12 8 86 9 13 10 87 11 14 12
REMARK SMILES IDX 10 13 9 15 8 16 4 17 5 18 89 19 6 20 7 21 88 22 3 23 2 24
REMARK SMILES IDX 1 25 90 26 91 27 20 28 21 29 22 30 23 31 24 32 25 34 26 35
REMARK SMILES IDX 27 36 85 37 28 38 84 39 29 40 30 41 31 42 78 43 32 44 83 45
REMARK SMILES IDX 77 46 79 47 33 48 82 49 76 50 75 51 34 53 64 54 45 55 63 56
REMARK SMILES IDX 46 57 49 58 62 59 80 60 47 61 48 62 61 64 81 65 50 66 35 67
REMARK SMILES IDX 36 68 44 69 37 70 43 71 38 72 39 73 40 74 41 75 42 76 65 77
REMARK SMILES IDX 66 78 74 79 67 80 73 81 68 82 69 83 70 84 71 85 72 86 51 87
REMARK SMILES IDX 52 88 60 89 53 90 59 91 54 92 55 93 56 94 57 95 58 96
REMARK H PARENT 18 5 10 14 23 33 79 52 49 63
REMARK Flexibility Score: inf
ROOT
ATOM      1  C   UNL A   1      33.532  28.600  27.217  1.00  0.00     0.116 C 
ENDROOT
BRANCH   1   2
ATOM      2  N   UNL A   1      32.571  29.513  26.624  1.00  0.00    -0.352 N 
ATOM      3  C   UNL A   1      32.015  29.556  25.364  1.00  0.00     0.251 C 
ATOM      4  O   UNL A   1      31.076  30.327  25.176  1.00  0.00    -0.269 OA
ATOM      5  H   UNL A   1      32.264  30.228  27.227  1.00  0.00     0.163 HD
BRANCH   3   6
ATOM      6  C   UNL A   1      32.550  28.724  24.244  1.00  0.00     0.044 A 
ATOM      7  C   UNL A   1      32.448  26.821  22.717  1.00  0.00     0.038 A 
ATOM      8  C   UNL A   1      33.527  27.376  22.009  1.00  0.00     0.026 A 
ATOM      9  C   UNL A   1      31.903  27.535  23.815  1.00  0.00    -0.015 A 
ATOM     10  C   UNL A   1      34.193  28.497  22.473  1.00  0.00     0.003 A 
ATOM     11  C   UNL A   1      30.725  26.955  24.562  1.00  0.00     0.047 C 
ATOM     12  C   UNL A   1      33.750  29.115  23.632  1.00  0.00     0.014 A 
BRANCH   7  13
ATOM     13  N   UNL A   1      32.003  25.541  22.385  1.00  0.00    -0.381 N 
ATOM     14  H   UNL A   1      31.042  25.330  22.400  1.00  0.00     0.160 HD
BRANCH  13  15
ATOM     15  C   UNL A   1      32.974  24.523  22.017  1.00  0.00     0.149 C 
BRANCH  15  16
ATOM     16  C   UNL A   1      33.213  23.589  23.177  1.00  0.00    -0.024 A 
ATOM     17  C   UNL A   1      33.633  21.794  25.324  1.00  0.00     0.175 A 
ATOM     18  C   UNL A   1      34.684  22.145  24.455  1.00  0.00     0.064 A 
ATOM     19  C   UNL A   1      32.343  22.285  25.062  1.00  0.00     0.162 A 
ATOM     20  Br  UNL A   1      36.403  21.335  24.545  1.00  0.00    -0.047 Br
ATOM     21  C   UNL A   1      34.484  23.062  23.419  1.00  0.00     0.025 A 
ATOM     22  C   UNL A   1      32.156  23.183  23.997  1.00  0.00     0.056 A 
BRANCH  17  23
ATOM     23  O   UNL A   1      33.888  20.908  26.341  1.00  0.00    -0.489 OA
BRANCH  23  24
ATOM     24  C   UNL A   1      33.765  21.509  27.639  1.00  0.00     0.226 C 
ATOM     25  C   UNL A   1      34.564  22.796  27.749  1.00  0.00     0.049 C 
ENDBRANCH  23  24
ENDBRANCH  17  23
BRANCH  19  26
ATOM     26  O   UNL A   1      31.158  22.013  25.688  1.00  0.00    -0.493 OA
ATOM     27  C   UNL A   1      30.379  23.072  26.212  1.00  0.00     0.278 C 
ENDBRANCH  19  26
ENDBRANCH  15  16
ENDBRANCH  13  15
ENDBRANCH   7  13
ENDBRANCH   3   6
ENDBRANCH   1   2
BRANCH   1  28
ATOM     28  C   UNL A   1      34.953  29.136  27.338  1.00  0.00     0.023 C 
BRANCH  28  29
ATOM     29  C   UNL A   1      35.128  30.624  27.626  1.00  0.00     0.023 C 
BRANCH  29  30
ATOM     30  C   UNL A   1      35.697  30.962  28.989  1.00  0.00     0.116 C 
BRANCH  30  31
ATOM     31  N   UNL A   1      37.129  31.006  28.927  1.00  0.00    -0.352 N 
ATOM     32  C   UNL A   1      38.129  30.114  29.164  1.00  0.00     0.251 C 
ATOM     33  H   UNL A   1      37.468  31.888  28.649  1.00  0.00     0.163 HD
ATOM     34  O   UNL A   1      39.233  30.542  28.878  1.00  0.00    -0.269 OA
BRANCH  32  35
ATOM     35  C   UNL A   1      37.873  28.644  29.480  1.00  0.00     0.039 A 
ATOM     36  C   UNL A   1      38.626  28.331  30.623  1.00  0.00     0.014 A 
ATOM     37  C   UNL A   1      38.114  27.852  28.363  1.00  0.00     0.014 A 
ATOM     38  C   UNL A   1      39.953  27.983  30.423  1.00  0.00     0.010 A 
ATOM     39  C   UNL A   1      39.430  27.632  28.075  1.00  0.00     0.010 A 
ATOM     40  C   UNL A   1      40.354  27.810  29.107  1.00  0.00    -0.014 A 
BRANCH  40  41
ATOM     41  C   UNL A   1      41.722  27.755  28.672  1.00  0.00     0.031 A 
ATOM     42  C   UNL A   1      42.273  26.394  28.595  1.00  0.00     0.074 A 
ATOM     43  C   UNL A   1      42.258  28.917  28.232  1.00  0.00     0.049 A 
ATOM     44  N   UNL A   1      43.513  26.095  28.514  1.00  0.00    -0.248 NA
ATOM     45  C   UNL A   1      41.411  25.203  28.681  1.00  0.00     0.031 C 
ATOM     46  C   UNL A   1      43.470  29.158  27.453  1.00  0.00     0.029 A 
ATOM     47  N   UNL A   1      41.855  30.217  28.534  1.00  0.00    -0.354 N 
ATOM     48  C   UNL A   1      43.575  24.763  28.157  1.00  0.00     0.074 A 
ATOM     49  C   UNL A   1      42.276  24.220  28.437  1.00  0.00     0.031 C 
ATOM     50  C   UNL A   1      43.869  30.431  27.671  1.00  0.00     0.029 A 
ATOM     51  C   UNL A   1      43.011  30.970  28.725  1.00  0.00     0.049 A 
ATOM     52  H   UNL A   1      40.927  30.543  28.600  1.00  0.00     0.167 HD
ATOM     53  C   UNL A   1      44.666  24.344  27.463  1.00  0.00     0.031 A 
ATOM     54  C   UNL A   1      43.474  31.277  29.981  1.00  0.00     0.031 A 
ATOM     55  C   UNL A   1      45.655  25.423  27.427  1.00  0.00     0.049 A 
ATOM     56  C   UNL A   1      44.793  30.541  30.259  1.00  0.00     0.074 A 
ATOM     57  C   UNL A   1      45.934  26.393  26.478  1.00  0.00     0.029 A 
ATOM     58  N   UNL A   1      46.156  25.897  28.636  1.00  0.00    -0.354 N 
ATOM     59  N   UNL A   1      45.096  29.351  29.796  1.00  0.00    -0.248 NA
ATOM     60  C   UNL A   1      45.900  31.145  30.998  1.00  0.00     0.031 C 
ATOM     61  C   UNL A   1      46.478  27.519  27.166  1.00  0.00     0.029 A 
ATOM     62  C   UNL A   1      46.548  27.219  28.518  1.00  0.00     0.049 A 
ATOM     63  H   UNL A   1      46.221  25.365  29.462  1.00  0.00     0.167 HD
ATOM     64  C   UNL A   1      46.404  29.058  30.095  1.00  0.00     0.074 A 
ATOM     65  C   UNL A   1      46.856  30.207  30.866  1.00  0.00     0.031 C 
ATOM     66  C   UNL A   1      47.060  27.928  29.685  1.00  0.00     0.031 A 
BRANCH  53  67
ATOM     67  C   UNL A   1      44.696  23.123  26.572  1.00  0.00    -0.014 A 
ATOM     68  C   UNL A   1      43.563  22.287  26.539  1.00  0.00     0.010 A 
ATOM     69  C   UNL A   1      45.802  22.691  25.810  1.00  0.00     0.010 A 
ATOM     70  C   UNL A   1      43.544  21.080  25.824  1.00  0.00     0.020 A 
ATOM     71  C   UNL A   1      45.803  21.481  25.097  1.00  0.00     0.020 A 
ATOM     72  C   UNL A   1      44.669  20.680  25.110  1.00  0.00     0.054 A 
BRANCH  72  73
ATOM     73  S   UNL A   1      44.623  19.121  24.190  1.00  0.00     0.124 S 
ATOM     74  O   UNL A   1      43.534  18.401  24.846  1.00  0.00    -0.237 OA
ATOM     75  O   UNL A   1      44.352  19.571  22.828  1.00  0.00    -0.237 OA
ATOM     76  O   UNL A   1      45.952  18.552  24.401  1.00  0.00    -0.744 OA
ENDBRANCH  72  73
ENDBRANCH  53  67
BRANCH  54  77
ATOM     77  C   UNL A   1      42.411  31.555  31.013  1.00  0.00    -0.014 A 
ATOM     78  C   UNL A   1      41.544  32.662  30.829  1.00  0.00     0.010 A 
ATOM     79  C   UNL A   1      42.046  30.604  31.979  1.00  0.00     0.010 A 
ATOM     80  C   UNL A   1      40.304  32.751  31.494  1.00  0.00     0.020 A 
ATOM     81  C   UNL A   1      40.805  30.690  32.649  1.00  0.00     0.020 A 
ATOM     82  C   UNL A   1      39.922  31.742  32.377  1.00  0.00     0.054 A 
BRANCH  82  83
ATOM     83  S   UNL A   1      38.211  31.722  33.040  1.00  0.00     0.124 S 
ATOM     84  O   UNL A   1      37.431  32.156  31.883  1.00  0.00    -0.237 OA
ATOM     85  O   UNL A   1      37.978  30.337  33.441  1.00  0.00    -0.237 OA
ATOM     86  O   UNL A   1      38.258  32.677  34.147  1.00  0.00    -0.744 OA
ENDBRANCH  82  83
ENDBRANCH  54  77
BRANCH  66  87
ATOM     87  C   UNL A   1      48.316  27.386  30.333  1.00  0.00    -0.014 A 
ATOM     88  C   UNL A   1      49.612  27.715  29.911  1.00  0.00     0.010 A 
ATOM     89  C   UNL A   1      48.208  26.647  31.540  1.00  0.00     0.010 A 
ATOM     90  C   UNL A   1      50.741  27.265  30.605  1.00  0.00     0.020 A 
ATOM     91  C   UNL A   1      49.324  26.258  32.281  1.00  0.00     0.020 A 
ATOM     92  C   UNL A   1      50.589  26.538  31.785  1.00  0.00     0.054 A 
BRANCH  92  93
ATOM     93  S   UNL A   1      52.059  25.997  32.684  1.00  0.00     0.124 S 
ATOM     94  O   UNL A   1      52.864  25.417  31.612  1.00  0.00    -0.237 OA
ATOM     95  O   UNL A   1      52.571  27.244  33.247  1.00  0.00    -0.237 OA
ATOM     96  O   UNL A   1      51.538  25.046  33.662  1.00  0.00    -0.744 OA
ENDBRANCH  92  93
ENDBRANCH  66  87
ENDBRANCH  40  41
ENDBRANCH  32  35
ENDBRANCH  30  31
ENDBRANCH  29  30
ENDBRANCH  28  29
ENDBRANCH   1  28
TORSDOF 20
ENDMDL
MODEL 2
REMARK VINA RESULT:     -10.4      2.793      3.480
REMARK SMILES CCOc1c(Br)cc(CNc2cccc(C(=O)NCCCCNC(=O)c3ccc(-c4c5nc(c(-c6ccc(S(=O)(=O)[O-])cc6)c6ccc([nH]6)c(-c6ccc(S(=O)(=O)[O-])cc6)c6nc(c(-c7ccc(S(=O)(=O)[O-])cc7)c7ccc4[nH]7)C=C6)C=C5)cc3)c2C)cc1OC
REMARK SMILES IDX 19 1 18 2 16 3 17 4 15 6 11 7 12 8 86 9 13 10 87 11 14 12
REMARK SMILES IDX 10 13 9 15 8 16 4 17 5 18 89 19 6 20 7 21 88 22 3 23 2 24
REMARK SMILES IDX 1 25 90 26 91 27 20 28 21 29 22 30 23 31 24 32 25 34 26 35
REMARK SMILES IDX 27 36 85 37 28 38 84 39 29 40 30 41 31 42 78 43 32 44 83 45
REMARK SMILES IDX 77 46 79 47 33 48 82 49 76 50 75 51 34 53 64 54 45 55 63 56
REMARK SMILES IDX 46 57 49 58 62 59 80 60 47 61 48 62 61 64 81 65 50 66 35 67
REMARK SMILES IDX 36 68 44 69 37 70 43 71 38 72 39 73 40 74 41 75 42 76 65 77
REMARK SMILES IDX 66 78 74 79 67 80 73 81 68 82 69 83 70 84 71 85 72 86 51 87
REMARK SMILES IDX 52 88 60 89 53 90 59 91 54 92 55 93 56 94 57 95 58 96
REMARK H PARENT 18 5 10 14 23 33 79 52 49 63
REMARK Flexibility Score: inf
ROOT
ATOM      1  C   UNL A   1      33.836  30.198  27.159  1.00  0.00     0.116 C 
ENDROOT
BRANCH   1   2
ATOM      2  N   UNL A   1      32.716  29.409  27.641  1.00  0.00    -0.352 N 
ATOM      3  C   UNL A   1      31.891  28.513  26.996  1.00  0.00     0.251 C 
ATOM      4  O   UNL A   1      31.132  27.833  27.684  1.00  0.00    -0.269 OA
ATOM      5  H   UNL A   1      32.509  29.536  28.595  1.00  0.00     0.163 HD
BRANCH   3   6
ATOM      6  C   UNL A   1      31.883  28.389  25.507  1.00  0.00     0.044 A 
ATOM      7  C   UNL A   1      32.624  27.377  23.413  1.00  0.00     0.038 A 
ATOM      8  C   UNL A   1      31.622  28.103  22.748  1.00  0.00     0.026 A 
ATOM      9  C   UNL A   1      32.719  27.467  24.825  1.00  0.00    -0.015 A 
ATOM     10  C   UNL A   1      30.858  29.049  23.409  1.00  0.00     0.003 A 
ATOM     11  C   UNL A   1      33.778  26.666  25.547  1.00  0.00     0.047 C 
ATOM     12  C   UNL A   1      31.050  29.243  24.768  1.00  0.00     0.014 A 
BRANCH   7  13
ATOM     13  N   UNL A   1      33.559  26.664  22.662  1.00  0.00    -0.381 N 
ATOM     14  H   UNL A   1      34.479  27.001  22.565  1.00  0.00     0.160 HD
BRANCH  13  15
ATOM     15  C   UNL A   1      33.161  25.420  22.023  1.00  0.00     0.149 C 
BRANCH  15  16
ATOM     16  C   UNL A   1      33.447  24.252  22.934  1.00  0.00    -0.024 A 
ATOM     17  C   UNL A   1      33.963  22.025  24.603  1.00  0.00     0.175 A 
ATOM     18  C   UNL A   1      35.011  22.700  23.947  1.00  0.00     0.064 A 
ATOM     19  C   UNL A   1      32.639  22.423  24.352  1.00  0.00     0.162 A 
ATOM     20  Br  UNL A   1      36.811  22.088  23.992  1.00  0.00    -0.047 Br
ATOM     21  C   UNL A   1      34.758  23.824  23.155  1.00  0.00     0.025 A 
ATOM     22  C   UNL A   1      32.403  23.537  23.528  1.00  0.00     0.056 A 
BRANCH  17  23
ATOM     23  O   UNL A   1      34.268  20.943  25.389  1.00  0.00    -0.489 OA
BRANCH  23  24
ATOM     24  C   UNL A   1      34.013  19.693  24.729  1.00  0.00     0.226 C 
ATOM     25  C   UNL A   1      32.908  18.904  25.409  1.00  0.00     0.049 C 
ENDBRANCH  23  24
ENDBRANCH  17  23
BRANCH  19  26
ATOM     26  O   UNL A   1      31.463  21.872  24.781  1.00  0.00    -0.493 OA
ATOM     27  C   UNL A   1      30.793  22.423  25.899  1.00  0.00     0.278 C 
ENDBRANCH  19  26
ENDBRANCH  15  16
ENDBRANCH  13  15
ENDBRANCH   7  13
ENDBRANCH   3   6
ENDBRANCH   1   2
BRANCH   1  28
ATOM     28  C   UNL A   1      35.201  29.792  27.703  1.00  0.00     0.023 C 
BRANCH  28  29
ATOM     29  C   UNL A   1      35.848  30.700  28.744  1.00  0.00     0.023 C 
BRANCH  29  30
ATOM     30  C   UNL A   1      36.131  30.056  30.085  1.00  0.00     0.116 C 
BRANCH  30  31
ATOM     31  N   UNL A   1      37.046  28.963  29.924  1.00  0.00    -0.352 N 
ATOM     32  C   UNL A   1      38.179  28.758  29.198  1.00  0.00     0.251 C 
ATOM     33  H   UNL A   1      36.797  28.179  30.463  1.00  0.00     0.163 HD
ATOM     34  O   UNL A   1      38.722  27.696  29.444  1.00  0.00    -0.269 OA
BRANCH  32  35
ATOM     35  C   UNL A   1      38.853  29.857  28.382  1.00  0.00     0.039 A 
ATOM     36  C   UNL A   1      39.392  29.248  27.238  1.00  0.00     0.014 A 
ATOM     37  C   UNL A   1      39.752  30.571  29.167  1.00  0.00     0.014 A 
ATOM     38  C   UNL A   1      40.647  28.673  27.367  1.00  0.00     0.010 A 
ATOM     39  C   UNL A   1      40.935  29.940  29.421  1.00  0.00     0.010 A 
ATOM     40  C   UNL A   1      41.315  28.909  28.559  1.00  0.00    -0.014 A 
BRANCH  40  41
ATOM     41  C   UNL A   1      42.462  28.171  29.012  1.00  0.00     0.031 A 
ATOM     42  C   UNL A   1      42.419  26.738  28.685  1.00  0.00     0.074 A 
ATOM     43  C   UNL A   1      43.485  28.901  29.512  1.00  0.00     0.049 A 
ATOM     44  N   UNL A   1      43.154  25.833  29.207  1.00  0.00    -0.248 NA
ATOM     45  C   UNL A   1      41.434  26.188  27.739  1.00  0.00     0.031 C 
ATOM     46  C   UNL A   1      44.873  28.524  29.764  1.00  0.00     0.029 A 
ATOM     47  N   UNL A   1      43.440  30.185  30.054  1.00  0.00    -0.354 N 
ATOM     48  C   UNL A   1      43.015  24.708  28.417  1.00  0.00     0.074 A 
ATOM     49  C   UNL A   1      41.829  24.920  27.637  1.00  0.00     0.031 C 
ATOM     50  C   UNL A   1      45.380  29.365  30.693  1.00  0.00     0.029 A 
ATOM     51  C   UNL A   1      44.270  30.186  31.173  1.00  0.00     0.049 A 
ATOM     52  H   UNL A   1      42.919  30.948  29.712  1.00  0.00     0.167 HD
ATOM     53  C   UNL A   1      44.055  23.833  28.375  1.00  0.00     0.031 A 
ATOM     54  C   UNL A   1      43.766  30.091  32.447  1.00  0.00     0.031 A 
ATOM     55  C   UNL A   1      45.048  24.217  29.380  1.00  0.00     0.049 A 
ATOM     56  C   UNL A   1      44.154  28.744  33.076  1.00  0.00     0.074 A 
ATOM     57  C   UNL A   1      46.210  24.966  29.295  1.00  0.00     0.029 A 
ATOM     58  N   UNL A   1      44.654  24.246  30.715  1.00  0.00    -0.354 N 
ATOM     59  N   UNL A   1      44.287  27.621  32.411  1.00  0.00    -0.248 NA
ATOM     60  C   UNL A   1      44.517  28.600  34.485  1.00  0.00     0.031 C 
ATOM     61  C   UNL A   1      46.425  25.565  30.573  1.00  0.00     0.029 A 
ATOM     62  C   UNL A   1      45.412  25.160  31.427  1.00  0.00     0.049 A 
ATOM     63  H   UNL A   1      43.936  23.694  31.099  1.00  0.00     0.167 HD
ATOM     64  C   UNL A   1      44.796  26.652  33.240  1.00  0.00     0.074 A 
ATOM     65  C   UNL A   1      44.903  27.312  34.533  1.00  0.00     0.031 C 
ATOM     66  C   UNL A   1      45.131  25.385  32.841  1.00  0.00     0.031 A 
BRANCH  53  67
ATOM     67  C   UNL A   1      44.310  22.865  27.243  1.00  0.00    -0.014 A 
ATOM     68  C   UNL A   1      43.340  21.881  26.967  1.00  0.00     0.010 A 
ATOM     69  C   UNL A   1      45.486  22.804  26.464  1.00  0.00     0.010 A 
ATOM     70  C   UNL A   1      43.543  20.878  26.007  1.00  0.00     0.020 A 
ATOM     71  C   UNL A   1      45.709  21.802  25.506  1.00  0.00     0.020 A 
ATOM     72  C   UNL A   1      44.732  20.841  25.284  1.00  0.00     0.054 A 
BRANCH  72  73
ATOM     73  S   UNL A   1      44.972  19.543  24.046  1.00  0.00     0.124 S 
ATOM     74  O   UNL A   1      46.412  19.308  24.111  1.00  0.00    -0.237 OA
ATOM     75  O   UNL A   1      44.133  18.463  24.559  1.00  0.00    -0.237 OA
ATOM     76  O   UNL A   1      44.503  20.154  22.804  1.00  0.00    -0.744 OA
ENDBRANCH  72  73
ENDBRANCH  53  67
BRANCH  54  77
ATOM     77  C   UNL A   1      42.459  30.804  32.681  1.00  0.00    -0.014 A 
ATOM     78  C   UNL A   1      41.292  30.040  32.932  1.00  0.00     0.010 A 
ATOM     79  C   UNL A   1      42.402  32.179  32.960  1.00  0.00     0.010 A 
ATOM     80  C   UNL A   1      40.157  30.602  33.551  1.00  0.00     0.020 A 
ATOM     81  C   UNL A   1      41.266  32.747  33.579  1.00  0.00     0.020 A 
ATOM     82  C   UNL A   1      40.162  31.951  33.907  1.00  0.00     0.054 A 
BRANCH  82  83
ATOM     83  S   UNL A   1      38.801  32.618  34.940  1.00  0.00     0.124 S 
ATOM     84  O   UNL A   1      37.635  32.394  34.089  1.00  0.00    -0.237 OA
ATOM     85  O   UNL A   1      38.824  31.814  36.159  1.00  0.00    -0.237 OA
ATOM     86  O   UNL A   1      39.167  34.022  35.130  1.00  0.00    -0.744 OA
ENDBRANCH  82  83
ENDBRANCH  54  77
BRANCH  66  87
ATOM     87  C   UNL A   1      45.280  24.204  33.776  1.00  0.00    -0.014 A 
ATOM     88  C   UNL A   1      44.450  23.075  33.740  1.00  0.00     0.010 A 
ATOM     89  C   UNL A   1      46.416  24.132  34.624  1.00  0.00     0.010 A 
ATOM     90  C   UNL A   1      44.690  21.968  34.561  1.00  0.00     0.020 A 
ATOM     91  C   UNL A   1      46.708  23.003  35.390  1.00  0.00     0.020 A 
ATOM     92  C   UNL A   1      45.817  21.940  35.381  1.00  0.00     0.054 A 
BRANCH  92  93
ATOM     93  S   UNL A   1      46.127  20.486  36.407  1.00  0.00     0.124 S 
ATOM     94  O   UNL A   1      45.816  20.994  37.741  1.00  0.00    -0.237 OA
ATOM     95  O   UNL A   1      45.183  19.507  35.874  1.00  0.00    -0.237 OA
ATOM     96  O   UNL A   1      47.535  20.183  36.164  1.00  0.00    -0.744 OA
ENDBRANCH  92  93
ENDBRANCH  66  87
ENDBRANCH  40  41
ENDBRANCH  32  35
ENDBRANCH  30  31
ENDBRANCH  29  30
ENDBRANCH  28  29
ENDBRANCH   1  28
TORSDOF 20
ENDMDL
MODEL 3
REMARK VINA RESULT:     -10.0      4.304     10.304
REMARK SMILES CCOc1c(Br)cc(CNc2cccc(C(=O)NCCCCNC(=O)c3ccc(-c4c5nc(c(-c6ccc(S(=O)(=O)[O-])cc6)c6ccc([nH]6)c(-c6ccc(S(=O)(=O)[O-])cc6)c6nc(c(-c7ccc(S(=O)(=O)[O-])cc7)c7ccc4[nH]7)C=C6)C=C5)cc3)c2C)cc1OC
REMARK SMILES IDX 19 1 18 2 16 3 17 4 15 6 11 7 12 8 86 9 13 10 87 11 14 12
REMARK SMILES IDX 10 13 9 15 8 16 4 17 5 18 89 19 6 20 7 21 88 22 3 23 2 24
REMARK SMILES IDX 1 25 90 26 91 27 20 28 21 29 22 30 23 31 24 32 25 34 26 35
REMARK SMILES IDX 27 36 85 37 28 38 84 39 29 40 30 41 31 42 78 43 32 44 83 45
REMARK SMILES IDX 77 46 79 47 33 48 82 49 76 50 75 51 34 53 64 54 45 55 63 56
REMARK SMILES IDX 46 57 49 58 62 59 80 60 47 61 48 62 61 64 81 65 50 66 35 67
REMARK SMILES IDX 36 68 44 69 37 70 43 71 38 72 39 73 40 74 41 75 42 76 65 77
REMARK SMILES IDX 66 78 74 79 67 80 73 81 68 82 69 83 70 84 71 85 72 86 51 87
REMARK SMILES IDX 52 88 60 89 53 90 59 91 54 92 55 93 56 94 57 95 58 96
REMARK H PARENT 18 5 10 14 23 33 79 52 49 63
REMARK Flexibility Score: inf
ROOT
ATOM      1  C   UNL A   1      37.689  23.783  25.856  1.00  0.00     0.116 C 
ENDROOT
BRANCH   1   2
ATOM      2  N   UNL A   1      37.501  22.343  25.845  1.00  0.00    -0.352 N 
ATOM      3  C   UNL A   1      36.506  21.560  25.302  1.00  0.00     0.251 C 
ATOM      4  O   UNL A   1      36.684  20.344  25.269  1.00  0.00    -0.269 OA
ATOM      5  H   UNL A   1      38.209  21.837  26.306  1.00  0.00     0.163 HD
BRANCH   3   6
ATOM      6  C   UNL A   1      35.230  22.154  24.800  1.00  0.00     0.044 A 
ATOM      7  C   UNL A   1      32.928  22.911  25.096  1.00  0.00     0.038 A 
ATOM      8  C   UNL A   1      32.982  23.468  23.808  1.00  0.00     0.026 A 
ATOM      9  C   UNL A   1      34.089  22.299  25.632  1.00  0.00    -0.015 A 
ATOM     10  C   UNL A   1      34.071  23.264  22.979  1.00  0.00     0.003 A 
ATOM     11  C   UNL A   1      34.043  21.722  27.028  1.00  0.00     0.047 C 
ATOM     12  C   UNL A   1      35.153  22.539  23.452  1.00  0.00     0.014 A 
BRANCH   7  13
ATOM     13  N   UNL A   1      31.709  22.886  25.776  1.00  0.00    -0.381 N 
ATOM     14  H   UNL A   1      31.041  22.192  25.572  1.00  0.00     0.160 HD
BRANCH  13  15
ATOM     15  C   UNL A   1      31.437  23.895  26.787  1.00  0.00     0.149 C 
BRANCH  15  16
ATOM     16  C   UNL A   1      31.598  25.275  26.201  1.00  0.00    -0.024 A 
ATOM     17  C   UNL A   1      31.853  27.884  25.133  1.00  0.00     0.175 A 
ATOM     18  C   UNL A   1      32.750  27.407  26.108  1.00  0.00     0.064 A 
ATOM     19  C   UNL A   1      30.771  27.072  24.751  1.00  0.00     0.162 A 
ATOM     20  Br  UNL A   1      34.085  28.509  26.898  1.00  0.00    -0.047 Br
ATOM     21  C   UNL A   1      32.646  26.105  26.606  1.00  0.00     0.025 A 
ATOM     22  C   UNL A   1      30.666  25.776  25.286  1.00  0.00     0.056 A 
BRANCH  17  23
ATOM     23  O   UNL A   1      32.013  29.161  24.658  1.00  0.00    -0.489 OA
BRANCH  23  24
ATOM     24  C   UNL A   1      33.135  29.282  23.771  1.00  0.00     0.226 C 
ATOM     25  C   UNL A   1      32.880  28.607  22.434  1.00  0.00     0.049 C 
ENDBRANCH  23  24
ENDBRANCH  17  23
BRANCH  19  26
ATOM     26  O   UNL A   1      29.725  27.342  23.913  1.00  0.00    -0.493 OA
ATOM     27  C   UNL A   1      28.622  26.458  23.853  1.00  0.00     0.278 C 
ENDBRANCH  19  26
ENDBRANCH  15  16
ENDBRANCH  13  15
ENDBRANCH   7  13
ENDBRANCH   3   6
ENDBRANCH   1   2
BRANCH   1  28
ATOM     28  C   UNL A   1      38.428  24.334  27.070  1.00  0.00     0.023 C 
BRANCH  28  29
ATOM     29  C   UNL A   1      39.953  24.344  27.028  1.00  0.00     0.023 C 
BRANCH  29  30
ATOM     30  C   UNL A   1      40.587  25.661  26.633  1.00  0.00     0.116 C 
BRANCH  30  31
ATOM     31  N   UNL A   1      41.465  26.116  27.672  1.00  0.00    -0.352 N 
ATOM     32  C   UNL A   1      41.991  27.320  28.026  1.00  0.00     0.251 C 
ATOM     33  H   UNL A   1      41.754  25.388  28.268  1.00  0.00     0.163 HD
ATOM     34  O   UNL A   1      42.620  27.282  29.069  1.00  0.00    -0.269 OA
BRANCH  32  35
ATOM     35  C   UNL A   1      41.600  28.630  27.348  1.00  0.00     0.039 A 
ATOM     36  C   UNL A   1      42.490  29.613  27.808  1.00  0.00     0.014 A 
ATOM     37  C   UNL A   1      40.250  28.899  27.543  1.00  0.00     0.014 A 
ATOM     38  C   UNL A   1      42.180  30.227  29.011  1.00  0.00     0.010 A 
ATOM     39  C   UNL A   1      39.919  29.363  28.784  1.00  0.00     0.010 A 
ATOM     40  C   UNL A   1      40.937  29.933  29.551  1.00  0.00    -0.014 A 
BRANCH  40  41
ATOM     41  C   UNL A   1      40.551  30.208  30.908  1.00  0.00     0.031 A 
ATOM     42  C   UNL A   1      39.830  31.478  31.079  1.00  0.00     0.074 A 
ATOM     43  C   UNL A   1      40.741  29.208  31.799  1.00  0.00     0.049 A 
ATOM     44  N   UNL A   1      39.633  32.078  32.190  1.00  0.00    -0.248 NA
ATOM     45  C   UNL A   1      39.312  32.237  29.929  1.00  0.00     0.031 C 
ATOM     46  C   UNL A   1      40.197  29.032  33.143  1.00  0.00     0.029 A 
ATOM     47  N   UNL A   1      41.631  28.138  31.714  1.00  0.00    -0.354 N 
ATOM     48  C   UNL A   1      38.673  33.042  31.953  1.00  0.00     0.074 A 
ATOM     49  C   UNL A   1      38.634  33.215  30.528  1.00  0.00     0.031 C 
ATOM     50  C   UNL A   1      41.012  28.197  33.825  1.00  0.00     0.029 A 
ATOM     51  C   UNL A   1      42.182  27.963  32.981  1.00  0.00     0.049 A 
ATOM     52  H   UNL A   1      41.833  27.607  30.909  1.00  0.00     0.167 HD
ATOM     53  C   UNL A   1      37.880  33.415  32.992  1.00  0.00     0.031 A 
ATOM     54  C   UNL A   1      43.436  28.428  33.294  1.00  0.00     0.031 A 
ATOM     55  C   UNL A   1      38.389  32.812  34.225  1.00  0.00     0.049 A 
ATOM     56  C   UNL A   1      43.340  29.582  34.304  1.00  0.00     0.074 A 
ATOM     57  C   UNL A   1      38.037  31.657  34.906  1.00  0.00     0.029 A 
ATOM     58  N   UNL A   1      39.683  33.128  34.627  1.00  0.00    -0.354 N 
ATOM     59  N   UNL A   1      42.361  30.454  34.351  1.00  0.00    -0.248 NA
ATOM     60  C   UNL A   1      44.297  29.764  35.395  1.00  0.00     0.031 C 
ATOM     61  C   UNL A   1      39.194  31.207  35.609  1.00  0.00     0.029 A 
ATOM     62  C   UNL A   1      40.230  32.097  35.372  1.00  0.00     0.049 A 
ATOM     63  H   UNL A   1      40.147  33.969  34.410  1.00  0.00     0.167 HD
ATOM     64  C   UNL A   1      42.500  31.245  35.465  1.00  0.00     0.074 A 
ATOM     65  C   UNL A   1      43.740  30.784  36.073  1.00  0.00     0.031 C 
ATOM     66  C   UNL A   1      41.602  32.203  35.854  1.00  0.00     0.031 A 
BRANCH  53  67
ATOM     67  C   UNL A   1      36.509  34.032  32.842  1.00  0.00    -0.014 A 
ATOM     68  C   UNL A   1      35.797  33.808  31.647  1.00  0.00     0.010 A 
ATOM     69  C   UNL A   1      35.888  34.890  33.774  1.00  0.00     0.010 A 
ATOM     70  C   UNL A   1      34.567  34.427  31.380  1.00  0.00     0.020 A 
ATOM     71  C   UNL A   1      34.663  35.527  33.520  1.00  0.00     0.020 A 
ATOM     72  C   UNL A   1      34.008  35.290  32.318  1.00  0.00     0.054 A 
BRANCH  72  73
ATOM     73  S   UNL A   1      32.417  36.075  31.958  1.00  0.00     0.124 S 
ATOM     74  O   UNL A   1      31.460  35.072  32.417  1.00  0.00    -0.237 OA
ATOM     75  O   UNL A   1      32.484  37.296  32.756  1.00  0.00    -0.237 OA
ATOM     76  O   UNL A   1      32.449  36.280  30.511  1.00  0.00    -0.744 OA
ENDBRANCH  72  73
ENDBRANCH  53  67
BRANCH  54  77
ATOM     77  C   UNL A   1      44.456  28.335  32.189  1.00  0.00    -0.014 A 
ATOM     78  C   UNL A   1      44.879  27.057  31.746  1.00  0.00     0.010 A 
ATOM     79  C   UNL A   1      44.776  29.437  31.379  1.00  0.00     0.010 A 
ATOM     80  C   UNL A   1      45.487  26.872  30.488  1.00  0.00     0.020 A 
ATOM     81  C   UNL A   1      45.387  29.257  30.118  1.00  0.00     0.020 A 
ATOM     82  C   UNL A   1      45.706  27.973  29.659  1.00  0.00     0.054 A 
BRANCH  82  83
ATOM     83  S   UNL A   1      46.254  27.707  27.929  1.00  0.00     0.124 S 
ATOM     84  O   UNL A   1      47.708  27.697  28.067  1.00  0.00    -0.237 OA
ATOM     85  O   UNL A   1      45.673  26.423  27.543  1.00  0.00    -0.237 OA
ATOM     86  O   UNL A   1      45.709  28.861  27.213  1.00  0.00    -0.744 OA
ENDBRANCH  82  83
ENDBRANCH  54  77
BRANCH  66  87
ATOM     87  C   UNL A   1      41.924  33.345  36.795  1.00  0.00    -0.014 A 
ATOM     88  C   UNL A   1      42.650  34.483  36.415  1.00  0.00     0.010 A 
ATOM     89  C   UNL A   1      41.323  33.371  38.080  1.00  0.00     0.010 A 
ATOM     90  C   UNL A   1      42.836  35.554  37.296  1.00  0.00     0.020 A 
ATOM     91  C   UNL A   1      41.437  34.466  38.937  1.00  0.00     0.020 A 
ATOM     92  C   UNL A   1      42.229  35.538  38.551  1.00  0.00     0.054 A 
BRANCH  92  93
ATOM     93  S   UNL A   1      42.453  36.947  39.659  1.00  0.00     0.124 S 
ATOM     94  O   UNL A   1      42.432  36.300  40.968  1.00  0.00    -0.237 OA
ATOM     95  O   UNL A   1      43.749  37.481  39.245  1.00  0.00    -0.237 OA
ATOM     96  O   UNL A   1      41.310  37.807  39.364  1.00  0.00    -0.744 OA
ENDBRANCH  92  93
ENDBRANCH  66  87
ENDBRANCH  40  41
ENDBRANCH  32  35
ENDBRANCH  30  31
ENDBRANCH  29  30
ENDBRANCH  28  29
ENDBRANCH   1  28
TORSDOF 20
ENDMDL
