MODEL 1
REMARK VINA RESULT:     -11.6      0.000      0.000
REMARK SMILES COc1ccc(C(=O)Nc2cc(C(=O)NCCCCNC(=O)c3ccc(-c4c5nc(c(-c6ccc(S(=O)(=O)[O-])cc6)c6ccc([nH]6)c(-c6ccc(S(=O)(=O)[O-])cc6)c6nc(c(-c7ccc(S(=O)(=O)[O-])cc7)c7ccc4[nH]7)C=C6)C=C5)cc3)c(Cl)cc2Cl)cc1Cl
REMARK SMILES IDX 17 1 16 2 15 3 13 4 14 5 12 7 10 8 11 9 86 10 85 11 87 12
REMARK SMILES IDX 83 13 84 14 9 15 7 16 8 17 6 19 3 20 4 21 89 22 5 23 88 24
REMARK SMILES IDX 90 25 2 26 1 27 18 28 19 29 20 30 21 31 22 33 23 34 24 35
REMARK SMILES IDX 82 36 25 37 81 38 26 39 27 40 28 41 75 42 29 43 80 44 74 45
REMARK SMILES IDX 76 46 30 47 79 48 73 49 72 50 31 52 61 53 42 54 60 55 43 56
REMARK SMILES IDX 46 57 59 58 77 59 44 60 45 61 58 63 78 64 47 65 32 66 33 67
REMARK SMILES IDX 41 68 34 69 40 70 35 71 36 72 37 73 38 74 39 75 62 76 63 77
REMARK SMILES IDX 71 78 64 79 70 80 65 81 66 82 67 83 68 84 69 85 48 86 49 87
REMARK SMILES IDX 57 88 50 89 56 90 51 91 52 92 53 93 54 94 55 95
REMARK H PARENT 15 6 9 18 20 32 76 51 46 62
REMARK Flexibility Score: inf
ROOT
ATOM      1  C   UNL A   1      38.406  23.930  26.728  1.00  0.00     0.023 C 
ENDROOT
BRANCH   1   2
ATOM      2  C   UNL A   1      37.141  23.787  25.885  1.00  0.00     0.116 C 
BRANCH   2   3
ATOM      3  N   UNL A   1      37.352  23.292  24.535  1.00  0.00    -0.352 N 
ATOM      4  C   UNL A   1      36.463  23.113  23.500  1.00  0.00     0.252 C 
ATOM      5  O   UNL A   1      36.887  22.762  22.400  1.00  0.00    -0.269 OA
ATOM      6  H   UNL A   1      38.282  23.047  24.327  1.00  0.00     0.163 HD
BRANCH   4   7
ATOM      7  C   UNL A   1      34.993  23.203  23.678  1.00  0.00     0.060 A 
ATOM      8  C   UNL A   1      32.992  24.514  23.138  1.00  0.00     0.061 A 
ATOM      9  C   UNL A   1      34.379  24.335  23.094  1.00  0.00     0.043 A 
ATOM     10  C   UNL A   1      32.219  23.578  23.842  1.00  0.00     0.066 A 
ATOM     11  C   UNL A   1      32.820  22.487  24.471  1.00  0.00     0.044 A 
ATOM     12  Cl  UNL A   1      30.496  23.713  23.913  1.00  0.00    -0.082 Cl
ATOM     13  C   UNL A   1      34.208  22.317  24.422  1.00  0.00     0.055 A 
ATOM     14  Cl  UNL A   1      34.859  21.061  25.410  1.00  0.00    -0.083 Cl
BRANCH   8  15
ATOM     15  N   UNL A   1      32.335  25.601  22.521  1.00  0.00    -0.321 N 
ATOM     16  C   UNL A   1      31.899  26.822  22.987  1.00  0.00     0.255 C 
ATOM     17  O   UNL A   1      31.101  27.468  22.308  1.00  0.00    -0.269 OA
ATOM     18  H   UNL A   1      32.152  25.458  21.564  1.00  0.00     0.170 HD
BRANCH  16  19
ATOM     19  C   UNL A   1      32.453  27.445  24.220  1.00  0.00     0.041 A 
ATOM     20  C   UNL A   1      33.531  28.688  26.514  1.00  0.00     0.137 A 
ATOM     21  C   UNL A   1      34.224  28.696  25.293  1.00  0.00     0.049 A 
ATOM     22  C   UNL A   1      32.299  28.029  26.579  1.00  0.00     0.083 A 
ATOM     23  C   UNL A   1      33.691  28.088  24.153  1.00  0.00     0.018 A 
ATOM     24  C   UNL A   1      31.810  27.354  25.456  1.00  0.00     0.038 A 
ATOM     25  Cl  UNL A   1      31.236  28.051  27.939  1.00  0.00    -0.080 Cl
BRANCH  20  26
ATOM     26  O   UNL A   1      34.167  29.396  27.495  1.00  0.00    -0.495 OA
ATOM     27  C   UNL A   1      35.587  29.432  27.464  1.00  0.00     0.278 C 
ENDBRANCH  20  26
ENDBRANCH  16  19
ENDBRANCH   8  15
ENDBRANCH   4   7
ENDBRANCH   2   3
ENDBRANCH   1   2
BRANCH   1  28
ATOM     28  C   UNL A   1      39.491  22.869  26.548  1.00  0.00     0.023 C 
BRANCH  28  29
ATOM     29  C   UNL A   1      40.935  23.308  26.765  1.00  0.00     0.116 C 
BRANCH  29  30
ATOM     30  N   UNL A   1      41.442  24.219  25.748  1.00  0.00    -0.352 N 
ATOM     31  C   UNL A   1      41.809  25.543  25.846  1.00  0.00     0.251 C 
ATOM     32  H   UNL A   1      41.536  23.827  24.851  1.00  0.00     0.163 HD
ATOM     33  O   UNL A   1      42.163  26.148  24.837  1.00  0.00    -0.269 OA
BRANCH  31  34
ATOM     34  C   UNL A   1      41.735  26.254  27.144  1.00  0.00     0.039 A 
ATOM     35  C   UNL A   1      42.723  27.193  27.453  1.00  0.00     0.014 A 
ATOM     36  C   UNL A   1      40.691  26.022  28.043  1.00  0.00     0.014 A 
ATOM     37  C   UNL A   1      42.609  27.969  28.611  1.00  0.00     0.010 A 
ATOM     38  C   UNL A   1      40.536  26.851  29.152  1.00  0.00     0.010 A 
ATOM     39  C   UNL A   1      41.485  27.843  29.443  1.00  0.00    -0.014 A 
BRANCH  39  40
ATOM     40  C   UNL A   1      41.266  28.755  30.599  1.00  0.00     0.031 A 
ATOM     41  C   UNL A   1      42.109  28.625  31.840  1.00  0.00     0.074 A 
ATOM     42  C   UNL A   1      40.254  29.645  30.565  1.00  0.00     0.049 A 
ATOM     43  N   UNL A   1      42.009  29.270  32.975  1.00  0.00    -0.248 NA
ATOM     44  C   UNL A   1      43.185  27.622  31.812  1.00  0.00     0.031 C 
ATOM     45  C   UNL A   1      39.332  29.841  29.443  1.00  0.00     0.029 A 
ATOM     46  N   UNL A   1      39.821  30.548  31.506  1.00  0.00    -0.354 N 
ATOM     47  C   UNL A   1      42.992  28.736  33.801  1.00  0.00     0.074 A 
ATOM     48  C   UNL A   1      43.646  27.684  33.053  1.00  0.00     0.031 C 
ATOM     49  C   UNL A   1      38.462  30.818  29.751  1.00  0.00     0.029 A 
ATOM     50  C   UNL A   1      38.733  31.289  31.105  1.00  0.00     0.049 A 
ATOM     51  H   UNL A   1      40.250  30.655  32.386  1.00  0.00     0.167 HD
ATOM     52  C   UNL A   1      43.334  29.101  35.060  1.00  0.00     0.031 A 
ATOM     53  C   UNL A   1      38.026  32.236  31.753  1.00  0.00     0.031 A 
ATOM     54  C   UNL A   1      42.695  30.159  35.798  1.00  0.00     0.049 A 
ATOM     55  C   UNL A   1      38.425  32.623  33.151  1.00  0.00     0.074 A 
ATOM     56  C   UNL A   1      43.011  30.642  37.056  1.00  0.00     0.029 A 
ATOM     57  N   UNL A   1      41.612  30.897  35.346  1.00  0.00    -0.354 N 
ATOM     58  N   UNL A   1      39.401  32.151  33.889  1.00  0.00    -0.248 NA
ATOM     59  C   UNL A   1      37.634  33.679  33.798  1.00  0.00     0.031 C 
ATOM     60  C   UNL A   1      42.088  31.640  37.385  1.00  0.00     0.029 A 
ATOM     61  C   UNL A   1      41.233  31.817  36.309  1.00  0.00     0.049 A 
ATOM     62  H   UNL A   1      41.176  30.783  34.471  1.00  0.00     0.167 HD
ATOM     63  C   UNL A   1      39.357  32.870  35.078  1.00  0.00     0.074 A 
ATOM     64  C   UNL A   1      38.269  33.819  34.954  1.00  0.00     0.031 C 
ATOM     65  C   UNL A   1      40.148  32.756  36.173  1.00  0.00     0.031 A 
BRANCH  52  66
ATOM     66  C   UNL A   1      44.455  28.343  35.723  1.00  0.00    -0.014 A 
ATOM     67  C   UNL A   1      45.790  28.775  35.608  1.00  0.00     0.010 A 
ATOM     68  C   UNL A   1      44.169  27.206  36.500  1.00  0.00     0.010 A 
ATOM     69  C   UNL A   1      46.821  28.058  36.221  1.00  0.00     0.020 A 
ATOM     70  C   UNL A   1      45.195  26.503  37.139  1.00  0.00     0.020 A 
ATOM     71  C   UNL A   1      46.517  26.924  36.979  1.00  0.00     0.054 A 
BRANCH  71  72
ATOM     72  S   UNL A   1      47.874  26.024  37.778  1.00  0.00     0.124 S 
ATOM     73  O   UNL A   1      48.999  26.335  36.900  1.00  0.00    -0.237 OA
ATOM     74  O   UNL A   1      47.927  26.634  39.104  1.00  0.00    -0.237 OA
ATOM     75  O   UNL A   1      47.431  24.633  37.753  1.00  0.00    -0.744 OA
ENDBRANCH  71  72
ENDBRANCH  52  66
BRANCH  53  76
ATOM     76  C   UNL A   1      36.874  32.896  31.079  1.00  0.00    -0.014 A 
ATOM     77  C   UNL A   1      37.091  33.877  30.096  1.00  0.00     0.010 A 
ATOM     78  C   UNL A   1      35.554  32.541  31.411  1.00  0.00     0.010 A 
ATOM     79  C   UNL A   1      36.010  34.504  29.468  1.00  0.00     0.020 A 
ATOM     80  C   UNL A   1      34.471  33.147  30.766  1.00  0.00     0.020 A 
ATOM     81  C   UNL A   1      34.706  34.132  29.806  1.00  0.00     0.054 A 
BRANCH  81  82
ATOM     82  S   UNL A   1      33.318  34.920  28.941  1.00  0.00     0.124 S 
ATOM     83  O   UNL A   1      32.421  35.252  30.043  1.00  0.00    -0.237 OA
ATOM     84  O   UNL A   1      33.961  36.056  28.283  1.00  0.00    -0.237 OA
ATOM     85  O   UNL A   1      32.843  33.876  28.038  1.00  0.00    -0.744 OA
ENDBRANCH  81  82
ENDBRANCH  53  76
BRANCH  65  86
ATOM     86  C   UNL A   1      39.892  33.702  37.316  1.00  0.00    -0.014 A 
ATOM     87  C   UNL A   1      40.375  35.022  37.293  1.00  0.00     0.010 A 
ATOM     88  C   UNL A   1      39.106  33.278  38.403  1.00  0.00     0.010 A 
ATOM     89  C   UNL A   1      40.103  35.891  38.352  1.00  0.00     0.020 A 
ATOM     90  C   UNL A   1      38.808  34.152  39.451  1.00  0.00     0.020 A 
ATOM     91  C   UNL A   1      39.320  35.451  39.425  1.00  0.00     0.054 A 
BRANCH  91  92
ATOM     92  S   UNL A   1      38.942  36.612  40.766  1.00  0.00     0.124 S 
ATOM     93  O   UNL A   1      37.944  35.874  41.535  1.00  0.00    -0.237 OA
ATOM     94  O   UNL A   1      40.239  36.782  41.419  1.00  0.00    -0.237 OA
ATOM     95  O   UNL A   1      38.444  37.795  40.070  1.00  0.00    -0.744 OA
ENDBRANCH  91  92
ENDBRANCH  65  86
ENDBRANCH  39  40
ENDBRANCH  31  34
ENDBRANCH  29  30
ENDBRANCH  28  29
ENDBRANCH   1  28
TORSDOF 17
ENDMDL
MODEL 2
REMARK VINA RESULT:     -11.3      4.381     10.141
REMARK SMILES COc1ccc(C(=O)Nc2cc(C(=O)NCCCCNC(=O)c3ccc(-c4c5nc(c(-c6ccc(S(=O)(=O)[O-])cc6)c6ccc([nH]6)c(-c6ccc(S(=O)(=O)[O-])cc6)c6nc(c(-c7ccc(S(=O)(=O)[O-])cc7)c7ccc4[nH]7)C=C6)C=C5)cc3)c(Cl)cc2Cl)cc1Cl
REMARK SMILES IDX 17 1 16 2 15 3 13 4 14 5 12 7 10 8 11 9 86 10 85 11 87 12
REMARK SMILES IDX 83 13 84 14 9 15 7 16 8 17 6 19 3 20 4 21 89 22 5 23 88 24
REMARK SMILES IDX 90 25 2 26 1 27 18 28 19 29 20 30 21 31 22 33 23 34 24 35
REMARK SMILES IDX 82 36 25 37 81 38 26 39 27 40 28 41 75 42 29 43 80 44 74 45
REMARK SMILES IDX 76 46 30 47 79 48 73 49 72 50 31 52 61 53 42 54 60 55 43 56
REMARK SMILES IDX 46 57 59 58 77 59 44 60 45 61 58 63 78 64 47 65 32 66 33 67
REMARK SMILES IDX 41 68 34 69 40 70 35 71 36 72 37 73 38 74 39 75 62 76 63 77
REMARK SMILES IDX 71 78 64 79 70 80 65 81 66 82 67 83 68 84 69 85 48 86 49 87
REMARK SMILES IDX 57 88 50 89 56 90 51 91 52 92 53 93 54 94 55 95
REMARK H PARENT 15 6 9 18 20 32 76 51 46 62
REMARK Flexibility Score: inf
ROOT
ATOM      1  C   UNL A   1      33.392  26.909  25.678  1.00  0.00     0.023 C 
ENDROOT
BRANCH   1   2
ATOM      2  C   UNL A   1      32.042  27.284  25.070  1.00  0.00     0.116 C 
BRANCH   2   3
ATOM      3  N   UNL A   1      30.883  26.760  25.770  1.00  0.00    -0.352 N 
ATOM      4  C   UNL A   1      30.363  25.486  25.808  1.00  0.00     0.252 C 
ATOM      5  O   UNL A   1      29.412  25.249  26.552  1.00  0.00    -0.269 OA
ATOM      6  H   UNL A   1      30.389  27.423  26.305  1.00  0.00     0.163 HD
BRANCH   4   7
ATOM      7  C   UNL A   1      30.817  24.405  24.900  1.00  0.00     0.060 A 
ATOM      8  C   UNL A   1      31.528  22.060  24.783  1.00  0.00     0.061 A 
ATOM      9  C   UNL A   1      31.142  23.180  25.528  1.00  0.00     0.043 A 
ATOM     10  C   UNL A   1      31.660  22.197  23.392  1.00  0.00     0.066 A 
ATOM     11  C   UNL A   1      31.397  23.416  22.767  1.00  0.00     0.044 A 
ATOM     12  Cl  UNL A   1      32.101  20.850  22.400  1.00  0.00    -0.082 Cl
ATOM     13  C   UNL A   1      31.011  24.530  23.521  1.00  0.00     0.055 A 
ATOM     14  Cl  UNL A   1      30.923  26.031  22.675  1.00  0.00    -0.083 Cl
BRANCH   8  15
ATOM     15  N   UNL A   1      31.808  20.805  25.366  1.00  0.00    -0.321 N 
ATOM     16  C   UNL A   1      32.967  20.076  25.512  1.00  0.00     0.255 C 
ATOM     17  O   UNL A   1      32.887  18.882  25.805  1.00  0.00    -0.269 OA
ATOM     18  H   UNL A   1      31.015  20.363  25.745  1.00  0.00     0.170 HD
BRANCH  16  19
ATOM     19  C   UNL A   1      34.315  20.706  25.455  1.00  0.00     0.041 A 
ATOM     20  C   UNL A   1      36.884  21.861  25.280  1.00  0.00     0.137 A 
ATOM     21  C   UNL A   1      36.675  20.509  24.963  1.00  0.00     0.049 A 
ATOM     22  C   UNL A   1      35.794  22.623  25.708  1.00  0.00     0.083 A 
ATOM     23  C   UNL A   1      35.403  19.935  25.042  1.00  0.00     0.018 A 
ATOM     24  C   UNL A   1      34.540  22.022  25.862  1.00  0.00     0.038 A 
ATOM     25  Cl  UNL A   1      35.825  24.328  25.983  1.00  0.00    -0.080 Cl
BRANCH  20  26
ATOM     26  O   UNL A   1      38.173  22.266  25.070  1.00  0.00    -0.495 OA
ATOM     27  C   UNL A   1      38.960  22.571  26.214  1.00  0.00     0.278 C 
ENDBRANCH  20  26
ENDBRANCH  16  19
ENDBRANCH   8  15
ENDBRANCH   4   7
ENDBRANCH   2   3
ENDBRANCH   1   2
BRANCH   1  28
ATOM     28  C   UNL A   1      34.125  27.987  26.475  1.00  0.00     0.023 C 
BRANCH  28  29
ATOM     29  C   UNL A   1      33.360  28.652  27.614  1.00  0.00     0.116 C 
BRANCH  29  30
ATOM     30  N   UNL A   1      33.513  30.098  27.673  1.00  0.00    -0.352 N 
ATOM     31  C   UNL A   1      34.623  30.862  27.960  1.00  0.00     0.251 C 
ATOM     32  H   UNL A   1      32.696  30.610  27.477  1.00  0.00     0.163 HD
ATOM     33  O   UNL A   1      34.517  32.086  28.011  1.00  0.00    -0.269 OA
BRANCH  31  34
ATOM     34  C   UNL A   1      35.926  30.222  28.255  1.00  0.00     0.039 A 
ATOM     35  C   UNL A   1      36.902  30.192  27.255  1.00  0.00     0.014 A 
ATOM     36  C   UNL A   1      36.200  29.675  29.510  1.00  0.00     0.014 A 
ATOM     37  C   UNL A   1      38.182  29.710  27.545  1.00  0.00     0.010 A 
ATOM     38  C   UNL A   1      37.497  29.270  29.821  1.00  0.00     0.010 A 
ATOM     39  C   UNL A   1      38.508  29.295  28.846  1.00  0.00    -0.014 A 
BRANCH  39  40
ATOM     40  C   UNL A   1      39.898  28.914  29.217  1.00  0.00     0.031 A 
ATOM     41  C   UNL A   1      40.806  29.910  29.889  1.00  0.00     0.074 A 
ATOM     42  C   UNL A   1      40.371  27.699  28.874  1.00  0.00     0.049 A 
ATOM     43  N   UNL A   1      42.069  29.787  30.209  1.00  0.00    -0.248 NA
ATOM     44  C   UNL A   1      40.227  31.221  30.220  1.00  0.00     0.031 C 
ATOM     45  C   UNL A   1      39.611  26.656  28.177  1.00  0.00     0.029 A 
ATOM     46  N   UNL A   1      41.611  27.135  29.055  1.00  0.00    -0.354 N 
ATOM     47  C   UNL A   1      42.441  31.010  30.757  1.00  0.00     0.074 A 
ATOM     48  C   UNL A   1      41.283  31.874  30.683  1.00  0.00     0.031 C 
ATOM     49  C   UNL A   1      40.392  25.576  28.013  1.00  0.00     0.029 A 
ATOM     50  C   UNL A   1      41.718  25.858  28.552  1.00  0.00     0.049 A 
ATOM     51  H   UNL A   1      42.354  27.601  29.502  1.00  0.00     0.167 HD
ATOM     52  C   UNL A   1      43.631  31.376  31.290  1.00  0.00     0.031 A 
ATOM     53  C   UNL A   1      42.766  25.012  28.518  1.00  0.00     0.031 A 
ATOM     54  C   UNL A   1      44.778  30.511  31.379  1.00  0.00     0.049 A 
ATOM     55  C   UNL A   1      44.077  25.441  29.117  1.00  0.00     0.074 A 
ATOM     56  C   UNL A   1      46.009  30.771  31.957  1.00  0.00     0.029 A 
ATOM     57  N   UNL A   1      44.837  29.220  30.877  1.00  0.00    -0.354 N 
ATOM     58  N   UNL A   1      44.388  26.579  29.690  1.00  0.00    -0.248 NA
ATOM     59  C   UNL A   1      45.177  24.467  29.075  1.00  0.00     0.031 C 
ATOM     60  C   UNL A   1      46.828  29.654  31.762  1.00  0.00     0.029 A 
ATOM     61  C   UNL A   1      46.090  28.678  31.111  1.00  0.00     0.049 A 
ATOM     62  H   UNL A   1      44.099  28.757  30.419  1.00  0.00     0.167 HD
ATOM     63  C   UNL A   1      45.710  26.448  30.099  1.00  0.00     0.074 A 
ATOM     64  C   UNL A   1      46.135  25.115  29.723  1.00  0.00     0.031 C 
ATOM     65  C   UNL A   1      46.500  27.350  30.732  1.00  0.00     0.031 A 
BRANCH  52  66
ATOM     66  C   UNL A   1      43.752  32.781  31.821  1.00  0.00    -0.014 A 
ATOM     67  C   UNL A   1      43.920  33.874  30.950  1.00  0.00     0.010 A 
ATOM     68  C   UNL A   1      43.660  33.018  33.205  1.00  0.00     0.010 A 
ATOM     69  C   UNL A   1      44.039  35.170  31.455  1.00  0.00     0.020 A 
ATOM     70  C   UNL A   1      43.750  34.318  33.712  1.00  0.00     0.020 A 
ATOM     71  C   UNL A   1      43.957  35.384  32.834  1.00  0.00     0.054 A 
BRANCH  71  72
ATOM     72  S   UNL A   1      44.097  37.080  33.461  1.00  0.00     0.124 S 
ATOM     73  O   UNL A   1      42.794  37.275  34.093  1.00  0.00    -0.237 OA
ATOM     74  O   UNL A   1      45.230  36.990  34.379  1.00  0.00    -0.237 OA
ATOM     75  O   UNL A   1      44.332  37.876  32.261  1.00  0.00    -0.744 OA
ENDBRANCH  71  72
ENDBRANCH  52  66
BRANCH  53  76
ATOM     76  C   UNL A   1      42.613  23.662  27.907  1.00  0.00    -0.014 A 
ATOM     77  C   UNL A   1      42.980  23.441  26.568  1.00  0.00     0.010 A 
ATOM     78  C   UNL A   1      42.110  22.588  28.664  1.00  0.00     0.010 A 
ATOM     79  C   UNL A   1      42.830  22.176  25.991  1.00  0.00     0.020 A 
ATOM     80  C   UNL A   1      41.984  21.316  28.098  1.00  0.00     0.020 A 
ATOM     81  C   UNL A   1      42.335  21.120  26.762  1.00  0.00     0.054 A 
BRANCH  81  82
ATOM     82  S   UNL A   1      42.199  19.475  26.008  1.00  0.00     0.124 S 
ATOM     83  O   UNL A   1      40.764  19.372  25.758  1.00  0.00    -0.237 OA
ATOM     84  O   UNL A   1      43.040  19.601  24.820  1.00  0.00    -0.237 OA
ATOM     85  O   UNL A   1      42.722  18.583  27.040  1.00  0.00    -0.744 OA
ENDBRANCH  81  82
ENDBRANCH  53  76
BRANCH  65  86
ATOM     86  C   UNL A   1      47.897  26.918  31.090  1.00  0.00    -0.014 A 
ATOM     87  C   UNL A   1      48.170  26.267  32.306  1.00  0.00     0.010 A 
ATOM     88  C   UNL A   1      48.941  27.118  30.169  1.00  0.00     0.010 A 
ATOM     89  C   UNL A   1      49.470  25.850  32.606  1.00  0.00     0.020 A 
ATOM     90  C   UNL A   1      50.236  26.678  30.454  1.00  0.00     0.020 A 
ATOM     91  C   UNL A   1      50.495  26.059  31.678  1.00  0.00     0.054 A 
BRANCH  91  92
ATOM     92  S   UNL A   1      52.164  25.469  32.071  1.00  0.00     0.124 S 
ATOM     93  O   UNL A   1      52.461  26.195  33.303  1.00  0.00    -0.237 OA
ATOM     94  O   UNL A   1      51.968  24.029  32.223  1.00  0.00    -0.237 OA
ATOM     95  O   UNL A   1      52.955  25.863  30.908  1.00  0.00    -0.744 OA
ENDBRANCH  91  92
ENDBRANCH  65  86
ENDBRANCH  39  40
ENDBRANCH  31  34
ENDBRANCH  29  30
ENDBRANCH  28  29
ENDBRANCH   1  28
TORSDOF 17
ENDMDL
MODEL 3
REMARK VINA RESULT:     -11.1      6.622     13.313
REMARK SMILES COc1ccc(C(=O)Nc2cc(C(=O)NCCCCNC(=O)c3ccc(-c4c5nc(c(-c6ccc(S(=O)(=O)[O-])cc6)c6ccc([nH]6)c(-c6ccc(S(=O)(=O)[O-])cc6)c6nc(c(-c7ccc(S(=O)(=O)[O-])cc7)c7ccc4[nH]7)C=C6)C=C5)cc3)c(Cl)cc2Cl)cc1Cl
REMARK SMILES IDX 17 1 16 2 15 3 13 4 14 5 12 7 10 8 11 9 86 10 85 11 87 12
REMARK SMILES IDX 83 13 84 14 9 15 7 16 8 17 6 19 3 20 4 21 89 22 5 23 88 24
REMARK SMILES IDX 90 25 2 26 1 27 18 28 19 29 20 30 21 31 22 33 23 34 24 35
REMARK SMILES IDX 82 36 25 37 81 38 26 39 27 40 28 41 75 42 29 43 80 44 74 45
REMARK SMILES IDX 76 46 30 47 79 48 73 49 72 50 31 52 61 53 42 54 60 55 43 56
REMARK SMILES IDX 46 57 59 58 77 59 44 60 45 61 58 63 78 64 47 65 32 66 33 67
REMARK SMILES IDX 41 68 34 69 40 70 35 71 36 72 37 73 38 74 39 75 62 76 63 77
REMARK SMILES IDX 71 78 64 79 70 80 65 81 66 82 67 83 68 84 69 85 48 86 49 87
REMARK SMILES IDX 57 88 50 89 56 90 51 91 52 92 53 93 54 94 55 95
REMARK H PARENT 15 6 9 18 20 32 76 51 46 62
REMARK Flexibility Score: inf
ROOT
ATOM      1  C   UNL A   1      36.811  33.201  28.327  1.00  0.00     0.023 C 
ENDROOT
BRANCH   1   2
ATOM      2  C   UNL A   1      36.414  34.066  29.521  1.00  0.00     0.116 C 
BRANCH   2   3
ATOM      3  N   UNL A   1      34.985  34.255  29.697  1.00  0.00    -0.352 N 
ATOM      4  C   UNL A   1      34.245  34.466  30.838  1.00  0.00     0.252 C 
ATOM      5  O   UNL A   1      33.040  34.694  30.738  1.00  0.00    -0.269 OA
ATOM      6  H   UNL A   1      34.460  34.230  28.864  1.00  0.00     0.163 HD
BRANCH   4   7
ATOM      7  C   UNL A   1      34.808  34.310  32.202  1.00  0.00     0.060 A 
ATOM      8  C   UNL A   1      36.166  32.869  33.649  1.00  0.00     0.061 A 
ATOM      9  C   UNL A   1      35.534  33.117  32.425  1.00  0.00     0.043 A 
ATOM     10  C   UNL A   1      36.005  33.801  34.685  1.00  0.00     0.066 A 
ATOM     11  C   UNL A   1      35.243  34.954  34.494  1.00  0.00     0.044 A 
ATOM     12  Cl  UNL A   1      36.782  33.581  36.215  1.00  0.00    -0.082 Cl
ATOM     13  C   UNL A   1      34.614  35.193  33.267  1.00  0.00     0.055 A 
ATOM     14  Cl  UNL A   1      33.528  36.533  33.214  1.00  0.00    -0.083 Cl
BRANCH   8  15
ATOM     15  N   UNL A   1      36.946  31.717  33.894  1.00  0.00    -0.321 N 
ATOM     16  C   UNL A   1      38.154  31.279  33.400  1.00  0.00     0.255 C 
ATOM     17  O   UNL A   1      38.474  30.102  33.566  1.00  0.00    -0.269 OA
ATOM     18  H   UNL A   1      36.544  31.103  34.551  1.00  0.00     0.170 HD
BRANCH  16  19
ATOM     19  C   UNL A   1      39.144  32.206  32.785  1.00  0.00     0.041 A 
ATOM     20  C   UNL A   1      40.970  33.975  31.561  1.00  0.00     0.137 A 
ATOM     21  C   UNL A   1      40.228  33.059  30.798  1.00  0.00     0.049 A 
ATOM     22  C   UNL A   1      40.804  33.980  32.948  1.00  0.00     0.083 A 
ATOM     23  C   UNL A   1      39.318  32.186  31.400  1.00  0.00     0.018 A 
ATOM     24  C   UNL A   1      39.951  33.049  33.551  1.00  0.00     0.038 A 
ATOM     25  Cl  UNL A   1      41.504  35.134  34.025  1.00  0.00    -0.080 Cl
BRANCH  20  26
ATOM     26  O   UNL A   1      41.750  34.799  30.797  1.00  0.00    -0.495 OA
ATOM     27  C   UNL A   1      41.476  34.856  29.403  1.00  0.00     0.278 C 
ENDBRANCH  20  26
ENDBRANCH  16  19
ENDBRANCH   8  15
ENDBRANCH   4   7
ENDBRANCH   2   3
ENDBRANCH   1   2
BRANCH   1  28
ATOM     28  C   UNL A   1      35.721  32.335  27.696  1.00  0.00     0.023 C 
BRANCH  28  29
ATOM     29  C   UNL A   1      35.712  30.854  28.059  1.00  0.00     0.116 C 
BRANCH  29  30
ATOM     30  N   UNL A   1      35.559  30.589  29.482  1.00  0.00    -0.352 N 
ATOM     31  C   UNL A   1      36.392  29.926  30.357  1.00  0.00     0.251 C 
ATOM     32  H   UNL A   1      34.730  30.938  29.882  1.00  0.00     0.163 HD
ATOM     33  O   UNL A   1      36.039  29.765  31.523  1.00  0.00    -0.269 OA
BRANCH  31  34
ATOM     34  C   UNL A   1      37.682  29.365  29.893  1.00  0.00     0.039 A 
ATOM     35  C   UNL A   1      38.116  29.661  28.597  1.00  0.00     0.014 A 
ATOM     36  C   UNL A   1      38.475  28.575  30.727  1.00  0.00     0.014 A 
ATOM     37  C   UNL A   1      39.386  29.252  28.177  1.00  0.00     0.010 A 
ATOM     38  C   UNL A   1      39.770  28.239  30.338  1.00  0.00     0.010 A 
ATOM     39  C   UNL A   1      40.247  28.584  29.063  1.00  0.00    -0.014 A 
BRANCH  39  40
ATOM     40  C   UNL A   1      41.652  28.266  28.691  1.00  0.00     0.031 A 
ATOM     41  C   UNL A   1      42.696  29.351  28.666  1.00  0.00     0.074 A 
ATOM     42  C   UNL A   1      41.972  27.018  28.295  1.00  0.00     0.049 A 
ATOM     43  N   UNL A   1      43.948  29.281  28.287  1.00  0.00    -0.248 NA
ATOM     44  C   UNL A   1      42.273  30.693  29.095  1.00  0.00     0.031 C 
ATOM     45  C   UNL A   1      41.045  25.884  28.228  1.00  0.00     0.029 A 
ATOM     46  N   UNL A   1      43.165  26.491  27.864  1.00  0.00    -0.354 N 
ATOM     47  C   UNL A   1      44.453  30.570  28.411  1.00  0.00     0.074 A 
ATOM     48  C   UNL A   1      43.361  31.410  28.856  1.00  0.00     0.031 C 
ATOM     49  C   UNL A   1      41.709  24.795  27.806  1.00  0.00     0.029 A 
ATOM     50  C   UNL A   1      43.095  25.157  27.532  1.00  0.00     0.049 A 
ATOM     51  H   UNL A   1      43.994  27.019  27.797  1.00  0.00     0.167 HD
ATOM     52  C   UNL A   1      45.715  31.013  28.195  1.00  0.00     0.031 A 
ATOM     53  C   UNL A   1      44.035  24.319  27.053  1.00  0.00     0.031 A 
ATOM     54  C   UNL A   1      46.804  30.175  27.769  1.00  0.00     0.049 A 
ATOM     55  C   UNL A   1      45.430  24.834  26.821  1.00  0.00     0.074 A 
ATOM     56  C   UNL A   1      48.132  30.520  27.581  1.00  0.00     0.029 A 
ATOM     57  N   UNL A   1      46.695  28.827  27.465  1.00  0.00    -0.354 N 
ATOM     58  N   UNL A   1      45.902  26.043  27.008  1.00  0.00    -0.248 NA
ATOM     59  C   UNL A   1      46.420  23.869  26.323  1.00  0.00     0.031 C 
ATOM     60  C   UNL A   1      48.815  29.391  27.117  1.00  0.00     0.029 A 
ATOM     61  C   UNL A   1      47.925  28.330  27.070  1.00  0.00     0.049 A 
ATOM     62  H   UNL A   1      45.865  28.300  27.520  1.00  0.00     0.167 HD
ATOM     63  C   UNL A   1      47.250  25.977  26.675  1.00  0.00     0.074 A 
ATOM     64  C   UNL A   1      47.521  24.607  26.291  1.00  0.00     0.031 C 
ATOM     65  C   UNL A   1      48.181  26.963  26.689  1.00  0.00     0.031 A 
BRANCH  52  66
ATOM     66  C   UNL A   1      45.984  32.479  28.415  1.00  0.00    -0.014 A 
ATOM     67  C   UNL A   1      46.300  32.975  29.694  1.00  0.00     0.010 A 
ATOM     68  C   UNL A   1      45.958  33.368  27.324  1.00  0.00     0.010 A 
ATOM     69  C   UNL A   1      46.539  34.338  29.886  1.00  0.00     0.020 A 
ATOM     70  C   UNL A   1      46.226  34.728  27.507  1.00  0.00     0.020 A 
ATOM     71  C   UNL A   1      46.497  35.207  28.791  1.00  0.00     0.054 A 
BRANCH  71  72
ATOM     72  S   UNL A   1      46.830  36.968  29.067  1.00  0.00     0.124 S 
ATOM     73  O   UNL A   1      46.713  37.072  30.519  1.00  0.00    -0.237 OA
ATOM     74  O   UNL A   1      48.180  37.127  28.534  1.00  0.00    -0.237 OA
ATOM     75  O   UNL A   1      45.780  37.643  28.308  1.00  0.00    -0.744 OA
ENDBRANCH  71  72
ENDBRANCH  52  66
BRANCH  53  76
ATOM     76  C   UNL A   1      43.694  22.896  26.776  1.00  0.00    -0.014 A 
ATOM     77  C   UNL A   1      44.240  22.237  25.660  1.00  0.00     0.010 A 
ATOM     78  C   UNL A   1      42.828  22.190  27.630  1.00  0.00     0.010 A 
ATOM     79  C   UNL A   1      43.914  20.904  25.393  1.00  0.00     0.020 A 
ATOM     80  C   UNL A   1      42.521  20.848  27.382  1.00  0.00     0.020 A 
ATOM     81  C   UNL A   1      43.057  20.217  26.259  1.00  0.00     0.054 A 
BRANCH  81  82
ATOM     82  S   UNL A   1      42.690  18.471  25.924  1.00  0.00     0.124 S 
ATOM     83  O   UNL A   1      41.242  18.494  25.745  1.00  0.00    -0.237 OA
ATOM     84  O   UNL A   1      43.474  18.209  24.719  1.00  0.00    -0.237 OA
ATOM     85  O   UNL A   1      43.163  17.787  27.125  1.00  0.00    -0.744 OA
ENDBRANCH  81  82
ENDBRANCH  53  76
BRANCH  65  86
ATOM     86  C   UNL A   1      49.590  26.593  26.310  1.00  0.00    -0.014 A 
ATOM     87  C   UNL A   1      50.069  26.791  25.003  1.00  0.00     0.010 A 
ATOM     88  C   UNL A   1      50.463  26.091  27.292  1.00  0.00     0.010 A 
ATOM     89  C   UNL A   1      51.389  26.465  24.679  1.00  0.00     0.020 A 
ATOM     90  C   UNL A   1      51.790  25.790  26.979  1.00  0.00     0.020 A 
ATOM     91  C   UNL A   1      52.242  25.966  25.669  1.00  0.00     0.054 A 
BRANCH  91  92
ATOM     92  S   UNL A   1      53.963  25.593  25.235  1.00  0.00     0.124 S 
ATOM     93  O   UNL A   1      54.186  26.475  24.093  1.00  0.00    -0.237 OA
ATOM     94  O   UNL A   1      54.685  25.948  26.455  1.00  0.00    -0.237 OA
ATOM     95  O   UNL A   1      53.941  24.165  24.926  1.00  0.00    -0.744 OA
ENDBRANCH  91  92
ENDBRANCH  65  86
ENDBRANCH  39  40
ENDBRANCH  31  34
ENDBRANCH  29  30
ENDBRANCH  28  29
ENDBRANCH   1  28
TORSDOF 17
ENDMDL
