MODEL 1
REMARK VINA RESULT:     -11.1      0.000      0.000
REMARK SMILES O=C(Cc1ccccc1Nc1c(Cl)cccc1C(F)(F)F)NCCCCNC(=O)c1ccc(-c2c3nc(c(-c4ccc(S(=O)(=O)[O-])cc4)c4ccc([nH]4)c(-c4ccc(S(=O)(=O)[O-])cc4)c4nc(c(-c5ccc(S(=O)(=O)[O-])cc5)c5ccc2[nH]5)C=C4)C=C3)cc1
REMARK SMILES IDX 24 1 23 2 22 3 1 4 2 5 3 7 4 8 5 9 9 10 6 11 8 12 7 13 10 14
REMARK SMILES IDX 11 16 12 17 17 18 13 19 14 20 16 21 15 22 18 23 19 24 20 25
REMARK SMILES IDX 21 26 25 27 26 28 27 29 28 30 29 32 30 33 31 34 89 35 32 36
REMARK SMILES IDX 88 37 33 38 34 39 35 40 82 41 36 42 87 43 81 44 83 45 37 46
REMARK SMILES IDX 86 47 80 48 79 49 38 51 68 52 49 53 67 54 50 55 53 56 66 57
REMARK SMILES IDX 84 58 51 59 52 60 65 62 85 63 54 64 39 65 40 66 48 67 41 68
REMARK SMILES IDX 47 69 42 70 43 71 44 72 45 73 46 74 69 75 70 76 78 77 71 78
REMARK SMILES IDX 77 79 72 80 73 81 74 82 75 83 76 84 55 85 56 86 64 87 57 88
REMARK SMILES IDX 63 89 58 90 59 91 60 92 61 93 62 94
REMARK H PARENT 22 6 10 15 27 31 83 50 53 61
REMARK Flexibility Score: inf
ROOT
ATOM      1  C   UNL A   1      33.519  28.928  24.446  1.00  0.00     0.023 C 
ENDROOT
BRANCH   1   2
ATOM      2  C   UNL A   1      32.998  28.612  23.045  1.00  0.00     0.116 C 
BRANCH   2   3
ATOM      3  N   UNL A   1      32.292  27.348  23.002  1.00  0.00    -0.356 N 
ATOM      4  O   UNL A   1      33.734  26.253  21.581  1.00  0.00    -0.275 OA
ATOM      5  C   UNL A   1      32.750  26.242  22.313  1.00  0.00     0.224 C 
ATOM      6  H   UNL A   1      31.439  27.274  23.489  1.00  0.00     0.163 HD
BRANCH   5   7
ATOM      7  C   UNL A   1      31.929  24.982  22.573  1.00  0.00     0.137 C 
BRANCH   7   8
ATOM      8  C   UNL A   1      31.814  24.678  24.055  1.00  0.00    -0.015 A 
ATOM      9  C   UNL A   1      30.629  25.063  24.720  1.00  0.00     0.006 A 
ATOM     10  C   UNL A   1      32.828  24.029  24.790  1.00  0.00     0.042 A 
ATOM     11  C   UNL A   1      30.465  24.866  26.087  1.00  0.00     0.000 A 
ATOM     12  C   UNL A   1      32.648  23.864  26.175  1.00  0.00     0.026 A 
ATOM     13  C   UNL A   1      31.484  24.280  26.821  1.00  0.00     0.002 A 
BRANCH  10  14
ATOM     14  N   UNL A   1      33.968  23.494  24.150  1.00  0.00    -0.354 N 
ATOM     15  H   UNL A   1      34.374  24.075  23.466  1.00  0.00     0.167 HD
BRANCH  14  16
ATOM     16  C   UNL A   1      34.614  22.249  24.342  1.00  0.00     0.070 A 
ATOM     17  C   UNL A   1      35.972  22.252  24.744  1.00  0.00     0.065 A 
ATOM     18  C   UNL A   1      33.955  21.005  24.253  1.00  0.00     0.080 A 
ATOM     19  Cl  UNL A   1      36.869  23.735  24.816  1.00  0.00    -0.082 Cl
ATOM     20  C   UNL A   1      36.637  21.079  25.109  1.00  0.00     0.023 A 
ATOM     21  C   UNL A   1      34.638  19.831  24.652  1.00  0.00     0.015 A 
ATOM     22  C   UNL A   1      35.961  19.867  25.083  1.00  0.00     0.002 A 
BRANCH  18  23
ATOM     23  C   UNL A   1      32.549  20.819  23.721  1.00  0.00     0.418 C 
ATOM     24  F   UNL A   1      31.614  21.216  24.642  1.00  0.00    -0.166 F 
ATOM     25  F   UNL A   1      32.300  21.589  22.624  1.00  0.00    -0.166 F 
ATOM     26  F   UNL A   1      32.194  19.547  23.404  1.00  0.00    -0.166 F 
ENDBRANCH  18  23
ENDBRANCH  14  16
ENDBRANCH  10  14
ENDBRANCH   7   8
ENDBRANCH   5   7
ENDBRANCH   2   3
ENDBRANCH   1   2
BRANCH   1  27
ATOM     27  C   UNL A   1      33.087  27.952  25.547  1.00  0.00     0.023 C 
BRANCH  27  28
ATOM     28  C   UNL A   1      33.629  28.252  26.942  1.00  0.00     0.116 C 
BRANCH  28  29
ATOM     29  N   UNL A   1      33.515  29.660  27.289  1.00  0.00    -0.352 N 
ATOM     30  C   UNL A   1      34.405  30.473  27.948  1.00  0.00     0.251 C 
ATOM     31  H   UNL A   1      32.677  30.093  27.009  1.00  0.00     0.163 HD
ATOM     32  O   UNL A   1      34.043  31.593  28.312  1.00  0.00    -0.269 OA
BRANCH  30  33
ATOM     33  C   UNL A   1      35.780  30.010  28.244  1.00  0.00     0.039 A 
ATOM     34  C   UNL A   1      36.741  30.053  27.230  1.00  0.00     0.014 A 
ATOM     35  C   UNL A   1      36.122  29.516  29.506  1.00  0.00     0.014 A 
ATOM     36  C   UNL A   1      38.057  29.667  27.500  1.00  0.00     0.010 A 
ATOM     37  C   UNL A   1      37.451  29.203  29.793  1.00  0.00     0.010 A 
ATOM     38  C   UNL A   1      38.434  29.274  28.795  1.00  0.00    -0.014 A 
BRANCH  38  39
ATOM     39  C   UNL A   1      39.850  28.951  29.122  1.00  0.00     0.031 A 
ATOM     40  C   UNL A   1      40.747  29.988  29.745  1.00  0.00     0.074 A 
ATOM     41  C   UNL A   1      40.347  27.738  28.805  1.00  0.00     0.049 A 
ATOM     42  N   UNL A   1      42.018  29.905  30.047  1.00  0.00    -0.248 NA
ATOM     43  C   UNL A   1      40.144  31.296  30.045  1.00  0.00     0.031 C 
ATOM     44  C   UNL A   1      39.597  26.655  28.166  1.00  0.00     0.029 A 
ATOM     45  N   UNL A   1      41.607  27.215  28.969  1.00  0.00    -0.354 N 
ATOM     46  C   UNL A   1      42.369  31.148  30.561  1.00  0.00     0.074 A 
ATOM     47  C   UNL A   1      41.190  31.984  30.480  1.00  0.00     0.031 C 
ATOM     48  C   UNL A   1      40.401  25.591  28.015  1.00  0.00     0.029 A 
ATOM     49  C   UNL A   1      41.735  25.926  28.502  1.00  0.00     0.049 A 
ATOM     50  H   UNL A   1      42.348  27.714  29.381  1.00  0.00     0.167 HD
ATOM     51  C   UNL A   1      43.556  31.552  31.073  1.00  0.00     0.031 A 
ATOM     52  C   UNL A   1      42.805  25.108  28.458  1.00  0.00     0.031 A 
ATOM     53  C   UNL A   1      44.728  30.721  31.153  1.00  0.00     0.049 A 
ATOM     54  C   UNL A   1      44.120  25.588  29.008  1.00  0.00     0.074 A 
ATOM     55  C   UNL A   1      45.965  31.026  31.696  1.00  0.00     0.029 A 
ATOM     56  N   UNL A   1      44.814  29.423  30.672  1.00  0.00    -0.354 N 
ATOM     57  N   UNL A   1      44.415  26.748  29.548  1.00  0.00    -0.248 NA
ATOM     58  C   UNL A   1      45.246  24.645  28.954  1.00  0.00     0.031 C 
ATOM     59  C   UNL A   1      46.815  29.935  31.488  1.00  0.00     0.029 A 
ATOM     60  C   UNL A   1      46.090  28.923  30.880  1.00  0.00     0.049 A 
ATOM     61  H   UNL A   1      44.078  28.928  30.244  1.00  0.00     0.167 HD
ATOM     62  C   UNL A   1      45.751  26.662  29.924  1.00  0.00     0.074 A 
ATOM     63  C   UNL A   1      46.202  25.334  29.564  1.00  0.00     0.031 C 
ATOM     64  C   UNL A   1      46.531  27.600  30.515  1.00  0.00     0.031 A 
BRANCH  51  65
ATOM     65  C   UNL A   1      43.649  32.969  31.582  1.00  0.00    -0.014 A 
ATOM     66  C   UNL A   1      43.391  33.278  32.931  1.00  0.00     0.010 A 
ATOM     67  C   UNL A   1      44.035  34.004  30.709  1.00  0.00     0.010 A 
ATOM     68  C   UNL A   1      43.472  34.597  33.385  1.00  0.00     0.020 A 
ATOM     69  C   UNL A   1      44.149  35.320  31.167  1.00  0.00     0.020 A 
ATOM     70  C   UNL A   1      43.847  35.610  32.499  1.00  0.00     0.054 A 
BRANCH  70  71
ATOM     71  S   UNL A   1      43.956  37.311  33.122  1.00  0.00     0.124 S 
ATOM     72  O   UNL A   1      42.773  37.394  33.975  1.00  0.00    -0.237 OA
ATOM     73  O   UNL A   1      45.237  37.313  33.822  1.00  0.00    -0.237 OA
ATOM     74  O   UNL A   1      43.909  38.128  31.911  1.00  0.00    -0.744 OA
ENDBRANCH  70  71
ENDBRANCH  51  65
BRANCH  52  75
ATOM     75  C   UNL A   1      42.672  23.745  27.872  1.00  0.00    -0.014 A 
ATOM     76  C   UNL A   1      42.301  22.652  28.676  1.00  0.00     0.010 A 
ATOM     77  C   UNL A   1      42.899  23.536  26.500  1.00  0.00     0.010 A 
ATOM     78  C   UNL A   1      42.175  21.374  28.121  1.00  0.00     0.020 A 
ATOM     79  C   UNL A   1      42.745  22.267  25.936  1.00  0.00     0.020 A 
ATOM     80  C   UNL A   1      42.393  21.192  26.753  1.00  0.00     0.054 A 
BRANCH  80  81
ATOM     81  S   UNL A   1      42.167  19.536  26.046  1.00  0.00     0.124 S 
ATOM     82  O   UNL A   1      42.483  18.675  27.180  1.00  0.00    -0.237 OA
ATOM     83  O   UNL A   1      40.765  19.558  25.636  1.00  0.00    -0.237 OA
ATOM     84  O   UNL A   1      43.128  19.501  24.945  1.00  0.00    -0.744 OA
ENDBRANCH  80  81
ENDBRANCH  52  75
BRANCH  64  85
ATOM     85  C   UNL A   1      47.951  27.216  30.848  1.00  0.00    -0.014 A 
ATOM     86  C   UNL A   1      48.275  26.596  32.069  1.00  0.00     0.010 A 
ATOM     87  C   UNL A   1      48.967  27.432  29.899  1.00  0.00     0.010 A 
ATOM     88  C   UNL A   1      49.595  26.228  32.345  1.00  0.00     0.020 A 
ATOM     89  C   UNL A   1      50.282  27.037  30.159  1.00  0.00     0.020 A 
ATOM     90  C   UNL A   1      50.590  26.450  31.388  1.00  0.00     0.054 A 
BRANCH  90  91
ATOM     91  S   UNL A   1      52.287  25.923  31.754  1.00  0.00     0.124 S 
ATOM     92  O   UNL A   1      52.950  26.120  30.468  1.00  0.00    -0.237 OA
ATOM     93  O   UNL A   1      52.685  26.845  32.816  1.00  0.00    -0.237 OA
ATOM     94  O   UNL A   1      52.136  24.530  32.172  1.00  0.00    -0.744 OA
ENDBRANCH  90  91
ENDBRANCH  64  85
ENDBRANCH  38  39
ENDBRANCH  30  33
ENDBRANCH  28  29
ENDBRANCH  27  28
ENDBRANCH   1  27
TORSDOF 18
ENDMDL
MODEL 2
REMARK VINA RESULT:     -11.0      2.971      9.215
REMARK SMILES O=C(Cc1ccccc1Nc1c(Cl)cccc1C(F)(F)F)NCCCCNC(=O)c1ccc(-c2c3nc(c(-c4ccc(S(=O)(=O)[O-])cc4)c4ccc([nH]4)c(-c4ccc(S(=O)(=O)[O-])cc4)c4nc(c(-c5ccc(S(=O)(=O)[O-])cc5)c5ccc2[nH]5)C=C4)C=C3)cc1
REMARK SMILES IDX 24 1 23 2 22 3 1 4 2 5 3 7 4 8 5 9 9 10 6 11 8 12 7 13 10 14
REMARK SMILES IDX 11 16 12 17 17 18 13 19 14 20 16 21 15 22 18 23 19 24 20 25
REMARK SMILES IDX 21 26 25 27 26 28 27 29 28 30 29 32 30 33 31 34 89 35 32 36
REMARK SMILES IDX 88 37 33 38 34 39 35 40 82 41 36 42 87 43 81 44 83 45 37 46
REMARK SMILES IDX 86 47 80 48 79 49 38 51 68 52 49 53 67 54 50 55 53 56 66 57
REMARK SMILES IDX 84 58 51 59 52 60 65 62 85 63 54 64 39 65 40 66 48 67 41 68
REMARK SMILES IDX 47 69 42 70 43 71 44 72 45 73 46 74 69 75 70 76 78 77 71 78
REMARK SMILES IDX 77 79 72 80 73 81 74 82 75 83 76 84 55 85 56 86 64 87 57 88
REMARK SMILES IDX 63 89 58 90 59 91 60 92 61 93 62 94
REMARK H PARENT 22 6 10 15 27 31 83 50 53 61
REMARK Flexibility Score: inf
ROOT
ATOM      1  C   UNL A   1      35.085  22.860  26.986  1.00  0.00     0.023 C 
ENDROOT
BRANCH   1   2
ATOM      2  C   UNL A   1      33.913  21.937  27.314  1.00  0.00     0.116 C 
BRANCH   2   3
ATOM      3  N   UNL A   1      32.845  22.049  26.342  1.00  0.00    -0.356 N 
ATOM      4  O   UNL A   1      31.486  23.453  27.558  1.00  0.00    -0.275 OA
ATOM      5  C   UNL A   1      31.734  22.850  26.519  1.00  0.00     0.224 C 
ATOM      6  H   UNL A   1      32.915  21.527  25.511  1.00  0.00     0.163 HD
BRANCH   5   7
ATOM      7  C   UNL A   1      30.849  22.944  25.280  1.00  0.00     0.137 C 
BRANCH   7   8
ATOM      8  C   UNL A   1      31.617  23.449  24.074  1.00  0.00    -0.015 A 
ATOM      9  C   UNL A   1      32.136  22.494  23.172  1.00  0.00     0.006 A 
ATOM     10  C   UNL A   1      31.830  24.819  23.812  1.00  0.00     0.042 A 
ATOM     11  C   UNL A   1      32.894  22.872  22.068  1.00  0.00     0.000 A 
ATOM     12  C   UNL A   1      32.620  25.173  22.704  1.00  0.00     0.026 A 
ATOM     13  C   UNL A   1      33.151  24.214  21.842  1.00  0.00     0.002 A 
BRANCH  10  14
ATOM     14  N   UNL A   1      31.212  25.818  24.598  1.00  0.00    -0.354 N 
ATOM     15  H   UNL A   1      30.480  25.501  25.176  1.00  0.00     0.167 HD
BRANCH  14  16
ATOM     16  C   UNL A   1      31.487  27.204  24.679  1.00  0.00     0.070 A 
ATOM     17  C   UNL A   1      30.556  28.108  24.111  1.00  0.00     0.065 A 
ATOM     18  C   UNL A   1      32.586  27.743  25.381  1.00  0.00     0.080 A 
ATOM     19  Cl  UNL A   1      29.214  27.524  23.180  1.00  0.00    -0.082 Cl
ATOM     20  C   UNL A   1      30.667  29.490  24.286  1.00  0.00     0.023 A 
ATOM     21  C   UNL A   1      32.666  29.144  25.568  1.00  0.00     0.015 A 
ATOM     22  C   UNL A   1      31.715  30.007  25.034  1.00  0.00     0.002 A 
BRANCH  18  23
ATOM     23  C   UNL A   1      33.731  26.921  25.937  1.00  0.00     0.418 C 
ATOM     24  F   UNL A   1      34.570  26.502  24.938  1.00  0.00    -0.166 F 
ATOM     25  F   UNL A   1      34.527  27.638  26.779  1.00  0.00    -0.166 F 
ATOM     26  F   UNL A   1      33.384  25.781  26.590  1.00  0.00    -0.166 F 
ENDBRANCH  18  23
ENDBRANCH  14  16
ENDBRANCH  10  14
ENDBRANCH   7   8
ENDBRANCH   5   7
ENDBRANCH   2   3
ENDBRANCH   1   2
BRANCH   1  27
ATOM     27  C   UNL A   1      35.239  23.229  25.505  1.00  0.00     0.023 C 
BRANCH  27  28
ATOM     28  C   UNL A   1      36.632  23.691  25.085  1.00  0.00     0.116 C 
BRANCH  28  29
ATOM     29  N   UNL A   1      37.655  22.699  25.372  1.00  0.00    -0.352 N 
ATOM     30  C   UNL A   1      38.872  22.850  25.991  1.00  0.00     0.251 C 
ATOM     31  H   UNL A   1      37.444  21.783  25.080  1.00  0.00     0.163 HD
ATOM     32  O   UNL A   1      39.680  21.920  25.972  1.00  0.00    -0.269 OA
BRANCH  30  33
ATOM     33  C   UNL A   1      39.230  24.123  26.658  1.00  0.00     0.039 A 
ATOM     34  C   UNL A   1      38.799  24.344  27.969  1.00  0.00     0.014 A 
ATOM     35  C   UNL A   1      39.970  25.106  25.995  1.00  0.00     0.014 A 
ATOM     36  C   UNL A   1      39.167  25.517  28.636  1.00  0.00     0.010 A 
ATOM     37  C   UNL A   1      40.398  26.240  26.685  1.00  0.00     0.010 A 
ATOM     38  C   UNL A   1      40.002  26.459  28.013  1.00  0.00    -0.014 A 
BRANCH  38  39
ATOM     39  C   UNL A   1      40.480  27.667  28.741  1.00  0.00     0.031 A 
ATOM     40  C   UNL A   1      41.842  27.684  29.382  1.00  0.00     0.074 A 
ATOM     41  C   UNL A   1      39.662  28.731  28.875  1.00  0.00     0.049 A 
ATOM     42  N   UNL A   1      42.403  28.623  30.102  1.00  0.00    -0.248 NA
ATOM     43  C   UNL A   1      42.673  26.482  29.214  1.00  0.00     0.031 C 
ATOM     44  C   UNL A   1      38.305  28.831  28.335  1.00  0.00     0.029 A 
ATOM     45  N   UNL A   1      39.850  29.931  29.517  1.00  0.00    -0.354 N 
ATOM     46  C   UNL A   1      43.644  28.123  30.479  1.00  0.00     0.074 A 
ATOM     47  C   UNL A   1      43.731  26.777  29.956  1.00  0.00     0.031 C 
ATOM     48  C   UNL A   1      37.793  30.033  28.645  1.00  0.00     0.029 A 
ATOM     49  C   UNL A   1      38.764  30.774  29.445  1.00  0.00     0.049 A 
ATOM     50  H   UNL A   1      40.683  30.167  29.985  1.00  0.00     0.167 HD
ATOM     51  C   UNL A   1      44.629  28.733  31.181  1.00  0.00     0.031 A 
ATOM     52  C   UNL A   1      38.563  31.998  29.970  1.00  0.00     0.031 A 
ATOM     53  C   UNL A   1      44.542  30.071  31.703  1.00  0.00     0.049 A 
ATOM     54  C   UNL A   1      39.661  32.645  30.768  1.00  0.00     0.074 A 
ATOM     55  C   UNL A   1      45.505  30.793  32.388  1.00  0.00     0.029 A 
ATOM     56  N   UNL A   1      43.426  30.890  31.605  1.00  0.00    -0.354 N 
ATOM     57  N   UNL A   1      40.853  32.178  31.061  1.00  0.00    -0.248 NA
ATOM     58  C   UNL A   1      39.394  33.990  31.297  1.00  0.00     0.031 C 
ATOM     59  C   UNL A   1      44.950  32.023  32.756  1.00  0.00     0.029 A 
ATOM     60  C   UNL A   1      43.666  32.098  32.241  1.00  0.00     0.049 A 
ATOM     61  H   UNL A   1      42.586  30.649  31.152  1.00  0.00     0.167 HD
ATOM     62  C   UNL A   1      41.486  33.184  31.783  1.00  0.00     0.074 A 
ATOM     63  C   UNL A   1      40.553  34.288  31.869  1.00  0.00     0.031 C 
ATOM     64  C   UNL A   1      42.729  33.190  32.324  1.00  0.00     0.031 A 
BRANCH  51  65
ATOM     65  C   UNL A   1      45.893  27.948  31.434  1.00  0.00    -0.014 A 
ATOM     66  C   UNL A   1      46.009  27.094  32.546  1.00  0.00     0.010 A 
ATOM     67  C   UNL A   1      46.966  28.036  30.527  1.00  0.00     0.010 A 
ATOM     68  C   UNL A   1      47.189  26.380  32.772  1.00  0.00     0.020 A 
ATOM     69  C   UNL A   1      48.137  27.299  30.733  1.00  0.00     0.020 A 
ATOM     70  C   UNL A   1      48.247  26.491  31.865  1.00  0.00     0.054 A 
BRANCH  70  71
ATOM     71  S   UNL A   1      49.761  25.542  32.180  1.00  0.00     0.124 S 
ATOM     72  O   UNL A   1      49.363  24.707  33.311  1.00  0.00    -0.237 OA
ATOM     73  O   UNL A   1      49.964  24.836  30.918  1.00  0.00    -0.237 OA
ATOM     74  O   UNL A   1      50.757  26.568  32.484  1.00  0.00    -0.744 OA
ENDBRANCH  70  71
ENDBRANCH  51  65
BRANCH  52  75
ATOM     75  C   UNL A   1      37.263  32.693  29.752  1.00  0.00    -0.014 A 
ATOM     76  C   UNL A   1      36.306  32.763  30.779  1.00  0.00     0.010 A 
ATOM     77  C   UNL A   1      36.984  33.305  28.516  1.00  0.00     0.010 A 
ATOM     78  C   UNL A   1      35.088  33.418  30.570  1.00  0.00     0.020 A 
ATOM     79  C   UNL A   1      35.782  33.987  28.313  1.00  0.00     0.020 A 
ATOM     80  C   UNL A   1      34.836  34.030  29.339  1.00  0.00     0.054 A 
BRANCH  80  81
ATOM     81  S   UNL A   1      33.274  34.925  29.111  1.00  0.00     0.124 S 
ATOM     82  O   UNL A   1      32.698  34.878  30.450  1.00  0.00    -0.237 OA
ATOM     83  O   UNL A   1      33.726  36.238  28.660  1.00  0.00    -0.237 OA
ATOM     84  O   UNL A   1      32.574  34.136  28.099  1.00  0.00    -0.744 OA
ENDBRANCH  80  81
ENDBRANCH  52  75
BRANCH  64  85
ATOM     85  C   UNL A   1      43.176  34.446  33.030  1.00  0.00    -0.014 A 
ATOM     86  C   UNL A   1      43.761  35.514  32.326  1.00  0.00     0.010 A 
ATOM     87  C   UNL A   1      42.955  34.577  34.414  1.00  0.00     0.010 A 
ATOM     88  C   UNL A   1      44.146  36.677  32.999  1.00  0.00     0.020 A 
ATOM     89  C   UNL A   1      43.309  35.751  35.084  1.00  0.00     0.020 A 
ATOM     90  C   UNL A   1      43.916  36.789  34.374  1.00  0.00     0.054 A 
BRANCH  90  91
ATOM     91  S   UNL A   1      44.383  38.326  35.215  1.00  0.00     0.124 S 
ATOM     92  O   UNL A   1      43.643  39.328  34.453  1.00  0.00    -0.237 OA
ATOM     93  O   UNL A   1      43.912  38.099  36.580  1.00  0.00    -0.237 OA
ATOM     94  O   UNL A   1      45.836  38.377  35.066  1.00  0.00    -0.744 OA
ENDBRANCH  90  91
ENDBRANCH  64  85
ENDBRANCH  38  39
ENDBRANCH  30  33
ENDBRANCH  28  29
ENDBRANCH  27  28
ENDBRANCH   1  27
TORSDOF 18
ENDMDL
MODEL 3
REMARK VINA RESULT:     -10.6      4.519     10.231
REMARK SMILES O=C(Cc1ccccc1Nc1c(Cl)cccc1C(F)(F)F)NCCCCNC(=O)c1ccc(-c2c3nc(c(-c4ccc(S(=O)(=O)[O-])cc4)c4ccc([nH]4)c(-c4ccc(S(=O)(=O)[O-])cc4)c4nc(c(-c5ccc(S(=O)(=O)[O-])cc5)c5ccc2[nH]5)C=C4)C=C3)cc1
REMARK SMILES IDX 24 1 23 2 22 3 1 4 2 5 3 7 4 8 5 9 9 10 6 11 8 12 7 13 10 14
REMARK SMILES IDX 11 16 12 17 17 18 13 19 14 20 16 21 15 22 18 23 19 24 20 25
REMARK SMILES IDX 21 26 25 27 26 28 27 29 28 30 29 32 30 33 31 34 89 35 32 36
REMARK SMILES IDX 88 37 33 38 34 39 35 40 82 41 36 42 87 43 81 44 83 45 37 46
REMARK SMILES IDX 86 47 80 48 79 49 38 51 68 52 49 53 67 54 50 55 53 56 66 57
REMARK SMILES IDX 84 58 51 59 52 60 65 62 85 63 54 64 39 65 40 66 48 67 41 68
REMARK SMILES IDX 47 69 42 70 43 71 44 72 45 73 46 74 69 75 70 76 78 77 71 78
REMARK SMILES IDX 77 79 72 80 73 81 74 82 75 83 76 84 55 85 56 86 64 87 57 88
REMARK SMILES IDX 63 89 58 90 59 91 60 92 61 93 62 94
REMARK H PARENT 22 6 10 15 27 31 83 50 53 61
REMARK Flexibility Score: inf
ROOT
ATOM      1  C   UNL A   1      38.891  21.594  26.130  1.00  0.00     0.023 C 
ENDROOT
BRANCH   1   2
ATOM      2  C   UNL A   1      37.951  22.731  25.733  1.00  0.00     0.116 C 
BRANCH   2   3
ATOM      3  N   UNL A   1      36.586  22.473  26.142  1.00  0.00    -0.356 N 
ATOM      4  O   UNL A   1      35.657  24.405  25.303  1.00  0.00    -0.275 OA
ATOM      5  C   UNL A   1      35.529  23.310  25.841  1.00  0.00     0.224 C 
ATOM      6  H   UNL A   1      36.401  21.658  26.662  1.00  0.00     0.163 HD
BRANCH   5   7
ATOM      7  C   UNL A   1      34.169  22.731  26.217  1.00  0.00     0.137 C 
BRANCH   7   8
ATOM      8  C   UNL A   1      33.406  22.245  24.999  1.00  0.00    -0.015 A 
ATOM      9  C   UNL A   1      33.226  20.853  24.842  1.00  0.00     0.006 A 
ATOM     10  C   UNL A   1      32.870  23.115  24.026  1.00  0.00     0.042 A 
ATOM     11  C   UNL A   1      32.581  20.323  23.729  1.00  0.00     0.000 A 
ATOM     12  C   UNL A   1      32.245  22.553  22.899  1.00  0.00     0.026 A 
ATOM     13  C   UNL A   1      32.104  21.174  22.746  1.00  0.00     0.002 A 
BRANCH  10  14
ATOM     14  N   UNL A   1      32.894  24.516  24.206  1.00  0.00    -0.354 N 
ATOM     15  H   UNL A   1      33.743  24.879  24.547  1.00  0.00     0.167 HD
BRANCH  14  16
ATOM     16  C   UNL A   1      31.881  25.476  23.969  1.00  0.00     0.070 A 
ATOM     17  C   UNL A   1      32.029  26.351  22.865  1.00  0.00     0.065 A 
ATOM     18  C   UNL A   1      30.683  25.548  24.713  1.00  0.00     0.080 A 
ATOM     19  Cl  UNL A   1      33.497  26.367  21.942  1.00  0.00    -0.082 Cl
ATOM     20  C   UNL A   1      31.007  27.216  22.466  1.00  0.00     0.023 A 
ATOM     21  C   UNL A   1      29.651  26.413  24.276  1.00  0.00     0.015 A 
ATOM     22  C   UNL A   1      29.807  27.232  23.162  1.00  0.00     0.002 A 
BRANCH  18  23
ATOM     23  C   UNL A   1      30.422  24.775  25.989  1.00  0.00     0.418 C 
ATOM     24  F   UNL A   1      31.412  24.994  26.911  1.00  0.00    -0.166 F 
ATOM     25  F   UNL A   1      29.276  25.170  26.612  1.00  0.00    -0.166 F 
ATOM     26  F   UNL A   1      30.364  23.423  25.866  1.00  0.00    -0.166 F 
ENDBRANCH  18  23
ENDBRANCH  14  16
ENDBRANCH  10  14
ENDBRANCH   7   8
ENDBRANCH   5   7
ENDBRANCH   2   3
ENDBRANCH   1   2
BRANCH   1  27
ATOM     27  C   UNL A   1      40.170  22.020  26.862  1.00  0.00     0.023 C 
BRANCH  27  28
ATOM     28  C   UNL A   1      40.325  23.521  27.094  1.00  0.00     0.116 C 
BRANCH  28  29
ATOM     29  N   UNL A   1      41.153  24.155  26.081  1.00  0.00    -0.352 N 
ATOM     30  C   UNL A   1      41.537  25.469  25.960  1.00  0.00     0.251 C 
ATOM     31  H   UNL A   1      41.489  23.553  25.379  1.00  0.00     0.163 HD
ATOM     32  O   UNL A   1      42.087  25.844  24.924  1.00  0.00    -0.269 OA
BRANCH  30  33
ATOM     33  C   UNL A   1      41.274  26.438  27.048  1.00  0.00     0.039 A 
ATOM     34  C   UNL A   1      40.312  26.127  28.013  1.00  0.00     0.014 A 
ATOM     35  C   UNL A   1      41.954  27.657  27.113  1.00  0.00     0.014 A 
ATOM     36  C   UNL A   1      40.082  27.004  29.077  1.00  0.00     0.010 A 
ATOM     37  C   UNL A   1      41.776  28.496  28.213  1.00  0.00     0.010 A 
ATOM     38  C   UNL A   1      40.839  28.180  29.209  1.00  0.00    -0.014 A 
BRANCH  38  39
ATOM     39  C   UNL A   1      40.674  29.077  30.385  1.00  0.00     0.031 A 
ATOM     40  C   UNL A   1      41.531  28.899  31.610  1.00  0.00     0.074 A 
ATOM     41  C   UNL A   1      39.709  30.019  30.374  1.00  0.00     0.049 A 
ATOM     42  N   UNL A   1      41.491  29.548  32.746  1.00  0.00    -0.248 NA
ATOM     43  C   UNL A   1      42.550  27.839  31.561  1.00  0.00     0.031 C 
ATOM     44  C   UNL A   1      38.785  30.273  29.266  1.00  0.00     0.029 A 
ATOM     45  N   UNL A   1      39.337  30.934  31.329  1.00  0.00    -0.354 N 
ATOM     46  C   UNL A   1      42.468  28.971  33.549  1.00  0.00     0.074 A 
ATOM     47  C   UNL A   1      43.047  27.883  32.789  1.00  0.00     0.031 C 
ATOM     48  C   UNL A   1      37.972  31.290  29.594  1.00  0.00     0.029 A 
ATOM     49  C   UNL A   1      38.282  31.733  30.950  1.00  0.00     0.049 A 
ATOM     50  H   UNL A   1      39.783  31.011  32.203  1.00  0.00     0.167 HD
ATOM     51  C   UNL A   1      42.863  29.323  34.796  1.00  0.00     0.031 A 
ATOM     52  C   UNL A   1      37.627  32.703  31.618  1.00  0.00     0.031 A 
ATOM     53  C   UNL A   1      42.286  30.404  35.552  1.00  0.00     0.049 A 
ATOM     54  C   UNL A   1      38.065  33.060  33.012  1.00  0.00     0.074 A 
ATOM     55  C   UNL A   1      42.648  30.867  36.805  1.00  0.00     0.029 A 
ATOM     56  N   UNL A   1      41.222  31.188  35.130  1.00  0.00    -0.354 N 
ATOM     57  N   UNL A   1      39.034  32.541  33.730  1.00  0.00    -0.248 NA
ATOM     58  C   UNL A   1      37.330  34.141  33.683  1.00  0.00     0.031 C 
ATOM     59  C   UNL A   1      41.765  31.890  37.166  1.00  0.00     0.029 A 
ATOM     60  C   UNL A   1      40.897  32.113  36.109  1.00  0.00     0.049 A 
ATOM     61  H   UNL A   1      40.764  31.101  34.263  1.00  0.00     0.167 HD
ATOM     62  C   UNL A   1      39.042  33.253  34.924  1.00  0.00     0.074 A 
ATOM     63  C   UNL A   1      37.994  34.247  34.826  1.00  0.00     0.031 C 
ATOM     64  C   UNL A   1      39.848  33.097  36.003  1.00  0.00     0.031 A 
BRANCH  51  65
ATOM     65  C   UNL A   1      43.972  28.520  35.428  1.00  0.00    -0.014 A 
ATOM     66  C   UNL A   1      43.694  27.379  36.204  1.00  0.00     0.010 A 
ATOM     67  C   UNL A   1      45.314  28.889  35.215  1.00  0.00     0.010 A 
ATOM     68  C   UNL A   1      44.732  26.651  36.792  1.00  0.00     0.020 A 
ATOM     69  C   UNL A   1      46.357  28.144  35.775  1.00  0.00     0.020 A 
ATOM     70  C   UNL A   1      46.058  27.041  36.576  1.00  0.00     0.054 A 
BRANCH  70  71
ATOM     71  S   UNL A   1      47.383  26.068  37.342  1.00  0.00     0.124 S 
ATOM     72  O   UNL A   1      47.827  25.234  36.227  1.00  0.00    -0.237 OA
ATOM     73  O   UNL A   1      48.327  27.096  37.772  1.00  0.00    -0.237 OA
ATOM     74  O   UNL A   1      46.709  25.353  38.424  1.00  0.00    -0.744 OA
ENDBRANCH  70  71
ENDBRANCH  51  65
BRANCH  52  75
ATOM     75  C   UNL A   1      36.487  33.409  30.969  1.00  0.00    -0.014 A 
ATOM     76  C   UNL A   1      35.276  33.598  31.657  1.00  0.00     0.010 A 
ATOM     77  C   UNL A   1      36.615  33.912  29.662  1.00  0.00     0.010 A 
ATOM     78  C   UNL A   1      34.208  34.263  31.044  1.00  0.00     0.020 A 
ATOM     79  C   UNL A   1      35.563  34.604  29.057  1.00  0.00     0.020 A 
ATOM     80  C   UNL A   1      34.361  34.766  29.749  1.00  0.00     0.054 A 
BRANCH  80  81
ATOM     81  S   UNL A   1      32.983  35.676  28.997  1.00  0.00     0.124 S 
ATOM     82  O   UNL A   1      33.676  36.749  28.292  1.00  0.00    -0.237 OA
ATOM     83  O   UNL A   1      32.359  34.661  28.153  1.00  0.00    -0.237 OA
ATOM     84  O   UNL A   1      32.184  36.096  30.147  1.00  0.00    -0.744 OA
ENDBRANCH  80  81
ENDBRANCH  52  75
BRANCH  64  85
ATOM     85  C   UNL A   1      39.657  34.046  37.159  1.00  0.00    -0.014 A 
ATOM     86  C   UNL A   1      38.848  33.709  38.259  1.00  0.00     0.010 A 
ATOM     87  C   UNL A   1      40.344  35.274  37.167  1.00  0.00     0.010 A 
ATOM     88  C   UNL A   1      38.705  34.596  39.329  1.00  0.00     0.020 A 
ATOM     89  C   UNL A   1      40.229  36.150  38.249  1.00  0.00     0.020 A 
ATOM     90  C   UNL A   1      39.397  35.811  39.319  1.00  0.00     0.054 A 
BRANCH  90  91
ATOM     91  S   UNL A   1      39.230  36.924  40.740  1.00  0.00     0.124 S 
ATOM     92  O   UNL A   1      38.377  37.980  40.201  1.00  0.00    -0.237 OA
ATOM     93  O   UNL A   1      38.608  36.066  41.746  1.00  0.00    -0.237 OA
ATOM     94  O   UNL A   1      40.605  37.323  41.035  1.00  0.00    -0.744 OA
ENDBRANCH  90  91
ENDBRANCH  64  85
ENDBRANCH  38  39
ENDBRANCH  30  33
ENDBRANCH  28  29
ENDBRANCH  27  28
ENDBRANCH   1  27
TORSDOF 18
ENDMDL
