MODEL 1
REMARK VINA RESULT:     -11.1      0.000      0.000
REMARK SMILES C[C@@]([NH2+]CC(=O)Nc1cccc(F)c1)(C(=O)NCCCCNC(=O)c1ccc(-c2c3nc(c(-c4ccc(S(=O)(=O)[O-])cc4)c4ccc([nH]4)c(-c4ccc(S(=O)(=O)[O-])cc4)c4nc(c(-c5ccc(S(=O)(=O)[O-])cc5)c5ccc2[nH]5)C=C4)C=C3)cc1)C(F)(F)F
REMARK SMILES IDX 19 1 18 2 17 3 15 4 16 5 2 7 1 8 3 9 4 12 5 13 6 14 7 15
REMARK SMILES IDX 8 17 9 18 14 19 10 20 12 21 11 22 13 23 85 24 86 25 87 26
REMARK SMILES IDX 88 27 20 28 21 29 22 30 23 31 24 33 25 34 26 35 84 36 27 37
REMARK SMILES IDX 83 38 28 39 29 40 30 41 77 42 31 43 82 44 76 45 78 46 32 47
REMARK SMILES IDX 81 48 75 49 74 50 33 52 63 53 44 54 62 55 45 56 48 57 61 58
REMARK SMILES IDX 79 59 46 60 47 61 60 63 80 64 49 65 34 66 35 67 43 68 36 69
REMARK SMILES IDX 42 70 37 71 38 72 39 73 40 74 41 75 64 76 65 77 73 78 66 79
REMARK SMILES IDX 72 80 67 81 68 82 69 83 70 84 71 85 50 86 51 87 59 88 52 89
REMARK SMILES IDX 58 90 53 91 54 92 55 93 56 94 57 95
REMARK H PARENT 17 6 3 10 3 11 7 16 22 32 78 51 48 62
REMARK Flexibility Score: inf
ROOT
ATOM      1  C   UNL A   1      37.356  21.414  24.737  1.00  0.00     0.023 C 
ENDROOT
BRANCH   1   2
ATOM      2  C   UNL A   1      36.233  21.677  25.738  1.00  0.00     0.116 C 
BRANCH   2   3
ATOM      3  N   UNL A   1      35.163  20.759  25.452  1.00  0.00    -0.350 N 
ATOM      4  C   UNL A   1      33.920  20.832  24.924  1.00  0.00     0.290 C 
ATOM      5  O   UNL A   1      33.606  19.672  24.654  1.00  0.00    -0.267 OA
ATOM      6  H   UNL A   1      35.395  19.838  25.708  1.00  0.00     0.163 HD
BRANCH   4   7
ATOM      7  C   UNL A   1      33.201  22.151  24.343  1.00  0.00     0.268 C 
ATOM      8  C   UNL A   1      32.236  21.601  23.254  1.00  0.00     0.101 C 
BRANCH   7   9
ATOM      9  N   UNL A   1      32.735  22.753  25.646  1.00  0.00    -0.318 N 
ATOM     10  H   UNL A   1      32.811  23.768  25.589  1.00  0.00     0.347 HD
ATOM     11  H   UNL A   1      33.321  22.390  26.397  1.00  0.00     0.347 HD
BRANCH   9  12
ATOM     12  C   UNL A   1      31.267  22.373  25.941  1.00  0.00     0.363 C 
BRANCH  12  13
ATOM     13  C   UNL A   1      30.245  23.368  26.625  1.00  0.00     0.279 C 
ATOM     14  O   UNL A   1      29.662  22.917  27.635  1.00  0.00    -0.268 OA
ATOM     15  N   UNL A   1      29.895  24.680  26.371  1.00  0.00    -0.321 N 
ATOM     16  H   UNL A   1      29.113  24.935  26.910  1.00  0.00     0.170 HD
BRANCH  15  17
ATOM     17  C   UNL A   1      30.318  25.776  25.567  1.00  0.00     0.044 A 
ATOM     18  C   UNL A   1      29.991  25.967  24.213  1.00  0.00     0.026 A 
ATOM     19  C   UNL A   1      31.025  26.809  26.178  1.00  0.00     0.065 A 
ATOM     20  C   UNL A   1      30.548  26.993  23.431  1.00  0.00     0.005 A 
ATOM     21  C   UNL A   1      31.544  27.861  25.411  1.00  0.00     0.125 A 
ATOM     22  C   UNL A   1      31.352  27.939  24.037  1.00  0.00     0.039 A 
ATOM     23  F   UNL A   1      32.262  28.817  26.016  1.00  0.00    -0.207 F 
ENDBRANCH  15  17
ENDBRANCH  12  13
ENDBRANCH   9  12
ENDBRANCH   7   9
BRANCH   7  24
ATOM     24  C   UNL A   1      33.710  23.422  23.506  1.00  0.00     0.453 C 
ATOM     25  F   UNL A   1      34.647  24.189  24.086  1.00  0.00    -0.164 F 
ATOM     26  F   UNL A   1      34.319  22.954  22.360  1.00  0.00    -0.164 F 
ATOM     27  F   UNL A   1      32.757  24.229  23.009  1.00  0.00    -0.164 F 
ENDBRANCH   7  24
ENDBRANCH   4   7
ENDBRANCH   2   3
ENDBRANCH   1   2
BRANCH   1  28
ATOM     28  C   UNL A   1      38.238  20.214  25.113  1.00  0.00     0.023 C 
BRANCH  28  29
ATOM     29  C   UNL A   1      39.382  20.547  26.067  1.00  0.00     0.116 C 
BRANCH  29  30
ATOM     30  N   UNL A   1      40.373  19.480  26.121  1.00  0.00    -0.352 N 
ATOM     31  C   UNL A   1      41.735  19.572  26.180  1.00  0.00     0.251 C 
ATOM     32  H   UNL A   1      40.010  18.565  26.116  1.00  0.00     0.163 HD
ATOM     33  O   UNL A   1      42.428  18.565  26.028  1.00  0.00    -0.269 OA
BRANCH  31  34
ATOM     34  C   UNL A   1      42.357  20.886  26.402  1.00  0.00     0.039 A 
ATOM     35  C   UNL A   1      42.678  21.676  25.299  1.00  0.00     0.014 A 
ATOM     36  C   UNL A   1      42.592  21.342  27.703  1.00  0.00     0.014 A 
ATOM     37  C   UNL A   1      43.190  22.956  25.503  1.00  0.00     0.010 A 
ATOM     38  C   UNL A   1      43.029  22.645  27.903  1.00  0.00     0.010 A 
ATOM     39  C   UNL A   1      43.338  23.462  26.806  1.00  0.00    -0.014 A 
BRANCH  39  40
ATOM     40  C   UNL A   1      43.817  24.845  27.038  1.00  0.00     0.031 A 
ATOM     41  C   UNL A   1      45.274  25.176  26.868  1.00  0.00     0.074 A 
ATOM     42  C   UNL A   1      42.947  25.786  27.455  1.00  0.00     0.049 A 
ATOM     43  N   UNL A   1      45.888  26.313  27.070  1.00  0.00    -0.248 NA
ATOM     44  C   UNL A   1      46.161  24.082  26.441  1.00  0.00     0.031 C 
ATOM     45  C   UNL A   1      41.517  25.572  27.697  1.00  0.00     0.029 A 
ATOM     46  N   UNL A   1      43.138  27.111  27.755  1.00  0.00    -0.354 N 
ATOM     47  C   UNL A   1      47.230  26.069  26.804  1.00  0.00     0.074 A 
ATOM     48  C   UNL A   1      47.350  24.664  26.485  1.00  0.00     0.031 C 
ATOM     49  C   UNL A   1      40.958  26.731  28.080  1.00  0.00     0.029 A 
ATOM     50  C   UNL A   1      41.993  27.757  28.155  1.00  0.00     0.049 A 
ATOM     51  H   UNL A   1      44.013  27.557  27.690  1.00  0.00     0.167 HD
ATOM     52  C   UNL A   1      48.265  26.942  26.803  1.00  0.00     0.031 A 
ATOM     53  C   UNL A   1      41.798  29.031  28.547  1.00  0.00     0.031 A 
ATOM     54  C   UNL A   1      48.136  28.340  27.121  1.00  0.00     0.049 A 
ATOM     55  C   UNL A   1      42.967  29.977  28.558  1.00  0.00     0.074 A 
ATOM     56  C   UNL A   1      49.114  29.319  27.104  1.00  0.00     0.029 A 
ATOM     57  N   UNL A   1      46.958  28.957  27.514  1.00  0.00    -0.354 N 
ATOM     58  N   UNL A   1      44.218  29.744  28.239  1.00  0.00    -0.248 NA
ATOM     59  C   UNL A   1      42.696  31.361  28.968  1.00  0.00     0.031 C 
ATOM     60  C   UNL A   1      48.541  30.515  27.545  1.00  0.00     0.029 A 
ATOM     61  C   UNL A   1      47.190  30.299  27.769  1.00  0.00     0.049 A 
ATOM     62  H   UNL A   1      46.086  28.508  27.601  1.00  0.00     0.167 HD
ATOM     63  C   UNL A   1      44.878  30.959  28.383  1.00  0.00     0.074 A 
ATOM     64  C   UNL A   1      43.884  31.927  28.800  1.00  0.00     0.031 C 
ATOM     65  C   UNL A   1      46.188  31.248  28.186  1.00  0.00     0.031 A 
BRANCH  52  66
ATOM     66  C   UNL A   1      49.627  26.406  26.450  1.00  0.00    -0.014 A 
ATOM     67  C   UNL A   1      50.451  25.814  27.425  1.00  0.00     0.010 A 
ATOM     68  C   UNL A   1      50.077  26.459  25.118  1.00  0.00     0.010 A 
ATOM     69  C   UNL A   1      51.715  25.324  27.084  1.00  0.00     0.020 A 
ATOM     70  C   UNL A   1      51.328  25.942  24.767  1.00  0.00     0.020 A 
ATOM     71  C   UNL A   1      52.145  25.393  25.756  1.00  0.00     0.054 A 
BRANCH  71  72
ATOM     72  S   UNL A   1      53.780  24.728  25.341  1.00  0.00     0.124 S 
ATOM     73  O   UNL A   1      54.170  25.568  24.211  1.00  0.00    -0.237 OA
ATOM     74  O   UNL A   1      54.535  24.943  26.573  1.00  0.00    -0.237 OA
ATOM     75  O   UNL A   1      53.513  23.329  25.013  1.00  0.00    -0.744 OA
ENDBRANCH  71  72
ENDBRANCH  52  66
BRANCH  53  76
ATOM     76  C   UNL A   1      40.439  29.482  28.956  1.00  0.00    -0.014 A 
ATOM     77  C   UNL A   1      40.137  29.713  30.311  1.00  0.00     0.010 A 
ATOM     78  C   UNL A   1      39.441  29.697  27.989  1.00  0.00     0.010 A 
ATOM     79  C   UNL A   1      38.857  30.129  30.689  1.00  0.00     0.020 A 
ATOM     80  C   UNL A   1      38.169  30.144  28.360  1.00  0.00     0.020 A 
ATOM     81  C   UNL A   1      37.882  30.346  29.711  1.00  0.00     0.054 A 
BRANCH  81  82
ATOM     82  S   UNL A   1      36.244  30.934  30.221  1.00  0.00     0.124 S 
ATOM     83  O   UNL A   1      35.906  30.002  31.292  1.00  0.00    -0.237 OA
ATOM     84  O   UNL A   1      36.520  32.307  30.640  1.00  0.00    -0.237 OA
ATOM     85  O   UNL A   1      35.442  30.812  29.007  1.00  0.00    -0.744 OA
ENDBRANCH  81  82
ENDBRANCH  53  76
BRANCH  65  86
ATOM     86  C   UNL A   1      46.621  32.678  28.383  1.00  0.00    -0.014 A 
ATOM     87  C   UNL A   1      47.076  33.140  29.630  1.00  0.00     0.010 A 
ATOM     88  C   UNL A   1      46.624  33.557  27.284  1.00  0.00     0.010 A 
ATOM     89  C   UNL A   1      47.496  34.464  29.782  1.00  0.00     0.020 A 
ATOM     90  C   UNL A   1      47.072  34.872  27.424  1.00  0.00     0.020 A 
ATOM     91  C   UNL A   1      47.493  35.321  28.677  1.00  0.00     0.054 A 
BRANCH  91  92
ATOM     92  S   UNL A   1      48.085  37.022  28.891  1.00  0.00     0.124 S 
ATOM     93  O   UNL A   1      46.836  37.777  28.924  1.00  0.00    -0.237 OA
ATOM     94  O   UNL A   1      48.810  36.950  30.158  1.00  0.00    -0.237 OA
ATOM     95  O   UNL A   1      48.921  37.250  27.714  1.00  0.00    -0.744 OA
ENDBRANCH  91  92
ENDBRANCH  65  86
ENDBRANCH  39  40
ENDBRANCH  31  34
ENDBRANCH  29  30
ENDBRANCH  28  29
ENDBRANCH   1  28
TORSDOF 19
ENDMDL
MODEL 2
REMARK VINA RESULT:     -11.0      0.668      8.170
REMARK SMILES C[C@@]([NH2+]CC(=O)Nc1cccc(F)c1)(C(=O)NCCCCNC(=O)c1ccc(-c2c3nc(c(-c4ccc(S(=O)(=O)[O-])cc4)c4ccc([nH]4)c(-c4ccc(S(=O)(=O)[O-])cc4)c4nc(c(-c5ccc(S(=O)(=O)[O-])cc5)c5ccc2[nH]5)C=C4)C=C3)cc1)C(F)(F)F
REMARK SMILES IDX 19 1 18 2 17 3 15 4 16 5 2 7 1 8 3 9 4 12 5 13 6 14 7 15
REMARK SMILES IDX 8 17 9 18 14 19 10 20 12 21 11 22 13 23 85 24 86 25 87 26
REMARK SMILES IDX 88 27 20 28 21 29 22 30 23 31 24 33 25 34 26 35 84 36 27 37
REMARK SMILES IDX 83 38 28 39 29 40 30 41 77 42 31 43 82 44 76 45 78 46 32 47
REMARK SMILES IDX 81 48 75 49 74 50 33 52 63 53 44 54 62 55 45 56 48 57 61 58
REMARK SMILES IDX 79 59 46 60 47 61 60 63 80 64 49 65 34 66 35 67 43 68 36 69
REMARK SMILES IDX 42 70 37 71 38 72 39 73 40 74 41 75 64 76 65 77 73 78 66 79
REMARK SMILES IDX 72 80 67 81 68 82 69 83 70 84 71 85 50 86 51 87 59 88 52 89
REMARK SMILES IDX 58 90 53 91 54 92 55 93 56 94 57 95
REMARK H PARENT 17 6 3 10 3 11 7 16 22 32 78 51 48 62
REMARK Flexibility Score: inf
ROOT
ATOM      1  C   UNL A   1      37.206  21.710  24.806  1.00  0.00     0.023 C 
ENDROOT
BRANCH   1   2
ATOM      2  C   UNL A   1      36.076  21.800  25.830  1.00  0.00     0.116 C 
BRANCH   2   3
ATOM      3  N   UNL A   1      35.087  20.813  25.484  1.00  0.00    -0.350 N 
ATOM      4  C   UNL A   1      33.891  20.799  24.852  1.00  0.00     0.290 C 
ATOM      5  O   UNL A   1      33.667  19.617  24.593  1.00  0.00    -0.267 OA
ATOM      6  H   UNL A   1      35.349  19.914  25.786  1.00  0.00     0.163 HD
BRANCH   4   7
ATOM      7  C   UNL A   1      33.150  22.059  24.175  1.00  0.00     0.268 C 
ATOM      8  C   UNL A   1      32.161  21.411  23.164  1.00  0.00     0.101 C 
BRANCH   7   9
ATOM      9  N   UNL A   1      32.713  22.772  25.431  1.00  0.00    -0.318 N 
ATOM     10  H   UNL A   1      32.768  23.779  25.277  1.00  0.00     0.347 HD
ATOM     11  H   UNL A   1      33.329  22.491  26.193  1.00  0.00     0.347 HD
BRANCH   9  12
ATOM     12  C   UNL A   1      31.263  22.399  25.807  1.00  0.00     0.363 C 
BRANCH  12  13
ATOM     13  C   UNL A   1      30.329  23.346  26.663  1.00  0.00     0.279 C 
ATOM     14  O   UNL A   1      29.788  22.803  27.651  1.00  0.00    -0.268 OA
ATOM     15  N   UNL A   1      30.022  24.691  26.580  1.00  0.00    -0.321 N 
ATOM     16  H   UNL A   1      29.285  24.911  27.195  1.00  0.00     0.170 HD
BRANCH  15  17
ATOM     17  C   UNL A   1      30.444  25.855  25.879  1.00  0.00     0.044 A 
ATOM     18  C   UNL A   1      31.368  26.802  26.356  1.00  0.00     0.026 A 
ATOM     19  C   UNL A   1      30.001  26.035  24.572  1.00  0.00     0.065 A 
ATOM     20  C   UNL A   1      31.645  28.003  25.682  1.00  0.00     0.005 A 
ATOM     21  C   UNL A   1      30.313  27.211  23.875  1.00  0.00     0.125 A 
ATOM     22  C   UNL A   1      31.092  28.217  24.434  1.00  0.00     0.039 A 
ATOM     23  F   UNL A   1      29.835  27.382  22.635  1.00  0.00    -0.207 F 
ENDBRANCH  15  17
ENDBRANCH  12  13
ENDBRANCH   9  12
ENDBRANCH   7   9
BRANCH   7  24
ATOM     24  C   UNL A   1      33.631  23.252  23.216  1.00  0.00     0.453 C 
ATOM     25  F   UNL A   1      33.339  24.500  23.614  1.00  0.00    -0.164 F 
ATOM     26  F   UNL A   1      35.010  23.226  23.171  1.00  0.00    -0.164 F 
ATOM     27  F   UNL A   1      33.305  23.140  21.917  1.00  0.00    -0.164 F 
ENDBRANCH   7  24
ENDBRANCH   4   7
ENDBRANCH   2   3
ENDBRANCH   1   2
BRANCH   1  28
ATOM     28  C   UNL A   1      38.124  20.496  25.018  1.00  0.00     0.023 C 
BRANCH  28  29
ATOM     29  C   UNL A   1      39.253  20.727  26.018  1.00  0.00     0.116 C 
BRANCH  29  30
ATOM     30  N   UNL A   1      40.180  19.603  26.061  1.00  0.00    -0.352 N 
ATOM     31  C   UNL A   1      41.545  19.615  26.133  1.00  0.00     0.251 C 
ATOM     32  H   UNL A   1      39.765  18.711  26.035  1.00  0.00     0.163 HD
ATOM     33  O   UNL A   1      42.179  18.572  25.969  1.00  0.00    -0.269 OA
BRANCH  31  34
ATOM     34  C   UNL A   1      42.240  20.886  26.385  1.00  0.00     0.039 A 
ATOM     35  C   UNL A   1      42.597  21.687  25.302  1.00  0.00     0.014 A 
ATOM     36  C   UNL A   1      42.508  21.293  27.696  1.00  0.00     0.014 A 
ATOM     37  C   UNL A   1      43.180  22.931  25.536  1.00  0.00     0.010 A 
ATOM     38  C   UNL A   1      43.017  22.564  27.929  1.00  0.00     0.010 A 
ATOM     39  C   UNL A   1      43.364  23.392  26.851  1.00  0.00    -0.014 A 
BRANCH  39  40
ATOM     40  C   UNL A   1      43.920  24.740  27.117  1.00  0.00     0.031 A 
ATOM     41  C   UNL A   1      43.013  25.855  27.558  1.00  0.00     0.074 A 
ATOM     42  C   UNL A   1      45.232  24.968  26.908  1.00  0.00     0.049 A 
ATOM     43  N   UNL A   1      43.305  27.108  27.794  1.00  0.00    -0.248 NA
ATOM     44  C   UNL A   1      41.589  25.527  27.733  1.00  0.00     0.031 C 
ATOM     45  C   UNL A   1      46.202  23.975  26.438  1.00  0.00     0.029 A 
ATOM     46  N   UNL A   1      45.976  26.112  27.057  1.00  0.00    -0.354 N 
ATOM     47  C   UNL A   1      42.104  27.717  28.135  1.00  0.00     0.074 A 
ATOM     48  C   UNL A   1      41.071  26.712  28.016  1.00  0.00     0.031 C 
ATOM     49  C   UNL A   1      47.415  24.546  26.366  1.00  0.00     0.029 A 
ATOM     50  C   UNL A   1      47.303  25.952  26.739  1.00  0.00     0.049 A 
ATOM     51  H   UNL A   1      45.594  26.966  27.363  1.00  0.00     0.167 HD
ATOM     52  C   UNL A   1      41.884  28.993  28.532  1.00  0.00     0.031 A 
ATOM     53  C   UNL A   1      48.316  26.840  26.738  1.00  0.00     0.031 A 
ATOM     54  C   UNL A   1      42.919  29.987  28.648  1.00  0.00     0.049 A 
ATOM     55  C   UNL A   1      48.043  28.256  27.163  1.00  0.00     0.074 A 
ATOM     56  C   UNL A   1      42.808  31.294  29.085  1.00  0.00     0.029 A 
ATOM     57  N   UNL A   1      44.252  29.783  28.322  1.00  0.00    -0.354 N 
ATOM     58  N   UNL A   1      46.911  28.798  27.546  1.00  0.00    -0.248 NA
ATOM     59  C   UNL A   1      49.187  29.179  27.170  1.00  0.00     0.031 C 
ATOM     60  C   UNL A   1      44.063  31.900  28.968  1.00  0.00     0.029 A 
ATOM     61  C   UNL A   1      44.970  30.950  28.525  1.00  0.00     0.049 A 
ATOM     62  H   UNL A   1      44.631  28.936  27.996  1.00  0.00     0.167 HD
ATOM     63  C   UNL A   1      47.212  30.117  27.865  1.00  0.00     0.074 A 
ATOM     64  C   UNL A   1      48.635  30.285  27.649  1.00  0.00     0.031 C 
ATOM     65  C   UNL A   1      46.387  31.100  28.301  1.00  0.00     0.031 A 
BRANCH  52  66
ATOM     66  C   UNL A   1      40.468  29.383  28.866  1.00  0.00    -0.014 A 
ATOM     67  C   UNL A   1      39.501  29.546  27.857  1.00  0.00     0.010 A 
ATOM     68  C   UNL A   1      40.088  29.553  30.210  1.00  0.00     0.010 A 
ATOM     69  C   UNL A   1      38.192  29.914  28.182  1.00  0.00     0.020 A 
ATOM     70  C   UNL A   1      38.771  29.890  30.541  1.00  0.00     0.020 A 
ATOM     71  C   UNL A   1      37.837  30.084  29.523  1.00  0.00     0.054 A 
BRANCH  71  72
ATOM     72  S   UNL A   1      36.125  30.537  29.913  1.00  0.00     0.124 S 
ATOM     73  O   UNL A   1      35.385  29.868  28.847  1.00  0.00    -0.237 OA
ATOM     74  O   UNL A   1      35.943  29.978  31.250  1.00  0.00    -0.237 OA
ATOM     75  O   UNL A   1      36.128  31.997  29.846  1.00  0.00    -0.744 OA
ENDBRANCH  71  72
ENDBRANCH  52  66
BRANCH  53  76
ATOM     76  C   UNL A   1      49.680  26.409  26.325  1.00  0.00    -0.014 A 
ATOM     77  C   UNL A   1      50.150  26.664  25.023  1.00  0.00     0.010 A 
ATOM     78  C   UNL A   1      50.525  25.752  27.238  1.00  0.00     0.010 A 
ATOM     79  C   UNL A   1      51.429  26.251  24.639  1.00  0.00     0.020 A 
ATOM     80  C   UNL A   1      51.816  25.366  26.867  1.00  0.00     0.020 A 
ATOM     81  C   UNL A   1      52.256  25.607  25.565  1.00  0.00     0.054 A 
BRANCH  81  82
ATOM     82  S   UNL A   1      53.930  25.125  25.058  1.00  0.00     0.124 S 
ATOM     83  O   UNL A   1      54.734  25.589  26.184  1.00  0.00    -0.237 OA
ATOM     84  O   UNL A   1      53.809  23.675  24.919  1.00  0.00    -0.237 OA
ATOM     85  O   UNL A   1      54.129  25.848  23.805  1.00  0.00    -0.744 OA
ENDBRANCH  81  82
ENDBRANCH  53  76
BRANCH  65  86
ATOM     86  C   UNL A   1      47.004  32.440  28.610  1.00  0.00    -0.014 A 
ATOM     87  C   UNL A   1      47.069  33.456  27.641  1.00  0.00     0.010 A 
ATOM     88  C   UNL A   1      47.473  32.701  29.911  1.00  0.00     0.010 A 
ATOM     89  C   UNL A   1      47.623  34.699  27.958  1.00  0.00     0.020 A 
ATOM     90  C   UNL A   1      47.999  33.952  30.240  1.00  0.00     0.020 A 
ATOM     91  C   UNL A   1      48.083  34.940  29.257  1.00  0.00     0.054 A 
BRANCH  91  92
ATOM     92  S   UNL A   1      48.757  36.576  29.655  1.00  0.00     0.124 S 
ATOM     93  O   UNL A   1      49.135  37.078  28.337  1.00  0.00    -0.237 OA
ATOM     94  O   UNL A   1      47.619  37.246  30.280  1.00  0.00    -0.237 OA
ATOM     95  O   UNL A   1      49.872  36.284  30.553  1.00  0.00    -0.744 OA
ENDBRANCH  91  92
ENDBRANCH  65  86
ENDBRANCH  39  40
ENDBRANCH  31  34
ENDBRANCH  29  30
ENDBRANCH  28  29
ENDBRANCH   1  28
TORSDOF 19
ENDMDL
MODEL 3
REMARK VINA RESULT:     -10.8      3.612      9.436
REMARK SMILES C[C@@]([NH2+]CC(=O)Nc1cccc(F)c1)(C(=O)NCCCCNC(=O)c1ccc(-c2c3nc(c(-c4ccc(S(=O)(=O)[O-])cc4)c4ccc([nH]4)c(-c4ccc(S(=O)(=O)[O-])cc4)c4nc(c(-c5ccc(S(=O)(=O)[O-])cc5)c5ccc2[nH]5)C=C4)C=C3)cc1)C(F)(F)F
REMARK SMILES IDX 19 1 18 2 17 3 15 4 16 5 2 7 1 8 3 9 4 12 5 13 6 14 7 15
REMARK SMILES IDX 8 17 9 18 14 19 10 20 12 21 11 22 13 23 85 24 86 25 87 26
REMARK SMILES IDX 88 27 20 28 21 29 22 30 23 31 24 33 25 34 26 35 84 36 27 37
REMARK SMILES IDX 83 38 28 39 29 40 30 41 77 42 31 43 82 44 76 45 78 46 32 47
REMARK SMILES IDX 81 48 75 49 74 50 33 52 63 53 44 54 62 55 45 56 48 57 61 58
REMARK SMILES IDX 79 59 46 60 47 61 60 63 80 64 49 65 34 66 35 67 43 68 36 69
REMARK SMILES IDX 42 70 37 71 38 72 39 73 40 74 41 75 64 76 65 77 73 78 66 79
REMARK SMILES IDX 72 80 67 81 68 82 69 83 70 84 71 85 50 86 51 87 59 88 52 89
REMARK SMILES IDX 58 90 53 91 54 92 55 93 56 94 57 95
REMARK H PARENT 17 6 3 10 3 11 7 16 22 32 78 51 48 62
REMARK Flexibility Score: inf
ROOT
ATOM      1  C   UNL A   1      32.241  26.967  25.196  1.00  0.00     0.023 C 
ENDROOT
BRANCH   1   2
ATOM      2  C   UNL A   1      31.587  26.937  23.817  1.00  0.00     0.116 C 
BRANCH   2   3
ATOM      3  N   UNL A   1      32.587  26.537  22.863  1.00  0.00    -0.350 N 
ATOM      4  C   UNL A   1      33.186  25.383  22.493  1.00  0.00     0.290 C 
ATOM      5  O   UNL A   1      33.736  25.624  21.417  1.00  0.00    -0.267 OA
ATOM      6  H   UNL A   1      32.924  27.304  22.346  1.00  0.00     0.163 HD
BRANCH   4   7
ATOM      7  C   UNL A   1      32.872  23.912  23.068  1.00  0.00     0.268 C 
ATOM      8  C   UNL A   1      32.992  22.989  21.821  1.00  0.00     0.101 C 
BRANCH   7   9
ATOM      9  N   UNL A   1      33.851  23.898  24.215  1.00  0.00    -0.318 N 
ATOM     10  H   UNL A   1      33.340  24.002  25.091  1.00  0.00     0.347 HD
ATOM     11  H   UNL A   1      34.508  24.668  24.089  1.00  0.00     0.347 HD
BRANCH   9  12
ATOM     12  C   UNL A   1      34.648  22.575  24.251  1.00  0.00     0.363 C 
BRANCH  12  13
ATOM     13  C   UNL A   1      34.596  21.577  25.477  1.00  0.00     0.279 C 
ATOM     14  O   UNL A   1      34.610  22.120  26.604  1.00  0.00    -0.268 OA
ATOM     15  N   UNL A   1      34.479  20.203  25.569  1.00  0.00    -0.321 N 
ATOM     16  H   UNL A   1      34.629  19.909  26.496  1.00  0.00     0.170 HD
BRANCH  15  17
ATOM     17  C   UNL A   1      34.209  19.083  24.734  1.00  0.00     0.044 A 
ATOM     18  C   UNL A   1      34.940  17.882  24.720  1.00  0.00     0.026 A 
ATOM     19  C   UNL A   1      33.069  19.115  23.934  1.00  0.00     0.065 A 
ATOM     20  C   UNL A   1      34.715  16.862  23.780  1.00  0.00     0.005 A 
ATOM     21  C   UNL A   1      32.812  18.078  23.027  1.00  0.00     0.125 A 
ATOM     22  C   UNL A   1      33.649  16.975  22.909  1.00  0.00     0.039 A 
ATOM     23  F   UNL A   1      31.734  18.156  22.235  1.00  0.00    -0.207 F 
ENDBRANCH  15  17
ENDBRANCH  12  13
ENDBRANCH   9  12
ENDBRANCH   7   9
BRANCH   7  24
ATOM     24  C   UNL A   1      31.566  23.211  23.685  1.00  0.00     0.453 C 
ATOM     25  F   UNL A   1      31.581  21.871  23.761  1.00  0.00    -0.164 F 
ATOM     26  F   UNL A   1      31.447  23.623  24.996  1.00  0.00    -0.164 F 
ATOM     27  F   UNL A   1      30.386  23.588  23.163  1.00  0.00    -0.164 F 
ENDBRANCH   7  24
ENDBRANCH   4   7
ENDBRANCH   2   3
ENDBRANCH   1   2
BRANCH   1  28
ATOM     28  C   UNL A   1      33.652  27.575  25.188  1.00  0.00     0.023 C 
BRANCH  28  29
ATOM     29  C   UNL A   1      34.171  27.985  26.563  1.00  0.00     0.116 C 
BRANCH  29  30
ATOM     30  N   UNL A   1      33.720  29.319  26.940  1.00  0.00    -0.352 N 
ATOM     31  C   UNL A   1      34.349  30.255  27.711  1.00  0.00     0.251 C 
ATOM     32  H   UNL A   1      32.838  29.582  26.589  1.00  0.00     0.163 HD
ATOM     33  O   UNL A   1      33.738  31.257  28.084  1.00  0.00    -0.269 OA
BRANCH  31  34
ATOM     34  C   UNL A   1      35.749  30.037  28.105  1.00  0.00     0.039 A 
ATOM     35  C   UNL A   1      36.026  29.591  29.396  1.00  0.00     0.014 A 
ATOM     36  C   UNL A   1      36.780  30.248  27.183  1.00  0.00     0.014 A 
ATOM     37  C   UNL A   1      37.343  29.302  29.750  1.00  0.00     0.010 A 
ATOM     38  C   UNL A   1      38.079  29.887  27.514  1.00  0.00     0.010 A 
ATOM     39  C   UNL A   1      38.373  29.417  28.803  1.00  0.00    -0.014 A 
BRANCH  39  40
ATOM     40  C   UNL A   1      39.769  29.049  29.143  1.00  0.00     0.031 A 
ATOM     41  C   UNL A   1      40.677  30.059  29.787  1.00  0.00     0.074 A 
ATOM     42  C   UNL A   1      40.228  27.824  28.821  1.00  0.00     0.049 A 
ATOM     43  N   UNL A   1      41.937  29.940  30.117  1.00  0.00    -0.248 NA
ATOM     44  C   UNL A   1      40.104  31.383  30.077  1.00  0.00     0.031 C 
ATOM     45  C   UNL A   1      39.452  26.775  28.153  1.00  0.00     0.029 A 
ATOM     46  N   UNL A   1      41.463  27.255  29.005  1.00  0.00    -0.354 N 
ATOM     47  C   UNL A   1      42.308  31.172  30.642  1.00  0.00     0.074 A 
ATOM     48  C   UNL A   1      41.159  32.042  30.532  1.00  0.00     0.031 C 
ATOM     49  C   UNL A   1      40.220  25.683  28.012  1.00  0.00     0.029 A 
ATOM     50  C   UNL A   1      41.553  25.967  28.534  1.00  0.00     0.049 A 
ATOM     51  H   UNL A   1      42.214  27.725  29.435  1.00  0.00     0.167 HD
ATOM     52  C   UNL A   1      43.493  31.538  31.186  1.00  0.00     0.031 A 
ATOM     53  C   UNL A   1      42.594  25.112  28.516  1.00  0.00     0.031 A 
ATOM     54  C   UNL A   1      44.632  30.664  31.292  1.00  0.00     0.049 A 
ATOM     55  C   UNL A   1      43.905  25.549  29.109  1.00  0.00     0.074 A 
ATOM     56  C   UNL A   1      45.862  30.923  31.869  1.00  0.00     0.029 A 
ATOM     57  N   UNL A   1      44.680  29.365  30.809  1.00  0.00    -0.354 N 
ATOM     58  N   UNL A   1      44.218  26.697  29.661  1.00  0.00    -0.248 NA
ATOM     59  C   UNL A   1      45.001  24.570  29.088  1.00  0.00     0.031 C 
ATOM     60  C   UNL A   1      46.676  29.802  31.681  1.00  0.00     0.029 A 
ATOM     61  C   UNL A   1      45.930  28.818  31.051  1.00  0.00     0.049 A 
ATOM     62  H   UNL A   1      43.937  28.900  30.360  1.00  0.00     0.167 HD
ATOM     63  C   UNL A   1      45.538  26.569  30.079  1.00  0.00     0.074 A 
ATOM     64  C   UNL A   1      45.957  25.226  29.731  1.00  0.00     0.031 C 
ATOM     65  C   UNL A   1      46.331  27.479  30.696  1.00  0.00     0.031 A 
BRANCH  52  66
ATOM     66  C   UNL A   1      43.614  32.946  31.706  1.00  0.00    -0.014 A 
ATOM     67  C   UNL A   1      44.007  34.002  30.862  1.00  0.00     0.010 A 
ATOM     68  C   UNL A   1      43.293  33.228  33.046  1.00  0.00     0.010 A 
ATOM     69  C   UNL A   1      44.120  35.303  31.359  1.00  0.00     0.020 A 
ATOM     70  C   UNL A   1      43.375  34.535  33.540  1.00  0.00     0.020 A 
ATOM     71  C   UNL A   1      43.803  35.560  32.696  1.00  0.00     0.054 A 
BRANCH  71  72
ATOM     72  S   UNL A   1      43.936  37.263  33.305  1.00  0.00     0.124 S 
ATOM     73  O   UNL A   1      42.739  37.382  34.133  1.00  0.00    -0.237 OA
ATOM     74  O   UNL A   1      45.204  37.245  34.031  1.00  0.00    -0.237 OA
ATOM     75  O   UNL A   1      43.931  38.069  32.086  1.00  0.00    -0.744 OA
ENDBRANCH  71  72
ENDBRANCH  52  66
BRANCH  53  76
ATOM     76  C   UNL A   1      42.431  23.757  27.920  1.00  0.00    -0.014 A 
ATOM     77  C   UNL A   1      42.205  22.636  28.739  1.00  0.00     0.010 A 
ATOM     78  C   UNL A   1      42.489  23.583  26.525  1.00  0.00     0.010 A 
ATOM     79  C   UNL A   1      42.059  21.365  28.174  1.00  0.00     0.020 A 
ATOM     80  C   UNL A   1      42.313  22.319  25.955  1.00  0.00     0.020 A 
ATOM     81  C   UNL A   1      42.111  21.216  26.785  1.00  0.00     0.054 A 
BRANCH  81  82
ATOM     82  S   UNL A   1      41.871  19.564  26.072  1.00  0.00     0.124 S 
ATOM     83  O   UNL A   1      42.751  19.604  24.909  1.00  0.00    -0.237 OA
ATOM     84  O   UNL A   1      42.298  18.688  27.161  1.00  0.00    -0.237 OA
ATOM     85  O   UNL A   1      40.441  19.524  25.777  1.00  0.00    -0.744 OA
ENDBRANCH  81  82
ENDBRANCH  53  76
BRANCH  65  86
ATOM     86  C   UNL A   1      47.724  27.046  31.072  1.00  0.00    -0.014 A 
ATOM     87  C   UNL A   1      48.000  26.477  32.328  1.00  0.00     0.010 A 
ATOM     88  C   UNL A   1      48.761  27.158  30.127  1.00  0.00     0.010 A 
ATOM     89  C   UNL A   1      49.295  26.060  32.644  1.00  0.00     0.020 A 
ATOM     90  C   UNL A   1      50.050  26.713  30.428  1.00  0.00     0.020 A 
ATOM     91  C   UNL A   1      50.312  26.179  31.691  1.00  0.00     0.054 A 
BRANCH  91  92
ATOM     92  S   UNL A   1      51.975  25.588  32.111  1.00  0.00     0.124 S 
ATOM     93  O   UNL A   1      51.804  24.139  32.061  1.00  0.00    -0.237 OA
ATOM     94  O   UNL A   1      52.795  26.162  31.048  1.00  0.00    -0.237 OA
ATOM     95  O   UNL A   1      52.214  26.142  33.442  1.00  0.00    -0.744 OA
ENDBRANCH  91  92
ENDBRANCH  65  86
ENDBRANCH  39  40
ENDBRANCH  31  34
ENDBRANCH  29  30
ENDBRANCH  28  29
ENDBRANCH   1  28
TORSDOF 19
ENDMDL
