MODEL 1
REMARK VINA RESULT:      -9.2      0.000      0.000
REMARK SMILES CC(C)(C)OC(=O)N1CCC[C@H]1C(=O)N[C@@H](Cc1ccccc1)C(=O)NCCCCNC(=O)c1ccc(-c2c3nc(c(-c4ccc(S(=O)(=O)[O-])cc4)c4ccc([nH]4)c(-c4ccc(S(=O)(=O)[O-])cc4)c4nc(c(-c5ccc(S(=O)(=O)[O-])cc5)c5ccc2[nH]5)C=C4)C=C3)cc1
REMARK SMILES IDX 27 1 26 2 24 3 25 4 16 6 15 7 13 8 14 9 12 11 8 12 9 13
REMARK SMILES IDX 10 14 11 15 6 16 7 17 5 18 2 19 1 20 3 21 4 22 17 23 18 24
REMARK SMILES IDX 19 25 23 26 20 27 22 28 21 29 28 30 29 31 30 32 31 33 32 34
REMARK SMILES IDX 33 36 34 37 35 38 93 39 36 40 92 41 37 42 38 43 39 44 86 45
REMARK SMILES IDX 40 46 91 47 85 48 87 49 41 50 90 51 84 52 83 53 42 55 72 56
REMARK SMILES IDX 53 57 71 58 54 59 57 60 70 61 88 62 55 63 56 64 69 66 89 67
REMARK SMILES IDX 58 68 43 69 44 70 52 71 45 72 51 73 46 74 47 75 48 76 49 77
REMARK SMILES IDX 50 78 73 79 74 80 82 81 75 82 81 83 76 84 77 85 78 86 79 87
REMARK SMILES IDX 80 88 59 89 60 90 68 91 61 92 67 93 62 94 63 95 64 96 65 97
REMARK SMILES IDX 66 98
REMARK H PARENT 26 5 15 10 31 35 87 54 57 65
REMARK Flexibility Score: inf
ROOT
ATOM      1  C   UNL A   1      36.925  32.521  32.320  1.00  0.00     0.116 C 
ENDROOT
BRANCH   1   2
ATOM      2  N   UNL A   1      35.985  33.141  33.222  1.00  0.00    -0.354 N 
ATOM      3  C   UNL A   1      36.179  33.698  34.445  1.00  0.00     0.242 C 
ATOM      4  O   UNL A   1      35.204  34.265  34.946  1.00  0.00    -0.273 OA
ATOM      5  H   UNL A   1      35.055  33.163  32.901  1.00  0.00     0.163 HD
BRANCH   3   6
ATOM      6  C   UNL A   1      37.524  33.638  35.201  1.00  0.00     0.175 C 
BRANCH   6   7
ATOM      7  N   UNL A   1      37.740  32.343  35.836  1.00  0.00    -0.342 N 
ATOM      8  C   UNL A   1      37.581  31.951  37.130  1.00  0.00     0.243 C 
ATOM      9  O   UNL A   1      37.736  30.735  37.317  1.00  0.00    -0.273 OA
ATOM     10  H   UNL A   1      38.054  31.635  35.229  1.00  0.00     0.164 HD
BRANCH   8  11
ATOM     11  C   UNL A   1      37.470  32.922  38.355  1.00  0.00     0.178 C 
ATOM     12  N   UNL A   1      36.965  32.440  39.642  1.00  0.00    -0.296 N 
ATOM     13  C   UNL A   1      38.056  32.180  40.555  1.00  0.00     0.124 C 
ATOM     14  C   UNL A   1      39.003  33.321  40.227  1.00  0.00     0.024 C 
ATOM     15  C   UNL A   1      38.879  33.462  38.709  1.00  0.00     0.037 C 
BRANCH  12  16
ATOM     16  C   UNL A   1      35.653  32.597  40.032  1.00  0.00     0.410 C 
ATOM     17  O   UNL A   1      34.740  31.957  39.515  1.00  0.00    -0.224 OA
BRANCH  16  18
ATOM     18  O   UNL A   1      35.526  33.430  41.090  1.00  0.00    -0.444 OA
BRANCH  18  19
ATOM     19  C   UNL A   1      34.965  33.051  42.384  1.00  0.00     0.106 C 
ATOM     20  C   UNL A   1      35.846  33.719  43.443  1.00  0.00     0.056 C 
ATOM     21  C   UNL A   1      35.110  31.528  42.506  1.00  0.00     0.056 C 
ATOM     22  C   UNL A   1      33.498  33.417  42.638  1.00  0.00     0.056 C 
ENDBRANCH  18  19
ENDBRANCH  16  18
ENDBRANCH  12  16
ENDBRANCH   8  11
ENDBRANCH   6   7
BRANCH   6  23
ATOM     23  C   UNL A   1      38.770  34.261  34.544  1.00  0.00     0.070 C 
BRANCH  23  24
ATOM     24  C   UNL A   1      39.926  34.672  35.413  1.00  0.00    -0.045 A 
ATOM     25  C   UNL A   1      40.028  35.976  35.916  1.00  0.00     0.004 A 
ATOM     26  C   UNL A   1      40.928  33.740  35.728  1.00  0.00     0.004 A 
ATOM     27  C   UNL A   1      41.084  36.323  36.761  1.00  0.00     0.000 A 
ATOM     28  C   UNL A   1      41.982  34.090  36.574  1.00  0.00     0.000 A 
ATOM     29  C   UNL A   1      42.053  35.378  37.100  1.00  0.00     0.000 A 
ENDBRANCH  23  24
ENDBRANCH   6  23
ENDBRANCH   3   6
ENDBRANCH   1   2
BRANCH   1  30
ATOM     30  C   UNL A   1      36.872  33.103  30.918  1.00  0.00     0.023 C 
BRANCH  30  31
ATOM     31  C   UNL A   1      35.462  33.215  30.335  1.00  0.00     0.023 C 
BRANCH  31  32
ATOM     32  C   UNL A   1      35.358  33.073  28.819  1.00  0.00     0.116 C 
BRANCH  32  33
ATOM     33  N   UNL A   1      34.319  32.144  28.392  1.00  0.00    -0.352 N 
ATOM     34  C   UNL A   1      34.435  30.803  28.110  1.00  0.00     0.251 C 
ATOM     35  H   UNL A   1      33.417  32.526  28.295  1.00  0.00     0.163 HD
ATOM     36  O   UNL A   1      33.483  30.166  27.674  1.00  0.00    -0.269 OA
BRANCH  34  37
ATOM     37  C   UNL A   1      35.744  30.155  28.318  1.00  0.00     0.039 A 
ATOM     38  C   UNL A   1      36.669  30.137  27.275  1.00  0.00     0.014 A 
ATOM     39  C   UNL A   1      36.079  29.663  29.583  1.00  0.00     0.014 A 
ATOM     40  C   UNL A   1      37.971  29.699  27.525  1.00  0.00     0.010 A 
ATOM     41  C   UNL A   1      37.396  29.303  29.847  1.00  0.00     0.010 A 
ATOM     42  C   UNL A   1      38.357  29.325  28.823  1.00  0.00    -0.014 A 
BRANCH  42  43
ATOM     43  C   UNL A   1      39.767  28.978  29.139  1.00  0.00     0.031 A 
ATOM     44  C   UNL A   1      40.677  30.006  29.752  1.00  0.00     0.074 A 
ATOM     45  C   UNL A   1      40.247  27.762  28.806  1.00  0.00     0.049 A 
ATOM     46  N   UNL A   1      41.948  29.910  30.047  1.00  0.00    -0.248 NA
ATOM     47  C   UNL A   1      40.089  31.322  30.051  1.00  0.00     0.031 C 
ATOM     48  C   UNL A   1      39.478  26.692  28.164  1.00  0.00     0.029 A 
ATOM     49  N   UNL A   1      41.500  27.222  28.956  1.00  0.00    -0.354 N 
ATOM     50  C   UNL A   1      42.314  31.153  30.551  1.00  0.00     0.074 A 
ATOM     51  C   UNL A   1      41.146  32.002  30.469  1.00  0.00     0.031 C 
ATOM     52  C   UNL A   1      40.267  25.618  28.006  1.00  0.00     0.029 A 
ATOM     53  C   UNL A   1      41.607  25.933  28.489  1.00  0.00     0.049 A 
ATOM     54  H   UNL A   1      42.253  27.711  29.360  1.00  0.00     0.167 HD
ATOM     55  C   UNL A   1      43.507  31.546  31.055  1.00  0.00     0.031 A 
ATOM     56  C   UNL A   1      42.665  25.098  28.446  1.00  0.00     0.031 A 
ATOM     57  C   UNL A   1      44.665  30.696  31.136  1.00  0.00     0.049 A 
ATOM     58  C   UNL A   1      43.988  25.564  28.994  1.00  0.00     0.074 A 
ATOM     59  C   UNL A   1      45.906  30.983  31.677  1.00  0.00     0.029 A 
ATOM     60  N   UNL A   1      44.730  29.395  30.659  1.00  0.00    -0.354 N 
ATOM     61  N   UNL A   1      44.295  26.720  29.531  1.00  0.00    -0.248 NA
ATOM     62  C   UNL A   1      45.102  24.607  28.944  1.00  0.00     0.031 C 
ATOM     63  C   UNL A   1      46.738  29.880  31.473  1.00  0.00     0.029 A 
ATOM     64  C   UNL A   1      45.995  28.876  30.870  1.00  0.00     0.049 A 
ATOM     65  H   UNL A   1      43.985  28.912  30.233  1.00  0.00     0.167 HD
ATOM     66  C   UNL A   1      45.628  26.617  29.915  1.00  0.00     0.074 A 
ATOM     67  C   UNL A   1      46.064  25.284  29.558  1.00  0.00     0.031 C 
ATOM     68  C   UNL A   1      46.416  27.543  30.515  1.00  0.00     0.031 A 
BRANCH  55  69
ATOM     69  C   UNL A   1      43.622  32.964  31.551  1.00  0.00    -0.014 A 
ATOM     70  C   UNL A   1      43.314  33.296  32.883  1.00  0.00     0.010 A 
ATOM     71  C   UNL A   1      44.082  33.973  30.685  1.00  0.00     0.010 A 
ATOM     72  C   UNL A   1      43.421  34.617  33.327  1.00  0.00     0.020 A 
ATOM     73  C   UNL A   1      44.223  35.289  31.133  1.00  0.00     0.020 A 
ATOM     74  C   UNL A   1      43.874  35.605  32.448  1.00  0.00     0.054 A 
BRANCH  74  75
ATOM     75  S   UNL A   1      44.025  37.306  33.059  1.00  0.00     0.124 S 
ATOM     76  O   UNL A   1      43.879  38.081  31.828  1.00  0.00    -0.237 OA
ATOM     77  O   UNL A   1      42.911  37.407  33.998  1.00  0.00    -0.237 OA
ATOM     78  O   UNL A   1      45.354  37.343  33.663  1.00  0.00    -0.744 OA
ENDBRANCH  74  75
ENDBRANCH  55  69
BRANCH  56  79
ATOM     79  C   UNL A   1      42.513  23.729  27.876  1.00  0.00    -0.014 A 
ATOM     80  C   UNL A   1      42.279  22.626  28.715  1.00  0.00     0.010 A 
ATOM     81  C   UNL A   1      42.592  23.524  26.486  1.00  0.00     0.010 A 
ATOM     82  C   UNL A   1      42.147  21.342  28.179  1.00  0.00     0.020 A 
ATOM     83  C   UNL A   1      42.428  22.246  25.943  1.00  0.00     0.020 A 
ATOM     84  C   UNL A   1      42.219  21.161  26.795  1.00  0.00     0.054 A 
BRANCH  84  85
ATOM     85  S   UNL A   1      41.994  19.491  26.118  1.00  0.00     0.124 S 
ATOM     86  O   UNL A   1      42.455  18.652  27.219  1.00  0.00    -0.237 OA
ATOM     87  O   UNL A   1      40.559  19.453  25.848  1.00  0.00    -0.237 OA
ATOM     88  O   UNL A   1      42.844  19.488  24.930  1.00  0.00    -0.744 OA
ENDBRANCH  84  85
ENDBRANCH  56  79
BRANCH  68  89
ATOM     89  C   UNL A   1      47.822  27.138  30.873  1.00  0.00    -0.014 A 
ATOM     90  C   UNL A   1      48.148  26.668  32.157  1.00  0.00     0.010 A 
ATOM     91  C   UNL A   1      48.820  27.166  29.881  1.00  0.00     0.010 A 
ATOM     92  C   UNL A   1      49.452  26.258  32.449  1.00  0.00     0.020 A 
ATOM     93  C   UNL A   1      50.116  26.728  30.159  1.00  0.00     0.020 A 
ATOM     94  C   UNL A   1      50.427  26.288  31.446  1.00  0.00     0.054 A 
BRANCH  94  95
ATOM     95  S   UNL A   1      52.097  25.698  31.837  1.00  0.00     0.124 S 
ATOM     96  O   UNL A   1      52.828  26.022  30.616  1.00  0.00    -0.237 OA
ATOM     97  O   UNL A   1      52.450  26.494  33.011  1.00  0.00    -0.237 OA
ATOM     98  O   UNL A   1      51.911  24.271  32.092  1.00  0.00    -0.744 OA
ENDBRANCH  94  95
ENDBRANCH  68  89
ENDBRANCH  42  43
ENDBRANCH  34  37
ENDBRANCH  32  33
ENDBRANCH  31  32
ENDBRANCH  30  31
ENDBRANCH   1  30
TORSDOF 21
ENDMDL
MODEL 2
REMARK VINA RESULT:      -8.3      4.378      8.143
REMARK SMILES CC(C)(C)OC(=O)N1CCC[C@H]1C(=O)N[C@@H](Cc1ccccc1)C(=O)NCCCCNC(=O)c1ccc(-c2c3nc(c(-c4ccc(S(=O)(=O)[O-])cc4)c4ccc([nH]4)c(-c4ccc(S(=O)(=O)[O-])cc4)c4nc(c(-c5ccc(S(=O)(=O)[O-])cc5)c5ccc2[nH]5)C=C4)C=C3)cc1
REMARK SMILES IDX 27 1 26 2 24 3 25 4 16 6 15 7 13 8 14 9 12 11 8 12 9 13
REMARK SMILES IDX 10 14 11 15 6 16 7 17 5 18 2 19 1 20 3 21 4 22 17 23 18 24
REMARK SMILES IDX 19 25 23 26 20 27 22 28 21 29 28 30 29 31 30 32 31 33 32 34
REMARK SMILES IDX 33 36 34 37 35 38 93 39 36 40 92 41 37 42 38 43 39 44 86 45
REMARK SMILES IDX 40 46 91 47 85 48 87 49 41 50 90 51 84 52 83 53 42 55 72 56
REMARK SMILES IDX 53 57 71 58 54 59 57 60 70 61 88 62 55 63 56 64 69 66 89 67
REMARK SMILES IDX 58 68 43 69 44 70 52 71 45 72 51 73 46 74 47 75 48 76 49 77
REMARK SMILES IDX 50 78 73 79 74 80 82 81 75 82 81 83 76 84 77 85 78 86 79 87
REMARK SMILES IDX 80 88 59 89 60 90 68 91 61 92 67 93 62 94 63 95 64 96 65 97
REMARK SMILES IDX 66 98
REMARK H PARENT 26 5 15 10 31 35 87 54 57 65
REMARK Flexibility Score: inf
ROOT
ATOM      1  C   UNL A   1      39.337  32.736  37.224  1.00  0.00     0.116 C 
ENDROOT
BRANCH   1   2
ATOM      2  N   UNL A   1      38.944  31.457  36.681  1.00  0.00    -0.354 N 
ATOM      3  C   UNL A   1      38.577  31.116  35.420  1.00  0.00     0.242 C 
ATOM      4  O   UNL A   1      38.403  29.912  35.211  1.00  0.00    -0.273 OA
ATOM      5  H   UNL A   1      38.941  30.716  37.328  1.00  0.00     0.163 HD
BRANCH   3   6
ATOM      6  C   UNL A   1      38.370  32.145  34.288  1.00  0.00     0.175 C 
BRANCH   6   7
ATOM      7  N   UNL A   1      37.291  33.081  34.587  1.00  0.00    -0.342 N 
ATOM      8  C   UNL A   1      36.035  33.182  34.072  1.00  0.00     0.243 C 
ATOM      9  O   UNL A   1      35.319  34.022  34.637  1.00  0.00    -0.273 OA
ATOM     10  H   UNL A   1      37.508  33.751  35.275  1.00  0.00     0.164 HD
BRANCH   8  11
ATOM     11  C   UNL A   1      35.558  32.522  32.733  1.00  0.00     0.178 C 
ATOM     12  N   UNL A   1      35.761  33.204  31.454  1.00  0.00    -0.296 N 
ATOM     13  C   UNL A   1      36.906  32.659  30.758  1.00  0.00     0.124 C 
ATOM     14  C   UNL A   1      36.779  31.181  31.084  1.00  0.00     0.024 C 
ATOM     15  C   UNL A   1      36.298  31.175  32.535  1.00  0.00     0.037 C 
BRANCH  12  16
ATOM     16  C   UNL A   1      34.780  33.961  30.851  1.00  0.00     0.410 C 
ATOM     17  O   UNL A   1      33.959  33.466  30.083  1.00  0.00    -0.224 OA
BRANCH  16  18
ATOM     18  O   UNL A   1      34.774  35.241  31.286  1.00  0.00    -0.444 OA
BRANCH  18  19
ATOM     19  C   UNL A   1      33.581  35.973  31.701  1.00  0.00     0.106 C 
ATOM     20  C   UNL A   1      32.751  34.995  32.538  1.00  0.00     0.056 C 
ATOM     21  C   UNL A   1      32.801  36.318  30.424  1.00  0.00     0.056 C 
ATOM     22  C   UNL A   1      33.800  37.265  32.496  1.00  0.00     0.056 C 
ENDBRANCH  18  19
ENDBRANCH  16  18
ENDBRANCH  12  16
ENDBRANCH   8  11
ENDBRANCH   6   7
BRANCH   6  23
ATOM     23  C   UNL A   1      39.609  32.767  33.618  1.00  0.00     0.070 C 
BRANCH  23  24
ATOM     24  C   UNL A   1      40.191  32.105  32.400  1.00  0.00    -0.045 A 
ATOM     25  C   UNL A   1      40.616  32.859  31.298  1.00  0.00     0.004 A 
ATOM     26  C   UNL A   1      40.313  30.707  32.357  1.00  0.00     0.004 A 
ATOM     27  C   UNL A   1      41.200  32.227  30.197  1.00  0.00     0.000 A 
ATOM     28  C   UNL A   1      40.897  30.079  31.256  1.00  0.00     0.000 A 
ATOM     29  C   UNL A   1      41.352  30.841  30.181  1.00  0.00     0.000 A 
ENDBRANCH  23  24
ENDBRANCH   6  23
ENDBRANCH   3   6
ENDBRANCH   1   2
BRANCH   1  30
ATOM     30  C   UNL A   1      38.292  33.330  38.152  1.00  0.00     0.023 C 
BRANCH  30  31
ATOM     31  C   UNL A   1      38.854  33.884  39.462  1.00  0.00     0.023 C 
BRANCH  31  32
ATOM     32  C   UNL A   1      40.276  34.437  39.392  1.00  0.00     0.116 C 
BRANCH  32  33
ATOM     33  N   UNL A   1      40.345  35.884  39.551  1.00  0.00    -0.352 N 
ATOM     34  C   UNL A   1      40.929  36.809  38.717  1.00  0.00     0.251 C 
ATOM     35  H   UNL A   1      39.917  36.248  40.359  1.00  0.00     0.163 HD
ATOM     36  O   UNL A   1      40.985  37.993  39.028  1.00  0.00    -0.269 OA
BRANCH  34  37
ATOM     37  C   UNL A   1      41.514  36.335  37.447  1.00  0.00     0.039 A 
ATOM     38  C   UNL A   1      42.886  36.097  37.376  1.00  0.00     0.014 A 
ATOM     39  C   UNL A   1      40.676  36.031  36.370  1.00  0.00     0.014 A 
ATOM     40  C   UNL A   1      43.412  35.470  36.245  1.00  0.00     0.010 A 
ATOM     41  C   UNL A   1      41.191  35.337  35.281  1.00  0.00     0.010 A 
ATOM     42  C   UNL A   1      42.562  35.042  35.211  1.00  0.00    -0.014 A 
BRANCH  42  43
ATOM     43  C   UNL A   1      43.082  34.260  34.059  1.00  0.00     0.031 A 
ATOM     44  C   UNL A   1      43.326  34.937  32.738  1.00  0.00     0.074 A 
ATOM     45  C   UNL A   1      43.265  32.930  34.181  1.00  0.00     0.049 A 
ATOM     46  N   UNL A   1      43.723  34.415  31.607  1.00  0.00    -0.248 NA
ATOM     47  C   UNL A   1      43.067  36.385  32.673  1.00  0.00     0.031 C 
ATOM     48  C   UNL A   1      43.020  32.147  35.396  1.00  0.00     0.029 A 
ATOM     49  N   UNL A   1      43.694  31.996  33.270  1.00  0.00    -0.354 N 
ATOM     50  C   UNL A   1      43.747  35.464  30.694  1.00  0.00     0.074 A 
ATOM     51  C   UNL A   1      43.271  36.639  31.390  1.00  0.00     0.031 C 
ATOM     52  C   UNL A   1      43.333  30.863  35.163  1.00  0.00     0.029 A 
ATOM     53  C   UNL A   1      43.754  30.718  33.774  1.00  0.00     0.049 A 
ATOM     54  H   UNL A   1      43.936  32.221  32.343  1.00  0.00     0.167 HD
ATOM     55  C   UNL A   1      44.149  35.454  29.401  1.00  0.00     0.031 A 
ATOM     56  C   UNL A   1      44.102  29.556  33.184  1.00  0.00     0.031 A 
ATOM     57  C   UNL A   1      44.624  34.282  28.715  1.00  0.00     0.049 A 
ATOM     58  C   UNL A   1      44.526  29.567  31.739  1.00  0.00     0.074 A 
ATOM     59  C   UNL A   1      45.103  34.179  27.421  1.00  0.00     0.029 A 
ATOM     60  N   UNL A   1      44.677  33.009  29.263  1.00  0.00    -0.354 N 
ATOM     61  N   UNL A   1      44.609  30.583  30.914  1.00  0.00    -0.248 NA
ATOM     62  C   UNL A   1      44.917  28.278  31.152  1.00  0.00     0.031 C 
ATOM     63  C   UNL A   1      45.387  32.835  27.166  1.00  0.00     0.029 A 
ATOM     64  C   UNL A   1      45.155  32.110  28.325  1.00  0.00     0.049 A 
ATOM     65  H   UNL A   1      44.412  32.778  30.183  1.00  0.00     0.167 HD
ATOM     66  C   UNL A   1      45.096  30.060  29.720  1.00  0.00     0.074 A 
ATOM     67  C   UNL A   1      45.297  28.643  29.935  1.00  0.00     0.031 C 
ATOM     68  C   UNL A   1      45.357  30.701  28.554  1.00  0.00     0.031 A 
BRANCH  55  69
ATOM     69  C   UNL A   1      44.082  36.753  28.641  1.00  0.00    -0.014 A 
ATOM     70  C   UNL A   1      45.246  37.495  28.365  1.00  0.00     0.010 A 
ATOM     71  C   UNL A   1      42.845  37.219  28.160  1.00  0.00     0.010 A 
ATOM     72  C   UNL A   1      45.167  38.701  27.663  1.00  0.00     0.020 A 
ATOM     73  C   UNL A   1      42.766  38.407  27.428  1.00  0.00     0.020 A 
ATOM     74  C   UNL A   1      43.926  39.149  27.199  1.00  0.00     0.054 A 
BRANCH  74  75
ATOM     75  S   UNL A   1      43.858  40.705  26.271  1.00  0.00     0.124 S 
ATOM     76  O   UNL A   1      43.962  41.697  27.339  1.00  0.00    -0.237 OA
ATOM     77  O   UNL A   1      45.022  40.604  25.394  1.00  0.00    -0.237 OA
ATOM     78  O   UNL A   1      42.565  40.652  25.595  1.00  0.00    -0.744 OA
ENDBRANCH  74  75
ENDBRANCH  55  69
BRANCH  56  79
ATOM     79  C   UNL A   1      44.079  28.287  33.965  1.00  0.00    -0.014 A 
ATOM     80  C   UNL A   1      45.220  27.855  34.662  1.00  0.00     0.010 A 
ATOM     81  C   UNL A   1      42.909  27.508  34.022  1.00  0.00     0.010 A 
ATOM     82  C   UNL A   1      45.199  26.658  35.386  1.00  0.00     0.020 A 
ATOM     83  C   UNL A   1      42.873  26.327  34.771  1.00  0.00     0.020 A 
ATOM     84  C   UNL A   1      44.024  25.904  35.438  1.00  0.00     0.054 A 
BRANCH  84  85
ATOM     85  S   UNL A   1      44.006  24.380  36.424  1.00  0.00     0.124 S 
ATOM     86  O   UNL A   1      42.816  23.703  35.918  1.00  0.00    -0.237 OA
ATOM     87  O   UNL A   1      45.283  23.765  36.074  1.00  0.00    -0.237 OA
ATOM     88  O   UNL A   1      43.913  24.865  37.799  1.00  0.00    -0.744 OA
ENDBRANCH  84  85
ENDBRANCH  56  79
BRANCH  68  89
ATOM     89  C   UNL A   1      45.939  29.889  27.425  1.00  0.00    -0.014 A 
ATOM     90  C   UNL A   1      47.320  29.874  27.166  1.00  0.00     0.010 A 
ATOM     91  C   UNL A   1      45.089  29.074  26.655  1.00  0.00     0.010 A 
ATOM     92  C   UNL A   1      47.837  29.077  26.139  1.00  0.00     0.020 A 
ATOM     93  C   UNL A   1      45.604  28.253  25.650  1.00  0.00     0.020 A 
ATOM     94  C   UNL A   1      46.975  28.269  25.391  1.00  0.00     0.054 A 
BRANCH  94  95
ATOM     95  S   UNL A   1      47.678  27.204  24.102  1.00  0.00     0.124 S 
ATOM     96  O   UNL A   1      49.080  27.129  24.500  1.00  0.00    -0.237 OA
ATOM     97  O   UNL A   1      46.913  25.968  24.256  1.00  0.00    -0.237 OA
ATOM     98  O   UNL A   1      47.420  27.939  22.865  1.00  0.00    -0.744 OA
ENDBRANCH  94  95
ENDBRANCH  68  89
ENDBRANCH  42  43
ENDBRANCH  34  37
ENDBRANCH  32  33
ENDBRANCH  31  32
ENDBRANCH  30  31
ENDBRANCH   1  30
TORSDOF 21
ENDMDL
MODEL 3
REMARK VINA RESULT:      -8.1      6.127     12.921
REMARK SMILES CC(C)(C)OC(=O)N1CCC[C@H]1C(=O)N[C@@H](Cc1ccccc1)C(=O)NCCCCNC(=O)c1ccc(-c2c3nc(c(-c4ccc(S(=O)(=O)[O-])cc4)c4ccc([nH]4)c(-c4ccc(S(=O)(=O)[O-])cc4)c4nc(c(-c5ccc(S(=O)(=O)[O-])cc5)c5ccc2[nH]5)C=C4)C=C3)cc1
REMARK SMILES IDX 27 1 26 2 24 3 25 4 16 6 15 7 13 8 14 9 12 11 8 12 9 13
REMARK SMILES IDX 10 14 11 15 6 16 7 17 5 18 2 19 1 20 3 21 4 22 17 23 18 24
REMARK SMILES IDX 19 25 23 26 20 27 22 28 21 29 28 30 29 31 30 32 31 33 32 34
REMARK SMILES IDX 33 36 34 37 35 38 93 39 36 40 92 41 37 42 38 43 39 44 86 45
REMARK SMILES IDX 40 46 91 47 85 48 87 49 41 50 90 51 84 52 83 53 42 55 72 56
REMARK SMILES IDX 53 57 71 58 54 59 57 60 70 61 88 62 55 63 56 64 69 66 89 67
REMARK SMILES IDX 58 68 43 69 44 70 52 71 45 72 51 73 46 74 47 75 48 76 49 77
REMARK SMILES IDX 50 78 73 79 74 80 82 81 75 82 81 83 76 84 77 85 78 86 79 87
REMARK SMILES IDX 80 88 59 89 60 90 68 91 61 92 67 93 62 94 63 95 64 96 65 97
REMARK SMILES IDX 66 98
REMARK H PARENT 26 5 15 10 31 35 87 54 57 65
REMARK Flexibility Score: inf
ROOT
ATOM      1  C   UNL A   1      45.702  39.045  26.789  1.00  0.00     0.116 C 
ENDROOT
BRANCH   1   2
ATOM      2  N   UNL A   1      44.532  38.201  26.713  1.00  0.00    -0.354 N 
ATOM      3  C   UNL A   1      43.221  38.505  26.885  1.00  0.00     0.242 C 
ATOM      4  O   UNL A   1      42.417  37.599  26.644  1.00  0.00    -0.273 OA
ATOM      5  H   UNL A   1      44.715  37.257  26.505  1.00  0.00     0.163 HD
BRANCH   3   6
ATOM      6  C   UNL A   1      42.724  39.886  27.361  1.00  0.00     0.175 C 
BRANCH   6   7
ATOM      7  N   UNL A   1      42.228  40.702  26.258  1.00  0.00    -0.342 N 
ATOM      8  C   UNL A   1      42.894  41.475  25.357  1.00  0.00     0.243 C 
ATOM      9  O   UNL A   1      42.175  41.947  24.462  1.00  0.00    -0.273 OA
ATOM     10  H   UNL A   1      41.250  40.693  26.149  1.00  0.00     0.164 HD
BRANCH   8  11
ATOM     11  C   UNL A   1      44.370  41.974  25.518  1.00  0.00     0.178 C 
ATOM     12  N   UNL A   1      44.934  42.941  24.575  1.00  0.00    -0.296 N 
ATOM     13  C   UNL A   1      44.927  44.272  25.141  1.00  0.00     0.124 C 
ATOM     14  C   UNL A   1      45.273  43.985  26.592  1.00  0.00     0.024 C 
ATOM     15  C   UNL A   1      44.523  42.685  26.886  1.00  0.00     0.037 C 
BRANCH  12  16
ATOM     16  C   UNL A   1      45.705  42.566  23.496  1.00  0.00     0.410 C 
ATOM     17  O   UNL A   1      46.878  42.223  23.624  1.00  0.00    -0.224 OA
BRANCH  16  18
ATOM     18  O   UNL A   1      44.996  42.519  22.346  1.00  0.00    -0.444 OA
BRANCH  18  19
ATOM     19  C   UNL A   1      45.143  43.460  21.240  1.00  0.00     0.106 C 
ATOM     20  C   UNL A   1      43.753  43.602  20.614  1.00  0.00     0.056 C 
ATOM     21  C   UNL A   1      46.083  42.805  20.217  1.00  0.00     0.056 C 
ATOM     22  C   UNL A   1      45.693  44.850  21.579  1.00  0.00     0.056 C 
ENDBRANCH  18  19
ENDBRANCH  16  18
ENDBRANCH  12  16
ENDBRANCH   8  11
ENDBRANCH   6   7
BRANCH   6  23
ATOM     23  C   UNL A   1      41.899  39.969  28.659  1.00  0.00     0.070 C 
BRANCH  23  24
ATOM     24  C   UNL A   1      42.525  40.570  29.887  1.00  0.00    -0.045 A 
ATOM     25  C   UNL A   1      42.113  41.817  30.375  1.00  0.00     0.004 A 
ATOM     26  C   UNL A   1      43.543  39.878  30.561  1.00  0.00     0.004 A 
ATOM     27  C   UNL A   1      42.673  42.335  31.545  1.00  0.00     0.000 A 
ATOM     28  C   UNL A   1      44.101  40.397  31.731  1.00  0.00     0.000 A 
ATOM     29  C   UNL A   1      43.657  41.620  32.229  1.00  0.00     0.000 A 
ENDBRANCH  23  24
ENDBRANCH   6  23
ENDBRANCH   3   6
ENDBRANCH   1   2
BRANCH   1  30
ATOM     30  C   UNL A   1      46.510  39.051  25.502  1.00  0.00     0.023 C 
BRANCH  30  31
ATOM     31  C   UNL A   1      47.923  38.485  25.643  1.00  0.00     0.023 C 
BRANCH  31  32
ATOM     32  C   UNL A   1      48.032  37.148  26.371  1.00  0.00     0.116 C 
BRANCH  32  33
ATOM     33  N   UNL A   1      48.700  37.243  27.663  1.00  0.00    -0.352 N 
ATOM     34  C   UNL A   1      48.646  36.366  28.721  1.00  0.00     0.251 C 
ATOM     35  H   UNL A   1      49.266  38.038  27.796  1.00  0.00     0.163 HD
ATOM     36  O   UNL A   1      49.197  36.625  29.785  1.00  0.00    -0.269 OA
BRANCH  34  37
ATOM     37  C   UNL A   1      47.883  35.114  28.553  1.00  0.00     0.039 A 
ATOM     38  C   UNL A   1      47.511  34.709  27.272  1.00  0.00     0.014 A 
ATOM     39  C   UNL A   1      47.638  34.299  29.662  1.00  0.00     0.014 A 
ATOM     40  C   UNL A   1      46.961  33.439  27.090  1.00  0.00     0.010 A 
ATOM     41  C   UNL A   1      47.164  33.007  29.467  1.00  0.00     0.010 A 
ATOM     42  C   UNL A   1      46.829  32.560  28.179  1.00  0.00    -0.014 A 
BRANCH  42  43
ATOM     43  C   UNL A   1      46.366  31.161  27.989  1.00  0.00     0.031 A 
ATOM     44  C   UNL A   1      47.336  30.101  27.543  1.00  0.00     0.074 A 
ATOM     45  C   UNL A   1      45.061  30.860  28.147  1.00  0.00     0.049 A 
ATOM     46  N   UNL A   1      47.111  28.842  27.270  1.00  0.00    -0.248 NA
ATOM     47  C   UNL A   1      48.736  30.515  27.355  1.00  0.00     0.031 C 
ATOM     48  C   UNL A   1      44.012  31.809  28.533  1.00  0.00     0.029 A 
ATOM     49  N   UNL A   1      44.390  29.672  27.997  1.00  0.00    -0.354 N 
ATOM     50  C   UNL A   1      48.334  28.318  26.866  1.00  0.00     0.074 A 
ATOM     51  C   UNL A   1      49.283  29.409  26.874  1.00  0.00     0.031 C 
ATOM     52  C   UNL A   1      42.841  31.158  28.619  1.00  0.00     0.029 A 
ATOM     53  C   UNL A   1      43.042  29.761  28.251  1.00  0.00     0.049 A 
ATOM     54  H   UNL A   1      44.833  28.833  27.733  1.00  0.00     0.167 HD
ATOM     55  C   UNL A   1      48.643  27.042  26.536  1.00  0.00     0.031 A 
ATOM     56  C   UNL A   1      42.072  28.827  28.188  1.00  0.00     0.031 A 
ATOM     57  C   UNL A   1      47.694  25.960  26.532  1.00  0.00     0.049 A 
ATOM     58  C   UNL A   1      42.436  27.418  27.801  1.00  0.00     0.074 A 
ATOM     59  C   UNL A   1      47.920  24.622  26.264  1.00  0.00     0.029 A 
ATOM     60  N   UNL A   1      46.341  26.091  26.802  1.00  0.00    -0.354 N 
ATOM     61  N   UNL A   1      43.612  26.928  27.490  1.00  0.00    -0.248 NA
ATOM     62  C   UNL A   1      41.345  26.434  27.770  1.00  0.00     0.031 C 
ATOM     63  C   UNL A   1      46.693  23.954  26.312  1.00  0.00     0.029 A 
ATOM     64  C   UNL A   1      45.713  24.863  26.683  1.00  0.00     0.049 A 
ATOM     65  H   UNL A   1      45.891  26.933  27.044  1.00  0.00     0.167 HD
ATOM     66  C   UNL A   1      43.408  25.571  27.261  1.00  0.00     0.074 A 
ATOM     67  C   UNL A   1      42.000  25.318  27.479  1.00  0.00     0.031 C 
ATOM     68  C   UNL A   1      44.309  24.622  26.908  1.00  0.00     0.031 A 
BRANCH  55  69
ATOM     69  C   UNL A   1      50.068  26.749  26.145  1.00  0.00    -0.014 A 
ATOM     70  C   UNL A   1      51.036  26.421  27.113  1.00  0.00     0.010 A 
ATOM     71  C   UNL A   1      50.437  26.761  24.787  1.00  0.00     0.010 A 
ATOM     72  C   UNL A   1      52.355  26.157  26.734  1.00  0.00     0.020 A 
ATOM     73  C   UNL A   1      51.746  26.463  24.401  1.00  0.00     0.020 A 
ATOM     74  C   UNL A   1      52.701  26.180  25.380  1.00  0.00     0.054 A 
BRANCH  74  75
ATOM     75  S   UNL A   1      54.415  25.809  24.917  1.00  0.00     0.124 S 
ATOM     76  O   UNL A   1      55.165  26.495  25.967  1.00  0.00    -0.237 OA
ATOM     77  O   UNL A   1      54.451  24.350  24.972  1.00  0.00    -0.237 OA
ATOM     78  O   UNL A   1      54.547  26.384  23.581  1.00  0.00    -0.744 OA
ENDBRANCH  74  75
ENDBRANCH  55  69
BRANCH  56  79
ATOM     79  C   UNL A   1      40.664  29.190  28.515  1.00  0.00    -0.014 A 
ATOM     80  C   UNL A   1      40.270  29.403  29.847  1.00  0.00     0.010 A 
ATOM     81  C   UNL A   1      39.709  29.334  27.491  1.00  0.00     0.010 A 
ATOM     82  C   UNL A   1      38.947  29.734  30.153  1.00  0.00     0.020 A 
ATOM     83  C   UNL A   1      38.392  29.696  27.789  1.00  0.00     0.020 A 
ATOM     84  C   UNL A   1      38.016  29.882  29.120  1.00  0.00     0.054 A 
BRANCH  84  85
ATOM     85  S   UNL A   1      36.316  30.360  29.537  1.00  0.00     0.124 S 
ATOM     86  O   UNL A   1      35.534  29.346  28.839  1.00  0.00    -0.237 OA
ATOM     87  O   UNL A   1      36.313  30.271  30.995  1.00  0.00    -0.237 OA
ATOM     88  O   UNL A   1      36.203  31.716  29.004  1.00  0.00    -0.744 OA
ENDBRANCH  84  85
ENDBRANCH  56  79
BRANCH  68  89
ATOM     89  C   UNL A   1      43.818  23.204  26.782  1.00  0.00    -0.014 A 
ATOM     90  C   UNL A   1      43.039  22.602  27.785  1.00  0.00     0.010 A 
ATOM     91  C   UNL A   1      44.086  22.486  25.601  1.00  0.00     0.010 A 
ATOM     92  C   UNL A   1      42.560  21.298  27.621  1.00  0.00     0.020 A 
ATOM     93  C   UNL A   1      43.583  21.196  25.419  1.00  0.00     0.020 A 
ATOM     94  C   UNL A   1      42.832  20.606  26.437  1.00  0.00     0.054 A 
BRANCH  94  95
ATOM     95  S   UNL A   1      42.152  18.938  26.227  1.00  0.00     0.124 S 
ATOM     96  O   UNL A   1      42.277  18.386  27.572  1.00  0.00    -0.237 OA
ATOM     97  O   UNL A   1      40.787  19.203  25.780  1.00  0.00    -0.237 OA
ATOM     98  O   UNL A   1      43.024  18.332  25.222  1.00  0.00    -0.744 OA
ENDBRANCH  94  95
ENDBRANCH  68  89
ENDBRANCH  42  43
ENDBRANCH  34  37
ENDBRANCH  32  33
ENDBRANCH  31  32
ENDBRANCH  30  31
ENDBRANCH   1  30
TORSDOF 21
ENDMDL
