MODEL 1
REMARK VINA RESULT:     -11.2      0.000      0.000
REMARK SMILES NS(=O)(=O)c1ccc(C#Cc2cc(Cl)cc3c2O[C@H](C(F)(F)F)C(C(=O)NCCCCNC(=O)c2ccc(-c4c5nc(c(-c6ccc(S(=O)(=O)[O-])cc6)c6ccc([nH]6)c(-c6ccc(S(=O)(=O)[O-])cc6)c6nc(c(-c7ccc(S(=O)(=O)[O-])cc7)c7ccc4[nH]7)C=C6)C=C5)cc2)=C3)cc1
REMARK SMILES IDX 29 1 28 2 27 3 25 4 26 5 24 7 11 8 12 9 17 10 13 11 16 12
REMARK SMILES IDX 18 13 14 14 15 15 95 16 19 17 10 18 9 19 8 20 5 21 6 22
REMARK SMILES IDX 97 23 7 24 96 25 2 26 3 27 4 28 1 29 20 32 21 33 22 34 23 35
REMARK SMILES IDX 30 36 31 37 32 38 33 39 34 41 35 42 36 43 94 44 37 45 93 46
REMARK SMILES IDX 38 47 39 48 40 49 87 50 41 51 92 52 86 53 88 54 42 55 91 56
REMARK SMILES IDX 85 57 84 58 43 60 73 61 54 62 72 63 55 64 58 65 71 66 89 67
REMARK SMILES IDX 56 68 57 69 70 71 90 72 59 73 44 74 45 75 53 76 46 77 52 78
REMARK SMILES IDX 47 79 48 80 49 81 50 82 51 83 74 84 75 85 83 86 76 87 82 88
REMARK SMILES IDX 77 89 78 90 79 91 80 92 81 93 60 94 61 95 69 96 62 97 68 98
REMARK SMILES IDX 63 99 64 100 65 101 66 102 67 103
REMARK H PARENT 27 6 1 30 1 31 32 40 88 59 58 70
REMARK Flexibility Score: inf
ROOT
ATOM      1  C   UNL A   1      39.401  21.680  26.138  1.00  0.00     0.023 C 
ENDROOT
BRANCH   1   2
ATOM      2  C   UNL A   1      38.127  22.105  25.418  1.00  0.00     0.116 C 
BRANCH   2   3
ATOM      3  N   UNL A   1      37.260  20.976  25.120  1.00  0.00    -0.352 N 
ATOM      4  C   UNL A   1      35.926  20.749  25.038  1.00  0.00     0.251 C 
ATOM      5  O   UNL A   1      35.588  19.613  24.695  1.00  0.00    -0.270 OA
ATOM      6  H   UNL A   1      37.779  20.163  24.926  1.00  0.00     0.163 HD
BRANCH   4   7
ATOM      7  C   UNL A   1      34.878  21.769  25.340  1.00  0.00     0.067 C 
ATOM      8  C   UNL A   1      32.007  24.597  26.511  1.00  0.00     0.069 A 
ATOM      9  C   UNL A   1      30.700  24.195  26.775  1.00  0.00     0.041 A 
ATOM     10  C   UNL A   1      32.961  23.639  26.149  1.00  0.00     0.143 A 
ATOM     11  C   UNL A   1      30.367  22.842  26.686  1.00  0.00     0.043 A 
ATOM     12  C   UNL A   1      32.634  22.283  26.064  1.00  0.00     0.020 A 
ATOM     13  O   UNL A   1      34.230  24.094  25.939  1.00  0.00    -0.474 OA
ATOM     14  Cl  UNL A   1      28.753  22.344  27.024  1.00  0.00    -0.084 Cl
ATOM     15  C   UNL A   1      31.324  21.883  26.334  1.00  0.00     0.032 A 
ATOM     16  C   UNL A   1      33.678  21.313  25.744  1.00  0.00     0.025 C 
ATOM     17  C   UNL A   1      35.115  23.239  25.189  1.00  0.00     0.314 C 
BRANCH   8  18
ATOM     18  C   UNL A   1      32.382  25.978  26.590  1.00  0.00    -0.058 C 
ATOM     19  C   UNL A   1      32.630  27.154  26.680  1.00  0.00    -0.062 C 
BRANCH  19  20
ATOM     20  C   UNL A   1      32.961  28.535  26.842  1.00  0.00     0.025 A 
ATOM     21  C   UNL A   1      33.607  31.191  27.398  1.00  0.00     0.082 A 
ATOM     22  C   UNL A   1      32.309  30.869  26.989  1.00  0.00     0.023 A 
ATOM     23  C   UNL A   1      34.591  30.201  27.490  1.00  0.00     0.023 A 
ATOM     24  C   UNL A   1      31.988  29.535  26.709  1.00  0.00     0.018 A 
ATOM     25  C   UNL A   1      34.266  28.876  27.205  1.00  0.00     0.018 A 
BRANCH  21  26
ATOM     26  S   UNL A   1      34.006  32.825  27.944  1.00  0.00     0.238 S 
ATOM     27  O   UNL A   1      32.867  33.682  27.701  1.00  0.00    -0.207 OA
ATOM     28  O   UNL A   1      35.341  33.170  27.517  1.00  0.00    -0.207 OA
BRANCH  26  29
ATOM     29  N   UNL A   1      34.097  32.649  29.612  1.00  0.00    -0.225 NA
ATOM     30  H   UNL A   1      34.858  32.013  29.846  1.00  0.00     0.137 HD
ATOM     31  H   UNL A   1      33.217  32.271  29.962  1.00  0.00     0.137 HD
ENDBRANCH  26  29
ENDBRANCH  21  26
ENDBRANCH  19  20
ENDBRANCH   8  18
BRANCH  17  32
ATOM     32  C   UNL A   1      35.129  23.685  23.713  1.00  0.00     0.429 C 
ATOM     33  F   UNL A   1      34.342  22.871  22.966  1.00  0.00    -0.167 F 
ATOM     34  F   UNL A   1      34.656  24.941  23.539  1.00  0.00    -0.167 F 
ATOM     35  F   UNL A   1      36.369  23.655  23.176  1.00  0.00    -0.167 F 
ENDBRANCH  17  32
ENDBRANCH   4   7
ENDBRANCH   2   3
ENDBRANCH   1   2
BRANCH   1  36
ATOM     36  C   UNL A   1      39.693  20.194  25.994  1.00  0.00     0.023 C 
BRANCH  36  37
ATOM     37  C   UNL A   1      40.950  19.727  26.715  1.00  0.00     0.116 C 
BRANCH  37  38
ATOM     38  N   UNL A   1      42.045  19.355  25.824  1.00  0.00    -0.352 N 
ATOM     39  C   UNL A   1      43.103  20.141  25.418  1.00  0.00     0.251 C 
ATOM     40  H   UNL A   1      42.027  18.435  25.473  1.00  0.00     0.163 HD
ATOM     41  O   UNL A   1      43.903  19.743  24.580  1.00  0.00    -0.269 OA
BRANCH  39  42
ATOM     42  C   UNL A   1      43.206  21.497  25.991  1.00  0.00     0.039 A 
ATOM     43  C   UNL A   1      43.036  22.599  25.153  1.00  0.00     0.014 A 
ATOM     44  C   UNL A   1      43.644  21.659  27.306  1.00  0.00     0.014 A 
ATOM     45  C   UNL A   1      43.532  23.829  25.555  1.00  0.00     0.010 A 
ATOM     46  C   UNL A   1      44.006  22.932  27.753  1.00  0.00     0.010 A 
ATOM     47  C   UNL A   1      44.013  24.017  26.863  1.00  0.00    -0.014 A 
BRANCH  47  48
ATOM     48  C   UNL A   1      44.485  25.371  27.263  1.00  0.00     0.031 A 
ATOM     49  C   UNL A   1      45.862  25.866  26.909  1.00  0.00     0.074 A 
ATOM     50  C   UNL A   1      43.616  26.185  27.898  1.00  0.00     0.049 A 
ATOM     51  N   UNL A   1      46.388  27.045  27.131  1.00  0.00    -0.248 NA
ATOM     52  C   UNL A   1      46.773  24.931  26.227  1.00  0.00     0.031 C 
ATOM     53  C   UNL A   1      42.251  25.813  28.283  1.00  0.00     0.029 A 
ATOM     54  N   UNL A   1      43.723  27.495  28.291  1.00  0.00    -0.354 N 
ATOM     55  C   UNL A   1      47.685  26.990  26.634  1.00  0.00     0.074 A 
ATOM     56  C   UNL A   1      47.887  25.648  26.134  1.00  0.00     0.031 C 
ATOM     57  C   UNL A   1      41.622  26.888  28.770  1.00  0.00     0.029 A 
ATOM     58  C   UNL A   1      42.564  28.000  28.834  1.00  0.00     0.049 A 
ATOM     59  H   UNL A   1      44.549  28.022  28.194  1.00  0.00     0.167 HD
ATOM     60  C   UNL A   1      48.614  27.975  26.584  1.00  0.00     0.031 A 
ATOM     61  C   UNL A   1      42.280  29.214  29.343  1.00  0.00     0.031 A 
ATOM     62  C   UNL A   1      48.390  29.315  27.073  1.00  0.00     0.049 A 
ATOM     63  C   UNL A   1      43.343  30.272  29.318  1.00  0.00     0.074 A 
ATOM     64  C   UNL A   1      49.259  30.392  27.035  1.00  0.00     0.029 A 
ATOM     65  N   UNL A   1      47.227  29.765  27.681  1.00  0.00    -0.354 N 
ATOM     66  N   UNL A   1      44.549  30.211  28.803  1.00  0.00    -0.248 NA
ATOM     67  C   UNL A   1      43.013  31.561  29.937  1.00  0.00     0.031 C 
ATOM     68  C   UNL A   1      48.658  31.462  27.700  1.00  0.00     0.029 A 
ATOM     69  C   UNL A   1      47.375  31.089  28.066  1.00  0.00     0.049 A 
ATOM     70  H   UNL A   1      46.415  29.224  27.819  1.00  0.00     0.167 HD
ATOM     71  C   UNL A   1      45.119  31.457  29.030  1.00  0.00     0.074 A 
ATOM     72  C   UNL A   1      44.112  32.262  29.690  1.00  0.00     0.031 C 
ATOM     73  C   UNL A   1      46.370  31.886  28.731  1.00  0.00     0.031 A 
BRANCH  60  74
ATOM     74  C   UNL A   1      49.965  27.675  25.976  1.00  0.00    -0.014 A 
ATOM     75  C   UNL A   1      50.124  27.701  24.576  1.00  0.00     0.010 A 
ATOM     76  C   UNL A   1      51.034  27.215  26.769  1.00  0.00     0.010 A 
ATOM     77  C   UNL A   1      51.297  27.228  23.980  1.00  0.00     0.020 A 
ATOM     78  C   UNL A   1      52.223  26.776  26.179  1.00  0.00     0.020 A 
ATOM     79  C   UNL A   1      52.334  26.756  24.785  1.00  0.00     0.054 A 
BRANCH  79  80
ATOM     80  S   UNL A   1      53.821  26.084  23.992  1.00  0.00     0.124 S 
ATOM     81  O   UNL A   1      54.867  26.967  24.496  1.00  0.00    -0.237 OA
ATOM     82  O   UNL A   1      53.855  24.712  24.492  1.00  0.00    -0.237 OA
ATOM     83  O   UNL A   1      53.534  26.209  22.563  1.00  0.00    -0.744 OA
ENDBRANCH  79  80
ENDBRANCH  60  74
BRANCH  61  84
ATOM     84  C   UNL A   1      40.916  29.471  29.888  1.00  0.00    -0.014 A 
ATOM     85  C   UNL A   1      39.922  30.052  29.073  1.00  0.00     0.010 A 
ATOM     86  C   UNL A   1      40.633  29.241  31.244  1.00  0.00     0.010 A 
ATOM     87  C   UNL A   1      38.710  30.474  29.622  1.00  0.00     0.020 A 
ATOM     88  C   UNL A   1      39.401  29.620  31.788  1.00  0.00     0.020 A 
ATOM     89  C   UNL A   1      38.464  30.269  30.980  1.00  0.00     0.054 A 
BRANCH  89  90
ATOM     90  S   UNL A   1      36.917  30.902  31.684  1.00  0.00     0.124 S 
ATOM     91  O   UNL A   1      36.686  29.969  32.783  1.00  0.00    -0.237 OA
ATOM     92  O   UNL A   1      37.282  32.261  32.077  1.00  0.00    -0.237 OA
ATOM     93  O   UNL A   1      35.972  30.807  30.575  1.00  0.00    -0.744 OA
ENDBRANCH  89  90
ENDBRANCH  61  84
BRANCH  73  94
ATOM     94  C   UNL A   1      46.750  33.291  29.130  1.00  0.00    -0.014 A 
ATOM     95  C   UNL A   1      46.572  34.355  28.224  1.00  0.00     0.010 A 
ATOM     96  C   UNL A   1      47.400  33.539  30.352  1.00  0.00     0.010 A 
ATOM     97  C   UNL A   1      47.077  35.625  28.513  1.00  0.00     0.020 A 
ATOM     98  C   UNL A   1      47.867  34.819  30.664  1.00  0.00     0.020 A 
ATOM     99  C   UNL A   1      47.729  35.846  29.728  1.00  0.00     0.054 A 
BRANCH  99 100
ATOM    100  S   UNL A   1      48.415  37.491  30.063  1.00  0.00     0.124 S 
ATOM    101  O   UNL A   1      49.316  37.684  28.931  1.00  0.00    -0.237 OA
ATOM    102  O   UNL A   1      47.224  38.337  30.072  1.00  0.00    -0.237 OA
ATOM    103  O   UNL A   1      49.069  37.334  31.360  1.00  0.00    -0.744 OA
ENDBRANCH  99 100
ENDBRANCH  73  94
ENDBRANCH  47  48
ENDBRANCH  39  42
ENDBRANCH  37  38
ENDBRANCH  36  37
ENDBRANCH   1  36
TORSDOF 19
ENDMDL
MODEL 2
REMARK VINA RESULT:     -11.0      1.432      2.066
REMARK SMILES NS(=O)(=O)c1ccc(C#Cc2cc(Cl)cc3c2O[C@H](C(F)(F)F)C(C(=O)NCCCCNC(=O)c2ccc(-c4c5nc(c(-c6ccc(S(=O)(=O)[O-])cc6)c6ccc([nH]6)c(-c6ccc(S(=O)(=O)[O-])cc6)c6nc(c(-c7ccc(S(=O)(=O)[O-])cc7)c7ccc4[nH]7)C=C6)C=C5)cc2)=C3)cc1
REMARK SMILES IDX 29 1 28 2 27 3 25 4 26 5 24 7 11 8 12 9 17 10 13 11 16 12
REMARK SMILES IDX 18 13 14 14 15 15 95 16 19 17 10 18 9 19 8 20 5 21 6 22
REMARK SMILES IDX 97 23 7 24 96 25 2 26 3 27 4 28 1 29 20 32 21 33 22 34 23 35
REMARK SMILES IDX 30 36 31 37 32 38 33 39 34 41 35 42 36 43 94 44 37 45 93 46
REMARK SMILES IDX 38 47 39 48 40 49 87 50 41 51 92 52 86 53 88 54 42 55 91 56
REMARK SMILES IDX 85 57 84 58 43 60 73 61 54 62 72 63 55 64 58 65 71 66 89 67
REMARK SMILES IDX 56 68 57 69 70 71 90 72 59 73 44 74 45 75 53 76 46 77 52 78
REMARK SMILES IDX 47 79 48 80 49 81 50 82 51 83 74 84 75 85 83 86 76 87 82 88
REMARK SMILES IDX 77 89 78 90 79 91 80 92 81 93 60 94 61 95 69 96 62 97 68 98
REMARK SMILES IDX 63 99 64 100 65 101 66 102 67 103
REMARK H PARENT 27 6 1 30 1 31 32 40 88 59 58 70
REMARK Flexibility Score: inf
ROOT
ATOM      1  C   UNL A   1      37.117  21.098  25.321  1.00  0.00     0.023 C 
ENDROOT
BRANCH   1   2
ATOM      2  C   UNL A   1      35.777  21.403  25.977  1.00  0.00     0.116 C 
BRANCH   2   3
ATOM      3  N   UNL A   1      34.656  20.878  25.212  1.00  0.00    -0.352 N 
ATOM      4  C   UNL A   1      33.519  21.370  24.660  1.00  0.00     0.251 C 
ATOM      5  O   UNL A   1      32.833  20.565  24.025  1.00  0.00    -0.270 OA
ATOM      6  H   UNL A   1      34.749  19.912  25.052  1.00  0.00     0.163 HD
BRANCH   4   7
ATOM      7  C   UNL A   1      33.067  22.787  24.785  1.00  0.00     0.067 C 
ATOM      8  C   UNL A   1      31.656  26.686  25.427  1.00  0.00     0.069 A 
ATOM      9  C   UNL A   1      30.402  27.061  24.951  1.00  0.00     0.041 A 
ATOM     10  C   UNL A   1      32.102  25.374  25.231  1.00  0.00     0.143 A 
ATOM     11  C   UNL A   1      29.606  26.118  24.297  1.00  0.00     0.043 A 
ATOM     12  C   UNL A   1      31.307  24.426  24.581  1.00  0.00     0.020 A 
ATOM     13  O   UNL A   1      33.323  25.063  25.752  1.00  0.00    -0.474 OA
ATOM     14  Cl  UNL A   1      28.051  26.579  23.720  1.00  0.00    -0.084 Cl
ATOM     15  C   UNL A   1      30.048  24.804  24.111  1.00  0.00     0.032 A 
ATOM     16  C   UNL A   1      31.789  23.052  24.456  1.00  0.00     0.025 C 
ATOM     17  C   UNL A   1      33.976  23.888  25.232  1.00  0.00     0.314 C 
BRANCH   8  18
ATOM     18  C   UNL A   1      32.500  27.631  26.099  1.00  0.00    -0.058 C 
ATOM     19  C   UNL A   1      33.203  28.467  26.606  1.00  0.00    -0.062 C 
BRANCH  19  20
ATOM     20  C   UNL A   1      33.986  29.476  27.248  1.00  0.00     0.025 A 
ATOM     21  C   UNL A   1      35.499  31.573  28.294  1.00  0.00     0.082 A 
ATOM     22  C   UNL A   1      36.133  30.382  27.929  1.00  0.00     0.023 A 
ATOM     23  C   UNL A   1      34.112  31.706  28.180  1.00  0.00     0.023 A 
ATOM     24  C   UNL A   1      35.371  29.330  27.405  1.00  0.00     0.018 A 
ATOM     25  C   UNL A   1      33.358  30.653  27.662  1.00  0.00     0.018 A 
BRANCH  21  26
ATOM     26  S   UNL A   1      36.441  32.989  28.777  1.00  0.00     0.238 S 
ATOM     27  O   UNL A   1      35.696  34.178  28.431  1.00  0.00    -0.207 OA
ATOM     28  O   UNL A   1      37.824  32.806  28.405  1.00  0.00    -0.207 OA
BRANCH  26  29
ATOM     29  N   UNL A   1      36.410  32.903  30.454  1.00  0.00    -0.225 NA
ATOM     30  H   UNL A   1      37.361  32.793  30.807  1.00  0.00     0.137 HD
ATOM     31  H   UNL A   1      35.844  32.106  30.743  1.00  0.00     0.137 HD
ENDBRANCH  26  29
ENDBRANCH  21  26
ENDBRANCH  19  20
ENDBRANCH   8  18
BRANCH  17  32
ATOM     32  C   UNL A   1      34.982  24.302  24.139  1.00  0.00     0.429 C 
ATOM     33  F   UNL A   1      36.222  24.447  24.670  1.00  0.00    -0.167 F 
ATOM     34  F   UNL A   1      35.094  23.383  23.152  1.00  0.00    -0.167 F 
ATOM     35  F   UNL A   1      34.653  25.473  23.550  1.00  0.00    -0.167 F 
ENDBRANCH  17  32
ENDBRANCH   4   7
ENDBRANCH   2   3
ENDBRANCH   1   2
BRANCH   1  36
ATOM     36  C   UNL A   1      38.139  22.208  25.520  1.00  0.00     0.023 C 
BRANCH  36  37
ATOM     37  C   UNL A   1      39.289  21.844  26.448  1.00  0.00     0.116 C 
BRANCH  37  38
ATOM     38  N   UNL A   1      39.879  20.535  26.183  1.00  0.00    -0.352 N 
ATOM     39  C   UNL A   1      41.219  20.217  26.103  1.00  0.00     0.251 C 
ATOM     40  H   UNL A   1      39.247  19.793  26.045  1.00  0.00     0.163 HD
ATOM     41  O   UNL A   1      41.585  19.098  25.768  1.00  0.00    -0.269 OA
BRANCH  39  42
ATOM     42  C   UNL A   1      42.193  21.289  26.387  1.00  0.00     0.039 A 
ATOM     43  C   UNL A   1      42.633  21.473  27.698  1.00  0.00     0.014 A 
ATOM     44  C   UNL A   1      42.520  22.206  25.388  1.00  0.00     0.014 A 
ATOM     45  C   UNL A   1      43.190  22.690  28.053  1.00  0.00     0.010 A 
ATOM     46  C   UNL A   1      43.214  23.369  25.730  1.00  0.00     0.010 A 
ATOM     47  C   UNL A   1      43.500  23.652  27.075  1.00  0.00    -0.014 A 
BRANCH  47  48
ATOM     48  C   UNL A   1      44.148  24.921  27.501  1.00  0.00     0.031 A 
ATOM     49  C   UNL A   1      45.558  25.265  27.097  1.00  0.00     0.074 A 
ATOM     50  C   UNL A   1      43.413  25.804  28.208  1.00  0.00     0.049 A 
ATOM     51  N   UNL A   1      46.231  26.363  27.337  1.00  0.00    -0.248 NA
ATOM     52  C   UNL A   1      46.319  24.258  26.338  1.00  0.00     0.031 C 
ATOM     53  C   UNL A   1      42.031  25.581  28.645  1.00  0.00     0.029 A 
ATOM     54  N   UNL A   1      43.694  27.075  28.643  1.00  0.00    -0.354 N 
ATOM     55  C   UNL A   1      47.489  26.176  26.775  1.00  0.00     0.074 A 
ATOM     56  C   UNL A   1      47.505  24.842  26.217  1.00  0.00     0.031 C 
ATOM     57  C   UNL A   1      41.559  26.701  29.203  1.00  0.00     0.029 A 
ATOM     58  C   UNL A   1      42.630  27.690  29.261  1.00  0.00     0.049 A 
ATOM     59  H   UNL A   1      44.572  27.504  28.525  1.00  0.00     0.167 HD
ATOM     60  C   UNL A   1      48.527  27.045  26.716  1.00  0.00     0.031 A 
ATOM     61  C   UNL A   1      42.517  28.907  29.828  1.00  0.00     0.031 A 
ATOM     62  C   UNL A   1      48.488  28.380  27.265  1.00  0.00     0.049 A 
ATOM     63  C   UNL A   1      43.698  29.831  29.791  1.00  0.00     0.074 A 
ATOM     64  C   UNL A   1      49.477  29.347  27.224  1.00  0.00     0.029 A 
ATOM     65  N   UNL A   1      47.415  28.938  27.946  1.00  0.00    -0.354 N 
ATOM     66  N   UNL A   1      44.863  29.649  29.214  1.00  0.00    -0.248 NA
ATOM     67  C   UNL A   1      43.553  31.122  30.472  1.00  0.00     0.031 C 
ATOM     68  C   UNL A   1      49.040  30.451  27.957  1.00  0.00     0.029 A 
ATOM     69  C   UNL A   1      47.738  30.217  28.371  1.00  0.00     0.049 A 
ATOM     70  H   UNL A   1      46.552  28.492  28.103  1.00  0.00     0.167 HD
ATOM     71  C   UNL A   1      45.588  30.808  29.459  1.00  0.00     0.074 A 
ATOM     72  C   UNL A   1      44.716  31.698  30.197  1.00  0.00     0.031 C 
ATOM     73  C   UNL A   1      46.867  31.099  29.114  1.00  0.00     0.031 A 
BRANCH  60  74
ATOM     74  C   UNL A   1      49.804  26.613  26.031  1.00  0.00    -0.014 A 
ATOM     75  C   UNL A   1      50.856  26.066  26.794  1.00  0.00     0.010 A 
ATOM     76  C   UNL A   1      50.027  26.887  24.669  1.00  0.00     0.010 A 
ATOM     77  C   UNL A   1      52.115  25.853  26.225  1.00  0.00     0.020 A 
ATOM     78  C   UNL A   1      51.275  26.640  24.087  1.00  0.00     0.020 A 
ATOM     79  C   UNL A   1      52.320  26.154  24.877  1.00  0.00     0.054 A 
BRANCH  79  80
ATOM     80  S   UNL A   1      53.978  25.933  24.175  1.00  0.00     0.124 S 
ATOM     81  O   UNL A   1      54.749  26.957  24.872  1.00  0.00    -0.237 OA
ATOM     82  O   UNL A   1      54.292  24.552  24.531  1.00  0.00    -0.237 OA
ATOM     83  O   UNL A   1      53.779  26.168  22.745  1.00  0.00    -0.744 OA
ENDBRANCH  79  80
ENDBRANCH  60  74
BRANCH  61  84
ATOM     84  C   UNL A   1      41.220  29.299  30.449  1.00  0.00    -0.014 A 
ATOM     85  C   UNL A   1      41.040  29.203  31.844  1.00  0.00     0.010 A 
ATOM     86  C   UNL A   1      40.126  29.665  29.647  1.00  0.00     0.010 A 
ATOM     87  C   UNL A   1      39.777  29.379  32.413  1.00  0.00     0.020 A 
ATOM     88  C   UNL A   1      38.868  29.888  30.219  1.00  0.00     0.020 A 
ATOM     89  C   UNL A   1      38.696  29.705  31.593  1.00  0.00     0.054 A 
BRANCH  89  90
ATOM     90  S   UNL A   1      37.052  29.847  32.346  1.00  0.00     0.124 S 
ATOM     91  O   UNL A   1      37.035  28.696  33.244  1.00  0.00    -0.237 OA
ATOM     92  O   UNL A   1      37.115  31.153  32.998  1.00  0.00    -0.237 OA
ATOM     93  O   UNL A   1      36.144  29.764  31.205  1.00  0.00    -0.744 OA
ENDBRANCH  89  90
ENDBRANCH  61  84
BRANCH  73  94
ATOM     94  C   UNL A   1      47.432  32.430  29.546  1.00  0.00    -0.014 A 
ATOM     95  C   UNL A   1      47.540  33.485  28.619  1.00  0.00     0.010 A 
ATOM     96  C   UNL A   1      47.971  32.598  30.834  1.00  0.00     0.010 A 
ATOM     97  C   UNL A   1      48.215  34.660  28.956  1.00  0.00     0.020 A 
ATOM     98  C   UNL A   1      48.608  33.790  31.190  1.00  0.00     0.020 A 
ATOM     99  C   UNL A   1      48.753  34.801  30.237  1.00  0.00     0.054 A 
BRANCH  99 100
ATOM    100  S   UNL A   1      49.664  36.317  30.639  1.00  0.00     0.124 S 
ATOM    101  O   UNL A   1      50.592  35.854  31.666  1.00  0.00    -0.237 OA
ATOM    102  O   UNL A   1      50.267  36.675  29.359  1.00  0.00    -0.237 OA
ATOM    103  O   UNL A   1      48.623  37.231  31.107  1.00  0.00    -0.744 OA
ENDBRANCH  99 100
ENDBRANCH  73  94
ENDBRANCH  47  48
ENDBRANCH  39  42
ENDBRANCH  37  38
ENDBRANCH  36  37
ENDBRANCH   1  36
TORSDOF 19
ENDMDL
MODEL 3
REMARK VINA RESULT:     -11.0      0.782      7.763
REMARK SMILES NS(=O)(=O)c1ccc(C#Cc2cc(Cl)cc3c2O[C@H](C(F)(F)F)C(C(=O)NCCCCNC(=O)c2ccc(-c4c5nc(c(-c6ccc(S(=O)(=O)[O-])cc6)c6ccc([nH]6)c(-c6ccc(S(=O)(=O)[O-])cc6)c6nc(c(-c7ccc(S(=O)(=O)[O-])cc7)c7ccc4[nH]7)C=C6)C=C5)cc2)=C3)cc1
REMARK SMILES IDX 29 1 28 2 27 3 25 4 26 5 24 7 11 8 12 9 17 10 13 11 16 12
REMARK SMILES IDX 18 13 14 14 15 15 95 16 19 17 10 18 9 19 8 20 5 21 6 22
REMARK SMILES IDX 97 23 7 24 96 25 2 26 3 27 4 28 1 29 20 32 21 33 22 34 23 35
REMARK SMILES IDX 30 36 31 37 32 38 33 39 34 41 35 42 36 43 94 44 37 45 93 46
REMARK SMILES IDX 38 47 39 48 40 49 87 50 41 51 92 52 86 53 88 54 42 55 91 56
REMARK SMILES IDX 85 57 84 58 43 60 73 61 54 62 72 63 55 64 58 65 71 66 89 67
REMARK SMILES IDX 56 68 57 69 70 71 90 72 59 73 44 74 45 75 53 76 46 77 52 78
REMARK SMILES IDX 47 79 48 80 49 81 50 82 51 83 74 84 75 85 83 86 76 87 82 88
REMARK SMILES IDX 77 89 78 90 79 91 80 92 81 93 60 94 61 95 69 96 62 97 68 98
REMARK SMILES IDX 63 99 64 100 65 101 66 102 67 103
REMARK H PARENT 27 6 1 30 1 31 32 40 88 59 58 70
REMARK Flexibility Score: inf
ROOT
ATOM      1  C   UNL A   1      39.412  21.366  25.788  1.00  0.00     0.023 C 
ENDROOT
BRANCH   1   2
ATOM      2  C   UNL A   1      37.982  21.864  25.625  1.00  0.00     0.116 C 
BRANCH   2   3
ATOM      3  N   UNL A   1      37.075  20.806  25.208  1.00  0.00    -0.352 N 
ATOM      4  C   UNL A   1      35.737  20.660  25.040  1.00  0.00     0.251 C 
ATOM      5  O   UNL A   1      35.361  19.568  24.606  1.00  0.00    -0.270 OA
ATOM      6  H   UNL A   1      37.560  19.978  24.989  1.00  0.00     0.163 HD
BRANCH   4   7
ATOM      7  C   UNL A   1      34.729  21.716  25.350  1.00  0.00     0.067 C 
ATOM      8  C   UNL A   1      31.968  24.641  26.545  1.00  0.00     0.069 A 
ATOM      9  C   UNL A   1      30.645  24.287  26.803  1.00  0.00     0.041 A 
ATOM     10  C   UNL A   1      32.885  23.650  26.176  1.00  0.00     0.143 A 
ATOM     11  C   UNL A   1      30.261  22.949  26.700  1.00  0.00     0.043 A 
ATOM     12  C   UNL A   1      32.505  22.309  26.076  1.00  0.00     0.020 A 
ATOM     13  O   UNL A   1      34.170  24.058  25.971  1.00  0.00    -0.474 OA
ATOM     14  Cl  UNL A   1      28.628  22.511  27.032  1.00  0.00    -0.084 Cl
ATOM     15  C   UNL A   1      31.180  21.958  26.341  1.00  0.00     0.032 A 
ATOM     16  C   UNL A   1      33.512  21.302  25.748  1.00  0.00     0.025 C 
ATOM     17  C   UNL A   1      35.022  23.177  25.214  1.00  0.00     0.314 C 
BRANCH   8  18
ATOM     18  C   UNL A   1      32.395  26.006  26.639  1.00  0.00    -0.058 C 
ATOM     19  C   UNL A   1      32.686  27.171  26.731  1.00  0.00    -0.062 C 
BRANCH  19  20
ATOM     20  C   UNL A   1      33.058  28.542  26.899  1.00  0.00     0.025 A 
ATOM     21  C   UNL A   1      33.798  31.170  27.468  1.00  0.00     0.082 A 
ATOM     22  C   UNL A   1      32.472  30.887  27.123  1.00  0.00     0.023 A 
ATOM     23  C   UNL A   1      34.761  30.157  27.487  1.00  0.00     0.023 A 
ATOM     24  C   UNL A   1      32.104  29.566  26.837  1.00  0.00     0.018 A 
ATOM     25  C   UNL A   1      34.389  28.845  27.197  1.00  0.00     0.018 A 
BRANCH  21  26
ATOM     26  S   UNL A   1      34.264  32.784  28.021  1.00  0.00     0.238 S 
ATOM     27  O   UNL A   1      33.128  33.665  27.879  1.00  0.00    -0.207 OA
ATOM     28  O   UNL A   1      35.572  33.117  27.507  1.00  0.00    -0.207 OA
BRANCH  26  29
ATOM     29  N   UNL A   1      34.471  32.566  29.673  1.00  0.00    -0.225 NA
ATOM     30  H   UNL A   1      34.078  33.364  30.173  1.00  0.00     0.137 HD
ATOM     31  H   UNL A   1      35.465  32.487  29.884  1.00  0.00     0.137 HD
ENDBRANCH  26  29
ENDBRANCH  21  26
ENDBRANCH  19  20
ENDBRANCH   8  18
BRANCH  17  32
ATOM     32  C   UNL A   1      35.056  23.637  23.742  1.00  0.00     0.429 C 
ATOM     33  F   UNL A   1      36.311  23.520  23.240  1.00  0.00    -0.167 F 
ATOM     34  F   UNL A   1      34.253  22.898  22.942  1.00  0.00    -0.167 F 
ATOM     35  F   UNL A   1      34.677  24.926  23.595  1.00  0.00    -0.167 F 
ENDBRANCH  17  32
ENDBRANCH   4   7
ENDBRANCH   2   3
ENDBRANCH   1   2
BRANCH   1  36
ATOM     36  C   UNL A   1      40.105  21.950  27.011  1.00  0.00     0.023 C 
BRANCH  36  37
ATOM     37  C   UNL A   1      41.204  21.070  27.590  1.00  0.00     0.116 C 
BRANCH  37  38
ATOM     38  N   UNL A   1      41.777  20.125  26.636  1.00  0.00    -0.352 N 
ATOM     39  C   UNL A   1      42.825  20.339  25.766  1.00  0.00     0.251 C 
ATOM     40  H   UNL A   1      41.367  19.230  26.611  1.00  0.00     0.163 HD
ATOM     41  O   UNL A   1      43.144  19.496  24.938  1.00  0.00    -0.269 OA
BRANCH  39  42
ATOM     42  C   UNL A   1      43.515  21.643  25.836  1.00  0.00     0.039 A 
ATOM     43  C   UNL A   1      44.479  21.845  26.824  1.00  0.00     0.014 A 
ATOM     44  C   UNL A   1      43.073  22.700  25.041  1.00  0.00     0.014 A 
ATOM     45  C   UNL A   1      44.819  23.141  27.172  1.00  0.00     0.010 A 
ATOM     46  C   UNL A   1      43.535  23.993  25.306  1.00  0.00     0.010 A 
ATOM     47  C   UNL A   1      44.362  24.234  26.413  1.00  0.00    -0.014 A 
BRANCH  47  48
ATOM     48  C   UNL A   1      44.800  25.603  26.796  1.00  0.00     0.031 A 
ATOM     49  C   UNL A   1      43.944  26.497  27.654  1.00  0.00     0.074 A 
ATOM     50  C   UNL A   1      46.028  26.009  26.412  1.00  0.00     0.049 A 
ATOM     51  N   UNL A   1      44.222  27.688  28.123  1.00  0.00    -0.248 NA
ATOM     52  C   UNL A   1      42.607  26.008  28.032  1.00  0.00     0.031 C 
ATOM     53  C   UNL A   1      46.949  25.220  25.586  1.00  0.00     0.029 A 
ATOM     54  N   UNL A   1      46.735  27.150  26.694  1.00  0.00    -0.354 N 
ATOM     55  C   UNL A   1      43.099  28.095  28.835  1.00  0.00     0.074 A 
ATOM     56  C   UNL A   1      42.115  27.043  28.704  1.00  0.00     0.031 C 
ATOM     57  C   UNL A   1      48.122  25.857  25.505  1.00  0.00     0.029 A 
ATOM     58  C   UNL A   1      48.011  27.145  26.180  1.00  0.00     0.049 A 
ATOM     59  H   UNL A   1      46.365  27.900  27.214  1.00  0.00     0.167 HD
ATOM     60  C   UNL A   1      42.915  29.233  29.546  1.00  0.00     0.031 A 
ATOM     61  C   UNL A   1      48.989  28.071  26.225  1.00  0.00     0.031 A 
ATOM     62  C   UNL A   1      43.915  30.266  29.681  1.00  0.00     0.049 A 
ATOM     63  C   UNL A   1      48.740  29.344  26.980  1.00  0.00     0.074 A 
ATOM     64  C   UNL A   1      43.834  31.440  30.409  1.00  0.00     0.029 A 
ATOM     65  N   UNL A   1      45.168  30.254  29.084  1.00  0.00    -0.354 N 
ATOM     66  N   UNL A   1      47.687  29.687  27.683  1.00  0.00    -0.248 NA
ATOM     67  C   UNL A   1      49.808  30.350  26.954  1.00  0.00     0.031 C 
ATOM     68  C   UNL A   1      44.997  32.177  30.180  1.00  0.00     0.029 A 
ATOM     69  C   UNL A   1      45.849  31.423  29.390  1.00  0.00     0.049 A 
ATOM     70  H   UNL A   1      45.522  29.523  28.527  1.00  0.00     0.167 HD
ATOM     71  C   UNL A   1      47.968  30.950  28.189  1.00  0.00     0.074 A 
ATOM     72  C   UNL A   1      49.305  31.288  27.747  1.00  0.00     0.031 C 
ATOM     73  C   UNL A   1      47.180  31.759  28.940  1.00  0.00     0.031 A 
BRANCH  60  74
ATOM     74  C   UNL A   1      41.597  29.447  30.255  1.00  0.00    -0.014 A 
ATOM     75  C   UNL A   1      41.436  29.002  31.583  1.00  0.00     0.010 A 
ATOM     76  C   UNL A   1      40.473  29.940  29.567  1.00  0.00     0.010 A 
ATOM     77  C   UNL A   1      40.176  28.998  32.188  1.00  0.00     0.020 A 
ATOM     78  C   UNL A   1      39.217  29.972  30.182  1.00  0.00     0.020 A 
ATOM     79  C   UNL A   1      39.071  29.471  31.478  1.00  0.00     0.054 A 
BRANCH  79  80
ATOM     80  S   UNL A   1      37.434  29.394  32.256  1.00  0.00     0.124 S 
ATOM     81  O   UNL A   1      37.518  28.162  33.033  1.00  0.00    -0.237 OA
ATOM     82  O   UNL A   1      37.394  30.631  33.032  1.00  0.00    -0.237 OA
ATOM     83  O   UNL A   1      36.515  29.353  31.119  1.00  0.00    -0.744 OA
ENDBRANCH  79  80
ENDBRANCH  60  74
BRANCH  61  84
ATOM     84  C   UNL A   1      50.286  27.789  25.548  1.00  0.00    -0.014 A 
ATOM     85  C   UNL A   1      51.355  27.216  26.268  1.00  0.00     0.010 A 
ATOM     86  C   UNL A   1      50.500  28.188  24.218  1.00  0.00     0.010 A 
ATOM     87  C   UNL A   1      52.628  27.128  25.702  1.00  0.00     0.020 A 
ATOM     88  C   UNL A   1      51.763  28.057  23.631  1.00  0.00     0.020 A 
ATOM     89  C   UNL A   1      52.827  27.565  24.391  1.00  0.00     0.054 A 
BRANCH  89  90
ATOM     90  S   UNL A   1      54.506  27.516  23.709  1.00  0.00     0.124 S 
ATOM     91  O   UNL A   1      54.406  26.421  22.748  1.00  0.00    -0.237 OA
ATOM     92  O   UNL A   1      54.651  28.849  23.131  1.00  0.00    -0.237 OA
ATOM     93  O   UNL A   1      55.343  27.249  24.876  1.00  0.00    -0.744 OA
ENDBRANCH  89  90
ENDBRANCH  61  84
BRANCH  73  94
ATOM     94  C   UNL A   1      47.721  33.114  29.325  1.00  0.00    -0.014 A 
ATOM     95  C   UNL A   1      48.358  33.293  30.568  1.00  0.00     0.010 A 
ATOM     96  C   UNL A   1      47.487  34.238  28.512  1.00  0.00     0.010 A 
ATOM     97  C   UNL A   1      48.708  34.571  31.010  1.00  0.00     0.020 A 
ATOM     98  C   UNL A   1      47.877  35.514  28.931  1.00  0.00     0.020 A 
ATOM     99  C   UNL A   1      48.457  35.674  30.191  1.00  0.00     0.054 A 
BRANCH  99 100
ATOM    100  S   UNL A   1      48.878  37.329  30.803  1.00  0.00     0.124 S 
ATOM    101  O   UNL A   1      47.864  38.161  30.163  1.00  0.00    -0.237 OA
ATOM    102  O   UNL A   1      48.747  37.176  32.250  1.00  0.00    -0.237 OA
ATOM    103  O   UNL A   1      50.245  37.534  30.327  1.00  0.00    -0.744 OA
ENDBRANCH  99 100
ENDBRANCH  73  94
ENDBRANCH  47  48
ENDBRANCH  39  42
ENDBRANCH  37  38
ENDBRANCH  36  37
ENDBRANCH   1  36
TORSDOF 19
ENDMDL
