MODEL 1
REMARK VINA RESULT:     -12.0      0.000      0.000
REMARK SMILES O=C(NCCCCNC(=O)[C@@H]1[C@H](C(=O)Nc2ccccc2Cc2ccccc2)[C@H]2C=C[C@@H]1O2)c1ccc(-c2c3nc(c(-c4ccc(S(=O)(=O)[O-])cc4)c4ccc([nH]4)c(-c4ccc(S(=O)(=O)[O-])cc4)c4nc(c(-c5ccc(S(=O)(=O)[O-])cc5)c5ccc2[nH]5)C=C4)C=C3)cc1
REMARK SMILES IDX 6 1 5 2 4 3 3 4 1 5 2 6 34 8 35 9 93 10 36 11 92 12 37 13
REMARK SMILES IDX 38 14 39 15 86 16 40 17 91 18 85 19 87 20 41 21 90 22 84 23
REMARK SMILES IDX 83 24 42 26 72 27 53 28 71 29 54 30 57 31 70 32 88 33 55 34
REMARK SMILES IDX 56 35 69 37 89 38 58 39 43 40 44 41 52 42 45 43 51 44 46 45
REMARK SMILES IDX 47 46 48 47 49 48 50 49 73 50 74 51 82 52 75 53 81 54 76 55
REMARK SMILES IDX 77 56 78 57 79 58 80 59 59 60 60 61 68 62 61 63 67 64 62 65
REMARK SMILES IDX 63 66 64 67 65 68 66 69 7 70 8 71 9 72 10 74 11 75 12 76
REMARK SMILES IDX 32 77 29 78 31 79 33 80 30 81 13 82 14 83 15 84 16 86 17 87
REMARK SMILES IDX 21 88 18 89 20 90 19 91 22 92 23 93 24 94 28 95 25 96 27 97
REMARK SMILES IDX 26 98
REMARK H PARENT 3 7 87 25 57 36 8 73 15 85
REMARK Flexibility Score: inf
ROOT
ATOM      1  C   UNL A   1      36.854  21.376  25.083  1.00  0.00     0.023 C 
ENDROOT
BRANCH   1   2
ATOM      2  C   UNL A   1      38.091  20.455  24.981  1.00  0.00     0.023 C 
BRANCH   2   3
ATOM      3  C   UNL A   1      39.208  20.766  25.975  1.00  0.00     0.116 C 
BRANCH   3   4
ATOM      4  N   UNL A   1      40.098  19.629  26.119  1.00  0.00    -0.352 N 
ATOM      5  O   UNL A   1      42.074  18.567  25.949  1.00  0.00    -0.269 OA
ATOM      6  C   UNL A   1      41.466  19.618  26.160  1.00  0.00     0.251 C 
ATOM      7  H   UNL A   1      39.661  18.751  26.196  1.00  0.00     0.163 HD
BRANCH   6   8
ATOM      8  C   UNL A   1      42.209  20.855  26.472  1.00  0.00     0.039 A 
ATOM      9  C   UNL A   1      42.674  21.677  25.439  1.00  0.00     0.014 A 
ATOM     10  C   UNL A   1      42.361  21.245  27.805  1.00  0.00     0.014 A 
ATOM     11  C   UNL A   1      43.333  22.866  25.741  1.00  0.00     0.010 A 
ATOM     12  C   UNL A   1      42.979  22.461  28.106  1.00  0.00     0.010 A 
ATOM     13  C   UNL A   1      43.460  23.286  27.075  1.00  0.00    -0.014 A 
BRANCH  13  14
ATOM     14  C   UNL A   1      43.958  24.649  27.382  1.00  0.00     0.031 A 
ATOM     15  C   UNL A   1      43.022  25.749  27.791  1.00  0.00     0.074 A 
ATOM     16  C   UNL A   1      45.276  24.892  27.230  1.00  0.00     0.049 A 
ATOM     17  N   UNL A   1      43.293  27.008  28.024  1.00  0.00    -0.248 NA
ATOM     18  C   UNL A   1      41.602  25.399  27.952  1.00  0.00     0.031 C 
ATOM     19  C   UNL A   1      46.274  23.901  26.814  1.00  0.00     0.029 A 
ATOM     20  N   UNL A   1      46.003  26.044  27.389  1.00  0.00    -0.354 N 
ATOM     21  C   UNL A   1      42.079  27.607  28.336  1.00  0.00     0.074 A 
ATOM     22  C   UNL A   1      41.066  26.576  28.257  1.00  0.00     0.031 C 
ATOM     23  C   UNL A   1      47.479  24.485  26.755  1.00  0.00     0.029 A 
ATOM     24  C   UNL A   1      47.334  25.901  27.070  1.00  0.00     0.049 A 
ATOM     25  H   UNL A   1      45.611  26.892  27.702  1.00  0.00     0.167 HD
ATOM     26  C   UNL A   1      41.838  28.902  28.654  1.00  0.00     0.031 A 
ATOM     27  C   UNL A   1      48.322  26.812  26.996  1.00  0.00     0.031 A 
ATOM     28  C   UNL A   1      42.858  29.917  28.734  1.00  0.00     0.049 A 
ATOM     29  C   UNL A   1      48.013  28.247  27.315  1.00  0.00     0.074 A 
ATOM     30  C   UNL A   1      42.724  31.237  29.129  1.00  0.00     0.029 A 
ATOM     31  N   UNL A   1      44.190  29.735  28.397  1.00  0.00    -0.354 N 
ATOM     32  N   UNL A   1      46.875  28.776  27.697  1.00  0.00    -0.248 NA
ATOM     33  C   UNL A   1      49.116  29.209  27.186  1.00  0.00     0.031 C 
ATOM     34  C   UNL A   1      43.959  31.871  28.965  1.00  0.00     0.029 A 
ATOM     35  C   UNL A   1      44.877  30.931  28.524  1.00  0.00     0.049 A 
ATOM     36  H   UNL A   1      44.589  28.882  28.108  1.00  0.00     0.167 HD
ATOM     37  C   UNL A   1      47.128  30.131  27.862  1.00  0.00     0.074 A 
ATOM     38  C   UNL A   1      48.531  30.337  27.565  1.00  0.00     0.031 C 
ATOM     39  C   UNL A   1      46.271  31.120  28.217  1.00  0.00     0.031 A 
BRANCH  26  40
ATOM     40  C   UNL A   1      40.417  29.325  28.915  1.00  0.00    -0.014 A 
ATOM     41  C   UNL A   1      40.000  29.734  30.194  1.00  0.00     0.010 A 
ATOM     42  C   UNL A   1      39.518  29.424  27.837  1.00  0.00     0.010 A 
ATOM     43  C   UNL A   1      38.705  30.227  30.390  1.00  0.00     0.020 A 
ATOM     44  C   UNL A   1      38.230  29.934  28.025  1.00  0.00     0.020 A 
ATOM     45  C   UNL A   1      37.830  30.328  29.304  1.00  0.00     0.054 A 
BRANCH  45  46
ATOM     46  S   UNL A   1      36.181  31.035  29.576  1.00  0.00     0.124 S 
ATOM     47  O   UNL A   1      35.339  30.152  28.771  1.00  0.00    -0.237 OA
ATOM     48  O   UNL A   1      36.015  30.913  31.022  1.00  0.00    -0.237 OA
ATOM     49  O   UNL A   1      36.301  32.403  29.079  1.00  0.00    -0.744 OA
ENDBRANCH  45  46
ENDBRANCH  26  40
BRANCH  27  50
ATOM     50  C   UNL A   1      49.679  26.403  26.541  1.00  0.00    -0.014 A 
ATOM     51  C   UNL A   1      50.606  25.851  27.441  1.00  0.00     0.010 A 
ATOM     52  C   UNL A   1      50.050  26.570  25.193  1.00  0.00     0.010 A 
ATOM     53  C   UNL A   1      51.889  25.500  27.009  1.00  0.00     0.020 A 
ATOM     54  C   UNL A   1      51.319  26.191  24.751  1.00  0.00     0.020 A 
ATOM     55  C   UNL A   1      52.237  25.676  25.665  1.00  0.00     0.054 A 
BRANCH  55  56
ATOM     56  S   UNL A   1      53.898  25.192  25.119  1.00  0.00     0.124 S 
ATOM     57  O   UNL A   1      54.710  25.535  26.282  1.00  0.00    -0.237 OA
ATOM     58  O   UNL A   1      53.741  23.764  24.853  1.00  0.00    -0.237 OA
ATOM     59  O   UNL A   1      54.120  26.017  23.933  1.00  0.00    -0.744 OA
ENDBRANCH  55  56
ENDBRANCH  27  50
BRANCH  39  60
ATOM     60  C   UNL A   1      46.828  32.514  28.310  1.00  0.00    -0.014 A 
ATOM     61  C   UNL A   1      46.789  33.379  27.203  1.00  0.00     0.010 A 
ATOM     62  C   UNL A   1      47.336  32.984  29.534  1.00  0.00     0.010 A 
ATOM     63  C   UNL A   1      47.265  34.688  27.314  1.00  0.00     0.020 A 
ATOM     64  C   UNL A   1      47.787  34.300  29.657  1.00  0.00     0.020 A 
ATOM     65  C   UNL A   1      47.756  35.141  28.542  1.00  0.00     0.054 A 
BRANCH  65  66
ATOM     66  S   UNL A   1      48.307  36.864  28.677  1.00  0.00     0.124 S 
ATOM     67  O   UNL A   1      47.125  37.597  28.230  1.00  0.00    -0.237 OA
ATOM     68  O   UNL A   1      48.625  36.990  30.097  1.00  0.00    -0.237 OA
ATOM     69  O   UNL A   1      49.458  36.931  27.778  1.00  0.00    -0.744 OA
ENDBRANCH  65  66
ENDBRANCH  39  60
ENDBRANCH  13  14
ENDBRANCH   6   8
ENDBRANCH   3   4
ENDBRANCH   2   3
ENDBRANCH   1   2
BRANCH   1  70
ATOM     70  C   UNL A   1      36.583  22.254  23.858  1.00  0.00     0.116 C 
BRANCH  70  71
ATOM     71  N   UNL A   1      36.081  23.529  24.288  1.00  0.00    -0.356 N 
ATOM     72  C   UNL A   1      35.089  23.869  25.122  1.00  0.00     0.227 C 
ATOM     73  H   UNL A   1      36.555  24.297  23.896  1.00  0.00     0.163 HD
ATOM     74  O   UNL A   1      35.364  24.901  25.729  1.00  0.00    -0.275 OA
BRANCH  72  75
ATOM     75  C   UNL A   1      33.727  23.192  25.119  1.00  0.00     0.127 C 
ATOM     76  C   UNL A   1      32.889  23.740  23.934  1.00  0.00     0.127 C 
ATOM     77  C   UNL A   1      32.692  23.380  26.255  1.00  0.00     0.155 C 
ATOM     78  C   UNL A   1      31.512  23.981  24.522  1.00  0.00     0.155 C 
ATOM     79  C   UNL A   1      31.607  22.342  26.100  1.00  0.00     0.004 C 
ATOM     80  O   UNL A   1      31.891  24.511  25.804  1.00  0.00    -0.365 OA
ATOM     81  C   UNL A   1      30.909  22.691  25.005  1.00  0.00     0.004 C 
BRANCH  76  82
ATOM     82  C   UNL A   1      33.425  24.944  23.189  1.00  0.00     0.231 C 
ATOM     83  O   UNL A   1      34.070  24.677  22.153  1.00  0.00    -0.274 OA
ATOM     84  N   UNL A   1      33.284  26.268  23.406  1.00  0.00    -0.325 N 
ATOM     85  H   UNL A   1      33.677  26.709  22.618  1.00  0.00     0.169 HD
BRANCH  84  86
ATOM     86  C   UNL A   1      32.828  27.321  24.250  1.00  0.00     0.044 A 
ATOM     87  C   UNL A   1      33.960  27.822  24.955  1.00  0.00     0.026 A 
ATOM     88  C   UNL A   1      31.567  27.901  24.574  1.00  0.00    -0.020 A 
ATOM     89  C   UNL A   1      33.912  28.879  25.860  1.00  0.00     0.002 A 
ATOM     90  C   UNL A   1      31.557  28.986  25.500  1.00  0.00     0.006 A 
ATOM     91  C   UNL A   1      32.701  29.473  26.125  1.00  0.00     0.000 A 
BRANCH  88  92
ATOM     92  C   UNL A   1      30.177  27.591  24.050  1.00  0.00     0.073 C 
BRANCH  92  93
ATOM     93  C   UNL A   1      29.424  28.515  23.084  1.00  0.00    -0.044 A 
ATOM     94  C   UNL A   1      30.108  29.433  22.267  1.00  0.00     0.004 A 
ATOM     95  C   UNL A   1      28.023  28.615  23.126  1.00  0.00     0.004 A 
ATOM     96  C   UNL A   1      29.435  30.452  21.584  1.00  0.00     0.000 A 
ATOM     97  C   UNL A   1      27.345  29.618  22.419  1.00  0.00     0.000 A 
ATOM     98  C   UNL A   1      28.052  30.551  21.666  1.00  0.00     0.000 A 
ENDBRANCH  92  93
ENDBRANCH  88  92
ENDBRANCH  84  86
ENDBRANCH  76  82
ENDBRANCH  72  75
ENDBRANCH  70  71
ENDBRANCH   1  70
TORSDOF 18
ENDMDL
MODEL 2
REMARK VINA RESULT:     -11.8      6.293     11.858
REMARK SMILES O=C(NCCCCNC(=O)[C@@H]1[C@H](C(=O)Nc2ccccc2Cc2ccccc2)[C@H]2C=C[C@@H]1O2)c1ccc(-c2c3nc(c(-c4ccc(S(=O)(=O)[O-])cc4)c4ccc([nH]4)c(-c4ccc(S(=O)(=O)[O-])cc4)c4nc(c(-c5ccc(S(=O)(=O)[O-])cc5)c5ccc2[nH]5)C=C4)C=C3)cc1
REMARK SMILES IDX 6 1 5 2 4 3 3 4 1 5 2 6 34 8 35 9 93 10 36 11 92 12 37 13
REMARK SMILES IDX 38 14 39 15 86 16 40 17 91 18 85 19 87 20 41 21 90 22 84 23
REMARK SMILES IDX 83 24 42 26 72 27 53 28 71 29 54 30 57 31 70 32 88 33 55 34
REMARK SMILES IDX 56 35 69 37 89 38 58 39 43 40 44 41 52 42 45 43 51 44 46 45
REMARK SMILES IDX 47 46 48 47 49 48 50 49 73 50 74 51 82 52 75 53 81 54 76 55
REMARK SMILES IDX 77 56 78 57 79 58 80 59 59 60 60 61 68 62 61 63 67 64 62 65
REMARK SMILES IDX 63 66 64 67 65 68 66 69 7 70 8 71 9 72 10 74 11 75 12 76
REMARK SMILES IDX 32 77 29 78 31 79 33 80 30 81 13 82 14 83 15 84 16 86 17 87
REMARK SMILES IDX 21 88 18 89 20 90 19 91 22 92 23 93 24 94 28 95 25 96 27 97
REMARK SMILES IDX 26 98
REMARK H PARENT 3 7 87 25 57 36 8 73 15 85
REMARK Flexibility Score: inf
ROOT
ATOM      1  C   UNL A   1      31.970  29.904  26.773  1.00  0.00     0.023 C 
ENDROOT
BRANCH   1   2
ATOM      2  C   UNL A   1      31.831  31.441  26.866  1.00  0.00     0.023 C 
BRANCH   2   3
ATOM      3  C   UNL A   1      33.056  32.165  27.417  1.00  0.00     0.116 C 
BRANCH   3   4
ATOM      4  N   UNL A   1      32.789  33.584  27.566  1.00  0.00    -0.352 N 
ATOM      5  O   UNL A   1      32.659  35.513  28.717  1.00  0.00    -0.269 OA
ATOM      6  C   UNL A   1      33.234  34.437  28.539  1.00  0.00     0.251 C 
ATOM      7  H   UNL A   1      32.212  33.985  26.877  1.00  0.00     0.163 HD
BRANCH   6   8
ATOM      8  C   UNL A   1      34.406  34.078  29.362  1.00  0.00     0.039 A 
ATOM      9  C   UNL A   1      34.233  33.419  30.585  1.00  0.00     0.014 A 
ATOM     10  C   UNL A   1      35.690  34.317  28.866  1.00  0.00     0.014 A 
ATOM     11  C   UNL A   1      35.345  33.040  31.333  1.00  0.00     0.010 A 
ATOM     12  C   UNL A   1      36.804  33.894  29.594  1.00  0.00     0.010 A 
ATOM     13  C   UNL A   1      36.639  33.243  30.829  1.00  0.00    -0.014 A 
BRANCH  13  14
ATOM     14  C   UNL A   1      37.808  32.643  31.517  1.00  0.00     0.031 A 
ATOM     15  C   UNL A   1      38.481  31.411  30.985  1.00  0.00     0.074 A 
ATOM     16  C   UNL A   1      38.221  33.204  32.673  1.00  0.00     0.049 A 
ATOM     17  N   UNL A   1      39.467  30.728  31.508  1.00  0.00    -0.248 NA
ATOM     18  C   UNL A   1      37.984  30.871  29.710  1.00  0.00     0.031 C 
ATOM     19  C   UNL A   1      37.625  34.391  33.294  1.00  0.00     0.029 A 
ATOM     20  N   UNL A   1      39.223  32.848  33.539  1.00  0.00    -0.354 N 
ATOM     21  C   UNL A   1      39.694  29.664  30.643  1.00  0.00     0.074 A 
ATOM     22  C   UNL A   1      38.739  29.788  29.562  1.00  0.00     0.031 C 
ATOM     23  C   UNL A   1      38.273  34.665  34.435  1.00  0.00     0.029 A 
ATOM     24  C   UNL A   1      39.290  33.644  34.658  1.00  0.00     0.049 A 
ATOM     25  H   UNL A   1      39.836  32.094  33.375  1.00  0.00     0.167 HD
ATOM     26  C   UNL A   1      40.615  28.676  30.750  1.00  0.00     0.031 A 
ATOM     27  C   UNL A   1      40.051  33.545  35.764  1.00  0.00     0.031 A 
ATOM     28  C   UNL A   1      41.563  28.570  31.829  1.00  0.00     0.049 A 
ATOM     29  C   UNL A   1      41.033  32.413  35.870  1.00  0.00     0.074 A 
ATOM     30  C   UNL A   1      42.588  27.652  31.981  1.00  0.00     0.029 A 
ATOM     31  N   UNL A   1      41.593  29.389  32.947  1.00  0.00    -0.354 N 
ATOM     32  N   UNL A   1      41.296  31.470  34.997  1.00  0.00    -0.248 NA
ATOM     33  C   UNL A   1      41.816  32.326  37.109  1.00  0.00     0.031 C 
ATOM     34  C   UNL A   1      43.194  27.873  33.222  1.00  0.00     0.029 A 
ATOM     35  C   UNL A   1      42.584  28.966  33.817  1.00  0.00     0.049 A 
ATOM     36  H   UNL A   1      40.997  30.159  33.100  1.00  0.00     0.167 HD
ATOM     37  C   UNL A   1      42.280  30.682  35.579  1.00  0.00     0.074 A 
ATOM     38  C   UNL A   1      42.586  31.274  36.866  1.00  0.00     0.031 C 
ATOM     39  C   UNL A   1      42.870  29.562  35.096  1.00  0.00     0.031 A 
BRANCH  26  40
ATOM     40  C   UNL A   1      40.640  27.602  29.696  1.00  0.00    -0.014 A 
ATOM     41  C   UNL A   1      41.808  27.325  28.962  1.00  0.00     0.010 A 
ATOM     42  C   UNL A   1      39.511  26.780  29.520  1.00  0.00     0.010 A 
ATOM     43  C   UNL A   1      41.841  26.251  28.066  1.00  0.00     0.020 A 
ATOM     44  C   UNL A   1      39.546  25.694  28.641  1.00  0.00     0.020 A 
ATOM     45  C   UNL A   1      40.711  25.440  27.914  1.00  0.00     0.054 A 
BRANCH  45  46
ATOM     46  S   UNL A   1      40.807  24.014  26.797  1.00  0.00     0.124 S 
ATOM     47  O   UNL A   1      41.777  24.473  25.806  1.00  0.00    -0.237 OA
ATOM     48  O   UNL A   1      41.269  22.945  27.679  1.00  0.00    -0.237 OA
ATOM     49  O   UNL A   1      39.439  23.864  26.304  1.00  0.00    -0.744 OA
ENDBRANCH  45  46
ENDBRANCH  26  40
BRANCH  27  50
ATOM     50  C   UNL A   1      39.867  34.507  36.883  1.00  0.00    -0.014 A 
ATOM     51  C   UNL A   1      39.064  34.183  37.990  1.00  0.00     0.010 A 
ATOM     52  C   UNL A   1      40.500  35.764  36.842  1.00  0.00     0.010 A 
ATOM     53  C   UNL A   1      38.874  35.109  39.021  1.00  0.00     0.020 A 
ATOM     54  C   UNL A   1      40.339  36.679  37.885  1.00  0.00     0.020 A 
ATOM     55  C   UNL A   1      39.511  36.353  38.959  1.00  0.00     0.054 A 
BRANCH  55  56
ATOM     56  S   UNL A   1      39.272  37.530  40.318  1.00  0.00     0.124 S 
ATOM     57  O   UNL A   1      38.231  38.401  39.783  1.00  0.00    -0.237 OA
ATOM     58  O   UNL A   1      38.867  36.663  41.422  1.00  0.00    -0.237 OA
ATOM     59  O   UNL A   1      40.588  38.146  40.471  1.00  0.00    -0.744 OA
ENDBRANCH  55  56
ENDBRANCH  27  50
BRANCH  39  60
ATOM     60  C   UNL A   1      43.911  28.905  35.960  1.00  0.00    -0.014 A 
ATOM     61  C   UNL A   1      43.580  27.814  36.782  1.00  0.00     0.010 A 
ATOM     62  C   UNL A   1      45.247  29.340  35.898  1.00  0.00     0.010 A 
ATOM     63  C   UNL A   1      44.565  27.180  37.544  1.00  0.00     0.020 A 
ATOM     64  C   UNL A   1      46.240  28.692  36.637  1.00  0.00     0.020 A 
ATOM     65  C   UNL A   1      45.890  27.621  37.462  1.00  0.00     0.054 A 
BRANCH  65  66
ATOM     66  S   UNL A   1      47.160  26.739  38.410  1.00  0.00     0.124 S 
ATOM     67  O   UNL A   1      47.675  27.791  39.281  1.00  0.00    -0.237 OA
ATOM     68  O   UNL A   1      46.392  25.691  39.077  1.00  0.00    -0.237 OA
ATOM     69  O   UNL A   1      48.090  26.267  37.387  1.00  0.00    -0.744 OA
ENDBRANCH  65  66
ENDBRANCH  39  60
ENDBRANCH  13  14
ENDBRANCH   6   8
ENDBRANCH   3   4
ENDBRANCH   2   3
ENDBRANCH   1   2
BRANCH   1  70
ATOM     70  C   UNL A   1      33.177  29.398  25.977  1.00  0.00     0.116 C 
BRANCH  70  71
ATOM     71  N   UNL A   1      33.401  28.013  26.282  1.00  0.00    -0.356 N 
ATOM     72  C   UNL A   1      33.674  26.955  25.505  1.00  0.00     0.227 C 
ATOM     73  H   UNL A   1      33.345  27.801  27.241  1.00  0.00     0.163 HD
ATOM     74  O   UNL A   1      34.410  26.164  26.089  1.00  0.00    -0.275 OA
BRANCH  72  75
ATOM     75  C   UNL A   1      32.963  26.681  24.189  1.00  0.00     0.127 C 
ATOM     76  C   UNL A   1      31.944  25.530  24.391  1.00  0.00     0.127 C 
ATOM     77  C   UNL A   1      33.694  26.140  22.935  1.00  0.00     0.155 C 
ATOM     78  C   UNL A   1      32.128  24.641  23.176  1.00  0.00     0.155 C 
ATOM     79  C   UNL A   1      32.781  26.284  21.742  1.00  0.00     0.004 C 
ATOM     80  O   UNL A   1      33.561  24.694  23.060  1.00  0.00    -0.365 OA
ATOM     81  C   UNL A   1      31.794  25.389  21.916  1.00  0.00     0.004 C 
BRANCH  76  82
ATOM     82  C   UNL A   1      31.999  24.760  25.693  1.00  0.00     0.231 C 
ATOM     83  O   UNL A   1      31.247  25.192  26.592  1.00  0.00    -0.274 OA
ATOM     84  N   UNL A   1      32.672  23.646  26.047  1.00  0.00    -0.325 N 
ATOM     85  H   UNL A   1      32.329  23.400  26.937  1.00  0.00     0.169 HD
BRANCH  84  86
ATOM     86  C   UNL A   1      33.651  22.662  25.726  1.00  0.00     0.044 A 
ATOM     87  C   UNL A   1      34.931  23.264  25.892  1.00  0.00     0.026 A 
ATOM     88  C   UNL A   1      33.636  21.321  25.244  1.00  0.00    -0.020 A 
ATOM     89  C   UNL A   1      36.139  22.601  25.694  1.00  0.00     0.002 A 
ATOM     90  C   UNL A   1      34.891  20.670  25.059  1.00  0.00     0.006 A 
ATOM     91  C   UNL A   1      36.118  21.289  25.285  1.00  0.00     0.000 A 
BRANCH  88  92
ATOM     92  C   UNL A   1      32.470  20.402  24.927  1.00  0.00     0.073 C 
BRANCH  92  93
ATOM     93  C   UNL A   1      32.635  18.896  24.686  1.00  0.00    -0.044 A 
ATOM     94  C   UNL A   1      32.635  17.981  25.754  1.00  0.00     0.004 A 
ATOM     95  C   UNL A   1      32.990  18.403  23.419  1.00  0.00     0.004 A 
ATOM     96  C   UNL A   1      33.043  16.653  25.583  1.00  0.00     0.000 A 
ATOM     97  C   UNL A   1      33.371  17.066  23.240  1.00  0.00     0.000 A 
ATOM     98  C   UNL A   1      33.420  16.195  24.326  1.00  0.00     0.000 A 
ENDBRANCH  92  93
ENDBRANCH  88  92
ENDBRANCH  84  86
ENDBRANCH  76  82
ENDBRANCH  72  75
ENDBRANCH  70  71
ENDBRANCH   1  70
TORSDOF 18
ENDMDL
MODEL 3
REMARK VINA RESULT:     -11.7      6.019      8.469
REMARK SMILES O=C(NCCCCNC(=O)[C@@H]1[C@H](C(=O)Nc2ccccc2Cc2ccccc2)[C@H]2C=C[C@@H]1O2)c1ccc(-c2c3nc(c(-c4ccc(S(=O)(=O)[O-])cc4)c4ccc([nH]4)c(-c4ccc(S(=O)(=O)[O-])cc4)c4nc(c(-c5ccc(S(=O)(=O)[O-])cc5)c5ccc2[nH]5)C=C4)C=C3)cc1
REMARK SMILES IDX 6 1 5 2 4 3 3 4 1 5 2 6 34 8 35 9 93 10 36 11 92 12 37 13
REMARK SMILES IDX 38 14 39 15 86 16 40 17 91 18 85 19 87 20 41 21 90 22 84 23
REMARK SMILES IDX 83 24 42 26 72 27 53 28 71 29 54 30 57 31 70 32 88 33 55 34
REMARK SMILES IDX 56 35 69 37 89 38 58 39 43 40 44 41 52 42 45 43 51 44 46 45
REMARK SMILES IDX 47 46 48 47 49 48 50 49 73 50 74 51 82 52 75 53 81 54 76 55
REMARK SMILES IDX 77 56 78 57 79 58 80 59 59 60 60 61 68 62 61 63 67 64 62 65
REMARK SMILES IDX 63 66 64 67 65 68 66 69 7 70 8 71 9 72 10 74 11 75 12 76
REMARK SMILES IDX 32 77 29 78 31 79 33 80 30 81 13 82 14 83 15 84 16 86 17 87
REMARK SMILES IDX 21 88 18 89 20 90 19 91 22 92 23 93 24 94 28 95 25 96 27 97
REMARK SMILES IDX 26 98
REMARK H PARENT 3 7 87 25 57 36 8 73 15 85
REMARK Flexibility Score: inf
ROOT
ATOM      1  C   UNL A   1      37.037  23.079  25.061  1.00  0.00     0.023 C 
ENDROOT
BRANCH   1   2
ATOM      2  C   UNL A   1      38.204  23.016  26.072  1.00  0.00     0.023 C 
BRANCH   2   3
ATOM      3  C   UNL A   1      38.733  24.374  26.528  1.00  0.00     0.116 C 
BRANCH   3   4
ATOM      4  N   UNL A   1      39.953  24.714  25.818  1.00  0.00    -0.352 N 
ATOM      5  O   UNL A   1      41.591  26.105  25.154  1.00  0.00    -0.269 OA
ATOM      6  C   UNL A   1      40.800  25.767  26.036  1.00  0.00     0.251 C 
ATOM      7  H   UNL A   1      40.203  24.108  25.084  1.00  0.00     0.163 HD
BRANCH   6   8
ATOM      8  C   UNL A   1      40.777  26.483  27.327  1.00  0.00     0.039 A 
ATOM      9  C   UNL A   1      41.548  27.637  27.505  1.00  0.00     0.014 A 
ATOM     10  C   UNL A   1      39.909  26.052  28.334  1.00  0.00     0.014 A 
ATOM     11  C   UNL A   1      41.485  28.335  28.710  1.00  0.00     0.010 A 
ATOM     12  C   UNL A   1      39.811  26.780  29.522  1.00  0.00     0.010 A 
ATOM     13  C   UNL A   1      40.591  27.933  29.714  1.00  0.00    -0.014 A 
BRANCH  13  14
ATOM     14  C   UNL A   1      40.363  28.798  30.897  1.00  0.00     0.031 A 
ATOM     15  C   UNL A   1      39.294  29.852  30.900  1.00  0.00     0.074 A 
ATOM     16  C   UNL A   1      41.183  28.651  31.959  1.00  0.00     0.049 A 
ATOM     17  N   UNL A   1      39.017  30.733  31.827  1.00  0.00    -0.248 NA
ATOM     18  C   UNL A   1      38.430  29.937  29.713  1.00  0.00     0.031 C 
ATOM     19  C   UNL A   1      42.272  27.673  32.054  1.00  0.00     0.029 A 
ATOM     20  N   UNL A   1      41.244  29.328  33.150  1.00  0.00    -0.354 N 
ATOM     21  C   UNL A   1      37.965  31.492  31.330  1.00  0.00     0.074 A 
ATOM     22  C   UNL A   1      37.655  30.973  30.015  1.00  0.00     0.031 C 
ATOM     23  C   UNL A   1      42.887  27.811  33.237  1.00  0.00     0.029 A 
ATOM     24  C   UNL A   1      42.278  28.922  33.960  1.00  0.00     0.049 A 
ATOM     25  H   UNL A   1      40.608  30.037  33.402  1.00  0.00     0.167 HD
ATOM     26  C   UNL A   1      37.325  32.529  31.921  1.00  0.00     0.031 A 
ATOM     27  C   UNL A   1      42.721  29.411  35.132  1.00  0.00     0.031 A 
ATOM     28  C   UNL A   1      37.640  33.031  33.234  1.00  0.00     0.049 A 
ATOM     29  C   UNL A   1      42.014  30.588  35.742  1.00  0.00     0.074 A 
ATOM     30  C   UNL A   1      36.993  34.023  33.951  1.00  0.00     0.029 A 
ATOM     31  N   UNL A   1      38.699  32.599  34.018  1.00  0.00    -0.354 N 
ATOM     32  N   UNL A   1      40.962  31.234  35.296  1.00  0.00    -0.248 NA
ATOM     33  C   UNL A   1      42.555  31.109  37.004  1.00  0.00     0.031 C 
ATOM     34  C   UNL A   1      37.701  34.238  35.138  1.00  0.00     0.029 A 
ATOM     35  C   UNL A   1      38.754  33.340  35.187  1.00  0.00     0.049 A 
ATOM     36  H   UNL A   1      39.320  31.873  33.779  1.00  0.00     0.167 HD
ATOM     37  C   UNL A   1      40.712  32.232  36.229  1.00  0.00     0.074 A 
ATOM     38  C   UNL A   1      41.702  32.088  37.276  1.00  0.00     0.031 C 
ATOM     39  C   UNL A   1      39.752  33.189  36.215  1.00  0.00     0.031 A 
BRANCH  26  40
ATOM     40  C   UNL A   1      36.231  33.226  31.157  1.00  0.00    -0.014 A 
ATOM     41  C   UNL A   1      34.945  33.385  31.703  1.00  0.00     0.010 A 
ATOM     42  C   UNL A   1      36.529  33.833  29.923  1.00  0.00     0.010 A 
ATOM     43  C   UNL A   1      33.975  34.130  31.023  1.00  0.00     0.020 A 
ATOM     44  C   UNL A   1      35.570  34.595  29.250  1.00  0.00     0.020 A 
ATOM     45  C   UNL A   1      34.296  34.735  29.803  1.00  0.00     0.054 A 
BRANCH  45  46
ATOM     46  S   UNL A   1      33.040  35.752  28.978  1.00  0.00     0.124 S 
ATOM     47  O   UNL A   1      33.863  36.733  28.273  1.00  0.00    -0.237 OA
ATOM     48  O   UNL A   1      32.351  34.785  28.128  1.00  0.00    -0.237 OA
ATOM     49  O   UNL A   1      32.245  36.286  30.081  1.00  0.00    -0.744 OA
ENDBRANCH  45  46
ENDBRANCH  26  40
BRANCH  27  50
ATOM     50  C   UNL A   1      43.931  28.829  35.774  1.00  0.00    -0.014 A 
ATOM     51  C   UNL A   1      45.213  29.322  35.477  1.00  0.00     0.010 A 
ATOM     52  C   UNL A   1      43.801  27.768  36.689  1.00  0.00     0.010 A 
ATOM     53  C   UNL A   1      46.345  28.746  36.062  1.00  0.00     0.020 A 
ATOM     54  C   UNL A   1      44.926  27.210  37.300  1.00  0.00     0.020 A 
ATOM     55  C   UNL A   1      46.193  27.690  36.968  1.00  0.00     0.054 A 
BRANCH  55  56
ATOM     56  S   UNL A   1      47.672  26.972  37.735  1.00  0.00     0.124 S 
ATOM     57  O   UNL A   1      47.374  27.116  39.156  1.00  0.00    -0.237 OA
ATOM     58  O   UNL A   1      47.665  25.605  37.221  1.00  0.00    -0.237 OA
ATOM     59  O   UNL A   1      48.758  27.812  37.233  1.00  0.00    -0.744 OA
ENDBRANCH  55  56
ENDBRANCH  27  50
BRANCH  39  60
ATOM     60  C   UNL A   1      39.723  34.153  37.368  1.00  0.00    -0.014 A 
ATOM     61  C   UNL A   1      40.174  35.475  37.212  1.00  0.00     0.010 A 
ATOM     62  C   UNL A   1      39.179  33.752  38.602  1.00  0.00     0.010 A 
ATOM     63  C   UNL A   1      40.098  36.377  38.276  1.00  0.00     0.020 A 
ATOM     64  C   UNL A   1      39.076  34.658  39.660  1.00  0.00     0.020 A 
ATOM     65  C   UNL A   1      39.544  35.963  39.493  1.00  0.00     0.054 A 
BRANCH  65  66
ATOM     66  S   UNL A   1      39.397  37.171  40.837  1.00  0.00     0.124 S 
ATOM     67  O   UNL A   1      38.635  36.425  41.834  1.00  0.00    -0.237 OA
ATOM     68  O   UNL A   1      40.791  37.438  41.183  1.00  0.00    -0.237 OA
ATOM     69  O   UNL A   1      38.688  38.291  40.221  1.00  0.00    -0.744 OA
ENDBRANCH  65  66
ENDBRANCH  39  60
ENDBRANCH  13  14
ENDBRANCH   6   8
ENDBRANCH   3   4
ENDBRANCH   2   3
ENDBRANCH   1   2
BRANCH   1  70
ATOM     70  C   UNL A   1      35.914  24.060  25.409  1.00  0.00     0.116 C 
BRANCH  70  71
ATOM     71  N   UNL A   1      35.259  24.482  24.203  1.00  0.00    -0.356 N 
ATOM     72  C   UNL A   1      34.002  24.333  23.764  1.00  0.00     0.227 C 
ATOM     73  H   UNL A   1      35.844  24.972  23.582  1.00  0.00     0.163 HD
ATOM     74  O   UNL A   1      33.653  25.307  23.101  1.00  0.00    -0.275 OA
BRANCH  72  75
ATOM     75  C   UNL A   1      33.226  23.029  23.879  1.00  0.00     0.127 C 
ATOM     76  C   UNL A   1      32.149  23.175  24.984  1.00  0.00     0.127 C 
ATOM     77  C   UNL A   1      33.876  21.703  24.346  1.00  0.00     0.155 C 
ATOM     78  C   UNL A   1      32.234  21.880  25.770  1.00  0.00     0.155 C 
ATOM     79  C   UNL A   1      32.929  20.567  24.045  1.00  0.00     0.004 C 
ATOM     80  O   UNL A   1      33.662  21.708  25.788  1.00  0.00    -0.365 OA
ATOM     81  C   UNL A   1      31.897  20.705  24.895  1.00  0.00     0.004 C 
BRANCH  76  82
ATOM     82  C   UNL A   1      32.207  24.401  25.869  1.00  0.00     0.231 C 
ATOM     83  O   UNL A   1      32.815  24.243  26.948  1.00  0.00    -0.274 OA
ATOM     84  N   UNL A   1      31.771  25.664  25.680  1.00  0.00    -0.325 N 
ATOM     85  H   UNL A   1      32.123  26.183  26.439  1.00  0.00     0.169 HD
BRANCH  84  86
ATOM     86  C   UNL A   1      31.035  26.591  24.887  1.00  0.00     0.044 A 
ATOM     87  C   UNL A   1      29.773  25.996  24.596  1.00  0.00     0.026 A 
ATOM     88  C   UNL A   1      31.286  27.867  24.304  1.00  0.00    -0.020 A 
ATOM     89  C   UNL A   1      28.768  26.616  23.859  1.00  0.00     0.002 A 
ATOM     90  C   UNL A   1      30.231  28.476  23.563  1.00  0.00     0.006 A 
ATOM     91  C   UNL A   1      28.995  27.872  23.349  1.00  0.00     0.000 A 
BRANCH  88  92
ATOM     92  C   UNL A   1      32.513  28.757  24.377  1.00  0.00     0.073 C 
BRANCH  92  93
ATOM     93  C   UNL A   1      33.122  29.234  25.702  1.00  0.00    -0.044 A 
ATOM     94  C   UNL A   1      32.710  30.435  26.306  1.00  0.00     0.004 A 
ATOM     95  C   UNL A   1      34.245  28.592  26.251  1.00  0.00     0.004 A 
ATOM     96  C   UNL A   1      33.428  31.012  27.360  1.00  0.00     0.000 A 
ATOM     97  C   UNL A   1      34.949  29.154  27.326  1.00  0.00     0.000 A 
ATOM     98  C   UNL A   1      34.555  30.375  27.866  1.00  0.00     0.000 A 
ENDBRANCH  92  93
ENDBRANCH  88  92
ENDBRANCH  84  86
ENDBRANCH  76  82
ENDBRANCH  72  75
ENDBRANCH  70  71
ENDBRANCH   1  70
TORSDOF 18
ENDMDL
