MODEL 1
REMARK VINA RESULT:     -10.9      0.000      0.000
REMARK SMILES O=C(NCCCCNC(=O)c1ccc(-c2c3nc(c(-c4ccc(S(=O)(=O)[O-])cc4)c4ccc([nH]4)c(-c4ccc(S(=O)(=O)[O-])cc4)c4nc(c(-c5ccc(S(=O)(=O)[O-])cc5)c5ccc2[nH]5)C=C4)C=C3)cc1)C1=C(C(=O)NCCC2=CCCCC2)CCCC1
REMARK SMILES IDX 5 1 4 2 3 3 1 4 2 5 71 7 72 8 87 9 84 10 86 11 85 12 73 13
REMARK SMILES IDX 74 14 75 15 76 17 77 18 78 19 79 20 83 21 80 22 82 23 81 24
REMARK SMILES IDX 6 25 7 26 8 27 9 28 10 30 11 31 12 32 70 33 13 34 69 35
REMARK SMILES IDX 14 36 15 37 16 38 63 39 17 40 68 41 62 42 64 43 18 44 67 45
REMARK SMILES IDX 61 46 60 47 19 49 49 50 30 51 48 52 31 53 34 54 47 55 65 56
REMARK SMILES IDX 32 57 33 58 46 60 66 61 35 62 20 63 21 64 29 65 22 66 28 67
REMARK SMILES IDX 23 68 24 69 25 70 26 71 27 72 50 73 51 74 59 75 52 76 58 77
REMARK SMILES IDX 53 78 54 79 55 80 56 81 57 82 36 83 37 84 45 85 38 86 44 87
REMARK SMILES IDX 39 88 40 89 41 90 42 91 43 92
REMARK H PARENT 3 6 75 16 8 29 64 48 34 59
REMARK Flexibility Score: inf
ROOT
ATOM      1  C   UNL A   1      31.768  30.574  26.704  1.00  0.00     0.023 C 
ENDROOT
BRANCH   1   2
ATOM      2  C   UNL A   1      31.525  30.078  25.280  1.00  0.00     0.116 C 
BRANCH   2   3
ATOM      3  N   UNL A   1      32.756  29.691  24.614  1.00  0.00    -0.352 N 
ATOM      4  O   UNL A   1      34.319  28.340  23.752  1.00  0.00    -0.270 OA
ATOM      5  C   UNL A   1      33.210  28.458  24.272  1.00  0.00     0.247 C 
ATOM      6  H   UNL A   1      33.352  30.437  24.374  1.00  0.00     0.163 HD
BRANCH   5   7
ATOM      7  C   UNL A   1      32.412  27.247  24.592  1.00  0.00     0.026 C 
ATOM      8  C   UNL A   1      31.486  26.680  23.790  1.00  0.00     0.026 C 
ATOM      9  C   UNL A   1      32.802  26.665  25.936  1.00  0.00     0.042 C 
ATOM     10  C   UNL A   1      30.579  25.580  24.321  1.00  0.00     0.042 C 
ATOM     11  C   UNL A   1      32.112  25.345  26.276  1.00  0.00     0.005 C 
ATOM     12  C   UNL A   1      30.660  25.388  25.838  1.00  0.00     0.005 C 
BRANCH   8  13
ATOM     13  C   UNL A   1      31.126  27.076  22.389  1.00  0.00     0.247 C 
ATOM     14  O   UNL A   1      30.158  27.817  22.208  1.00  0.00    -0.270 OA
ATOM     15  N   UNL A   1      31.773  26.589  21.299  1.00  0.00    -0.352 N 
ATOM     16  H   UNL A   1      31.346  26.816  20.441  1.00  0.00     0.163 HD
BRANCH  15  17
ATOM     17  C   UNL A   1      32.979  25.792  21.175  1.00  0.00     0.120 C 
BRANCH  17  18
ATOM     18  C   UNL A   1      32.785  24.302  21.471  1.00  0.00     0.052 C 
BRANCH  18  19
ATOM     19  C   UNL A   1      33.378  23.788  22.771  1.00  0.00    -0.072 C 
ATOM     20  C   UNL A   1      34.404  24.435  23.356  1.00  0.00    -0.028 C 
ATOM     21  C   UNL A   1      32.849  22.484  23.332  1.00  0.00     0.031 C 
ATOM     22  C   UNL A   1      35.151  23.920  24.553  1.00  0.00     0.027 C 
ATOM     23  C   UNL A   1      33.385  22.145  24.729  1.00  0.00     0.005 C 
ATOM     24  C   UNL A   1      34.874  22.444  24.838  1.00  0.00     0.004 C 
ENDBRANCH  18  19
ENDBRANCH  17  18
ENDBRANCH  15  17
ENDBRANCH   8  13
ENDBRANCH   5   7
ENDBRANCH   2   3
ENDBRANCH   1   2
BRANCH   1  25
ATOM     25  C   UNL A   1      31.733  32.100  26.871  1.00  0.00     0.023 C 
BRANCH  25  26
ATOM     26  C   UNL A   1      33.056  32.747  27.278  1.00  0.00     0.116 C 
BRANCH  26  27
ATOM     27  N   UNL A   1      32.884  34.130  27.700  1.00  0.00    -0.352 N 
ATOM     28  C   UNL A   1      33.434  34.809  28.756  1.00  0.00     0.251 C 
ATOM     29  H   UNL A   1      32.276  34.663  27.138  1.00  0.00     0.163 HD
ATOM     30  O   UNL A   1      32.968  35.903  29.080  1.00  0.00    -0.269 OA
BRANCH  28  31
ATOM     31  C   UNL A   1      34.569  34.246  29.523  1.00  0.00     0.039 A 
ATOM     32  C   UNL A   1      34.308  33.543  30.703  1.00  0.00     0.014 A 
ATOM     33  C   UNL A   1      35.893  34.453  29.120  1.00  0.00     0.014 A 
ATOM     34  C   UNL A   1      35.363  32.994  31.438  1.00  0.00     0.010 A 
ATOM     35  C   UNL A   1      36.939  33.848  29.816  1.00  0.00     0.010 A 
ATOM     36  C   UNL A   1      36.687  33.110  30.983  1.00  0.00    -0.014 A 
BRANCH  36  37
ATOM     37  C   UNL A   1      37.808  32.450  31.704  1.00  0.00     0.031 A 
ATOM     38  C   UNL A   1      38.265  32.957  33.046  1.00  0.00     0.074 A 
ATOM     39  C   UNL A   1      38.457  31.421  31.122  1.00  0.00     0.049 A 
ATOM     40  N   UNL A   1      39.252  32.534  33.794  1.00  0.00    -0.248 NA
ATOM     41  C   UNL A   1      37.532  34.102  33.611  1.00  0.00     0.031 C 
ATOM     42  C   UNL A   1      38.141  30.856  29.809  1.00  0.00     0.029 A 
ATOM     43  N   UNL A   1      39.522  30.671  31.557  1.00  0.00    -0.354 N 
ATOM     44  C   UNL A   1      39.270  33.366  34.908  1.00  0.00     0.074 A 
ATOM     45  C   UNL A   1      38.222  34.346  34.717  1.00  0.00     0.031 C 
ATOM     46  C   UNL A   1      38.976  29.835  29.557  1.00  0.00     0.029 A 
ATOM     47  C   UNL A   1      39.910  29.696  30.669  1.00  0.00     0.049 A 
ATOM     48  H   UNL A   1      39.966  30.819  32.424  1.00  0.00     0.167 HD
ATOM     49  C   UNL A   1      40.073  33.312  35.998  1.00  0.00     0.031 A 
ATOM     50  C   UNL A   1      40.907  28.793  30.735  1.00  0.00     0.031 A 
ATOM     51  C   UNL A   1      41.111  32.333  36.195  1.00  0.00     0.049 A 
ATOM     52  C   UNL A   1      41.790  28.755  31.952  1.00  0.00     0.074 A 
ATOM     53  C   UNL A   1      41.938  32.164  37.291  1.00  0.00     0.029 A 
ATOM     54  N   UNL A   1      41.465  31.358  35.275  1.00  0.00    -0.354 N 
ATOM     55  N   UNL A   1      41.749  29.513  33.022  1.00  0.00    -0.248 NA
ATOM     56  C   UNL A   1      42.845  27.733  31.975  1.00  0.00     0.031 C 
ATOM     57  C   UNL A   1      42.826  31.118  37.016  1.00  0.00     0.029 A 
ATOM     58  C   UNL A   1      42.514  30.600  35.768  1.00  0.00     0.049 A 
ATOM     59  H   UNL A   1      41.035  31.224  34.399  1.00  0.00     0.167 HD
ATOM     60  C   UNL A   1      42.759  29.044  33.855  1.00  0.00     0.074 A 
ATOM     61  C   UNL A   1      43.381  27.928  33.172  1.00  0.00     0.031 C 
ATOM     62  C   UNL A   1      43.132  29.497  35.077  1.00  0.00     0.031 A 
BRANCH  49  63
ATOM     63  C   UNL A   1      39.866  34.355  37.067  1.00  0.00    -0.014 A 
ATOM     64  C   UNL A   1      40.480  35.617  36.978  1.00  0.00     0.010 A 
ATOM     65  C   UNL A   1      39.016  34.083  38.155  1.00  0.00     0.010 A 
ATOM     66  C   UNL A   1      40.286  36.571  37.980  1.00  0.00     0.020 A 
ATOM     67  C   UNL A   1      38.798  35.045  39.146  1.00  0.00     0.020 A 
ATOM     68  C   UNL A   1      39.451  36.277  39.062  1.00  0.00     0.054 A 
BRANCH  68  69
ATOM     69  S   UNL A   1      39.207  37.536  40.344  1.00  0.00     0.124 S 
ATOM     70  O   UNL A   1      38.863  36.720  41.505  1.00  0.00    -0.237 OA
ATOM     71  O   UNL A   1      40.510  38.193  40.402  1.00  0.00    -0.237 OA
ATOM     72  O   UNL A   1      38.121  38.360  39.819  1.00  0.00    -0.744 OA
ENDBRANCH  68  69
ENDBRANCH  49  63
BRANCH  50  73
ATOM     73  C   UNL A   1      41.112  27.835  29.616  1.00  0.00    -0.014 A 
ATOM     74  C   UNL A   1      42.177  28.008  28.715  1.00  0.00     0.010 A 
ATOM     75  C   UNL A   1      40.254  26.730  29.460  1.00  0.00     0.010 A 
ATOM     76  C   UNL A   1      42.375  27.100  27.671  1.00  0.00     0.020 A 
ATOM     77  C   UNL A   1      40.464  25.806  28.432  1.00  0.00     0.020 A 
ATOM     78  C   UNL A   1      41.519  26.003  27.538  1.00  0.00     0.054 A 
BRANCH  78  79
ATOM     79  S   UNL A   1      41.833  24.802  26.214  1.00  0.00     0.124 S 
ATOM     80  O   UNL A   1      40.730  23.863  26.389  1.00  0.00    -0.237 OA
ATOM     81  O   UNL A   1      41.775  25.632  25.013  1.00  0.00    -0.237 OA
ATOM     82  O   UNL A   1      43.160  24.280  26.536  1.00  0.00    -0.744 OA
ENDBRANCH  78  79
ENDBRANCH  50  73
BRANCH  62  83
ATOM     83  C   UNL A   1      44.254  28.770  35.770  1.00  0.00    -0.014 A 
ATOM     84  C   UNL A   1      45.587  29.201  35.645  1.00  0.00     0.010 A 
ATOM     85  C   UNL A   1      43.965  27.668  36.595  1.00  0.00     0.010 A 
ATOM     86  C   UNL A   1      46.613  28.523  36.308  1.00  0.00     0.020 A 
ATOM     87  C   UNL A   1      44.984  27.004  37.280  1.00  0.00     0.020 A 
ATOM     88  C   UNL A   1      46.305  27.427  37.120  1.00  0.00     0.054 A 
BRANCH  88  89
ATOM     89  S   UNL A   1      47.650  26.588  38.003  1.00  0.00     0.124 S 
ATOM     90  O   UNL A   1      47.857  25.398  37.182  1.00  0.00    -0.237 OA
ATOM     91  O   UNL A   1      48.727  27.574  37.962  1.00  0.00    -0.237 OA
ATOM     92  O   UNL A   1      47.090  26.340  39.330  1.00  0.00    -0.744 OA
ENDBRANCH  88  89
ENDBRANCH  62  83
ENDBRANCH  36  37
ENDBRANCH  28  31
ENDBRANCH  26  27
ENDBRANCH  25  26
ENDBRANCH   1  25
TORSDOF 18
ENDMDL
MODEL 2
REMARK VINA RESULT:     -10.8      0.604      8.147
REMARK SMILES O=C(NCCCCNC(=O)c1ccc(-c2c3nc(c(-c4ccc(S(=O)(=O)[O-])cc4)c4ccc([nH]4)c(-c4ccc(S(=O)(=O)[O-])cc4)c4nc(c(-c5ccc(S(=O)(=O)[O-])cc5)c5ccc2[nH]5)C=C4)C=C3)cc1)C1=C(C(=O)NCCC2=CCCCC2)CCCC1
REMARK SMILES IDX 5 1 4 2 3 3 1 4 2 5 71 7 72 8 87 9 84 10 86 11 85 12 73 13
REMARK SMILES IDX 74 14 75 15 76 17 77 18 78 19 79 20 83 21 80 22 82 23 81 24
REMARK SMILES IDX 6 25 7 26 8 27 9 28 10 30 11 31 12 32 70 33 13 34 69 35
REMARK SMILES IDX 14 36 15 37 16 38 63 39 17 40 68 41 62 42 64 43 18 44 67 45
REMARK SMILES IDX 61 46 60 47 19 49 49 50 30 51 48 52 31 53 34 54 47 55 65 56
REMARK SMILES IDX 32 57 33 58 46 60 66 61 35 62 20 63 21 64 29 65 22 66 28 67
REMARK SMILES IDX 23 68 24 69 25 70 26 71 27 72 50 73 51 74 59 75 52 76 58 77
REMARK SMILES IDX 53 78 54 79 55 80 56 81 57 82 36 83 37 84 45 85 38 86 44 87
REMARK SMILES IDX 39 88 40 89 41 90 42 91 43 92
REMARK H PARENT 3 6 75 16 8 29 64 48 34 59
REMARK Flexibility Score: inf
ROOT
ATOM      1  C   UNL A   1      31.565  30.638  26.592  1.00  0.00     0.023 C 
ENDROOT
BRANCH   1   2
ATOM      2  C   UNL A   1      31.455  30.201  25.132  1.00  0.00     0.116 C 
BRANCH   2   3
ATOM      3  N   UNL A   1      32.708  29.678  24.619  1.00  0.00    -0.352 N 
ATOM      4  O   UNL A   1      34.229  28.157  23.997  1.00  0.00    -0.270 OA
ATOM      5  C   UNL A   1      33.089  28.394  24.393  1.00  0.00     0.247 C 
ATOM      6  H   UNL A   1      33.386  30.358  24.400  1.00  0.00     0.163 HD
BRANCH   5   7
ATOM      7  C   UNL A   1      32.164  27.272  24.695  1.00  0.00     0.026 C 
ATOM      8  C   UNL A   1      31.285  26.721  23.831  1.00  0.00     0.026 C 
ATOM      9  C   UNL A   1      32.358  26.758  26.108  1.00  0.00     0.042 C 
ATOM     10  C   UNL A   1      30.238  25.731  24.324  1.00  0.00     0.042 C 
ATOM     11  C   UNL A   1      31.529  25.521  26.449  1.00  0.00     0.005 C 
ATOM     12  C   UNL A   1      30.140  25.642  25.849  1.00  0.00     0.005 C 
BRANCH   8  13
ATOM     13  C   UNL A   1      31.111  27.043  22.377  1.00  0.00     0.247 C 
ATOM     14  O   UNL A   1      30.231  27.839  22.043  1.00  0.00    -0.270 OA
ATOM     15  N   UNL A   1      31.829  26.433  21.398  1.00  0.00    -0.352 N 
ATOM     16  H   UNL A   1      31.517  26.631  20.486  1.00  0.00     0.163 HD
BRANCH  15  17
ATOM     17  C   UNL A   1      32.973  25.543  21.460  1.00  0.00     0.120 C 
BRANCH  17  18
ATOM     18  C   UNL A   1      32.663  24.155  22.029  1.00  0.00     0.052 C 
BRANCH  18  19
ATOM     19  C   UNL A   1      33.380  23.773  23.311  1.00  0.00    -0.072 C 
ATOM     20  C   UNL A   1      32.966  22.715  24.035  1.00  0.00    -0.028 C 
ATOM     21  C   UNL A   1      34.503  24.667  23.797  1.00  0.00     0.031 C 
ATOM     22  C   UNL A   1      33.513  22.355  25.386  1.00  0.00     0.027 C 
ATOM     23  C   UNL A   1      35.273  24.101  24.997  1.00  0.00     0.005 C 
ATOM     24  C   UNL A   1      34.329  23.481  26.019  1.00  0.00     0.004 C 
ENDBRANCH  18  19
ENDBRANCH  17  18
ENDBRANCH  15  17
ENDBRANCH   8  13
ENDBRANCH   5   7
ENDBRANCH   2   3
ENDBRANCH   1   2
BRANCH   1  25
ATOM     25  C   UNL A   1      31.492  32.155  26.819  1.00  0.00     0.023 C 
BRANCH  25  26
ATOM     26  C   UNL A   1      32.797  32.816  27.259  1.00  0.00     0.116 C 
BRANCH  26  27
ATOM     27  N   UNL A   1      32.604  34.208  27.644  1.00  0.00    -0.352 N 
ATOM     28  C   UNL A   1      33.154  34.928  28.673  1.00  0.00     0.251 C 
ATOM     29  H   UNL A   1      31.979  34.713  27.074  1.00  0.00     0.163 HD
ATOM     30  O   UNL A   1      32.672  36.022  28.971  1.00  0.00    -0.269 OA
BRANCH  28  31
ATOM     31  C   UNL A   1      34.309  34.408  29.441  1.00  0.00     0.039 A 
ATOM     32  C   UNL A   1      34.087  33.855  30.706  1.00  0.00     0.014 A 
ATOM     33  C   UNL A   1      35.615  34.511  28.950  1.00  0.00     0.014 A 
ATOM     34  C   UNL A   1      35.160  33.349  31.446  1.00  0.00     0.010 A 
ATOM     35  C   UNL A   1      36.675  33.945  29.658  1.00  0.00     0.010 A 
ATOM     36  C   UNL A   1      36.460  33.356  30.914  1.00  0.00    -0.014 A 
BRANCH  36  37
ATOM     37  C   UNL A   1      37.595  32.735  31.649  1.00  0.00     0.031 A 
ATOM     38  C   UNL A   1      38.272  31.500  31.118  1.00  0.00     0.074 A 
ATOM     39  C   UNL A   1      37.982  33.254  32.832  1.00  0.00     0.049 A 
ATOM     40  N   UNL A   1      39.244  30.801  31.648  1.00  0.00    -0.248 NA
ATOM     41  C   UNL A   1      37.780  30.968  29.837  1.00  0.00     0.031 C 
ATOM     42  C   UNL A   1      37.386  34.425  33.478  1.00  0.00     0.029 A 
ATOM     43  N   UNL A   1      38.967  32.860  33.705  1.00  0.00    -0.354 N 
ATOM     44  C   UNL A   1      39.471  29.742  30.777  1.00  0.00     0.074 A 
ATOM     45  C   UNL A   1      38.506  29.866  29.705  1.00  0.00     0.031 C 
ATOM     46  C   UNL A   1      38.031  34.668  34.631  1.00  0.00     0.029 A 
ATOM     47  C   UNL A   1      39.060  33.652  34.825  1.00  0.00     0.049 A 
ATOM     48  H   UNL A   1      39.550  32.083  33.543  1.00  0.00     0.167 HD
ATOM     49  C   UNL A   1      40.405  28.763  30.851  1.00  0.00     0.031 A 
ATOM     50  C   UNL A   1      39.876  33.569  35.894  1.00  0.00     0.031 A 
ATOM     51  C   UNL A   1      41.373  28.643  31.911  1.00  0.00     0.049 A 
ATOM     52  C   UNL A   1      40.902  32.473  35.958  1.00  0.00     0.074 A 
ATOM     53  C   UNL A   1      42.394  27.718  32.043  1.00  0.00     0.029 A 
ATOM     54  N   UNL A   1      41.438  29.470  33.022  1.00  0.00    -0.354 N 
ATOM     55  N   UNL A   1      41.138  31.517  35.091  1.00  0.00    -0.248 NA
ATOM     56  C   UNL A   1      41.777  32.450  37.138  1.00  0.00     0.031 C 
ATOM     57  C   UNL A   1      43.048  27.956  33.257  1.00  0.00     0.029 A 
ATOM     58  C   UNL A   1      42.467  29.063  33.855  1.00  0.00     0.049 A 
ATOM     59  H   UNL A   1      40.841  30.234  33.193  1.00  0.00     0.167 HD
ATOM     60  C   UNL A   1      42.206  30.793  35.611  1.00  0.00     0.074 A 
ATOM     61  C   UNL A   1      42.577  31.430  36.858  1.00  0.00     0.031 C 
ATOM     62  C   UNL A   1      42.823  29.700  35.098  1.00  0.00     0.031 A 
BRANCH  49  63
ATOM     63  C   UNL A   1      40.422  27.732  29.751  1.00  0.00    -0.014 A 
ATOM     64  C   UNL A   1      41.430  27.733  28.771  1.00  0.00     0.010 A 
ATOM     65  C   UNL A   1      39.437  26.727  29.719  1.00  0.00     0.010 A 
ATOM     66  C   UNL A   1      41.428  26.776  27.752  1.00  0.00     0.020 A 
ATOM     67  C   UNL A   1      39.447  25.752  28.717  1.00  0.00     0.020 A 
ATOM     68  C   UNL A   1      40.433  25.795  27.728  1.00  0.00     0.054 A 
BRANCH  68  69
ATOM     69  S   UNL A   1      40.459  24.558  26.402  1.00  0.00     0.124 S 
ATOM     70  O   UNL A   1      40.956  23.377  27.102  1.00  0.00    -0.237 OA
ATOM     71  O   UNL A   1      39.059  24.500  25.989  1.00  0.00    -0.237 OA
ATOM     72  O   UNL A   1      41.372  25.127  25.415  1.00  0.00    -0.744 OA
ENDBRANCH  68  69
ENDBRANCH  49  63
BRANCH  50  73
ATOM     73  C   UNL A   1      39.765  34.573  36.986  1.00  0.00    -0.014 A 
ATOM     74  C   UNL A   1      40.409  35.818  36.878  1.00  0.00     0.010 A 
ATOM     75  C   UNL A   1      38.993  34.298  38.131  1.00  0.00     0.010 A 
ATOM     76  C   UNL A   1      40.295  36.765  37.900  1.00  0.00     0.020 A 
ATOM     77  C   UNL A   1      38.855  35.252  39.142  1.00  0.00     0.020 A 
ATOM     78  C   UNL A   1      39.516  36.477  39.024  1.00  0.00     0.054 A 
BRANCH  78  79
ATOM     79  S   UNL A   1      39.329  37.746  40.308  1.00  0.00     0.124 S 
ATOM     80  O   UNL A   1      38.289  38.599  39.743  1.00  0.00    -0.237 OA
ATOM     81  O   UNL A   1      38.939  36.959  41.476  1.00  0.00    -0.237 OA
ATOM     82  O   UNL A   1      40.659  38.347  40.390  1.00  0.00    -0.744 OA
ENDBRANCH  78  79
ENDBRANCH  50  73
BRANCH  62  83
ATOM     83  C   UNL A   1      43.983  29.134  35.873  1.00  0.00    -0.014 A 
ATOM     84  C   UNL A   1      45.279  29.663  35.733  1.00  0.00     0.010 A 
ATOM     85  C   UNL A   1      43.764  28.091  36.791  1.00  0.00     0.010 A 
ATOM     86  C   UNL A   1      46.340  29.135  36.474  1.00  0.00     0.020 A 
ATOM     87  C   UNL A   1      44.817  27.578  37.551  1.00  0.00     0.020 A 
ATOM     88  C   UNL A   1      46.103  28.094  37.377  1.00  0.00     0.054 A 
BRANCH  88  89
ATOM     89  S   UNL A   1      47.489  27.454  38.356  1.00  0.00     0.124 S 
ATOM     90  O   UNL A   1      47.609  28.460  39.408  1.00  0.00    -0.237 OA
ATOM     91  O   UNL A   1      47.001  26.147  38.789  1.00  0.00    -0.237 OA
ATOM     92  O   UNL A   1      48.596  27.414  37.403  1.00  0.00    -0.744 OA
ENDBRANCH  88  89
ENDBRANCH  62  83
ENDBRANCH  36  37
ENDBRANCH  28  31
ENDBRANCH  26  27
ENDBRANCH  25  26
ENDBRANCH   1  25
TORSDOF 18
ENDMDL
MODEL 3
REMARK VINA RESULT:     -10.8      6.579     11.983
REMARK SMILES O=C(NCCCCNC(=O)c1ccc(-c2c3nc(c(-c4ccc(S(=O)(=O)[O-])cc4)c4ccc([nH]4)c(-c4ccc(S(=O)(=O)[O-])cc4)c4nc(c(-c5ccc(S(=O)(=O)[O-])cc5)c5ccc2[nH]5)C=C4)C=C3)cc1)C1=C(C(=O)NCCC2=CCCCC2)CCCC1
REMARK SMILES IDX 5 1 4 2 3 3 1 4 2 5 71 7 72 8 87 9 84 10 86 11 85 12 73 13
REMARK SMILES IDX 74 14 75 15 76 17 77 18 78 19 79 20 83 21 80 22 82 23 81 24
REMARK SMILES IDX 6 25 7 26 8 27 9 28 10 30 11 31 12 32 70 33 13 34 69 35
REMARK SMILES IDX 14 36 15 37 16 38 63 39 17 40 68 41 62 42 64 43 18 44 67 45
REMARK SMILES IDX 61 46 60 47 19 49 49 50 30 51 48 52 31 53 34 54 47 55 65 56
REMARK SMILES IDX 32 57 33 58 46 60 66 61 35 62 20 63 21 64 29 65 22 66 28 67
REMARK SMILES IDX 23 68 24 69 25 70 26 71 27 72 50 73 51 74 59 75 52 76 58 77
REMARK SMILES IDX 53 78 54 79 55 80 56 81 57 82 36 83 37 84 45 85 38 86 44 87
REMARK SMILES IDX 39 88 40 89 41 90 42 91 43 92
REMARK H PARENT 3 6 75 16 8 29 64 48 34 59
REMARK Flexibility Score: inf
ROOT
ATOM      1  C   UNL A   1      37.391  20.725  24.628  1.00  0.00     0.023 C 
ENDROOT
BRANCH   1   2
ATOM      2  C   UNL A   1      35.947  20.487  25.066  1.00  0.00     0.116 C 
BRANCH   2   3
ATOM      3  N   UNL A   1      35.578  21.301  26.211  1.00  0.00    -0.352 N 
ATOM      4  O   UNL A   1      34.611  22.964  27.357  1.00  0.00    -0.270 OA
ATOM      5  C   UNL A   1      34.752  22.376  26.285  1.00  0.00     0.247 C 
ATOM      6  H   UNL A   1      35.989  21.032  27.064  1.00  0.00     0.163 HD
BRANCH   5   7
ATOM      7  C   UNL A   1      34.080  22.894  25.066  1.00  0.00     0.026 C 
ATOM      8  C   UNL A   1      32.838  22.565  24.652  1.00  0.00     0.026 C 
ATOM      9  C   UNL A   1      34.946  23.906  24.343  1.00  0.00     0.042 C 
ATOM     10  C   UNL A   1      32.350  22.986  23.273  1.00  0.00     0.042 C 
ATOM     11  C   UNL A   1      34.270  24.577  23.149  1.00  0.00     0.005 C 
ATOM     12  C   UNL A   1      33.450  23.560  22.375  1.00  0.00     0.005 C 
BRANCH   8  13
ATOM     13  C   UNL A   1      31.840  21.698  25.359  1.00  0.00     0.247 C 
ATOM     14  O   UNL A   1      31.773  20.503  25.064  1.00  0.00    -0.270 OA
ATOM     15  N   UNL A   1      30.946  22.188  26.256  1.00  0.00    -0.352 N 
ATOM     16  H   UNL A   1      30.258  21.541  26.536  1.00  0.00     0.163 HD
BRANCH  15  17
ATOM     17  C   UNL A   1      30.825  23.495  26.875  1.00  0.00     0.120 C 
BRANCH  17  18
ATOM     18  C   UNL A   1      30.242  24.575  25.959  1.00  0.00     0.052 C 
BRANCH  18  19
ATOM     19  C   UNL A   1      31.140  25.760  25.653  1.00  0.00    -0.072 C 
ATOM     20  C   UNL A   1      30.757  26.694  24.760  1.00  0.00    -0.028 C 
ATOM     21  C   UNL A   1      32.508  25.809  26.303  1.00  0.00     0.031 C 
ATOM     22  C   UNL A   1      31.638  27.812  24.282  1.00  0.00     0.027 C 
ATOM     23  C   UNL A   1      33.261  27.125  26.069  1.00  0.00     0.005 C 
ATOM     24  C   UNL A   1      33.111  27.601  24.630  1.00  0.00     0.004 C 
ENDBRANCH  18  19
ENDBRANCH  17  18
ENDBRANCH  15  17
ENDBRANCH   8  13
ENDBRANCH   5   7
ENDBRANCH   2   3
ENDBRANCH   1   2
BRANCH   1  25
ATOM     25  C   UNL A   1      38.392  19.662  25.103  1.00  0.00     0.023 C 
BRANCH  25  26
ATOM     26  C   UNL A   1      39.500  20.170  26.024  1.00  0.00     0.116 C 
BRANCH  26  27
ATOM     27  N   UNL A   1      40.606  19.227  26.124  1.00  0.00    -0.352 N 
ATOM     28  C   UNL A   1      41.959  19.448  26.167  1.00  0.00     0.251 C 
ATOM     29  H   UNL A   1      40.341  18.280  26.168  1.00  0.00     0.163 HD
ATOM     30  O   UNL A   1      42.731  18.502  26.004  1.00  0.00    -0.269 OA
BRANCH  28  31
ATOM     31  C   UNL A   1      42.507  20.806  26.391  1.00  0.00     0.039 A 
ATOM     32  C   UNL A   1      42.943  21.551  25.292  1.00  0.00     0.014 A 
ATOM     33  C   UNL A   1      42.649  21.328  27.682  1.00  0.00     0.014 A 
ATOM     34  C   UNL A   1      43.455  22.839  25.478  1.00  0.00     0.010 A 
ATOM     35  C   UNL A   1      43.097  22.637  27.861  1.00  0.00     0.010 A 
ATOM     36  C   UNL A   1      43.504  23.409  26.761  1.00  0.00    -0.014 A 
BRANCH  36  37
ATOM     37  C   UNL A   1      43.958  24.811  26.962  1.00  0.00     0.031 A 
ATOM     38  C   UNL A   1      45.402  25.188  26.768  1.00  0.00     0.074 A 
ATOM     39  C   UNL A   1      43.074  25.741  27.378  1.00  0.00     0.049 A 
ATOM     40  N   UNL A   1      45.981  26.349  26.943  1.00  0.00    -0.248 NA
ATOM     41  C   UNL A   1      46.319  24.118  26.343  1.00  0.00     0.031 C 
ATOM     42  C   UNL A   1      41.654  25.501  27.641  1.00  0.00     0.029 A 
ATOM     43  N   UNL A   1      43.241  27.075  27.658  1.00  0.00    -0.354 N 
ATOM     44  C   UNL A   1      47.329  26.148  26.666  1.00  0.00     0.074 A 
ATOM     45  C   UNL A   1      47.488  24.745  26.352  1.00  0.00     0.031 C 
ATOM     46  C   UNL A   1      41.075  26.652  28.020  1.00  0.00     0.029 A 
ATOM     47  C   UNL A   1      42.087  27.703  28.064  1.00  0.00     0.049 A 
ATOM     48  H   UNL A   1      44.106  27.537  27.577  1.00  0.00     0.167 HD
ATOM     49  C   UNL A   1      48.340  27.051  26.656  1.00  0.00     0.031 A 
ATOM     50  C   UNL A   1      41.864  28.977  28.437  1.00  0.00     0.031 A 
ATOM     51  C   UNL A   1      48.182  28.450  26.959  1.00  0.00     0.049 A 
ATOM     52  C   UNL A   1      43.002  29.961  28.424  1.00  0.00     0.074 A 
ATOM     53  C   UNL A   1      49.137  29.451  26.921  1.00  0.00     0.029 A 
ATOM     54  N   UNL A   1      46.995  29.046  27.357  1.00  0.00    -0.354 N 
ATOM     55  N   UNL A   1      44.257  29.762  28.098  1.00  0.00    -0.248 NA
ATOM     56  C   UNL A   1      42.690  31.341  28.818  1.00  0.00     0.031 C 
ATOM     57  C   UNL A   1      48.539  30.645  27.342  1.00  0.00     0.029 A 
ATOM     58  C   UNL A   1      47.198  30.396  27.591  1.00  0.00     0.049 A 
ATOM     59  H   UNL A   1      46.135  28.578  27.459  1.00  0.00     0.167 HD
ATOM     60  C   UNL A   1      44.880  30.999  28.226  1.00  0.00     0.074 A 
ATOM     61  C   UNL A   1      43.861  31.939  28.644  1.00  0.00     0.031 C 
ATOM     62  C   UNL A   1      46.179  31.322  28.014  1.00  0.00     0.031 A 
BRANCH  49  63
ATOM     63  C   UNL A   1      49.718  26.547  26.313  1.00  0.00    -0.014 A 
ATOM     64  C   UNL A   1      50.553  25.989  27.299  1.00  0.00     0.010 A 
ATOM     65  C   UNL A   1      50.171  26.598  24.982  1.00  0.00     0.010 A 
ATOM     66  C   UNL A   1      51.832  25.534  26.968  1.00  0.00     0.020 A 
ATOM     67  C   UNL A   1      51.440  26.118  24.643  1.00  0.00     0.020 A 
ATOM     68  C   UNL A   1      52.270  25.607  25.643  1.00  0.00     0.054 A 
BRANCH  68  69
ATOM     69  S   UNL A   1      53.931  24.999  25.238  1.00  0.00     0.124 S 
ATOM     70  O   UNL A   1      54.257  25.785  24.051  1.00  0.00    -0.237 OA
ATOM     71  O   UNL A   1      54.695  25.328  26.439  1.00  0.00    -0.237 OA
ATOM     72  O   UNL A   1      53.730  23.572  25.004  1.00  0.00    -0.744 OA
ENDBRANCH  68  69
ENDBRANCH  49  63
BRANCH  50  73
ATOM     73  C   UNL A   1      40.495  29.401  28.837  1.00  0.00    -0.014 A 
ATOM     74  C   UNL A   1      39.512  29.646  27.863  1.00  0.00     0.010 A 
ATOM     75  C   UNL A   1      40.162  29.539  30.197  1.00  0.00     0.010 A 
ATOM     76  C   UNL A   1      38.223  30.034  28.240  1.00  0.00     0.020 A 
ATOM     77  C   UNL A   1      38.867  29.900  30.579  1.00  0.00     0.020 A 
ATOM     78  C   UNL A   1      37.908  30.155  29.596  1.00  0.00     0.054 A 
BRANCH  78  79
ATOM     79  S   UNL A   1      36.211  30.595  30.065  1.00  0.00     0.124 S 
ATOM     80  O   UNL A   1      36.066  29.918  31.350  1.00  0.00    -0.237 OA
ATOM     81  O   UNL A   1      36.266  32.054  30.120  1.00  0.00    -0.237 OA
ATOM     82  O   UNL A   1      35.404  30.052  28.974  1.00  0.00    -0.744 OA
ENDBRANCH  78  79
ENDBRANCH  50  73
BRANCH  62  83
ATOM     83  C   UNL A   1      46.571  32.764  28.206  1.00  0.00    -0.014 A 
ATOM     84  C   UNL A   1      46.737  33.307  29.492  1.00  0.00     0.010 A 
ATOM     85  C   UNL A   1      46.824  33.572  27.083  1.00  0.00     0.010 A 
ATOM     86  C   UNL A   1      47.118  34.642  29.651  1.00  0.00     0.020 A 
ATOM     87  C   UNL A   1      47.229  34.899  27.237  1.00  0.00     0.020 A 
ATOM     88  C   UNL A   1      47.359  35.431  28.521  1.00  0.00     0.054 A 
BRANCH  88  89
ATOM     89  S   UNL A   1      47.891  37.150  28.753  1.00  0.00     0.124 S 
ATOM     90  O   UNL A   1      48.288  37.530  27.400  1.00  0.00    -0.237 OA
ATOM     91  O   UNL A   1      46.682  37.796  29.258  1.00  0.00    -0.237 OA
ATOM     92  O   UNL A   1      48.984  37.046  29.717  1.00  0.00    -0.744 OA
ENDBRANCH  88  89
ENDBRANCH  62  83
ENDBRANCH  36  37
ENDBRANCH  28  31
ENDBRANCH  26  27
ENDBRANCH  25  26
ENDBRANCH   1  25
TORSDOF 18
ENDMDL
