MODEL 1
REMARK VINA RESULT:     -13.7      0.000      0.000
REMARK SMILES Cc1ccc(C(=O)c2cccc(C)c2C(=O)NCCCCNC(=O)c2ccc(-c3c4nc(c(-c5ccc(S(=O)(=O)[O-])cc5)c5ccc([nH]5)c(-c5ccc(S(=O)(=O)[O-])cc5)c5nc(c(-c6ccc(S(=O)(=O)[O-])cc6)c6ccc3[nH]6)C=C5)C=C4)cc2)c(C)c1
REMARK SMILES IDX 20 1 19 2 18 3 17 4 15 5 16 6 14 8 8 9 9 10 10 11 12 12
REMARK SMILES IDX 11 13 13 14 6 15 7 16 5 17 1 18 2 19 3 20 87 21 4 22 85 23
REMARK SMILES IDX 86 24 21 25 22 26 23 27 24 29 25 30 26 31 84 32 27 33 83 34
REMARK SMILES IDX 28 35 29 36 30 37 77 38 31 39 82 40 76 41 78 42 32 43 81 44
REMARK SMILES IDX 75 45 74 46 33 48 63 49 44 50 62 51 45 52 48 53 61 54 79 55
REMARK SMILES IDX 46 56 47 57 60 59 80 60 49 61 34 62 35 63 43 64 36 65 42 66
REMARK SMILES IDX 37 67 38 68 39 69 40 70 41 71 64 72 65 73 73 74 66 75 72 76
REMARK SMILES IDX 67 77 68 78 69 79 70 80 71 81 50 82 51 83 59 84 52 85 58 86
REMARK SMILES IDX 53 87 54 88 55 89 56 90 57 91
REMARK H PARENT 17 7 22 28 78 47 48 58
REMARK Flexibility Score: inf
ROOT
ATOM      1  C   UNL A   1      32.980  30.499  26.942  1.00  0.00     0.023 C 
ENDROOT
BRANCH   1   2
ATOM      2  C   UNL A   1      31.952  29.379  26.811  1.00  0.00     0.023 C 
BRANCH   2   3
ATOM      3  C   UNL A   1      32.443  27.966  27.134  1.00  0.00     0.116 C 
BRANCH   3   4
ATOM      4  N   UNL A   1      31.446  26.912  27.062  1.00  0.00    -0.352 N 
ATOM      5  C   UNL A   1      31.149  25.964  26.103  1.00  0.00     0.252 C 
ATOM      6  O   UNL A   1      30.331  25.103  26.431  1.00  0.00    -0.269 OA
ATOM      7  H   UNL A   1      30.865  26.864  27.855  1.00  0.00     0.163 HD
BRANCH   5   8
ATOM      8  C   UNL A   1      31.662  25.997  24.686  1.00  0.00     0.053 A 
ATOM      9  C   UNL A   1      32.908  25.472  24.300  1.00  0.00     0.036 A 
ATOM     10  C   UNL A   1      33.377  25.579  22.976  1.00  0.00     0.013 A 
ATOM     11  C   UNL A   1      32.597  26.187  22.004  1.00  0.00     0.001 A 
ATOM     12  C   UNL A   1      30.823  26.497  23.652  1.00  0.00    -0.038 A 
ATOM     13  C   UNL A   1      31.314  26.606  22.332  1.00  0.00     0.004 A 
ATOM     14  C   UNL A   1      29.364  26.819  23.865  1.00  0.00     0.045 C 
BRANCH   9  15
ATOM     15  C   UNL A   1      33.593  24.483  25.144  1.00  0.00     0.194 C 
ATOM     16  O   UNL A   1      34.200  24.968  26.094  1.00  0.00    -0.289 OA
BRANCH  15  17
ATOM     17  C   UNL A   1      33.458  22.999  24.937  1.00  0.00     0.025 A 
ATOM     18  C   UNL A   1      33.182  18.693  24.612  1.00  0.00     0.044 C 
ATOM     19  C   UNL A   1      33.247  20.186  24.747  1.00  0.00    -0.051 A 
ATOM     20  C   UNL A   1      32.127  20.948  25.060  1.00  0.00     0.004 A 
ATOM     21  C   UNL A   1      34.448  20.846  24.477  1.00  0.00     0.007 A 
ATOM     22  C   UNL A   1      32.236  22.338  25.175  1.00  0.00     0.013 A 
ATOM     23  C   UNL A   1      34.548  22.247  24.479  1.00  0.00    -0.040 A 
ATOM     24  C   UNL A   1      35.818  22.849  23.947  1.00  0.00     0.045 C 
ENDBRANCH  15  17
ENDBRANCH   9  15
ENDBRANCH   5   8
ENDBRANCH   3   4
ENDBRANCH   2   3
ENDBRANCH   1   2
BRANCH   1  25
ATOM     25  C   UNL A   1      34.412  30.029  27.205  1.00  0.00     0.116 C 
BRANCH  25  26
ATOM     26  N   UNL A   1      35.278  31.152  27.565  1.00  0.00    -0.352 N 
ATOM     27  C   UNL A   1      36.538  31.154  28.131  1.00  0.00     0.251 C 
ATOM     28  H   UNL A   1      34.906  32.044  27.374  1.00  0.00     0.163 HD
ATOM     29  O   UNL A   1      37.057  32.181  28.559  1.00  0.00    -0.269 OA
BRANCH  27  30
ATOM     30  C   UNL A   1      37.293  29.891  28.119  1.00  0.00     0.039 A 
ATOM     31  C   UNL A   1      37.238  29.104  29.274  1.00  0.00     0.014 A 
ATOM     32  C   UNL A   1      38.250  29.673  27.134  1.00  0.00     0.014 A 
ATOM     33  C   UNL A   1      38.289  28.238  29.549  1.00  0.00     0.010 A 
ATOM     34  C   UNL A   1      39.340  28.892  27.460  1.00  0.00     0.010 A 
ATOM     35  C   UNL A   1      39.387  28.232  28.698  1.00  0.00    -0.014 A 
BRANCH  35  36
ATOM     36  C   UNL A   1      40.678  27.658  29.057  1.00  0.00     0.031 A 
ATOM     37  C   UNL A   1      41.004  26.276  28.649  1.00  0.00     0.074 A 
ATOM     38  C   UNL A   1      41.606  28.439  29.652  1.00  0.00     0.049 A 
ATOM     39  N   UNL A   1      42.004  25.587  29.083  1.00  0.00    -0.248 NA
ATOM     40  C   UNL A   1      40.138  25.525  27.744  1.00  0.00     0.031 C 
ATOM     41  C   UNL A   1      43.048  28.224  29.699  1.00  0.00     0.029 A 
ATOM     42  N   UNL A   1      41.393  29.507  30.518  1.00  0.00    -0.354 N 
ATOM     43  C   UNL A   1      42.079  24.440  28.321  1.00  0.00     0.074 A 
ATOM     44  C   UNL A   1      40.847  24.408  27.569  1.00  0.00     0.031 C 
ATOM     45  C   UNL A   1      43.571  28.984  30.676  1.00  0.00     0.029 A 
ATOM     46  C   UNL A   1      42.457  29.550  31.426  1.00  0.00     0.049 A 
ATOM     47  H   UNL A   1      40.627  30.125  30.495  1.00  0.00     0.167 HD
ATOM     48  C   UNL A   1      43.235  23.718  28.304  1.00  0.00     0.031 A 
ATOM     49  C   UNL A   1      42.267  29.340  32.765  1.00  0.00     0.031 A 
ATOM     50  C   UNL A   1      44.184  24.207  29.303  1.00  0.00     0.049 A 
ATOM     51  C   UNL A   1      43.015  28.141  33.288  1.00  0.00     0.074 A 
ATOM     52  C   UNL A   1      45.280  25.050  29.223  1.00  0.00     0.029 A 
ATOM     53  N   UNL A   1      43.873  24.090  30.656  1.00  0.00    -0.354 N 
ATOM     54  N   UNL A   1      43.374  27.124  32.555  1.00  0.00    -0.248 NA
ATOM     55  C   UNL A   1      43.410  28.001  34.686  1.00  0.00     0.031 C 
ATOM     56  C   UNL A   1      45.561  25.523  30.533  1.00  0.00     0.029 A 
ATOM     57  C   UNL A   1      44.665  24.936  31.411  1.00  0.00     0.049 A 
ATOM     58  H   UNL A   1      43.186  23.490  31.024  1.00  0.00     0.167 HD
ATOM     59  C   UNL A   1      44.024  26.212  33.340  1.00  0.00     0.074 A 
ATOM     60  C   UNL A   1      44.031  26.810  34.664  1.00  0.00     0.031 C 
ATOM     61  C   UNL A   1      44.496  25.028  32.854  1.00  0.00     0.031 A 
BRANCH  48  62
ATOM     62  C   UNL A   1      43.605  22.777  27.172  1.00  0.00    -0.014 A 
ATOM     63  C   UNL A   1      42.791  21.658  26.900  1.00  0.00     0.010 A 
ATOM     64  C   UNL A   1      44.777  22.881  26.397  1.00  0.00     0.010 A 
ATOM     65  C   UNL A   1      43.172  20.657  25.989  1.00  0.00     0.020 A 
ATOM     66  C   UNL A   1      45.192  21.874  25.512  1.00  0.00     0.020 A 
ATOM     67  C   UNL A   1      44.390  20.759  25.320  1.00  0.00     0.054 A 
BRANCH  67  68
ATOM     68  S   UNL A   1      44.915  19.428  24.208  1.00  0.00     0.124 S 
ATOM     69  O   UNL A   1      44.173  18.277  24.717  1.00  0.00    -0.237 OA
ATOM     70  O   UNL A   1      44.490  19.926  22.903  1.00  0.00    -0.237 OA
ATOM     71  O   UNL A   1      46.362  19.362  24.403  1.00  0.00    -0.744 OA
ENDBRANCH  67  68
ENDBRANCH  48  62
BRANCH  49  72
ATOM     72  C   UNL A   1      40.961  29.809  33.318  1.00  0.00    -0.014 A 
ATOM     73  C   UNL A   1      40.847  31.154  33.703  1.00  0.00     0.010 A 
ATOM     74  C   UNL A   1      39.785  29.085  33.052  1.00  0.00     0.010 A 
ATOM     75  C   UNL A   1      39.628  31.824  33.562  1.00  0.00     0.020 A 
ATOM     76  C   UNL A   1      38.558  29.754  32.924  1.00  0.00     0.020 A 
ATOM     77  C   UNL A   1      38.520  31.139  33.074  1.00  0.00     0.054 A 
BRANCH  77  78
ATOM     78  S   UNL A   1      37.126  32.117  32.438  1.00  0.00     0.124 S 
ATOM     79  O   UNL A   1      36.534  32.662  33.657  1.00  0.00    -0.237 OA
ATOM     80  O   UNL A   1      37.811  33.092  31.589  1.00  0.00    -0.237 OA
ATOM     81  O   UNL A   1      36.315  31.131  31.732  1.00  0.00    -0.744 OA
ENDBRANCH  77  78
ENDBRANCH  49  72
BRANCH  61  82
ATOM     82  C   UNL A   1      44.922  23.876  33.725  1.00  0.00    -0.014 A 
ATOM     83  C   UNL A   1      44.091  22.779  34.007  1.00  0.00     0.010 A 
ATOM     84  C   UNL A   1      46.261  23.802  34.173  1.00  0.00     0.010 A 
ATOM     85  C   UNL A   1      44.542  21.698  34.770  1.00  0.00     0.020 A 
ATOM     86  C   UNL A   1      46.736  22.703  34.894  1.00  0.00     0.020 A 
ATOM     87  C   UNL A   1      45.862  21.669  35.215  1.00  0.00     0.054 A 
BRANCH  87  88
ATOM     88  S   UNL A   1      46.452  20.235  36.148  1.00  0.00     0.124 S 
ATOM     89  O   UNL A   1      47.840  20.139  35.704  1.00  0.00    -0.237 OA
ATOM     90  O   UNL A   1      46.268  20.647  37.538  1.00  0.00    -0.237 OA
ATOM     91  O   UNL A   1      45.573  19.156  35.706  1.00  0.00    -0.744 OA
ENDBRANCH  87  88
ENDBRANCH  61  82
ENDBRANCH  35  36
ENDBRANCH  27  30
ENDBRANCH  25  26
ENDBRANCH   1  25
TORSDOF 16
ENDMDL
MODEL 2
REMARK VINA RESULT:     -13.3      4.586     11.321
REMARK SMILES Cc1ccc(C(=O)c2cccc(C)c2C(=O)NCCCCNC(=O)c2ccc(-c3c4nc(c(-c5ccc(S(=O)(=O)[O-])cc5)c5ccc([nH]5)c(-c5ccc(S(=O)(=O)[O-])cc5)c5nc(c(-c6ccc(S(=O)(=O)[O-])cc6)c6ccc3[nH]6)C=C5)C=C4)cc2)c(C)c1
REMARK SMILES IDX 20 1 19 2 18 3 17 4 15 5 16 6 14 8 8 9 9 10 10 11 12 12
REMARK SMILES IDX 11 13 13 14 6 15 7 16 5 17 1 18 2 19 3 20 87 21 4 22 85 23
REMARK SMILES IDX 86 24 21 25 22 26 23 27 24 29 25 30 26 31 84 32 27 33 83 34
REMARK SMILES IDX 28 35 29 36 30 37 77 38 31 39 82 40 76 41 78 42 32 43 81 44
REMARK SMILES IDX 75 45 74 46 33 48 63 49 44 50 62 51 45 52 48 53 61 54 79 55
REMARK SMILES IDX 46 56 47 57 60 59 80 60 49 61 34 62 35 63 43 64 36 65 42 66
REMARK SMILES IDX 37 67 38 68 39 69 40 70 41 71 64 72 65 73 73 74 66 75 72 76
REMARK SMILES IDX 67 77 68 78 69 79 70 80 71 81 50 82 51 83 59 84 52 85 58 86
REMARK SMILES IDX 53 87 54 88 55 89 56 90 57 91
REMARK H PARENT 17 7 22 28 78 47 48 58
REMARK Flexibility Score: inf
ROOT
ATOM      1  C   UNL A   1      37.448  22.128  25.764  1.00  0.00     0.023 C 
ENDROOT
BRANCH   1   2
ATOM      2  C   UNL A   1      36.074  22.316  25.128  1.00  0.00     0.023 C 
BRANCH   2   3
ATOM      3  C   UNL A   1      35.644  23.758  24.853  1.00  0.00     0.116 C 
BRANCH   3   4
ATOM      4  N   UNL A   1      34.832  23.967  23.667  1.00  0.00    -0.352 N 
ATOM      5  C   UNL A   1      33.470  24.063  23.466  1.00  0.00     0.252 C 
ATOM      6  O   UNL A   1      33.114  24.407  22.338  1.00  0.00    -0.269 OA
ATOM      7  H   UNL A   1      35.359  24.058  22.840  1.00  0.00     0.163 HD
BRANCH   5   8
ATOM      8  C   UNL A   1      32.429  23.664  24.482  1.00  0.00     0.053 A 
ATOM      9  C   UNL A   1      31.683  24.591  25.232  1.00  0.00     0.036 A 
ATOM     10  C   UNL A   1      30.765  24.176  26.216  1.00  0.00     0.013 A 
ATOM     11  C   UNL A   1      30.552  22.826  26.450  1.00  0.00     0.001 A 
ATOM     12  C   UNL A   1      32.103  22.290  24.643  1.00  0.00    -0.038 A 
ATOM     13  C   UNL A   1      31.187  21.892  25.642  1.00  0.00     0.004 A 
ATOM     14  C   UNL A   1      32.602  21.215  23.710  1.00  0.00     0.045 C 
BRANCH   9  15
ATOM     15  C   UNL A   1      31.550  25.982  24.777  1.00  0.00     0.194 C 
ATOM     16  O   UNL A   1      30.828  26.122  23.795  1.00  0.00    -0.289 OA
BRANCH  15  17
ATOM     17  C   UNL A   1      32.142  27.146  25.523  1.00  0.00     0.025 A 
ATOM     18  C   UNL A   1      33.651  30.668  27.533  1.00  0.00     0.044 C 
ATOM     19  C   UNL A   1      33.098  29.447  26.859  1.00  0.00    -0.051 A 
ATOM     20  C   UNL A   1      32.234  28.573  27.510  1.00  0.00     0.004 A 
ATOM     21  C   UNL A   1      33.519  29.129  25.566  1.00  0.00     0.007 A 
ATOM     22  C   UNL A   1      31.744  27.446  26.841  1.00  0.00     0.013 A 
ATOM     23  C   UNL A   1      33.126  27.944  24.922  1.00  0.00    -0.040 A 
ATOM     24  C   UNL A   1      33.821  27.593  23.637  1.00  0.00     0.045 C 
ENDBRANCH  15  17
ENDBRANCH   9  15
ENDBRANCH   5   8
ENDBRANCH   3   4
ENDBRANCH   2   3
ENDBRANCH   1   2
BRANCH   1  25
ATOM     25  C   UNL A   1      38.214  23.425  26.032  1.00  0.00     0.116 C 
BRANCH  25  26
ATOM     26  N   UNL A   1      39.359  23.189  26.912  1.00  0.00    -0.352 N 
ATOM     27  C   UNL A   1      40.130  24.088  27.623  1.00  0.00     0.251 C 
ATOM     28  H   UNL A   1      39.620  22.245  27.013  1.00  0.00     0.163 HD
ATOM     29  O   UNL A   1      41.184  23.757  28.161  1.00  0.00    -0.269 OA
BRANCH  27  30
ATOM     30  C   UNL A   1      39.600  25.448  27.805  1.00  0.00     0.039 A 
ATOM     31  C   UNL A   1      39.999  26.418  26.879  1.00  0.00     0.014 A 
ATOM     32  C   UNL A   1      39.001  25.796  29.010  1.00  0.00     0.014 A 
ATOM     33  C   UNL A   1      40.004  27.752  27.261  1.00  0.00     0.010 A 
ATOM     34  C   UNL A   1      39.105  27.109  29.424  1.00  0.00     0.010 A 
ATOM     35  C   UNL A   1      39.671  28.071  28.573  1.00  0.00    -0.014 A 
BRANCH  35  36
ATOM     36  C   UNL A   1      39.980  29.355  29.190  1.00  0.00     0.031 A 
ATOM     37  C   UNL A   1      38.960  30.424  29.205  1.00  0.00     0.074 A 
ATOM     38  C   UNL A   1      41.150  29.508  29.847  1.00  0.00     0.049 A 
ATOM     39  N   UNL A   1      39.176  31.656  29.520  1.00  0.00    -0.248 NA
ATOM     40  C   UNL A   1      37.588  30.173  28.773  1.00  0.00     0.031 C 
ATOM     41  C   UNL A   1      41.470  30.499  30.868  1.00  0.00     0.029 A 
ATOM     42  N   UNL A   1      42.370  28.899  29.569  1.00  0.00    -0.354 N 
ATOM     43  C   UNL A   1      37.951  32.281  29.608  1.00  0.00     0.074 A 
ATOM     44  C   UNL A   1      37.009  31.343  29.048  1.00  0.00     0.031 C 
ATOM     45  C   UNL A   1      42.805  30.574  30.999  1.00  0.00     0.029 A 
ATOM     46  C   UNL A   1      43.390  29.790  29.919  1.00  0.00     0.049 A 
ATOM     47  H   UNL A   1      42.493  27.998  29.193  1.00  0.00     0.167 HD
ATOM     48  C   UNL A   1      37.847  33.466  30.274  1.00  0.00     0.031 A 
ATOM     49  C   UNL A   1      44.239  30.315  28.982  1.00  0.00     0.031 A 
ATOM     50  C   UNL A   1      39.164  33.992  30.634  1.00  0.00     0.049 A 
ATOM     51  C   UNL A   1      44.156  31.817  28.884  1.00  0.00     0.074 A 
ATOM     52  C   UNL A   1      39.901  33.955  31.806  1.00  0.00     0.029 A 
ATOM     53  N   UNL A   1      40.042  34.384  29.626  1.00  0.00    -0.354 N 
ATOM     54  N   UNL A   1      43.109  32.517  29.221  1.00  0.00    -0.248 NA
ATOM     55  C   UNL A   1      45.255  32.640  28.392  1.00  0.00     0.031 C 
ATOM     56  C   UNL A   1      41.256  34.226  31.475  1.00  0.00     0.029 A 
ATOM     57  C   UNL A   1      41.333  34.469  30.113  1.00  0.00     0.049 A 
ATOM     58  H   UNL A   1      39.780  34.574  28.697  1.00  0.00     0.167 HD
ATOM     59  C   UNL A   1      43.365  33.842  29.001  1.00  0.00     0.074 A 
ATOM     60  C   UNL A   1      44.725  33.870  28.491  1.00  0.00     0.031 C 
ATOM     61  C   UNL A   1      42.442  34.818  29.236  1.00  0.00     0.031 A 
BRANCH  48  62
ATOM     62  C   UNL A   1      36.543  33.974  30.860  1.00  0.00    -0.014 A 
ATOM     63  C   UNL A   1      35.386  34.017  30.053  1.00  0.00     0.010 A 
ATOM     64  C   UNL A   1      36.400  34.503  32.157  1.00  0.00     0.010 A 
ATOM     65  C   UNL A   1      34.199  34.639  30.478  1.00  0.00     0.020 A 
ATOM     66  C   UNL A   1      35.237  35.161  32.585  1.00  0.00     0.020 A 
ATOM     67  C   UNL A   1      34.142  35.235  31.736  1.00  0.00     0.054 A 
BRANCH  67  68
ATOM     68  S   UNL A   1      32.638  36.105  32.248  1.00  0.00     0.124 S 
ATOM     69  O   UNL A   1      33.095  36.879  33.400  1.00  0.00    -0.237 OA
ATOM     70  O   UNL A   1      32.305  36.882  31.057  1.00  0.00    -0.237 OA
ATOM     71  O   UNL A   1      31.703  35.027  32.564  1.00  0.00    -0.744 OA
ENDBRANCH  67  68
ENDBRANCH  48  62
BRANCH  49  72
ATOM     72  C   UNL A   1      44.562  29.425  27.827  1.00  0.00    -0.014 A 
ATOM     73  C   UNL A   1      45.572  28.464  27.991  1.00  0.00     0.010 A 
ATOM     74  C   UNL A   1      43.623  29.242  26.796  1.00  0.00     0.010 A 
ATOM     75  C   UNL A   1      45.485  27.233  27.332  1.00  0.00     0.020 A 
ATOM     76  C   UNL A   1      43.544  28.013  26.124  1.00  0.00     0.020 A 
ATOM     77  C   UNL A   1      44.412  26.984  26.483  1.00  0.00     0.054 A 
BRANCH  77  78
ATOM     78  S   UNL A   1      44.056  25.255  26.046  1.00  0.00     0.124 S 
ATOM     79  O   UNL A   1      45.113  24.943  25.088  1.00  0.00    -0.237 OA
ATOM     80  O   UNL A   1      44.177  24.591  27.344  1.00  0.00    -0.237 OA
ATOM     81  O   UNL A   1      42.706  25.317  25.496  1.00  0.00    -0.744 OA
ENDBRANCH  77  78
ENDBRANCH  49  72
BRANCH  61  82
ATOM     82  C   UNL A   1      42.561  36.226  28.717  1.00  0.00    -0.014 A 
ATOM     83  C   UNL A   1      43.420  37.183  29.284  1.00  0.00     0.010 A 
ATOM     84  C   UNL A   1      41.899  36.583  27.521  1.00  0.00     0.010 A 
ATOM     85  C   UNL A   1      43.550  38.463  28.737  1.00  0.00     0.020 A 
ATOM     86  C   UNL A   1      42.060  37.844  26.938  1.00  0.00     0.020 A 
ATOM     87  C   UNL A   1      42.863  38.789  27.569  1.00  0.00     0.054 A 
BRANCH  87  88
ATOM     88  S   UNL A   1      43.089  40.427  26.836  1.00  0.00     0.124 S 
ATOM     89  O   UNL A   1      43.430  41.234  28.005  1.00  0.00    -0.237 OA
ATOM     90  O   UNL A   1      44.179  40.215  25.884  1.00  0.00    -0.237 OA
ATOM     91  O   UNL A   1      41.792  40.712  26.231  1.00  0.00    -0.744 OA
ENDBRANCH  87  88
ENDBRANCH  61  82
ENDBRANCH  35  36
ENDBRANCH  27  30
ENDBRANCH  25  26
ENDBRANCH   1  25
TORSDOF 16
ENDMDL
MODEL 3
REMARK VINA RESULT:     -13.2      4.568     11.015
REMARK SMILES Cc1ccc(C(=O)c2cccc(C)c2C(=O)NCCCCNC(=O)c2ccc(-c3c4nc(c(-c5ccc(S(=O)(=O)[O-])cc5)c5ccc([nH]5)c(-c5ccc(S(=O)(=O)[O-])cc5)c5nc(c(-c6ccc(S(=O)(=O)[O-])cc6)c6ccc3[nH]6)C=C5)C=C4)cc2)c(C)c1
REMARK SMILES IDX 20 1 19 2 18 3 17 4 15 5 16 6 14 8 8 9 9 10 10 11 12 12
REMARK SMILES IDX 11 13 13 14 6 15 7 16 5 17 1 18 2 19 3 20 87 21 4 22 85 23
REMARK SMILES IDX 86 24 21 25 22 26 23 27 24 29 25 30 26 31 84 32 27 33 83 34
REMARK SMILES IDX 28 35 29 36 30 37 77 38 31 39 82 40 76 41 78 42 32 43 81 44
REMARK SMILES IDX 75 45 74 46 33 48 63 49 44 50 62 51 45 52 48 53 61 54 79 55
REMARK SMILES IDX 46 56 47 57 60 59 80 60 49 61 34 62 35 63 43 64 36 65 42 66
REMARK SMILES IDX 37 67 38 68 39 69 40 70 41 71 64 72 65 73 73 74 66 75 72 76
REMARK SMILES IDX 67 77 68 78 69 79 70 80 71 81 50 82 51 83 59 84 52 85 58 86
REMARK SMILES IDX 53 87 54 88 55 89 56 90 57 91
REMARK H PARENT 17 7 22 28 78 47 48 58
REMARK Flexibility Score: inf
ROOT
ATOM      1  C   UNL A   1      37.566  22.115  25.646  1.00  0.00     0.023 C 
ENDROOT
BRANCH   1   2
ATOM      2  C   UNL A   1      36.178  22.286  25.035  1.00  0.00     0.023 C 
BRANCH   2   3
ATOM      3  C   UNL A   1      35.830  23.683  24.517  1.00  0.00     0.116 C 
BRANCH   3   4
ATOM      4  N   UNL A   1      35.087  24.535  25.429  1.00  0.00    -0.352 N 
ATOM      5  C   UNL A   1      33.902  25.233  25.306  1.00  0.00     0.252 C 
ATOM      6  O   UNL A   1      33.464  25.737  26.342  1.00  0.00    -0.269 OA
ATOM      7  H   UNL A   1      35.512  24.634  26.311  1.00  0.00     0.163 HD
BRANCH   5   8
ATOM      8  C   UNL A   1      33.207  25.507  23.997  1.00  0.00     0.053 A 
ATOM      9  C   UNL A   1      32.316  24.603  23.389  1.00  0.00     0.036 A 
ATOM     10  C   UNL A   1      31.735  24.872  22.134  1.00  0.00     0.013 A 
ATOM     11  C   UNL A   1      32.010  26.059  21.475  1.00  0.00     0.001 A 
ATOM     12  C   UNL A   1      33.372  26.772  23.371  1.00  0.00    -0.038 A 
ATOM     13  C   UNL A   1      32.790  27.019  22.108  1.00  0.00     0.004 A 
ATOM     14  C   UNL A   1      34.054  27.937  24.045  1.00  0.00     0.045 C 
BRANCH   9  15
ATOM     15  C   UNL A   1      31.673  23.545  24.181  1.00  0.00     0.194 C 
ATOM     16  O   UNL A   1      30.719  23.929  24.850  1.00  0.00    -0.289 OA
BRANCH  15  17
ATOM     17  C   UNL A   1      32.068  22.097  24.081  1.00  0.00     0.025 A 
ATOM     18  C   UNL A   1      32.929  17.862  23.884  1.00  0.00     0.044 C 
ATOM     19  C   UNL A   1      32.611  19.327  23.920  1.00  0.00    -0.051 A 
ATOM     20  C   UNL A   1      32.316  20.046  22.767  1.00  0.00     0.004 A 
ATOM     21  C   UNL A   1      32.687  20.015  25.134  1.00  0.00     0.007 A 
ATOM     22  C   UNL A   1      32.025  21.413  22.851  1.00  0.00     0.013 A 
ATOM     23  C   UNL A   1      32.509  21.406  25.218  1.00  0.00    -0.040 A 
ATOM     24  C   UNL A   1      32.844  22.067  26.525  1.00  0.00     0.045 C 
ENDBRANCH  15  17
ENDBRANCH   9  15
ENDBRANCH   5   8
ENDBRANCH   3   4
ENDBRANCH   2   3
ENDBRANCH   1   2
BRANCH   1  25
ATOM     25  C   UNL A   1      38.268  23.423  26.018  1.00  0.00     0.116 C 
BRANCH  25  26
ATOM     26  N   UNL A   1      39.390  23.179  26.926  1.00  0.00    -0.352 N 
ATOM     27  C   UNL A   1      40.141  24.071  27.665  1.00  0.00     0.251 C 
ATOM     28  H   UNL A   1      39.648  22.234  27.025  1.00  0.00     0.163 HD
ATOM     29  O   UNL A   1      41.180  23.736  28.228  1.00  0.00    -0.269 OA
BRANCH  27  30
ATOM     30  C   UNL A   1      39.606  25.430  27.845  1.00  0.00     0.039 A 
ATOM     31  C   UNL A   1      39.994  26.397  26.913  1.00  0.00     0.014 A 
ATOM     32  C   UNL A   1      39.012  25.780  29.053  1.00  0.00     0.014 A 
ATOM     33  C   UNL A   1      39.995  27.734  27.290  1.00  0.00     0.010 A 
ATOM     34  C   UNL A   1      39.113  27.095  29.460  1.00  0.00     0.010 A 
ATOM     35  C   UNL A   1      39.669  28.056  28.602  1.00  0.00    -0.014 A 
BRANCH  35  36
ATOM     36  C   UNL A   1      39.976  29.344  29.212  1.00  0.00     0.031 A 
ATOM     37  C   UNL A   1      38.954  30.411  29.222  1.00  0.00     0.074 A 
ATOM     38  C   UNL A   1      41.145  29.502  29.868  1.00  0.00     0.049 A 
ATOM     39  N   UNL A   1      39.168  31.645  29.529  1.00  0.00    -0.248 NA
ATOM     40  C   UNL A   1      37.582  30.156  28.791  1.00  0.00     0.031 C 
ATOM     41  C   UNL A   1      41.464  30.499  30.884  1.00  0.00     0.029 A 
ATOM     42  N   UNL A   1      42.367  28.894  29.594  1.00  0.00    -0.354 N 
ATOM     43  C   UNL A   1      37.942  32.269  29.614  1.00  0.00     0.074 A 
ATOM     44  C   UNL A   1      37.001  31.326  29.059  1.00  0.00     0.031 C 
ATOM     45  C   UNL A   1      42.799  30.578  31.015  1.00  0.00     0.029 A 
ATOM     46  C   UNL A   1      43.385  29.789  29.939  1.00  0.00     0.049 A 
ATOM     47  H   UNL A   1      42.491  27.991  29.222  1.00  0.00     0.167 HD
ATOM     48  C   UNL A   1      37.836  33.458  30.274  1.00  0.00     0.031 A 
ATOM     49  C   UNL A   1      44.233  30.310  28.998  1.00  0.00     0.031 A 
ATOM     50  C   UNL A   1      39.152  33.987  30.631  1.00  0.00     0.049 A 
ATOM     51  C   UNL A   1      44.148  31.811  28.892  1.00  0.00     0.074 A 
ATOM     52  C   UNL A   1      39.889  33.958  31.802  1.00  0.00     0.029 A 
ATOM     53  N   UNL A   1      40.029  34.375  29.621  1.00  0.00    -0.354 N 
ATOM     54  N   UNL A   1      43.099  32.511  29.225  1.00  0.00    -0.248 NA
ATOM     55  C   UNL A   1      45.245  32.634  28.396  1.00  0.00     0.031 C 
ATOM     56  C   UNL A   1      41.243  34.229  31.470  1.00  0.00     0.029 A 
ATOM     57  C   UNL A   1      41.320  34.465  30.107  1.00  0.00     0.049 A 
ATOM     58  H   UNL A   1      39.767  34.560  28.690  1.00  0.00     0.167 HD
ATOM     59  C   UNL A   1      43.353  33.836  28.998  1.00  0.00     0.074 A 
ATOM     60  C   UNL A   1      44.713  33.863  28.488  1.00  0.00     0.031 C 
ATOM     61  C   UNL A   1      42.428  34.812  29.228  1.00  0.00     0.031 A 
BRANCH  48  62
ATOM     62  C   UNL A   1      36.530  33.966  30.857  1.00  0.00    -0.014 A 
ATOM     63  C   UNL A   1      35.387  34.051  30.036  1.00  0.00     0.010 A 
ATOM     64  C   UNL A   1      36.377  34.458  32.168  1.00  0.00     0.010 A 
ATOM     65  C   UNL A   1      34.202  34.677  30.463  1.00  0.00     0.020 A 
ATOM     66  C   UNL A   1      35.217  35.119  32.599  1.00  0.00     0.020 A 
ATOM     67  C   UNL A   1      34.136  35.235  31.738  1.00  0.00     0.054 A 
BRANCH  67  68
ATOM     68  S   UNL A   1      32.637  36.111  32.256  1.00  0.00     0.124 S 
ATOM     69  O   UNL A   1      32.243  36.814  31.037  1.00  0.00    -0.237 OA
ATOM     70  O   UNL A   1      31.761  35.017  32.665  1.00  0.00    -0.237 OA
ATOM     71  O   UNL A   1      33.096  36.975  33.342  1.00  0.00    -0.744 OA
ENDBRANCH  67  68
ENDBRANCH  48  62
BRANCH  49  72
ATOM     72  C   UNL A   1      44.558  29.414  27.848  1.00  0.00    -0.014 A 
ATOM     73  C   UNL A   1      45.558  28.445  28.023  1.00  0.00     0.010 A 
ATOM     74  C   UNL A   1      43.625  29.237  26.811  1.00  0.00     0.010 A 
ATOM     75  C   UNL A   1      45.466  27.213  27.367  1.00  0.00     0.020 A 
ATOM     76  C   UNL A   1      43.541  28.006  26.141  1.00  0.00     0.020 A 
ATOM     77  C   UNL A   1      44.397  26.971  26.510  1.00  0.00     0.054 A 
BRANCH  77  78
ATOM     78  S   UNL A   1      44.030  25.244  26.075  1.00  0.00     0.124 S 
ATOM     79  O   UNL A   1      42.684  25.335  25.513  1.00  0.00    -0.237 OA
ATOM     80  O   UNL A   1      45.089  24.951  25.108  1.00  0.00    -0.237 OA
ATOM     81  O   UNL A   1      44.133  24.545  27.351  1.00  0.00    -0.744 OA
ENDBRANCH  77  78
ENDBRANCH  49  72
BRANCH  61  82
ATOM     82  C   UNL A   1      42.545  36.217  28.701  1.00  0.00    -0.014 A 
ATOM     83  C   UNL A   1      43.401  37.178  29.264  1.00  0.00     0.010 A 
ATOM     84  C   UNL A   1      41.883  36.566  27.502  1.00  0.00     0.010 A 
ATOM     85  C   UNL A   1      43.528  38.456  28.710  1.00  0.00     0.020 A 
ATOM     86  C   UNL A   1      42.042  37.824  26.913  1.00  0.00     0.020 A 
ATOM     87  C   UNL A   1      42.843  38.774  27.539  1.00  0.00     0.054 A 
BRANCH  87  88
ATOM     88  S   UNL A   1      43.066  40.409  26.797  1.00  0.00     0.124 S 
ATOM     89  O   UNL A   1      41.757  40.645  26.195  1.00  0.00    -0.237 OA
ATOM     90  O   UNL A   1      43.386  41.252  27.948  1.00  0.00    -0.237 OA
ATOM     91  O   UNL A   1      44.165  40.210  25.858  1.00  0.00    -0.744 OA
ENDBRANCH  87  88
ENDBRANCH  61  82
ENDBRANCH  35  36
ENDBRANCH  27  30
ENDBRANCH  25  26
ENDBRANCH   1  25
TORSDOF 16
ENDMDL
