MODEL 1
REMARK VINA RESULT:     -12.0      0.000      0.000
REMARK SMILES Cc1cc(C(=O)NCCCCNC(=O)c2ccc(-c3c4nc(c(-c5ccc(S(=O)(=O)[O-])cc5)c5ccc([nH]5)c(-c5ccc(S(=O)(=O)[O-])cc5)c5nc(c(-c6ccc(S(=O)(=O)[O-])cc6)c6ccc3[nH]6)C=C5)C=C4)cc2)nc(N2CCN(c3ccccc3Cl)CC2)n1
REMARK SMILES IDX 10 1 9 2 8 3 7 4 5 5 6 6 4 8 1 9 2 10 3 11 90 12 76 13 75 14
REMARK SMILES IDX 77 15 78 16 89 17 79 18 88 19 80 20 81 21 82 22 86 23 83 24
REMARK SMILES IDX 85 25 87 26 84 27 11 28 12 29 13 30 14 32 15 33 16 34 74 35
REMARK SMILES IDX 17 36 73 37 18 38 19 39 20 40 67 41 21 42 72 43 66 44 68 45
REMARK SMILES IDX 22 46 71 47 65 48 64 49 23 51 53 52 34 53 52 54 35 55 38 56
REMARK SMILES IDX 51 57 69 58 36 59 37 60 50 62 70 63 39 64 24 65 25 66 33 67
REMARK SMILES IDX 26 68 32 69 27 70 28 71 29 72 30 73 31 74 54 75 55 76 63 77
REMARK SMILES IDX 56 78 62 79 57 80 58 81 59 82 60 83 61 84 40 85 41 86 49 87
REMARK SMILES IDX 42 88 48 89 43 90 44 91 45 92 46 93 47 94
REMARK H PARENT 7 7 12 31 68 50 38 61
REMARK Flexibility Score: inf
ROOT
ATOM      1  C   UNL A   1      32.974  27.857  26.311  1.00  0.00     0.023 C 
ENDROOT
BRANCH   1   2
ATOM      2  C   UNL A   1      34.049  28.025  25.231  1.00  0.00     0.023 C 
BRANCH   2   3
ATOM      3  C   UNL A   1      33.584  28.840  24.024  1.00  0.00     0.116 C 
BRANCH   3   4
ATOM      4  N   UNL A   1      33.828  28.098  22.810  1.00  0.00    -0.351 N 
ATOM      5  C   UNL A   1      33.262  26.960  22.290  1.00  0.00     0.270 C 
ATOM      6  O   UNL A   1      33.781  26.518  21.262  1.00  0.00    -0.268 OA
ATOM      7  H   UNL A   1      34.538  28.480  22.246  1.00  0.00     0.163 HD
BRANCH   5   8
ATOM      8  C   UNL A   1      32.046  26.281  22.862  1.00  0.00     0.133 A 
ATOM      9  C   UNL A   1      28.514  26.604  24.022  1.00  0.00     0.067 C 
ATOM     10  C   UNL A   1      29.849  26.048  23.624  1.00  0.00     0.044 A 
ATOM     11  C   UNL A   1      30.873  26.888  23.235  1.00  0.00     0.058 A 
ATOM     12  N   UNL A   1      30.003  24.711  23.714  1.00  0.00    -0.218 NA
ATOM     13  C   UNL A   1      31.215  24.211  23.446  1.00  0.00     0.226 A 
ATOM     14  N   UNL A   1      32.225  24.955  23.000  1.00  0.00    -0.208 NA
BRANCH  13  15
ATOM     15  N   UNL A   1      31.496  22.885  23.667  1.00  0.00    -0.337 N 
ATOM     16  C   UNL A   1      31.966  22.459  24.983  1.00  0.00     0.141 C 
ATOM     17  C   UNL A   1      32.121  22.229  22.506  1.00  0.00     0.141 C 
ATOM     18  C   UNL A   1      31.860  20.917  25.103  1.00  0.00     0.138 C 
ATOM     19  C   UNL A   1      32.067  20.697  22.638  1.00  0.00     0.138 C 
ATOM     20  N   UNL A   1      32.546  20.289  23.968  1.00  0.00    -0.367 N 
BRANCH  20  21
ATOM     21  C   UNL A   1      33.257  19.114  24.098  1.00  0.00     0.056 A 
ATOM     22  C   UNL A   1      32.666  17.884  23.778  1.00  0.00     0.027 A 
ATOM     23  C   UNL A   1      34.592  19.096  24.559  1.00  0.00     0.064 A 
ATOM     24  C   UNL A   1      33.370  16.683  23.909  1.00  0.00     0.002 A 
ATOM     25  C   UNL A   1      35.295  17.897  24.699  1.00  0.00     0.023 A 
ATOM     26  Cl  UNL A   1      35.404  20.550  25.043  1.00  0.00    -0.082 Cl
ATOM     27  C   UNL A   1      34.683  16.689  24.373  1.00  0.00     0.002 A 
ENDBRANCH  20  21
ENDBRANCH  13  15
ENDBRANCH   5   8
ENDBRANCH   3   4
ENDBRANCH   2   3
ENDBRANCH   1   2
BRANCH   1  28
ATOM     28  C   UNL A   1      33.339  28.449  27.669  1.00  0.00     0.116 C 
BRANCH  28  29
ATOM     29  N   UNL A   1      33.331  29.903  27.674  1.00  0.00    -0.352 N 
ATOM     30  C   UNL A   1      34.364  30.760  27.968  1.00  0.00     0.251 C 
ATOM     31  H   UNL A   1      32.475  30.329  27.436  1.00  0.00     0.163 HD
ATOM     32  O   UNL A   1      34.166  31.966  28.035  1.00  0.00    -0.269 OA
BRANCH  30  33
ATOM     33  C   UNL A   1      35.700  30.198  28.249  1.00  0.00     0.039 A 
ATOM     34  C   UNL A   1      36.616  30.093  27.200  1.00  0.00     0.014 A 
ATOM     35  C   UNL A   1      36.055  29.819  29.545  1.00  0.00     0.014 A 
ATOM     36  C   UNL A   1      37.917  29.666  27.465  1.00  0.00     0.010 A 
ATOM     37  C   UNL A   1      37.369  29.451  29.818  1.00  0.00     0.010 A 
ATOM     38  C   UNL A   1      38.311  29.373  28.780  1.00  0.00    -0.014 A 
BRANCH  38  39
ATOM     39  C   UNL A   1      39.710  28.996  29.095  1.00  0.00     0.031 A 
ATOM     40  C   UNL A   1      40.640  30.001  29.714  1.00  0.00     0.074 A 
ATOM     41  C   UNL A   1      40.161  27.773  28.756  1.00  0.00     0.049 A 
ATOM     42  N   UNL A   1      41.909  29.879  30.005  1.00  0.00    -0.248 NA
ATOM     43  C   UNL A   1      40.077  31.326  30.021  1.00  0.00     0.031 C 
ATOM     44  C   UNL A   1      39.366  26.727  28.106  1.00  0.00     0.029 A 
ATOM     45  N   UNL A   1      41.400  27.205  28.902  1.00  0.00    -0.354 N 
ATOM     46  C   UNL A   1      42.302  31.112  30.508  1.00  0.00     0.074 A 
ATOM     47  C   UNL A   1      41.147  31.983  30.444  1.00  0.00     0.031 C 
ATOM     48  C   UNL A   1      40.132  25.639  27.930  1.00  0.00     0.029 A 
ATOM     49  C   UNL A   1      41.477  25.919  28.422  1.00  0.00     0.049 A 
ATOM     50  H   UNL A   1      42.163  27.674  29.312  1.00  0.00     0.167 HD
ATOM     51  C   UNL A   1      43.509  31.483  30.997  1.00  0.00     0.031 A 
ATOM     52  C   UNL A   1      42.515  25.062  28.382  1.00  0.00     0.031 A 
ATOM     53  C   UNL A   1      44.650  30.612  31.073  1.00  0.00     0.049 A 
ATOM     54  C   UNL A   1      43.841  25.489  28.945  1.00  0.00     0.074 A 
ATOM     55  C   UNL A   1      45.901  30.874  31.605  1.00  0.00     0.029 A 
ATOM     56  N   UNL A   1      44.680  29.307  30.603  1.00  0.00    -0.354 N 
ATOM     57  N   UNL A   1      44.176  26.640  29.478  1.00  0.00    -0.248 NA
ATOM     58  C   UNL A   1      44.925  24.498  28.913  1.00  0.00     0.031 C 
ATOM     59  C   UNL A   1      46.699  29.739  31.421  1.00  0.00     0.029 A 
ATOM     60  C   UNL A   1      45.932  28.756  30.817  1.00  0.00     0.049 A 
ATOM     61  H   UNL A   1      43.923  28.843  30.178  1.00  0.00     0.167 HD
ATOM     62  C   UNL A   1      45.504  26.504  29.866  1.00  0.00     0.074 A 
ATOM     63  C   UNL A   1      45.906  25.156  29.518  1.00  0.00     0.031 C 
ATOM     64  C   UNL A   1      46.315  27.413  30.461  1.00  0.00     0.031 A 
BRANCH  51  65
ATOM     65  C   UNL A   1      43.650  32.902  31.480  1.00  0.00    -0.014 A 
ATOM     66  C   UNL A   1      43.282  33.261  32.789  1.00  0.00     0.010 A 
ATOM     67  C   UNL A   1      44.164  33.888  30.618  1.00  0.00     0.010 A 
ATOM     68  C   UNL A   1      43.375  34.590  33.212  1.00  0.00     0.020 A 
ATOM     69  C   UNL A   1      44.285  35.213  31.046  1.00  0.00     0.020 A 
ATOM     70  C   UNL A   1      43.866  35.560  32.332  1.00  0.00     0.054 A 
BRANCH  70  71
ATOM     71  S   UNL A   1      43.975  37.277  32.902  1.00  0.00     0.124 S 
ATOM     72  O   UNL A   1      42.882  37.341  33.870  1.00  0.00    -0.237 OA
ATOM     73  O   UNL A   1      45.320  37.346  33.470  1.00  0.00    -0.237 OA
ATOM     74  O   UNL A   1      43.776  38.060  31.685  1.00  0.00    -0.744 OA
ENDBRANCH  70  71
ENDBRANCH  51  65
BRANCH  52  75
ATOM     75  C   UNL A   1      42.325  23.702  27.812  1.00  0.00    -0.014 A 
ATOM     76  C   UNL A   1      42.520  23.476  26.439  1.00  0.00     0.010 A 
ATOM     77  C   UNL A   1      41.983  22.621  28.644  1.00  0.00     0.010 A 
ATOM     78  C   UNL A   1      42.369  22.192  25.904  1.00  0.00     0.020 A 
ATOM     79  C   UNL A   1      41.853  21.332  28.117  1.00  0.00     0.020 A 
ATOM     80  C   UNL A   1      42.040  21.127  26.748  1.00  0.00     0.054 A 
BRANCH  80  81
ATOM     81  S   UNL A   1      41.920  19.459  26.047  1.00  0.00     0.124 S 
ATOM     82  O   UNL A   1      42.378  18.628  27.156  1.00  0.00    -0.237 OA
ATOM     83  O   UNL A   1      40.498  19.354  25.722  1.00  0.00    -0.237 OA
ATOM     84  O   UNL A   1      42.811  19.511  24.890  1.00  0.00    -0.744 OA
ENDBRANCH  80  81
ENDBRANCH  52  75
BRANCH  64  85
ATOM     85  C   UNL A   1      47.712  26.973  30.801  1.00  0.00    -0.014 A 
ATOM     86  C   UNL A   1      48.790  27.252  29.942  1.00  0.00     0.010 A 
ATOM     87  C   UNL A   1      47.957  26.322  32.024  1.00  0.00     0.010 A 
ATOM     88  C   UNL A   1      50.086  26.863  30.290  1.00  0.00     0.020 A 
ATOM     89  C   UNL A   1      49.255  25.953  32.385  1.00  0.00     0.020 A 
ATOM     90  C   UNL A   1      50.310  26.216  31.510  1.00  0.00     0.054 A 
BRANCH  90  91
ATOM     91  S   UNL A   1      52.008  25.766  31.964  1.00  0.00     0.124 S 
ATOM     92  O   UNL A   1      52.289  26.702  33.050  1.00  0.00    -0.237 OA
ATOM     93  O   UNL A   1      51.876  24.366  32.361  1.00  0.00    -0.237 OA
ATOM     94  O   UNL A   1      52.765  25.990  30.735  1.00  0.00    -0.744 OA
ENDBRANCH  90  91
ENDBRANCH  64  85
ENDBRANCH  38  39
ENDBRANCH  30  33
ENDBRANCH  28  29
ENDBRANCH   1  28
TORSDOF 16
ENDMDL
MODEL 2
REMARK VINA RESULT:     -11.3      4.780      8.172
REMARK SMILES Cc1cc(C(=O)NCCCCNC(=O)c2ccc(-c3c4nc(c(-c5ccc(S(=O)(=O)[O-])cc5)c5ccc([nH]5)c(-c5ccc(S(=O)(=O)[O-])cc5)c5nc(c(-c6ccc(S(=O)(=O)[O-])cc6)c6ccc3[nH]6)C=C5)C=C4)cc2)nc(N2CCN(c3ccccc3Cl)CC2)n1
REMARK SMILES IDX 10 1 9 2 8 3 7 4 5 5 6 6 4 8 1 9 2 10 3 11 90 12 76 13 75 14
REMARK SMILES IDX 77 15 78 16 89 17 79 18 88 19 80 20 81 21 82 22 86 23 83 24
REMARK SMILES IDX 85 25 87 26 84 27 11 28 12 29 13 30 14 32 15 33 16 34 74 35
REMARK SMILES IDX 17 36 73 37 18 38 19 39 20 40 67 41 21 42 72 43 66 44 68 45
REMARK SMILES IDX 22 46 71 47 65 48 64 49 23 51 53 52 34 53 52 54 35 55 38 56
REMARK SMILES IDX 51 57 69 58 36 59 37 60 50 62 70 63 39 64 24 65 25 66 33 67
REMARK SMILES IDX 26 68 32 69 27 70 28 71 29 72 30 73 31 74 54 75 55 76 63 77
REMARK SMILES IDX 56 78 62 79 57 80 58 81 59 82 60 83 61 84 40 85 41 86 49 87
REMARK SMILES IDX 42 88 48 89 43 90 44 91 45 92 46 93 47 94
REMARK H PARENT 7 7 12 31 68 50 38 61
REMARK Flexibility Score: inf
ROOT
ATOM      1  C   UNL A   1      35.837  33.068  29.597  1.00  0.00     0.023 C 
ENDROOT
BRANCH   1   2
ATOM      2  C   UNL A   1      37.097  33.915  29.809  1.00  0.00     0.023 C 
BRANCH   2   3
ATOM      3  C   UNL A   1      37.824  33.617  31.120  1.00  0.00     0.116 C 
BRANCH   3   4
ATOM      4  N   UNL A   1      36.874  33.187  32.118  1.00  0.00    -0.351 N 
ATOM      5  C   UNL A   1      37.023  32.738  33.408  1.00  0.00     0.270 C 
ATOM      6  O   UNL A   1      35.996  32.343  33.965  1.00  0.00    -0.268 OA
ATOM      7  H   UNL A   1      35.937  33.221  31.817  1.00  0.00     0.163 HD
BRANCH   5   8
ATOM      8  C   UNL A   1      38.323  32.755  34.166  1.00  0.00     0.133 A 
ATOM      9  C   UNL A   1      40.540  34.554  36.570  1.00  0.00     0.067 C 
ATOM     10  C   UNL A   1      39.956  33.521  35.652  1.00  0.00     0.044 A 
ATOM     11  C   UNL A   1      38.791  33.775  34.957  1.00  0.00     0.058 A 
ATOM     12  N   UNL A   1      40.649  32.372  35.509  1.00  0.00    -0.218 NA
ATOM     13  C   UNL A   1      40.186  31.479  34.627  1.00  0.00     0.226 A 
ATOM     14  N   UNL A   1      39.035  31.631  33.978  1.00  0.00    -0.208 NA
BRANCH  13  15
ATOM     15  N   UNL A   1      40.916  30.359  34.308  1.00  0.00    -0.337 N 
ATOM     16  C   UNL A   1      40.245  29.213  33.700  1.00  0.00     0.141 C 
ATOM     17  C   UNL A   1      41.962  30.055  35.299  1.00  0.00     0.141 C 
ATOM     18  C   UNL A   1      41.299  28.246  33.103  1.00  0.00     0.138 C 
ATOM     19  C   UNL A   1      42.987  29.056  34.734  1.00  0.00     0.138 C 
ATOM     20  N   UNL A   1      42.292  27.908  34.129  1.00  0.00    -0.367 N 
BRANCH  20  21
ATOM     21  C   UNL A   1      42.854  26.653  34.222  1.00  0.00     0.056 A 
ATOM     22  C   UNL A   1      43.835  26.242  33.310  1.00  0.00     0.027 A 
ATOM     23  C   UNL A   1      42.468  25.734  35.223  1.00  0.00     0.064 A 
ATOM     24  C   UNL A   1      44.412  24.970  33.386  1.00  0.00     0.002 A 
ATOM     25  C   UNL A   1      43.038  24.460  35.297  1.00  0.00     0.023 A 
ATOM     26  Cl  UNL A   1      41.221  26.110  36.368  1.00  0.00    -0.082 Cl
ATOM     27  C   UNL A   1      44.011  24.078  34.377  1.00  0.00     0.002 A 
ENDBRANCH  20  21
ENDBRANCH  13  15
ENDBRANCH   5   8
ENDBRANCH   3   4
ENDBRANCH   2   3
ENDBRANCH   1   2
BRANCH   1  28
ATOM     28  C   UNL A   1      35.337  33.020  28.156  1.00  0.00     0.116 C 
BRANCH  28  29
ATOM     29  N   UNL A   1      34.327  31.997  27.940  1.00  0.00    -0.352 N 
ATOM     30  C   UNL A   1      34.487  30.632  27.920  1.00  0.00     0.251 C 
ATOM     31  H   UNL A   1      33.410  32.323  27.789  1.00  0.00     0.163 HD
ATOM     32  O   UNL A   1      33.551  29.906  27.614  1.00  0.00    -0.269 OA
BRANCH  30  33
ATOM     33  C   UNL A   1      35.815  30.064  28.226  1.00  0.00     0.039 A 
ATOM     34  C   UNL A   1      36.792  30.074  27.229  1.00  0.00     0.014 A 
ATOM     35  C   UNL A   1      36.100  29.565  29.498  1.00  0.00     0.014 A 
ATOM     36  C   UNL A   1      38.083  29.641  27.529  1.00  0.00     0.010 A 
ATOM     37  C   UNL A   1      37.402  29.190  29.813  1.00  0.00     0.010 A 
ATOM     38  C   UNL A   1      38.405  29.227  28.831  1.00  0.00    -0.014 A 
BRANCH  38  39
ATOM     39  C   UNL A   1      39.791  28.840  29.192  1.00  0.00     0.031 A 
ATOM     40  C   UNL A   1      40.693  29.825  29.881  1.00  0.00     0.074 A 
ATOM     41  C   UNL A   1      40.256  27.627  28.835  1.00  0.00     0.049 A 
ATOM     42  N   UNL A   1      41.949  29.693  30.221  1.00  0.00    -0.248 NA
ATOM     43  C   UNL A   1      40.116  31.140  30.206  1.00  0.00     0.031 C 
ATOM     44  C   UNL A   1      39.490  26.603  28.119  1.00  0.00     0.029 A 
ATOM     45  N   UNL A   1      41.489  27.055  29.015  1.00  0.00    -0.354 N 
ATOM     46  C   UNL A   1      42.318  30.910  30.778  1.00  0.00     0.074 A 
ATOM     47  C   UNL A   1      41.167  31.783  30.693  1.00  0.00     0.031 C 
ATOM     48  C   UNL A   1      40.265  25.521  27.942  1.00  0.00     0.029 A 
ATOM     49  C   UNL A   1      41.588  25.785  28.498  1.00  0.00     0.049 A 
ATOM     50  H   UNL A   1      42.233  27.511  29.470  1.00  0.00     0.167 HD
ATOM     51  C   UNL A   1      43.504  31.265  31.328  1.00  0.00     0.031 A 
ATOM     52  C   UNL A   1      42.627  24.929  28.475  1.00  0.00     0.031 A 
ATOM     53  C   UNL A   1      44.642  30.392  31.424  1.00  0.00     0.049 A 
ATOM     54  C   UNL A   1      43.928  25.338  29.105  1.00  0.00     0.074 A 
ATOM     55  C   UNL A   1      45.869  30.637  32.016  1.00  0.00     0.029 A 
ATOM     56  N   UNL A   1      44.693  29.102  30.916  1.00  0.00    -0.354 N 
ATOM     57  N   UNL A   1      44.239  26.472  29.687  1.00  0.00    -0.248 NA
ATOM     58  C   UNL A   1      45.014  24.348  29.088  1.00  0.00     0.031 C 
ATOM     59  C   UNL A   1      46.675  29.509  31.830  1.00  0.00     0.029 A 
ATOM     60  C   UNL A   1      45.935  28.545  31.164  1.00  0.00     0.049 A 
ATOM     61  H   UNL A   1      43.955  28.652  30.445  1.00  0.00     0.167 HD
ATOM     62  C   UNL A   1      45.550  26.324  30.126  1.00  0.00     0.074 A 
ATOM     63  C   UNL A   1      45.967  24.987  29.753  1.00  0.00     0.031 C 
ATOM     64  C   UNL A   1      46.334  27.213  30.783  1.00  0.00     0.031 A 
BRANCH  51  65
ATOM     65  C   UNL A   1      43.623  32.669  31.860  1.00  0.00    -0.014 A 
ATOM     66  C   UNL A   1      44.110  33.712  31.052  1.00  0.00     0.010 A 
ATOM     67  C   UNL A   1      43.233  32.951  33.182  1.00  0.00     0.010 A 
ATOM     68  C   UNL A   1      44.258  35.000  31.571  1.00  0.00     0.020 A 
ATOM     69  C   UNL A   1      43.353  34.245  33.697  1.00  0.00     0.020 A 
ATOM     70  C   UNL A   1      43.887  35.256  32.895  1.00  0.00     0.054 A 
BRANCH  70  71
ATOM     71  S   UNL A   1      44.090  36.936  33.547  1.00  0.00     0.124 S 
ATOM     72  O   UNL A   1      44.368  37.697  32.331  1.00  0.00    -0.237 OA
ATOM     73  O   UNL A   1      42.795  37.200  34.170  1.00  0.00    -0.237 OA
ATOM     74  O   UNL A   1      45.211  36.814  34.476  1.00  0.00    -0.744 OA
ENDBRANCH  70  71
ENDBRANCH  51  65
BRANCH  52  75
ATOM     75  C   UNL A   1      42.462  23.587  27.855  1.00  0.00    -0.014 A 
ATOM     76  C   UNL A   1      42.941  23.344  26.556  1.00  0.00     0.010 A 
ATOM     77  C   UNL A   1      41.859  22.539  28.573  1.00  0.00     0.010 A 
ATOM     78  C   UNL A   1      42.813  22.075  25.982  1.00  0.00     0.020 A 
ATOM     79  C   UNL A   1      41.749  21.264  28.010  1.00  0.00     0.020 A 
ATOM     80  C   UNL A   1      42.221  21.042  26.714  1.00  0.00     0.054 A 
BRANCH  80  81
ATOM     81  S   UNL A   1      42.128  19.387  25.977  1.00  0.00     0.124 S 
ATOM     82  O   UNL A   1      42.980  19.530  24.800  1.00  0.00    -0.237 OA
ATOM     83  O   UNL A   1      42.656  18.536  27.041  1.00  0.00    -0.237 OA
ATOM     84  O   UNL A   1      40.704  19.216  25.704  1.00  0.00    -0.744 OA
ENDBRANCH  80  81
ENDBRANCH  52  75
BRANCH  64  85
ATOM     85  C   UNL A   1      47.717  26.763  31.167  1.00  0.00    -0.014 A 
ATOM     86  C   UNL A   1      47.944  26.050  32.357  1.00  0.00     0.010 A 
ATOM     87  C   UNL A   1      48.793  27.009  30.295  1.00  0.00     0.010 A 
ATOM     88  C   UNL A   1      49.231  25.612  32.680  1.00  0.00     0.020 A 
ATOM     89  C   UNL A   1      50.077  26.552  30.604  1.00  0.00     0.020 A 
ATOM     90  C   UNL A   1      50.290  25.867  31.801  1.00  0.00     0.054 A 
BRANCH  90  91
ATOM     91  S   UNL A   1      51.943  25.245  32.217  1.00  0.00     0.124 S 
ATOM     92  O   UNL A   1      51.774  23.803  32.051  1.00  0.00    -0.237 OA
ATOM     93  O   UNL A   1      52.792  25.896  31.223  1.00  0.00    -0.237 OA
ATOM     94  O   UNL A   1      52.145  25.695  33.592  1.00  0.00    -0.744 OA
ENDBRANCH  90  91
ENDBRANCH  64  85
ENDBRANCH  38  39
ENDBRANCH  30  33
ENDBRANCH  28  29
ENDBRANCH   1  28
TORSDOF 16
ENDMDL
MODEL 3
REMARK VINA RESULT:     -11.3      2.951      3.923
REMARK SMILES Cc1cc(C(=O)NCCCCNC(=O)c2ccc(-c3c4nc(c(-c5ccc(S(=O)(=O)[O-])cc5)c5ccc([nH]5)c(-c5ccc(S(=O)(=O)[O-])cc5)c5nc(c(-c6ccc(S(=O)(=O)[O-])cc6)c6ccc3[nH]6)C=C5)C=C4)cc2)nc(N2CCN(c3ccccc3Cl)CC2)n1
REMARK SMILES IDX 10 1 9 2 8 3 7 4 5 5 6 6 4 8 1 9 2 10 3 11 90 12 76 13 75 14
REMARK SMILES IDX 77 15 78 16 89 17 79 18 88 19 80 20 81 21 82 22 86 23 83 24
REMARK SMILES IDX 85 25 87 26 84 27 11 28 12 29 13 30 14 32 15 33 16 34 74 35
REMARK SMILES IDX 17 36 73 37 18 38 19 39 20 40 67 41 21 42 72 43 66 44 68 45
REMARK SMILES IDX 22 46 71 47 65 48 64 49 23 51 53 52 34 53 52 54 35 55 38 56
REMARK SMILES IDX 51 57 69 58 36 59 37 60 50 62 70 63 39 64 24 65 25 66 33 67
REMARK SMILES IDX 26 68 32 69 27 70 28 71 29 72 30 73 31 74 54 75 55 76 63 77
REMARK SMILES IDX 56 78 62 79 57 80 58 81 59 82 60 83 61 84 40 85 41 86 49 87
REMARK SMILES IDX 42 88 48 89 43 90 44 91 45 92 46 93 47 94
REMARK H PARENT 7 7 12 31 68 50 38 61
REMARK Flexibility Score: inf
ROOT
ATOM      1  C   UNL A   1      35.353  32.454  27.982  1.00  0.00     0.023 C 
ENDROOT
BRANCH   1   2
ATOM      2  C   UNL A   1      34.001  31.751  28.153  1.00  0.00     0.023 C 
BRANCH   2   3
ATOM      3  C   UNL A   1      33.749  30.647  27.126  1.00  0.00     0.116 C 
BRANCH   3   4
ATOM      4  N   UNL A   1      32.803  29.694  27.657  1.00  0.00    -0.351 N 
ATOM      5  C   UNL A   1      32.285  28.525  27.156  1.00  0.00     0.270 C 
ATOM      6  O   UNL A   1      31.401  27.992  27.831  1.00  0.00    -0.268 OA
ATOM      7  H   UNL A   1      32.463  29.927  28.551  1.00  0.00     0.163 HD
BRANCH   5   8
ATOM      8  C   UNL A   1      32.765  27.857  25.895  1.00  0.00     0.133 A 
ATOM      9  C   UNL A   1      33.979  28.253  22.389  1.00  0.00     0.067 C 
ATOM     10  C   UNL A   1      33.595  27.675  23.718  1.00  0.00     0.044 A 
ATOM     11  C   UNL A   1      33.056  28.475  24.704  1.00  0.00     0.058 A 
ATOM     12  N   UNL A   1      33.757  26.344  23.872  1.00  0.00    -0.218 NA
ATOM     13  C   UNL A   1      33.337  25.802  25.021  1.00  0.00     0.226 A 
ATOM     14  N   UNL A   1      32.873  26.524  26.038  1.00  0.00    -0.208 NA
BRANCH  13  15
ATOM     15  N   UNL A   1      33.320  24.439  25.193  1.00  0.00    -0.337 N 
ATOM     16  C   UNL A   1      34.550  23.746  25.571  1.00  0.00     0.141 C 
ATOM     17  C   UNL A   1      32.454  23.749  24.222  1.00  0.00     0.141 C 
ATOM     18  C   UNL A   1      34.214  22.313  26.059  1.00  0.00     0.138 C 
ATOM     19  C   UNL A   1      32.155  22.308  24.671  1.00  0.00     0.138 C 
ATOM     20  N   UNL A   1      33.405  21.627  25.045  1.00  0.00    -0.367 N 
BRANCH  20  21
ATOM     21  C   UNL A   1      33.547  20.282  24.779  1.00  0.00     0.056 A 
ATOM     22  C   UNL A   1      32.425  19.486  24.511  1.00  0.00     0.027 A 
ATOM     23  C   UNL A   1      34.811  19.651  24.771  1.00  0.00     0.064 A 
ATOM     24  C   UNL A   1      32.550  18.119  24.245  1.00  0.00     0.002 A 
ATOM     25  C   UNL A   1      34.938  18.283  24.513  1.00  0.00     0.023 A 
ATOM     26  Cl  UNL A   1      36.262  20.523  25.149  1.00  0.00    -0.082 Cl
ATOM     27  C   UNL A   1      33.805  17.517  24.249  1.00  0.00     0.002 A 
ENDBRANCH  20  21
ENDBRANCH  13  15
ENDBRANCH   5   8
ENDBRANCH   3   4
ENDBRANCH   2   3
ENDBRANCH   1   2
BRANCH   1  28
ATOM     28  C   UNL A   1      36.110  32.700  29.284  1.00  0.00     0.116 C 
BRANCH  28  29
ATOM     29  N   UNL A   1      35.728  31.782  30.345  1.00  0.00    -0.352 N 
ATOM     30  C   UNL A   1      36.443  30.727  30.857  1.00  0.00     0.251 C 
ATOM     31  H   UNL A   1      34.843  31.936  30.748  1.00  0.00     0.163 HD
ATOM     32  O   UNL A   1      35.933  29.977  31.679  1.00  0.00    -0.269 OA
BRANCH  30  33
ATOM     33  C   UNL A   1      37.814  30.486  30.364  1.00  0.00     0.039 A 
ATOM     34  C   UNL A   1      38.862  30.462  31.286  1.00  0.00     0.014 A 
ATOM     35  C   UNL A   1      38.051  30.245  29.009  1.00  0.00     0.014 A 
ATOM     36  C   UNL A   1      40.147  30.132  30.857  1.00  0.00     0.010 A 
ATOM     37  C   UNL A   1      39.321  29.856  28.593  1.00  0.00     0.010 A 
ATOM     38  C   UNL A   1      40.379  29.795  29.514  1.00  0.00    -0.014 A 
BRANCH  38  39
ATOM     39  C   UNL A   1      41.720  29.361  29.053  1.00  0.00     0.031 A 
ATOM     40  C   UNL A   1      42.844  30.354  28.966  1.00  0.00     0.074 A 
ATOM     41  C   UNL A   1      41.903  28.090  28.645  1.00  0.00     0.049 A 
ATOM     42  N   UNL A   1      44.065  30.180  28.531  1.00  0.00    -0.248 NA
ATOM     43  C   UNL A   1      42.550  31.730  29.400  1.00  0.00     0.031 C 
ATOM     44  C   UNL A   1      40.874  27.046  28.636  1.00  0.00     0.029 A 
ATOM     45  N   UNL A   1      43.016  27.464  28.148  1.00  0.00    -0.354 N 
ATOM     46  C   UNL A   1      44.677  31.423  28.618  1.00  0.00     0.074 A 
ATOM     47  C   UNL A   1      43.682  32.353  29.107  1.00  0.00     0.031 C 
ATOM     48  C   UNL A   1      41.412  25.905  28.179  1.00  0.00     0.029 A 
ATOM     49  C   UNL A   1      42.809  26.141  27.831  1.00  0.00     0.049 A 
ATOM     50  H   UNL A   1      43.882  27.917  28.030  1.00  0.00     0.167 HD
ATOM     51  C   UNL A   1      45.958  31.759  28.333  1.00  0.00     0.031 A 
ATOM     52  C   UNL A   1      43.650  25.224  27.317  1.00  0.00     0.031 A 
ATOM     53  C   UNL A   1      46.949  30.830  27.861  1.00  0.00     0.049 A 
ATOM     54  C   UNL A   1      45.072  25.614  27.024  1.00  0.00     0.074 A 
ATOM     55  C   UNL A   1      48.289  31.058  27.600  1.00  0.00     0.029 A 
ATOM     56  N   UNL A   1      46.708  29.493  27.580  1.00  0.00    -0.354 N 
ATOM     57  N   UNL A   1      45.651  26.781  27.175  1.00  0.00    -0.248 NA
ATOM     58  C   UNL A   1      45.955  24.561  26.505  1.00  0.00     0.031 C 
ATOM     59  C   UNL A   1      48.849  29.867  27.123  1.00  0.00     0.029 A 
ATOM     60  C   UNL A   1      47.869  28.887  27.132  1.00  0.00     0.049 A 
ATOM     61  H   UNL A   1      45.838  29.043  27.682  1.00  0.00     0.167 HD
ATOM     62  C   UNL A   1      46.975  26.598  26.790  1.00  0.00     0.074 A 
ATOM     63  C   UNL A   1      47.111  25.205  26.413  1.00  0.00     0.031 C 
ATOM     64  C   UNL A   1      47.986  27.500  26.758  1.00  0.00     0.031 A 
BRANCH  51  65
ATOM     65  C   UNL A   1      46.350  33.200  28.521  1.00  0.00    -0.014 A 
ATOM     66  C   UNL A   1      46.953  33.637  29.715  1.00  0.00     0.010 A 
ATOM     67  C   UNL A   1      46.122  34.128  27.489  1.00  0.00     0.010 A 
ATOM     68  C   UNL A   1      47.271  34.985  29.896  1.00  0.00     0.020 A 
ATOM     69  C   UNL A   1      46.464  35.474  27.655  1.00  0.00     0.020 A 
ATOM     70  C   UNL A   1      47.015  35.897  28.867  1.00  0.00     0.054 A 
BRANCH  70  71
ATOM     71  S   UNL A   1      47.434  37.642  29.125  1.00  0.00     0.124 S 
ATOM     72  O   UNL A   1      46.829  37.905  30.429  1.00  0.00    -0.237 OA
ATOM     73  O   UNL A   1      48.895  37.631  29.103  1.00  0.00    -0.237 OA
ATOM     74  O   UNL A   1      46.802  38.321  27.997  1.00  0.00    -0.744 OA
ENDBRANCH  70  71
ENDBRANCH  51  65
BRANCH  52  75
ATOM     75  C   UNL A   1      43.170  23.837  27.077  1.00  0.00    -0.014 A 
ATOM     76  C   UNL A   1      42.859  23.411  25.775  1.00  0.00     0.010 A 
ATOM     77  C   UNL A   1      43.055  22.928  28.144  1.00  0.00     0.010 A 
ATOM     78  C   UNL A   1      42.433  22.099  25.543  1.00  0.00     0.020 A 
ATOM     79  C   UNL A   1      42.651  21.609  27.912  1.00  0.00     0.020 A 
ATOM     80  C   UNL A   1      42.336  21.205  26.613  1.00  0.00     0.054 A 
BRANCH  80  81
ATOM     81  S   UNL A   1      41.850  19.489  26.280  1.00  0.00     0.124 S 
ATOM     82  O   UNL A   1      40.410  19.614  26.077  1.00  0.00    -0.237 OA
ATOM     83  O   UNL A   1      42.632  19.165  25.088  1.00  0.00    -0.237 OA
ATOM     84  O   UNL A   1      42.255  18.780  27.491  1.00  0.00    -0.744 OA
ENDBRANCH  80  81
ENDBRANCH  52  75
BRANCH  64  85
ATOM     85  C   UNL A   1      49.338  27.006  26.324  1.00  0.00    -0.014 A 
ATOM     86  C   UNL A   1      50.132  26.219  27.177  1.00  0.00     0.010 A 
ATOM     87  C   UNL A   1      49.795  27.287  25.023  1.00  0.00     0.010 A 
ATOM     88  C   UNL A   1      51.372  25.743  26.745  1.00  0.00     0.020 A 
ATOM     89  C   UNL A   1      51.024  26.793  24.580  1.00  0.00     0.020 A 
ATOM     90  C   UNL A   1      51.811  26.033  25.448  1.00  0.00     0.054 A 
BRANCH  90  91
ATOM     91  S   UNL A   1      53.401  25.362  24.890  1.00  0.00     0.124 S 
ATOM     92  O   UNL A   1      53.303  25.516  23.441  1.00  0.00    -0.237 OA
ATOM     93  O   UNL A   1      54.369  26.234  25.551  1.00  0.00    -0.237 OA
ATOM     94  O   UNL A   1      53.382  23.983  25.374  1.00  0.00    -0.744 OA
ENDBRANCH  90  91
ENDBRANCH  64  85
ENDBRANCH  38  39
ENDBRANCH  30  33
ENDBRANCH  28  29
ENDBRANCH   1  28
TORSDOF 16
ENDMDL
