MODEL 1
REMARK VINA RESULT:      -9.9      0.000      0.000
REMARK SMILES CSCC[C@@H](NC1=[NH+]S(=O)(=O)c2ccccc21)C(=O)NCCCCNC(=O)c1ccc(-c2c3nc(c(-c4ccc(S(=O)(=O)[O-])cc4)c4ccc([nH]4)c(-c4ccc(S(=O)(=O)[O-])cc4)c4nc(c(-c5ccc(S(=O)(=O)[O-])cc5)c5ccc2[nH]5)C=C4)C=C3)cc1
REMARK SMILES IDX 22 1 21 2 20 3 18 4 19 5 5 7 4 8 3 9 2 10 1 11 6 12 7 13
REMARK SMILES IDX 8 15 17 16 9 17 12 19 16 20 10 21 11 22 13 23 15 24 14 25
REMARK SMILES IDX 23 26 24 27 25 28 26 29 27 31 28 32 29 33 87 34 30 35 86 36
REMARK SMILES IDX 31 37 32 38 33 39 80 40 34 41 85 42 79 43 81 44 35 45 84 46
REMARK SMILES IDX 78 47 77 48 36 50 66 51 47 52 65 53 48 54 51 55 64 56 82 57
REMARK SMILES IDX 49 58 50 59 63 61 83 62 52 63 37 64 38 65 46 66 39 67 45 68
REMARK SMILES IDX 40 69 41 70 42 71 43 72 44 73 67 74 68 75 76 76 69 77 75 78
REMARK SMILES IDX 70 79 71 80 72 81 73 82 74 83 53 84 54 85 62 86 55 87 61 88
REMARK SMILES IDX 56 89 57 90 58 91 59 92 60 93
REMARK H PARENT 20 6 6 14 8 18 25 30 81 49 51 60
REMARK Flexibility Score: inf
ROOT
ATOM      1  C   UNL A   1      37.878  29.941  33.273  1.00  0.00     0.023 C 
ENDROOT
BRANCH   1   2
ATOM      2  C   UNL A   1      38.410  31.213  33.919  1.00  0.00     0.116 C 
BRANCH   2   3
ATOM      3  N   UNL A   1      37.413  31.884  34.730  1.00  0.00    -0.352 N 
ATOM      4  C   UNL A   1      37.225  33.218  34.976  1.00  0.00     0.264 C 
ATOM      5  O   UNL A   1      36.287  33.541  35.710  1.00  0.00    -0.270 OA
ATOM      6  H   UNL A   1      36.768  31.286  35.174  1.00  0.00     0.163 HD
BRANCH   4   7
ATOM      7  C   UNL A   1      38.219  34.288  34.454  1.00  0.00     0.262 C 
BRANCH   7   8
ATOM      8  C   UNL A   1      39.633  33.836  34.864  1.00  0.00     0.071 C 
BRANCH   8   9
ATOM      9  C   UNL A   1      40.017  34.020  36.331  1.00  0.00     0.074 C 
BRANCH   9  10
ATOM     10  S   UNL A   1      40.271  32.479  37.264  1.00  0.00    -0.165 SA
ATOM     11  C   UNL A   1      42.072  32.350  37.208  1.00  0.00     0.085 C 
ENDBRANCH   9  10
ENDBRANCH   8   9
ENDBRANCH   7   8
BRANCH   7  12
ATOM     12  N   UNL A   1      38.115  34.519  33.001  1.00  0.00    -0.261 N 
ATOM     13  C   UNL A   1      36.920  34.580  32.325  1.00  0.00     0.292 C 
ATOM     14  H   UNL A   1      38.946  34.635  32.488  1.00  0.00     0.306 HD
ATOM     15  N   UNL A   1      35.775  34.849  32.878  1.00  0.00    -0.162 N 
ATOM     16  C   UNL A   1      36.859  34.205  30.892  1.00  0.00     0.087 A 
ATOM     17  S   UNL A   1      34.538  34.628  31.821  1.00  0.00     0.329 S 
ATOM     18  H   UNL A   1      35.664  35.147  33.809  1.00  0.00     0.327 HD
ATOM     19  C   UNL A   1      35.540  34.132  30.490  1.00  0.00     0.124 A 
ATOM     20  C   UNL A   1      37.877  33.805  30.042  1.00  0.00     0.018 A 
ATOM     21  O   UNL A   1      33.947  35.894  31.457  1.00  0.00    -0.179 OA
ATOM     22  O   UNL A   1      33.759  33.466  32.203  1.00  0.00    -0.179 OA
ATOM     23  C   UNL A   1      35.151  33.630  29.263  1.00  0.00     0.025 A 
ATOM     24  C   UNL A   1      37.519  33.312  28.783  1.00  0.00     0.001 A 
ATOM     25  C   UNL A   1      36.167  33.215  28.400  1.00  0.00     0.002 A 
ENDBRANCH   7  12
ENDBRANCH   4   7
ENDBRANCH   2   3
ENDBRANCH   1   2
BRANCH   1  26
ATOM     26  C   UNL A   1      36.528  30.095  32.576  1.00  0.00     0.023 C 
BRANCH  26  27
ATOM     27  C   UNL A   1      36.550  30.893  31.274  1.00  0.00     0.116 C 
BRANCH  27  28
ATOM     28  N   UNL A   1      35.800  30.257  30.198  1.00  0.00    -0.352 N 
ATOM     29  C   UNL A   1      36.283  29.658  29.059  1.00  0.00     0.251 C 
ATOM     30  H   UNL A   1      34.821  30.257  30.301  1.00  0.00     0.163 HD
ATOM     31  O   UNL A   1      35.510  29.250  28.197  1.00  0.00    -0.269 OA
BRANCH  29  32
ATOM     32  C   UNL A   1      37.743  29.549  28.872  1.00  0.00     0.039 A 
ATOM     33  C   UNL A   1      38.553  29.305  29.983  1.00  0.00     0.014 A 
ATOM     34  C   UNL A   1      38.295  29.616  27.589  1.00  0.00     0.014 A 
ATOM     35  C   UNL A   1      39.912  29.044  29.799  1.00  0.00     0.010 A 
ATOM     36  C   UNL A   1      39.636  29.300  27.402  1.00  0.00     0.010 A 
ATOM     37  C   UNL A   1      40.454  28.997  28.503  1.00  0.00    -0.014 A 
BRANCH  37  38
ATOM     38  C   UNL A   1      41.865  28.603  28.268  1.00  0.00     0.031 A 
ATOM     39  C   UNL A   1      42.946  29.646  28.250  1.00  0.00     0.074 A 
ATOM     40  C   UNL A   1      42.158  27.319  27.977  1.00  0.00     0.049 A 
ATOM     41  N   UNL A   1      44.214  29.513  27.960  1.00  0.00    -0.248 NA
ATOM     42  C   UNL A   1      42.543  31.023  28.580  1.00  0.00     0.031 C 
ATOM     43  C   UNL A   1      41.192  26.219  27.918  1.00  0.00     0.029 A 
ATOM     44  N   UNL A   1      43.354  26.727  27.657  1.00  0.00    -0.354 N 
ATOM     45  C   UNL A   1      44.756  30.789  28.045  1.00  0.00     0.074 A 
ATOM     46  C   UNL A   1      43.674  31.687  28.386  1.00  0.00     0.031 C 
ATOM     47  C   UNL A   1      41.835  25.085  27.594  1.00  0.00     0.029 A 
ATOM     48  C   UNL A   1      43.249  25.382  27.386  1.00  0.00     0.049 A 
ATOM     49  H   UNL A   1      44.206  27.217  27.624  1.00  0.00     0.167 HD
ATOM     50  C   UNL A   1      46.041  31.177  27.869  1.00  0.00     0.031 A 
ATOM     51  C   UNL A   1      44.182  24.490  27.001  1.00  0.00     0.031 A 
ATOM     52  C   UNL A   1      47.120  30.283  27.548  1.00  0.00     0.049 A 
ATOM     53  C   UNL A   1      45.603  24.944  26.816  1.00  0.00     0.074 A 
ATOM     54  C   UNL A   1      48.466  30.571  27.414  1.00  0.00     0.029 A 
ATOM     55  N   UNL A   1      46.975  28.925  27.307  1.00  0.00    -0.354 N 
ATOM     56  N   UNL A   1      46.107  26.145  26.965  1.00  0.00    -0.248 NA
ATOM     57  C   UNL A   1      46.580  23.922  26.414  1.00  0.00     0.031 C 
ATOM     58  C   UNL A   1      49.132  29.394  27.058  1.00  0.00     0.029 A 
ATOM     59  C   UNL A   1      48.205  28.365  27.008  1.00  0.00     0.049 A 
ATOM     60  H   UNL A   1      46.124  28.433  27.343  1.00  0.00     0.167 HD
ATOM     61  C   UNL A   1      47.465  26.019  26.693  1.00  0.00     0.074 A 
ATOM     62  C   UNL A   1      47.705  24.626  26.382  1.00  0.00     0.031 C 
ATOM     63  C   UNL A   1      48.426  26.975  26.702  1.00  0.00     0.031 A 
BRANCH  50  64
ATOM     64  C   UNL A   1      46.346  32.643  28.019  1.00  0.00    -0.014 A 
ATOM     65  C   UNL A   1      46.713  33.180  29.266  1.00  0.00     0.010 A 
ATOM     66  C   UNL A   1      46.291  33.487  26.896  1.00  0.00     0.010 A 
ATOM     67  C   UNL A   1      46.976  34.544  29.396  1.00  0.00     0.020 A 
ATOM     68  C   UNL A   1      46.577  34.850  27.018  1.00  0.00     0.020 A 
ATOM     69  C   UNL A   1      46.900  35.373  28.273  1.00  0.00     0.054 A 
BRANCH  69  70
ATOM     70  S   UNL A   1      47.260  37.140  28.466  1.00  0.00     0.124 S 
ATOM     71  O   UNL A   1      46.393  37.502  29.584  1.00  0.00    -0.237 OA
ATOM     72  O   UNL A   1      48.692  37.149  28.755  1.00  0.00    -0.237 OA
ATOM     73  O   UNL A   1      46.885  37.712  27.175  1.00  0.00    -0.744 OA
ENDBRANCH  69  70
ENDBRANCH  50  64
BRANCH  51  74
ATOM     74  C   UNL A   1      43.800  23.072  26.772  1.00  0.00    -0.014 A 
ATOM     75  C   UNL A   1      43.119  22.352  27.769  1.00  0.00     0.010 A 
ATOM     76  C   UNL A   1      44.097  22.440  25.551  1.00  0.00     0.010 A 
ATOM     77  C   UNL A   1      42.749  21.021  27.554  1.00  0.00     0.020 A 
ATOM     78  C   UNL A   1      43.712  21.116  25.325  1.00  0.00     0.020 A 
ATOM     79  C   UNL A   1      43.048  20.412  26.332  1.00  0.00     0.054 A 
BRANCH  79  80
ATOM     80  S   UNL A   1      42.505  18.703  26.047  1.00  0.00     0.124 S 
ATOM     81  O   UNL A   1      42.723  18.094  27.355  1.00  0.00    -0.237 OA
ATOM     82  O   UNL A   1      41.108  18.874  25.653  1.00  0.00    -0.237 OA
ATOM     83  O   UNL A   1      43.390  18.239  24.981  1.00  0.00    -0.744 OA
ENDBRANCH  79  80
ENDBRANCH  51  74
BRANCH  63  84
ATOM     84  C   UNL A   1      49.831  26.545  26.386  1.00  0.00    -0.014 A 
ATOM     85  C   UNL A   1      50.664  26.008  27.383  1.00  0.00     0.010 A 
ATOM     86  C   UNL A   1      50.299  26.615  25.061  1.00  0.00     0.010 A 
ATOM     87  C   UNL A   1      51.949  25.564  27.063  1.00  0.00     0.020 A 
ATOM     88  C   UNL A   1      51.576  26.155  24.735  1.00  0.00     0.020 A 
ATOM     89  C   UNL A   1      52.397  25.640  25.740  1.00  0.00     0.054 A 
BRANCH  89  90
ATOM     90  S   UNL A   1      54.046  25.000  25.335  1.00  0.00     0.124 S 
ATOM     91  O   UNL A   1      53.746  23.634  24.914  1.00  0.00    -0.237 OA
ATOM     92  O   UNL A   1      54.492  25.901  24.275  1.00  0.00    -0.237 OA
ATOM     93  O   UNL A   1      54.780  25.119  26.593  1.00  0.00    -0.744 OA
ENDBRANCH  89  90
ENDBRANCH  63  84
ENDBRANCH  37  38
ENDBRANCH  29  32
ENDBRANCH  27  28
ENDBRANCH  26  27
ENDBRANCH   1  26
TORSDOF 18
ENDMDL
MODEL 2
REMARK VINA RESULT:      -9.9      4.633     13.177
REMARK SMILES CSCC[C@@H](NC1=[NH+]S(=O)(=O)c2ccccc21)C(=O)NCCCCNC(=O)c1ccc(-c2c3nc(c(-c4ccc(S(=O)(=O)[O-])cc4)c4ccc([nH]4)c(-c4ccc(S(=O)(=O)[O-])cc4)c4nc(c(-c5ccc(S(=O)(=O)[O-])cc5)c5ccc2[nH]5)C=C4)C=C3)cc1
REMARK SMILES IDX 22 1 21 2 20 3 18 4 19 5 5 7 4 8 3 9 2 10 1 11 6 12 7 13
REMARK SMILES IDX 8 15 17 16 9 17 12 19 16 20 10 21 11 22 13 23 15 24 14 25
REMARK SMILES IDX 23 26 24 27 25 28 26 29 27 31 28 32 29 33 87 34 30 35 86 36
REMARK SMILES IDX 31 37 32 38 33 39 80 40 34 41 85 42 79 43 81 44 35 45 84 46
REMARK SMILES IDX 78 47 77 48 36 50 66 51 47 52 65 53 48 54 51 55 64 56 82 57
REMARK SMILES IDX 49 58 50 59 63 61 83 62 52 63 37 64 38 65 46 66 39 67 45 68
REMARK SMILES IDX 40 69 41 70 42 71 43 72 44 73 67 74 68 75 76 76 69 77 75 78
REMARK SMILES IDX 70 79 71 80 72 81 73 82 74 83 53 84 54 85 62 86 55 87 61 88
REMARK SMILES IDX 56 89 57 90 58 91 59 92 60 93
REMARK H PARENT 20 6 6 14 8 18 25 30 81 49 51 60
REMARK Flexibility Score: inf
ROOT
ATOM      1  C   UNL A   1      44.507  23.609  24.979  1.00  0.00     0.023 C 
ENDROOT
BRANCH   1   2
ATOM      2  C   UNL A   1      45.150  23.154  26.282  1.00  0.00     0.116 C 
BRANCH   2   3
ATOM      3  N   UNL A   1      45.550  24.265  27.122  1.00  0.00    -0.352 N 
ATOM      4  C   UNL A   1      45.403  24.452  28.471  1.00  0.00     0.264 C 
ATOM      5  O   UNL A   1      45.838  25.499  28.958  1.00  0.00    -0.270 OA
ATOM      6  H   UNL A   1      45.999  25.003  26.648  1.00  0.00     0.163 HD
BRANCH   4   7
ATOM      7  C   UNL A   1      44.614  23.446  29.349  1.00  0.00     0.262 C 
BRANCH   7   8
ATOM      8  C   UNL A   1      45.138  23.589  30.790  1.00  0.00     0.071 C 
BRANCH   8   9
ATOM      9  C   UNL A   1      44.186  24.210  31.811  1.00  0.00     0.074 C 
BRANCH   9  10
ATOM     10  S   UNL A   1      44.096  23.348  33.410  1.00  0.00    -0.165 SA
ATOM     11  C   UNL A   1      43.564  24.699  34.486  1.00  0.00     0.085 C 
ENDBRANCH   9  10
ENDBRANCH   8   9
ENDBRANCH   7   8
BRANCH   7  12
ATOM     12  N   UNL A   1      43.153  23.629  29.274  1.00  0.00    -0.261 N 
ATOM     13  C   UNL A   1      42.316  22.793  28.573  1.00  0.00     0.292 C 
ATOM     14  H   UNL A   1      42.754  24.391  29.751  1.00  0.00     0.306 HD
ATOM     15  N   UNL A   1      42.606  21.569  28.246  1.00  0.00    -0.162 N 
ATOM     16  C   UNL A   1      41.041  23.311  28.025  1.00  0.00     0.087 A 
ATOM     17  S   UNL A   1      41.475  20.942  27.234  1.00  0.00     0.329 S 
ATOM     18  H   UNL A   1      43.399  21.081  28.564  1.00  0.00     0.327 HD
ATOM     19  C   UNL A   1      40.483  22.369  27.183  1.00  0.00     0.124 A 
ATOM     20  C   UNL A   1      40.484  24.575  28.132  1.00  0.00     0.018 A 
ATOM     21  O   UNL A   1      40.708  19.916  27.901  1.00  0.00    -0.179 OA
ATOM     22  O   UNL A   1      42.031  20.782  25.905  1.00  0.00    -0.179 OA
ATOM     23  C   UNL A   1      39.389  22.624  26.381  1.00  0.00     0.025 A 
ATOM     24  C   UNL A   1      39.360  24.861  27.349  1.00  0.00     0.001 A 
ATOM     25  C   UNL A   1      38.824  23.898  26.472  1.00  0.00     0.002 A 
ENDBRANCH   7  12
ENDBRANCH   4   7
ENDBRANCH   2   3
ENDBRANCH   1   2
BRANCH   1  26
ATOM     26  C   UNL A   1      43.046  24.039  25.103  1.00  0.00     0.023 C 
BRANCH  26  27
ATOM     27  C   UNL A   1      42.817  25.538  25.274  1.00  0.00     0.116 C 
BRANCH  27  28
ATOM     28  N   UNL A   1      44.001  26.338  24.984  1.00  0.00    -0.352 N 
ATOM     29  C   UNL A   1      44.422  27.493  25.597  1.00  0.00     0.251 C 
ATOM     30  H   UNL A   1      44.572  26.007  24.255  1.00  0.00     0.163 HD
ATOM     31  O   UNL A   1      45.399  28.102  25.170  1.00  0.00    -0.269 OA
BRANCH  29  32
ATOM     32  C   UNL A   1      43.661  28.009  26.752  1.00  0.00     0.039 A 
ATOM     33  C   UNL A   1      43.154  27.105  27.689  1.00  0.00     0.014 A 
ATOM     34  C   UNL A   1      43.514  29.387  26.940  1.00  0.00     0.014 A 
ATOM     35  C   UNL A   1      42.571  27.586  28.863  1.00  0.00     0.010 A 
ATOM     36  C   UNL A   1      42.984  29.863  28.134  1.00  0.00     0.010 A 
ATOM     37  C   UNL A   1      42.521  28.968  29.113  1.00  0.00    -0.014 A 
BRANCH  37  38
ATOM     38  C   UNL A   1      42.019  29.505  30.402  1.00  0.00     0.031 A 
ATOM     39  C   UNL A   1      40.720  30.256  30.451  1.00  0.00     0.074 A 
ATOM     40  C   UNL A   1      42.780  29.395  31.510  1.00  0.00     0.049 A 
ATOM     41  N   UNL A   1      40.170  30.886  31.455  1.00  0.00    -0.248 NA
ATOM     42  C   UNL A   1      39.949  30.327  29.199  1.00  0.00     0.031 C 
ATOM     43  C   UNL A   1      44.083  28.728  31.584  1.00  0.00     0.029 A 
ATOM     44  N   UNL A   1      42.575  29.862  32.784  1.00  0.00    -0.354 N 
ATOM     45  C   UNL A   1      39.004  31.451  30.955  1.00  0.00     0.074 A 
ATOM     46  C   UNL A   1      38.940  31.114  29.549  1.00  0.00     0.031 C 
ATOM     47  C   UNL A   1      44.553  28.819  32.839  1.00  0.00     0.029 A 
ATOM     48  C   UNL A   1      43.607  29.580  33.649  1.00  0.00     0.049 A 
ATOM     49  H   UNL A   1      41.765  30.352  33.054  1.00  0.00     0.167 HD
ATOM     50  C   UNL A   1      38.065  32.175  31.608  1.00  0.00     0.031 A 
ATOM     51  C   UNL A   1      43.779  29.908  34.944  1.00  0.00     0.031 A 
ATOM     52  C   UNL A   1      38.118  32.495  33.008  1.00  0.00     0.049 A 
ATOM     53  C   UNL A   1      42.720  30.708  35.649  1.00  0.00     0.074 A 
ATOM     54  C   UNL A   1      37.182  33.165  33.774  1.00  0.00     0.029 A 
ATOM     55  N   UNL A   1      39.168  32.168  33.853  1.00  0.00    -0.354 N 
ATOM     56  N   UNL A   1      41.592  31.178  35.172  1.00  0.00    -0.248 NA
ATOM     57  C   UNL A   1      42.955  31.019  37.066  1.00  0.00     0.031 C 
ATOM     58  C   UNL A   1      37.681  33.276  35.077  1.00  0.00     0.029 A 
ATOM     59  C   UNL A   1      38.911  32.639  35.129  1.00  0.00     0.049 A 
ATOM     60  H   UNL A   1      39.976  31.675  33.585  1.00  0.00     0.167 HD
ATOM     61  C   UNL A   1      40.974  31.825  36.236  1.00  0.00     0.074 A 
ATOM     62  C   UNL A   1      41.846  31.676  37.383  1.00  0.00     0.031 C 
ATOM     63  C   UNL A   1      39.789  32.482  36.259  1.00  0.00     0.031 A 
BRANCH  50  64
ATOM     64  C   UNL A   1      36.894  32.672  30.804  1.00  0.00    -0.014 A 
ATOM     65  C   UNL A   1      35.733  31.892  30.661  1.00  0.00     0.010 A 
ATOM     66  C   UNL A   1      36.946  33.943  30.206  1.00  0.00     0.010 A 
ATOM     67  C   UNL A   1      34.660  32.357  29.898  1.00  0.00     0.020 A 
ATOM     68  C   UNL A   1      35.865  34.422  29.460  1.00  0.00     0.020 A 
ATOM     69  C   UNL A   1      34.735  33.616  29.296  1.00  0.00     0.054 A 
BRANCH  69  70
ATOM     70  S   UNL A   1      33.323  34.202  28.320  1.00  0.00     0.124 S 
ATOM     71  O   UNL A   1      32.806  32.956  27.762  1.00  0.00    -0.237 OA
ATOM     72  O   UNL A   1      32.476  34.838  29.327  1.00  0.00    -0.237 OA
ATOM     73  O   UNL A   1      33.927  35.116  27.354  1.00  0.00    -0.744 OA
ENDBRANCH  69  70
ENDBRANCH  50  64
BRANCH  51  74
ATOM     74  C   UNL A   1      45.006  29.470  35.660  1.00  0.00    -0.014 A 
ATOM     75  C   UNL A   1      46.140  30.300  35.696  1.00  0.00     0.010 A 
ATOM     76  C   UNL A   1      45.040  28.232  36.327  1.00  0.00     0.010 A 
ATOM     77  C   UNL A   1      47.292  29.895  36.377  1.00  0.00     0.020 A 
ATOM     78  C   UNL A   1      46.182  27.833  37.025  1.00  0.00     0.020 A 
ATOM     79  C   UNL A   1      47.305  28.663  37.039  1.00  0.00     0.054 A 
BRANCH  79  80
ATOM     80  S   UNL A   1      48.787  28.184  37.971  1.00  0.00     0.124 S 
ATOM     81  O   UNL A   1      49.753  29.187  37.540  1.00  0.00    -0.237 OA
ATOM     82  O   UNL A   1      48.339  28.290  39.358  1.00  0.00    -0.237 OA
ATOM     83  O   UNL A   1      49.048  26.820  37.513  1.00  0.00    -0.744 OA
ENDBRANCH  79  80
ENDBRANCH  51  74
BRANCH  63  84
ATOM     84  C   UNL A   1      39.353  33.074  37.570  1.00  0.00    -0.014 A 
ATOM     85  C   UNL A   1      38.564  32.335  38.469  1.00  0.00     0.010 A 
ATOM     86  C   UNL A   1      39.795  34.357  37.936  1.00  0.00     0.010 A 
ATOM     87  C   UNL A   1      38.210  32.878  39.706  1.00  0.00     0.020 A 
ATOM     88  C   UNL A   1      39.459  34.896  39.179  1.00  0.00     0.020 A 
ATOM     89  C   UNL A   1      38.661  34.156  40.054  1.00  0.00     0.054 A 
BRANCH  89  90
ATOM     90  S   UNL A   1      38.242  34.818  41.691  1.00  0.00     0.124 S 
ATOM     91  O   UNL A   1      38.702  36.201  41.585  1.00  0.00    -0.237 OA
ATOM     92  O   UNL A   1      36.793  34.641  41.751  1.00  0.00    -0.237 OA
ATOM     93  O   UNL A   1      39.004  33.976  42.609  1.00  0.00    -0.744 OA
ENDBRANCH  89  90
ENDBRANCH  63  84
ENDBRANCH  37  38
ENDBRANCH  29  32
ENDBRANCH  27  28
ENDBRANCH  26  27
ENDBRANCH   1  26
TORSDOF 18
ENDMDL
MODEL 3
REMARK VINA RESULT:      -9.6      4.223      6.693
REMARK SMILES CSCC[C@@H](NC1=[NH+]S(=O)(=O)c2ccccc21)C(=O)NCCCCNC(=O)c1ccc(-c2c3nc(c(-c4ccc(S(=O)(=O)[O-])cc4)c4ccc([nH]4)c(-c4ccc(S(=O)(=O)[O-])cc4)c4nc(c(-c5ccc(S(=O)(=O)[O-])cc5)c5ccc2[nH]5)C=C4)C=C3)cc1
REMARK SMILES IDX 22 1 21 2 20 3 18 4 19 5 5 7 4 8 3 9 2 10 1 11 6 12 7 13
REMARK SMILES IDX 8 15 17 16 9 17 12 19 16 20 10 21 11 22 13 23 15 24 14 25
REMARK SMILES IDX 23 26 24 27 25 28 26 29 27 31 28 32 29 33 87 34 30 35 86 36
REMARK SMILES IDX 31 37 32 38 33 39 80 40 34 41 85 42 79 43 81 44 35 45 84 46
REMARK SMILES IDX 78 47 77 48 36 50 66 51 47 52 65 53 48 54 51 55 64 56 82 57
REMARK SMILES IDX 49 58 50 59 63 61 83 62 52 63 37 64 38 65 46 66 39 67 45 68
REMARK SMILES IDX 40 69 41 70 42 71 43 72 44 73 67 74 68 75 76 76 69 77 75 78
REMARK SMILES IDX 70 79 71 80 72 81 73 82 74 83 53 84 54 85 62 86 55 87 61 88
REMARK SMILES IDX 56 89 57 90 58 91 59 92 60 93
REMARK H PARENT 20 6 6 14 8 18 25 30 81 49 51 60
REMARK Flexibility Score: inf
ROOT
ATOM      1  C   UNL A   1      39.485  35.044  34.543  1.00  0.00     0.023 C 
ENDROOT
BRANCH   1   2
ATOM      2  C   UNL A   1      38.769  34.260  33.451  1.00  0.00     0.116 C 
BRANCH   2   3
ATOM      3  N   UNL A   1      39.039  34.780  32.125  1.00  0.00    -0.352 N 
ATOM      4  C   UNL A   1      38.526  34.413  30.909  1.00  0.00     0.264 C 
ATOM      5  O   UNL A   1      38.919  35.021  29.911  1.00  0.00    -0.270 OA
ATOM      6  H   UNL A   1      39.695  35.515  32.093  1.00  0.00     0.163 HD
BRANCH   4   7
ATOM      7  C   UNL A   1      37.573  33.197  30.764  1.00  0.00     0.262 C 
BRANCH   7   8
ATOM      8  C   UNL A   1      36.487  33.588  29.744  1.00  0.00     0.071 C 
BRANCH   8   9
ATOM      9  C   UNL A   1      35.040  33.287  30.127  1.00  0.00     0.074 C 
BRANCH   9  10
ATOM     10  S   UNL A   1      34.069  34.723  30.678  1.00  0.00    -0.165 SA
ATOM     11  C   UNL A   1      34.780  34.996  32.316  1.00  0.00     0.085 C 
ENDBRANCH   9  10
ENDBRANCH   8   9
ENDBRANCH   7   8
BRANCH   7  12
ATOM     12  N   UNL A   1      38.269  31.956  30.378  1.00  0.00    -0.261 N 
ATOM     13  C   UNL A   1      38.398  30.867  31.207  1.00  0.00     0.292 C 
ATOM     14  H   UNL A   1      38.662  31.903  29.477  1.00  0.00     0.306 HD
ATOM     15  N   UNL A   1      37.624  30.620  32.221  1.00  0.00    -0.162 N 
ATOM     16  C   UNL A   1      39.553  29.951  31.052  1.00  0.00     0.087 A 
ATOM     17  S   UNL A   1      38.195  29.364  33.111  1.00  0.00     0.329 S 
ATOM     18  H   UNL A   1      36.802  31.120  32.428  1.00  0.00     0.327 HD
ATOM     19  C   UNL A   1      39.592  29.074  32.118  1.00  0.00     0.124 A 
ATOM     20  C   UNL A   1      40.584  29.981  30.127  1.00  0.00     0.018 A 
ATOM     21  O   UNL A   1      37.335  28.212  32.977  1.00  0.00    -0.179 OA
ATOM     22  O   UNL A   1      38.691  29.842  34.386  1.00  0.00    -0.179 OA
ATOM     23  C   UNL A   1      40.651  28.219  32.354  1.00  0.00     0.025 A 
ATOM     24  C   UNL A   1      41.662  29.112  30.324  1.00  0.00     0.001 A 
ATOM     25  C   UNL A   1      41.701  28.246  31.434  1.00  0.00     0.002 A 
ENDBRANCH   7  12
ENDBRANCH   4   7
ENDBRANCH   2   3
ENDBRANCH   1   2
BRANCH   1  26
ATOM     26  C   UNL A   1      38.858  34.923  35.930  1.00  0.00     0.023 C 
BRANCH  26  27
ATOM     27  C   UNL A   1      39.609  35.635  37.053  1.00  0.00     0.116 C 
BRANCH  27  28
ATOM     28  N   UNL A   1      39.579  34.908  38.316  1.00  0.00    -0.352 N 
ATOM     29  C   UNL A   1      40.127  33.682  38.609  1.00  0.00     0.251 C 
ATOM     30  H   UNL A   1      39.104  35.352  39.054  1.00  0.00     0.163 HD
ATOM     31  O   UNL A   1      39.931  33.160  39.702  1.00  0.00    -0.269 OA
BRANCH  29  32
ATOM     32  C   UNL A   1      40.923  32.989  37.576  1.00  0.00     0.039 A 
ATOM     33  C   UNL A   1      40.286  32.090  36.719  1.00  0.00     0.014 A 
ATOM     34  C   UNL A   1      42.279  33.288  37.415  1.00  0.00     0.014 A 
ATOM     35  C   UNL A   1      40.991  31.550  35.641  1.00  0.00     0.010 A 
ATOM     36  C   UNL A   1      42.964  32.793  36.310  1.00  0.00     0.010 A 
ATOM     37  C   UNL A   1      42.322  31.931  35.405  1.00  0.00    -0.014 A 
BRANCH  37  38
ATOM     38  C   UNL A   1      43.059  31.470  34.202  1.00  0.00     0.031 A 
ATOM     39  C   UNL A   1      43.177  32.365  33.002  1.00  0.00     0.074 A 
ATOM     40  C   UNL A   1      43.539  30.211  34.158  1.00  0.00     0.049 A 
ATOM     41  N   UNL A   1      43.687  32.104  31.827  1.00  0.00    -0.248 NA
ATOM     42  C   UNL A   1      42.629  33.725  33.134  1.00  0.00     0.031 C 
ATOM     43  C   UNL A   1      43.448  29.228  35.241  1.00  0.00     0.029 A 
ATOM     44  N   UNL A   1      44.182  29.536  33.152  1.00  0.00    -0.354 N 
ATOM     45  C   UNL A   1      43.500  33.254  31.070  1.00  0.00     0.074 A 
ATOM     46  C   UNL A   1      42.803  34.204  31.910  1.00  0.00     0.031 C 
ATOM     47  C   UNL A   1      44.025  28.081  34.844  1.00  0.00     0.029 A 
ATOM     48  C   UNL A   1      44.493  28.234  33.470  1.00  0.00     0.049 A 
ATOM     49  H   UNL A   1      44.401  29.944  32.283  1.00  0.00     0.167 HD
ATOM     50  C   UNL A   1      43.884  33.501  29.796  1.00  0.00     0.031 A 
ATOM     51  C   UNL A   1      45.076  27.267  32.735  1.00  0.00     0.031 A 
ATOM     52  C   UNL A   1      44.593  32.564  28.967  1.00  0.00     0.049 A 
ATOM     53  C   UNL A   1      45.498  27.567  31.324  1.00  0.00     0.074 A 
ATOM     54  C   UNL A   1      45.084  32.746  27.687  1.00  0.00     0.029 A 
ATOM     55  N   UNL A   1      44.910  31.266  29.337  1.00  0.00    -0.354 N 
ATOM     56  N   UNL A   1      45.369  28.684  30.648  1.00  0.00    -0.248 NA
ATOM     57  C   UNL A   1      46.147  26.479  30.579  1.00  0.00     0.031 C 
ATOM     58  C   UNL A   1      45.668  31.546  27.268  1.00  0.00     0.029 A 
ATOM     59  C   UNL A   1      45.574  30.629  28.303  1.00  0.00     0.049 A 
ATOM     60  H   UNL A   1      44.695  30.858  30.206  1.00  0.00     0.167 HD
ATOM     61  C   UNL A   1      45.938  28.437  29.404  1.00  0.00     0.074 A 
ATOM     62  C   UNL A   1      46.421  27.073  29.424  1.00  0.00     0.031 C 
ATOM     63  C   UNL A   1      46.049  29.270  28.340  1.00  0.00     0.031 A 
BRANCH  50  64
ATOM     64  C   UNL A   1      43.540  34.848  29.221  1.00  0.00    -0.014 A 
ATOM     65  C   UNL A   1      42.323  35.055  28.546  1.00  0.00     0.010 A 
ATOM     66  C   UNL A   1      44.430  35.924  29.378  1.00  0.00     0.010 A 
ATOM     67  C   UNL A   1      42.022  36.304  28.001  1.00  0.00     0.020 A 
ATOM     68  C   UNL A   1      44.122  37.183  28.853  1.00  0.00     0.020 A 
ATOM     69  C   UNL A   1      42.926  37.359  28.152  1.00  0.00     0.054 A 
BRANCH  69  70
ATOM     70  S   UNL A   1      42.506  38.976  27.445  1.00  0.00     0.124 S 
ATOM     71  O   UNL A   1      41.399  38.636  26.556  1.00  0.00    -0.237 OA
ATOM     72  O   UNL A   1      42.147  39.761  28.624  1.00  0.00    -0.237 OA
ATOM     73  O   UNL A   1      43.737  39.392  26.777  1.00  0.00    -0.744 OA
ENDBRANCH  69  70
ENDBRANCH  50  64
BRANCH  51  74
ATOM     74  C   UNL A   1      45.302  25.923  33.328  1.00  0.00    -0.014 A 
ATOM     75  C   UNL A   1      44.338  24.911  33.178  1.00  0.00     0.010 A 
ATOM     76  C   UNL A   1      46.490  25.642  34.028  1.00  0.00     0.010 A 
ATOM     77  C   UNL A   1      44.553  23.643  33.726  1.00  0.00     0.020 A 
ATOM     78  C   UNL A   1      46.716  24.370  34.560  1.00  0.00     0.020 A 
ATOM     79  C   UNL A   1      45.741  23.380  34.413  1.00  0.00     0.054 A 
BRANCH  79  80
ATOM     80  S   UNL A   1      46.029  21.709  35.062  1.00  0.00     0.124 S 
ATOM     81  O   UNL A   1      47.116  21.237  34.211  1.00  0.00    -0.237 OA
ATOM     82  O   UNL A   1      46.382  21.965  36.457  1.00  0.00    -0.237 OA
ATOM     83  O   UNL A   1      44.742  21.044  34.867  1.00  0.00    -0.744 OA
ENDBRANCH  79  80
ENDBRANCH  51  74
BRANCH  63  84
ATOM     84  C   UNL A   1      46.738  28.738  27.115  1.00  0.00    -0.014 A 
ATOM     85  C   UNL A   1      48.141  28.719  27.026  1.00  0.00     0.010 A 
ATOM     86  C   UNL A   1      45.974  28.188  26.071  1.00  0.00     0.010 A 
ATOM     87  C   UNL A   1      48.768  28.173  25.904  1.00  0.00     0.020 A 
ATOM     88  C   UNL A   1      46.597  27.624  24.956  1.00  0.00     0.020 A 
ATOM     89  C   UNL A   1      47.991  27.628  24.875  1.00  0.00     0.054 A 
BRANCH  89  90
ATOM     90  S   UNL A   1      48.826  26.868  23.455  1.00  0.00     0.124 S 
ATOM     91  O   UNL A   1      48.059  25.639  23.274  1.00  0.00    -0.237 OA
ATOM     92  O   UNL A   1      48.662  27.872  22.407  1.00  0.00    -0.237 OA
ATOM     93  O   UNL A   1      50.199  26.684  23.920  1.00  0.00    -0.744 OA
ENDBRANCH  89  90
ENDBRANCH  63  84
ENDBRANCH  37  38
ENDBRANCH  29  32
ENDBRANCH  27  28
ENDBRANCH  26  27
ENDBRANCH   1  26
TORSDOF 18
ENDMDL
