MODEL 1
REMARK VINA RESULT:     -11.5      0.000      0.000
REMARK SMILES Cc1cc(C)c2c(=O)n(CCCC(=O)NCCCCNC(=O)c3ccc(-c4c5nc(c(-c6ccc(S(=O)(=O)[O-])cc6)c6ccc([nH]6)c(-c6ccc(S(=O)(=O)[O-])cc6)c6nc(c(-c7ccc(S(=O)(=O)[O-])cc7)c7ccc4[nH]7)C=C6)C=C5)cc3)sc2n1
REMARK SMILES IDX 17 1 16 2 15 3 13 4 14 5 12 7 11 8 10 9 9 10 1 11 2 12 3 13
REMARK SMILES IDX 85 14 4 15 84 16 5 17 6 18 83 19 7 20 8 21 18 22 19 23 20 24
REMARK SMILES IDX 21 25 22 27 23 28 24 29 82 30 25 31 81 32 26 33 27 34 28 35
REMARK SMILES IDX 75 36 29 37 80 38 74 39 76 40 30 41 79 42 73 43 72 44 31 46
REMARK SMILES IDX 61 47 42 48 60 49 43 50 46 51 59 52 77 53 44 54 45 55 58 57
REMARK SMILES IDX 78 58 47 59 32 60 33 61 41 62 34 63 40 64 35 65 36 66 37 67
REMARK SMILES IDX 38 68 39 69 62 70 63 71 71 72 64 73 70 74 65 75 66 76 67 77
REMARK SMILES IDX 68 78 69 79 48 80 49 81 57 82 50 83 56 84 51 85 52 86 53 87
REMARK SMILES IDX 54 88 55 89
REMARK H PARENT 15 6 20 26 76 45 46 56
REMARK Flexibility Score: inf
ROOT
ATOM      1  C   UNL A   1      40.350  21.688  27.337  1.00  0.00     0.023 C 
ENDROOT
BRANCH   1   2
ATOM      2  C   UNL A   1      39.658  22.696  26.409  1.00  0.00     0.116 C 
BRANCH   2   3
ATOM      3  N   UNL A   1      38.688  22.031  25.566  1.00  0.00    -0.356 N 
ATOM      4  C   UNL A   1      37.375  22.293  25.334  1.00  0.00     0.220 C 
ATOM      5  O   UNL A   1      36.732  21.465  24.687  1.00  0.00    -0.275 OA
ATOM      6  H   UNL A   1      39.041  21.253  25.074  1.00  0.00     0.163 HD
BRANCH   4   7
ATOM      7  C   UNL A   1      36.732  23.596  25.764  1.00  0.00     0.102 C 
BRANCH   7   8
ATOM      8  C   UNL A   1      35.481  24.094  25.031  1.00  0.00     0.033 C 
BRANCH   8   9
ATOM      9  C   UNL A   1      34.075  23.719  25.520  1.00  0.00     0.139 C 
BRANCH   9  10
ATOM     10  N   UNL A   1      33.522  22.392  25.295  1.00  0.00    -0.262 N 
ATOM     11  C   UNL A   1      32.968  16.348  24.543  1.00  0.00     0.067 C 
ATOM     12  C   UNL A   1      32.860  17.831  24.349  1.00  0.00     0.039 A 
ATOM     13  C   UNL A   1      32.394  18.360  23.136  1.00  0.00     0.027 A 
ATOM     14  N   UNL A   1      33.242  18.610  25.385  1.00  0.00    -0.241 NA
ATOM     15  C   UNL A   1      32.348  19.752  22.947  1.00  0.00    -0.033 A 
ATOM     16  C   UNL A   1      33.204  19.935  25.167  1.00  0.00     0.146 A 
ATOM     17  C   UNL A   1      31.779  20.337  21.692  1.00  0.00     0.045 C 
ATOM     18  C   UNL A   1      32.830  20.542  23.984  1.00  0.00     0.081 A 
ATOM     19  S   UNL A   1      33.581  21.117  26.426  1.00  0.00    -0.035 S 
ATOM     20  C   UNL A   1      33.061  22.003  24.035  1.00  0.00     0.270 A 
ATOM     21  O   UNL A   1      32.928  22.734  23.062  1.00  0.00    -0.268 OA
ENDBRANCH   9  10
ENDBRANCH   8   9
ENDBRANCH   7   8
ENDBRANCH   4   7
ENDBRANCH   2   3
ENDBRANCH   1   2
BRANCH   1  22
ATOM     22  C   UNL A   1      40.871  20.417  26.657  1.00  0.00     0.023 C 
BRANCH  22  23
ATOM     23  C   UNL A   1      42.166  19.877  27.246  1.00  0.00     0.116 C 
BRANCH  23  24
ATOM     24  N   UNL A   1      43.169  19.569  26.227  1.00  0.00    -0.352 N 
ATOM     25  C   UNL A   1      43.767  20.455  25.354  1.00  0.00     0.251 C 
ATOM     26  H   UNL A   1      43.447  18.628  26.157  1.00  0.00     0.163 HD
ATOM     27  O   UNL A   1      44.273  20.065  24.305  1.00  0.00    -0.269 OA
BRANCH  25  28
ATOM     28  C   UNL A   1      43.785  21.882  25.714  1.00  0.00     0.039 A 
ATOM     29  C   UNL A   1      43.029  22.817  25.005  1.00  0.00     0.014 A 
ATOM     30  C   UNL A   1      44.530  22.258  26.832  1.00  0.00     0.014 A 
ATOM     31  C   UNL A   1      42.947  24.118  25.495  1.00  0.00     0.010 A 
ATOM     32  C   UNL A   1      44.353  23.509  27.377  1.00  0.00     0.010 A 
ATOM     33  C   UNL A   1      43.584  24.453  26.703  1.00  0.00    -0.014 A 
BRANCH  33  34
ATOM     34  C   UNL A   1      43.334  25.749  27.332  1.00  0.00     0.031 A 
ATOM     35  C   UNL A   1      44.330  26.808  27.007  1.00  0.00     0.074 A 
ATOM     36  C   UNL A   1      42.203  26.060  28.003  1.00  0.00     0.049 A 
ATOM     37  N   UNL A   1      45.240  27.292  27.784  1.00  0.00    -0.248 NA
ATOM     38  C   UNL A   1      44.417  27.290  25.619  1.00  0.00     0.031 C 
ATOM     39  C   UNL A   1      40.987  25.254  28.167  1.00  0.00     0.029 A 
ATOM     40  N   UNL A   1      41.866  27.233  28.605  1.00  0.00    -0.354 N 
ATOM     41  C   UNL A   1      45.872  28.300  27.062  1.00  0.00     0.074 A 
ATOM     42  C   UNL A   1      45.453  28.130  25.693  1.00  0.00     0.031 C 
ATOM     43  C   UNL A   1      39.980  26.037  28.614  1.00  0.00     0.029 A 
ATOM     44  C   UNL A   1      40.522  27.341  28.946  1.00  0.00     0.049 A 
ATOM     45  H   UNL A   1      42.520  27.946  28.784  1.00  0.00     0.167 HD
ATOM     46  C   UNL A   1      46.500  29.337  27.687  1.00  0.00     0.031 A 
ATOM     47  C   UNL A   1      39.900  28.429  29.466  1.00  0.00     0.031 A 
ATOM     48  C   UNL A   1      46.657  29.083  29.098  1.00  0.00     0.049 A 
ATOM     49  C   UNL A   1      40.952  29.256  30.102  1.00  0.00     0.074 A 
ATOM     50  C   UNL A   1      47.306  28.130  29.857  1.00  0.00     0.029 A 
ATOM     51  N   UNL A   1      45.742  29.680  29.932  1.00  0.00    -0.354 N 
ATOM     52  N   UNL A   1      41.635  28.870  31.142  1.00  0.00    -0.248 NA
ATOM     53  C   UNL A   1      41.543  30.338  29.332  1.00  0.00     0.031 C 
ATOM     54  C   UNL A   1      46.436  27.884  30.959  1.00  0.00     0.029 A 
ATOM     55  C   UNL A   1      45.342  28.748  30.853  1.00  0.00     0.049 A 
ATOM     56  H   UNL A   1      45.428  30.611  29.878  1.00  0.00     0.167 HD
ATOM     57  C   UNL A   1      42.920  29.337  30.914  1.00  0.00     0.074 A 
ATOM     58  C   UNL A   1      42.774  30.329  29.849  1.00  0.00     0.031 C 
ATOM     59  C   UNL A   1      44.008  28.683  31.417  1.00  0.00     0.031 A 
BRANCH  46  60
ATOM     60  C   UNL A   1      46.595  30.741  27.132  1.00  0.00    -0.014 A 
ATOM     61  C   UNL A   1      47.866  31.352  27.054  1.00  0.00     0.010 A 
ATOM     62  C   UNL A   1      45.476  31.579  26.955  1.00  0.00     0.010 A 
ATOM     63  C   UNL A   1      48.003  32.738  26.900  1.00  0.00     0.020 A 
ATOM     64  C   UNL A   1      45.603  32.956  26.757  1.00  0.00     0.020 A 
ATOM     65  C   UNL A   1      46.866  33.533  26.769  1.00  0.00     0.054 A 
BRANCH  65  66
ATOM     66  S   UNL A   1      47.049  35.331  26.689  1.00  0.00     0.124 S 
ATOM     67  O   UNL A   1      47.667  35.512  25.379  1.00  0.00    -0.237 OA
ATOM     68  O   UNL A   1      45.667  35.786  26.808  1.00  0.00    -0.237 OA
ATOM     69  O   UNL A   1      47.902  35.639  27.834  1.00  0.00    -0.744 OA
ENDBRANCH  65  66
ENDBRANCH  46  60
BRANCH  47  70
ATOM     70  C   UNL A   1      38.528  28.933  29.217  1.00  0.00    -0.014 A 
ATOM     71  C   UNL A   1      37.751  29.443  30.275  1.00  0.00     0.010 A 
ATOM     72  C   UNL A   1      38.101  29.203  27.901  1.00  0.00     0.010 A 
ATOM     73  C   UNL A   1      36.641  30.268  30.028  1.00  0.00     0.020 A 
ATOM     74  C   UNL A   1      36.991  30.019  27.647  1.00  0.00     0.020 A 
ATOM     75  C   UNL A   1      36.285  30.574  28.712  1.00  0.00     0.054 A 
BRANCH  75  76
ATOM     76  S   UNL A   1      34.983  31.806  28.408  1.00  0.00     0.124 S 
ATOM     77  O   UNL A   1      34.604  32.201  29.762  1.00  0.00    -0.237 OA
ATOM     78  O   UNL A   1      35.683  32.822  27.628  1.00  0.00    -0.237 OA
ATOM     79  O   UNL A   1      33.965  31.057  27.673  1.00  0.00    -0.744 OA
ENDBRANCH  75  76
ENDBRANCH  47  70
BRANCH  59  80
ATOM     80  C   UNL A   1      43.790  27.642  32.493  1.00  0.00    -0.014 A 
ATOM     81  C   UNL A   1      43.913  26.254  32.287  1.00  0.00     0.010 A 
ATOM     82  C   UNL A   1      43.607  28.109  33.807  1.00  0.00     0.010 A 
ATOM     83  C   UNL A   1      43.840  25.359  33.368  1.00  0.00     0.020 A 
ATOM     84  C   UNL A   1      43.553  27.227  34.888  1.00  0.00     0.020 A 
ATOM     85  C   UNL A   1      43.665  25.855  34.664  1.00  0.00     0.054 A 
BRANCH  85  86
ATOM     86  S   UNL A   1      43.629  24.703  36.066  1.00  0.00     0.124 S 
ATOM     87  O   UNL A   1      44.956  24.872  36.652  1.00  0.00    -0.237 OA
ATOM     88  O   UNL A   1      42.518  25.206  36.872  1.00  0.00    -0.237 OA
ATOM     89  O   UNL A   1      43.390  23.401  35.444  1.00  0.00    -0.744 OA
ENDBRANCH  85  86
ENDBRANCH  59  80
ENDBRANCH  33  34
ENDBRANCH  25  28
ENDBRANCH  23  24
ENDBRANCH  22  23
ENDBRANCH   1  22
TORSDOF 17
ENDMDL
MODEL 2
REMARK VINA RESULT:     -11.2      2.764      4.264
REMARK SMILES Cc1cc(C)c2c(=O)n(CCCC(=O)NCCCCNC(=O)c3ccc(-c4c5nc(c(-c6ccc(S(=O)(=O)[O-])cc6)c6ccc([nH]6)c(-c6ccc(S(=O)(=O)[O-])cc6)c6nc(c(-c7ccc(S(=O)(=O)[O-])cc7)c7ccc4[nH]7)C=C6)C=C5)cc3)sc2n1
REMARK SMILES IDX 17 1 16 2 15 3 13 4 14 5 12 7 11 8 10 9 9 10 1 11 2 12 3 13
REMARK SMILES IDX 85 14 4 15 84 16 5 17 6 18 83 19 7 20 8 21 18 22 19 23 20 24
REMARK SMILES IDX 21 25 22 27 23 28 24 29 82 30 25 31 81 32 26 33 27 34 28 35
REMARK SMILES IDX 75 36 29 37 80 38 74 39 76 40 30 41 79 42 73 43 72 44 31 46
REMARK SMILES IDX 61 47 42 48 60 49 43 50 46 51 59 52 77 53 44 54 45 55 58 57
REMARK SMILES IDX 78 58 47 59 32 60 33 61 41 62 34 63 40 64 35 65 36 66 37 67
REMARK SMILES IDX 38 68 39 69 62 70 63 71 71 72 64 73 70 74 65 75 66 76 67 77
REMARK SMILES IDX 68 78 69 79 48 80 49 81 57 82 50 83 56 84 51 85 52 86 53 87
REMARK SMILES IDX 54 88 55 89
REMARK H PARENT 15 6 20 26 76 45 46 56
REMARK Flexibility Score: inf
ROOT
ATOM      1  C   UNL A   1      38.709  23.771  26.517  1.00  0.00     0.023 C 
ENDROOT
BRANCH   1   2
ATOM      2  C   UNL A   1      37.247  23.659  26.063  1.00  0.00     0.116 C 
BRANCH   2   3
ATOM      3  N   UNL A   1      37.162  23.641  24.618  1.00  0.00    -0.356 N 
ATOM      4  C   UNL A   1      36.413  22.881  23.776  1.00  0.00     0.220 C 
ATOM      5  O   UNL A   1      36.652  22.959  22.570  1.00  0.00    -0.275 OA
ATOM      6  H   UNL A   1      37.748  24.292  24.167  1.00  0.00     0.163 HD
BRANCH   4   7
ATOM      7  C   UNL A   1      35.256  22.038  24.275  1.00  0.00     0.102 C 
BRANCH   7   8
ATOM      8  C   UNL A   1      33.945  22.723  24.674  1.00  0.00     0.033 C 
BRANCH   8   9
ATOM      9  C   UNL A   1      33.184  23.614  23.681  1.00  0.00     0.139 C 
BRANCH   9  10
ATOM     10  N   UNL A   1      33.049  25.047  23.895  1.00  0.00    -0.262 N 
ATOM     11  C   UNL A   1      32.131  30.497  26.513  1.00  0.00     0.067 C 
ATOM     12  C   UNL A   1      32.064  29.331  25.573  1.00  0.00     0.039 A 
ATOM     13  C   UNL A   1      31.070  29.266  24.585  1.00  0.00     0.027 A 
ATOM     14  N   UNL A   1      32.991  28.361  25.739  1.00  0.00    -0.241 NA
ATOM     15  C   UNL A   1      30.986  28.142  23.744  1.00  0.00    -0.033 A 
ATOM     16  C   UNL A   1      32.872  27.293  24.934  1.00  0.00     0.146 A 
ATOM     17  C   UNL A   1      29.986  28.090  22.632  1.00  0.00     0.045 C 
ATOM     18  C   UNL A   1      31.885  27.111  23.985  1.00  0.00     0.081 A 
ATOM     19  S   UNL A   1      34.037  25.963  24.940  1.00  0.00    -0.035 S 
ATOM     20  C   UNL A   1      31.954  25.756  23.394  1.00  0.00     0.270 A 
ATOM     21  O   UNL A   1      31.106  25.318  22.627  1.00  0.00    -0.268 OA
ENDBRANCH   9  10
ENDBRANCH   8   9
ENDBRANCH   7   8
ENDBRANCH   4   7
ENDBRANCH   2   3
ENDBRANCH   1   2
BRANCH   1  22
ATOM     22  C   UNL A   1      39.497  22.456  26.529  1.00  0.00     0.023 C 
BRANCH  22  23
ATOM     23  C   UNL A   1      40.833  22.533  27.253  1.00  0.00     0.116 C 
BRANCH  23  24
ATOM     24  N   UNL A   1      41.976  22.346  26.359  1.00  0.00    -0.352 N 
ATOM     25  C   UNL A   1      42.683  23.328  25.696  1.00  0.00     0.251 C 
ATOM     26  H   UNL A   1      42.272  21.418  26.215  1.00  0.00     0.163 HD
ATOM     27  O   UNL A   1      43.339  23.067  24.691  1.00  0.00    -0.269 OA
BRANCH  25  28
ATOM     28  C   UNL A   1      42.633  24.700  26.227  1.00  0.00     0.039 A 
ATOM     29  C   UNL A   1      41.811  25.670  25.650  1.00  0.00     0.014 A 
ATOM     30  C   UNL A   1      43.383  24.980  27.369  1.00  0.00     0.014 A 
ATOM     31  C   UNL A   1      41.670  26.896  26.296  1.00  0.00     0.010 A 
ATOM     32  C   UNL A   1      43.153  26.144  28.066  1.00  0.00     0.010 A 
ATOM     33  C   UNL A   1      42.318  27.117  27.525  1.00  0.00    -0.014 A 
BRANCH  33  34
ATOM     34  C   UNL A   1      42.014  28.312  28.311  1.00  0.00     0.031 A 
ATOM     35  C   UNL A   1      43.048  29.383  28.254  1.00  0.00     0.074 A 
ATOM     36  C   UNL A   1      40.821  28.548  28.900  1.00  0.00     0.049 A 
ATOM     37  N   UNL A   1      43.875  29.723  29.186  1.00  0.00    -0.248 NA
ATOM     38  C   UNL A   1      43.288  30.062  26.971  1.00  0.00     0.031 C 
ATOM     39  C   UNL A   1      39.587  27.758  28.814  1.00  0.00     0.029 A 
ATOM     40  N   UNL A   1      40.432  29.627  29.632  1.00  0.00    -0.354 N 
ATOM     41  C   UNL A   1      44.589  30.811  28.692  1.00  0.00     0.074 A 
ATOM     42  C   UNL A   1      44.317  30.856  27.278  1.00  0.00     0.031 C 
ATOM     43  C   UNL A   1      38.545  28.491  29.265  1.00  0.00     0.029 A 
ATOM     44  C   UNL A   1      39.061  29.718  29.843  1.00  0.00     0.049 A 
ATOM     45  H   UNL A   1      41.070  30.289  29.983  1.00  0.00     0.167 HD
ATOM     46  C   UNL A   1      45.156  31.728  29.528  1.00  0.00     0.031 A 
ATOM     47  C   UNL A   1      38.396  30.731  30.453  1.00  0.00     0.031 A 
ATOM     48  C   UNL A   1      45.159  31.264  30.893  1.00  0.00     0.049 A 
ATOM     49  C   UNL A   1      39.381  31.429  31.312  1.00  0.00     0.074 A 
ATOM     50  C   UNL A   1      45.715  30.194  31.564  1.00  0.00     0.029 A 
ATOM     51  N   UNL A   1      44.165  31.754  31.708  1.00  0.00    -0.354 N 
ATOM     52  N   UNL A   1      39.946  30.876  32.348  1.00  0.00    -0.248 NA
ATOM     53  C   UNL A   1      40.061  32.598  30.778  1.00  0.00     0.031 C 
ATOM     54  C   UNL A   1      44.729  29.810  32.521  1.00  0.00     0.029 A 
ATOM     55  C   UNL A   1      43.661  30.706  32.431  1.00  0.00     0.049 A 
ATOM     56  H   UNL A   1      43.868  32.690  31.761  1.00  0.00     0.167 HD
ATOM     57  C   UNL A   1      41.252  31.341  32.327  1.00  0.00     0.074 A 
ATOM     58  C   UNL A   1      41.230  32.481  31.414  1.00  0.00     0.031 C 
ATOM     59  C   UNL A   1      42.274  30.592  32.837  1.00  0.00     0.031 A 
BRANCH  46  60
ATOM     60  C   UNL A   1      45.322  33.197  29.202  1.00  0.00    -0.014 A 
ATOM     61  C   UNL A   1      44.233  34.066  29.430  1.00  0.00     0.010 A 
ATOM     62  C   UNL A   1      46.385  33.701  28.427  1.00  0.00     0.010 A 
ATOM     63  C   UNL A   1      44.171  35.333  28.835  1.00  0.00     0.020 A 
ATOM     64  C   UNL A   1      46.354  34.979  27.866  1.00  0.00     0.020 A 
ATOM     65  C   UNL A   1      45.230  35.775  28.043  1.00  0.00     0.054 A 
BRANCH  65  66
ATOM     66  S   UNL A   1      45.091  37.362  27.187  1.00  0.00     0.124 S 
ATOM     67  O   UNL A   1      43.741  37.288  26.635  1.00  0.00    -0.237 OA
ATOM     68  O   UNL A   1      45.282  38.317  28.275  1.00  0.00    -0.237 OA
ATOM     69  O   UNL A   1      46.174  37.317  26.207  1.00  0.00    -0.744 OA
ENDBRANCH  65  66
ENDBRANCH  46  60
BRANCH  47  70
ATOM     70  C   UNL A   1      37.063  31.301  30.141  1.00  0.00    -0.014 A 
ATOM     71  C   UNL A   1      36.295  31.916  31.148  1.00  0.00     0.010 A 
ATOM     72  C   UNL A   1      36.683  31.519  28.801  1.00  0.00     0.010 A 
ATOM     73  C   UNL A   1      35.243  32.789  30.826  1.00  0.00     0.020 A 
ATOM     74  C   UNL A   1      35.630  32.384  28.472  1.00  0.00     0.020 A 
ATOM     75  C   UNL A   1      34.936  33.040  29.486  1.00  0.00     0.054 A 
BRANCH  75  76
ATOM     76  S   UNL A   1      33.717  34.327  29.080  1.00  0.00     0.124 S 
ATOM     77  O   UNL A   1      34.549  35.364  28.476  1.00  0.00    -0.237 OA
ATOM     78  O   UNL A   1      32.815  33.632  28.167  1.00  0.00    -0.237 OA
ATOM     79  O   UNL A   1      33.137  34.674  30.376  1.00  0.00    -0.744 OA
ENDBRANCH  75  76
ENDBRANCH  47  70
BRANCH  59  80
ATOM     80  C   UNL A   1      41.933  29.409  33.717  1.00  0.00    -0.014 A 
ATOM     81  C   UNL A   1      41.520  28.154  33.228  1.00  0.00     0.010 A 
ATOM     82  C   UNL A   1      42.198  29.537  35.093  1.00  0.00     0.010 A 
ATOM     83  C   UNL A   1      41.364  27.062  34.099  1.00  0.00     0.020 A 
ATOM     84  C   UNL A   1      42.063  28.452  35.960  1.00  0.00     0.020 A 
ATOM     85  C   UNL A   1      41.642  27.219  35.461  1.00  0.00     0.054 A 
BRANCH  85  86
ATOM     86  S   UNL A   1      41.496  25.794  36.575  1.00  0.00     0.124 S 
ATOM     87  O   UNL A   1      40.407  26.192  37.463  1.00  0.00    -0.237 OA
ATOM     88  O   UNL A   1      41.192  24.696  35.660  1.00  0.00    -0.237 OA
ATOM     89  O   UNL A   1      42.811  25.711  37.211  1.00  0.00    -0.744 OA
ENDBRANCH  85  86
ENDBRANCH  59  80
ENDBRANCH  33  34
ENDBRANCH  25  28
ENDBRANCH  23  24
ENDBRANCH  22  23
ENDBRANCH   1  22
TORSDOF 17
ENDMDL
MODEL 3
REMARK VINA RESULT:     -11.1      2.985      9.402
REMARK SMILES Cc1cc(C)c2c(=O)n(CCCC(=O)NCCCCNC(=O)c3ccc(-c4c5nc(c(-c6ccc(S(=O)(=O)[O-])cc6)c6ccc([nH]6)c(-c6ccc(S(=O)(=O)[O-])cc6)c6nc(c(-c7ccc(S(=O)(=O)[O-])cc7)c7ccc4[nH]7)C=C6)C=C5)cc3)sc2n1
REMARK SMILES IDX 17 1 16 2 15 3 13 4 14 5 12 7 11 8 10 9 9 10 1 11 2 12 3 13
REMARK SMILES IDX 85 14 4 15 84 16 5 17 6 18 83 19 7 20 8 21 18 22 19 23 20 24
REMARK SMILES IDX 21 25 22 27 23 28 24 29 82 30 25 31 81 32 26 33 27 34 28 35
REMARK SMILES IDX 75 36 29 37 80 38 74 39 76 40 30 41 79 42 73 43 72 44 31 46
REMARK SMILES IDX 61 47 42 48 60 49 43 50 46 51 59 52 77 53 44 54 45 55 58 57
REMARK SMILES IDX 78 58 47 59 32 60 33 61 41 62 34 63 40 64 35 65 36 66 37 67
REMARK SMILES IDX 38 68 39 69 62 70 63 71 71 72 64 73 70 74 65 75 66 76 67 77
REMARK SMILES IDX 68 78 69 79 48 80 49 81 57 82 50 83 56 84 51 85 52 86 53 87
REMARK SMILES IDX 54 88 55 89
REMARK H PARENT 15 6 20 26 76 45 46 56
REMARK Flexibility Score: inf
ROOT
ATOM      1  C   UNL A   1      34.883  29.841  27.708  1.00  0.00     0.023 C 
ENDROOT
BRANCH   1   2
ATOM      2  C   UNL A   1      34.009  28.843  26.936  1.00  0.00     0.116 C 
BRANCH   2   3
ATOM      3  N   UNL A   1      34.050  29.121  25.516  1.00  0.00    -0.356 N 
ATOM      4  C   UNL A   1      33.060  29.181  24.587  1.00  0.00     0.220 C 
ATOM      5  O   UNL A   1      33.390  29.280  23.404  1.00  0.00    -0.275 OA
ATOM      6  H   UNL A   1      34.953  29.296  25.161  1.00  0.00     0.163 HD
BRANCH   4   7
ATOM      7  C   UNL A   1      31.597  29.227  24.981  1.00  0.00     0.102 C 
BRANCH   7   8
ATOM      8  C   UNL A   1      30.523  29.076  23.898  1.00  0.00     0.033 C 
BRANCH   8   9
ATOM      9  C   UNL A   1      30.142  27.693  23.349  1.00  0.00     0.139 C 
BRANCH   9  10
ATOM     10  N   UNL A   1      30.638  26.470  23.962  1.00  0.00    -0.262 N 
ATOM     11  C   UNL A   1      33.149  22.509  27.887  1.00  0.00     0.067 C 
ATOM     12  C   UNL A   1      32.816  23.274  26.640  1.00  0.00     0.039 A 
ATOM     13  C   UNL A   1      33.630  23.173  25.502  1.00  0.00     0.027 A 
ATOM     14  N   UNL A   1      31.715  24.058  26.683  1.00  0.00    -0.241 NA
ATOM     15  C   UNL A   1      33.337  23.936  24.358  1.00  0.00    -0.033 A 
ATOM     16  C   UNL A   1      31.473  24.788  25.582  1.00  0.00     0.146 A 
ATOM     17  C   UNL A   1      34.143  23.783  23.107  1.00  0.00     0.045 C 
ATOM     18  C   UNL A   1      32.258  24.808  24.446  1.00  0.00     0.081 A 
ATOM     19  S   UNL A   1      30.038  25.806  25.413  1.00  0.00    -0.035 S 
ATOM     20  C   UNL A   1      31.795  25.842  23.493  1.00  0.00     0.270 A 
ATOM     21  O   UNL A   1      32.408  26.135  22.476  1.00  0.00    -0.268 OA
ENDBRANCH   9  10
ENDBRANCH   8   9
ENDBRANCH   7   8
ENDBRANCH   4   7
ENDBRANCH   2   3
ENDBRANCH   1   2
BRANCH   1  22
ATOM     22  C   UNL A   1      34.416  31.301  27.658  1.00  0.00     0.023 C 
BRANCH  22  23
ATOM     23  C   UNL A   1      35.353  32.282  28.348  1.00  0.00     0.116 C 
BRANCH  23  24
ATOM     24  N   UNL A   1      34.838  32.751  29.634  1.00  0.00    -0.352 N 
ATOM     25  C   UNL A   1      35.096  32.216  30.879  1.00  0.00     0.251 C 
ATOM     26  H   UNL A   1      34.242  33.535  29.607  1.00  0.00     0.163 HD
ATOM     27  O   UNL A   1      34.333  32.409  31.822  1.00  0.00    -0.269 OA
BRANCH  25  28
ATOM     28  C   UNL A   1      36.312  31.406  31.050  1.00  0.00     0.039 A 
ATOM     29  C   UNL A   1      36.254  30.011  31.092  1.00  0.00     0.014 A 
ATOM     30  C   UNL A   1      37.535  32.076  31.098  1.00  0.00     0.014 A 
ATOM     31  C   UNL A   1      37.447  29.293  31.078  1.00  0.00     0.010 A 
ATOM     32  C   UNL A   1      38.706  31.365  30.967  1.00  0.00     0.010 A 
ATOM     33  C   UNL A   1      38.673  29.974  30.981  1.00  0.00    -0.014 A 
BRANCH  33  34
ATOM     34  C   UNL A   1      39.913  29.230  30.756  1.00  0.00     0.031 A 
ATOM     35  C   UNL A   1      40.771  29.060  31.961  1.00  0.00     0.074 A 
ATOM     36  C   UNL A   1      40.202  28.569  29.614  1.00  0.00     0.049 A 
ATOM     37  N   UNL A   1      41.890  29.653  32.216  1.00  0.00    -0.248 NA
ATOM     38  C   UNL A   1      40.265  28.243  33.077  1.00  0.00     0.031 C 
ATOM     39  C   UNL A   1      39.353  28.368  28.434  1.00  0.00     0.029 A 
ATOM     40  N   UNL A   1      41.310  27.838  29.312  1.00  0.00    -0.354 N 
ATOM     41  C   UNL A   1      42.348  29.119  33.417  1.00  0.00     0.074 A 
ATOM     42  C   UNL A   1      41.233  28.403  33.984  1.00  0.00     0.031 C 
ATOM     43  C   UNL A   1      39.876  27.392  27.659  1.00  0.00     0.029 A 
ATOM     44  C   UNL A   1      41.181  27.036  28.184  1.00  0.00     0.049 A 
ATOM     45  H   UNL A   1      42.133  27.874  29.849  1.00  0.00     0.167 HD
ATOM     46  C   UNL A   1      43.675  29.109  33.731  1.00  0.00     0.031 A 
ATOM     47  C   UNL A   1      42.086  26.142  27.713  1.00  0.00     0.031 A 
ATOM     48  C   UNL A   1      44.434  29.946  32.835  1.00  0.00     0.049 A 
ATOM     49  C   UNL A   1      43.404  26.547  28.256  1.00  0.00     0.074 A 
ATOM     50  C   UNL A   1      44.439  31.289  32.515  1.00  0.00     0.029 A 
ATOM     51  N   UNL A   1      45.097  29.306  31.815  1.00  0.00    -0.354 N 
ATOM     52  N   UNL A   1      44.000  27.660  27.933  1.00  0.00    -0.248 NA
ATOM     53  C   UNL A   1      43.872  25.919  29.481  1.00  0.00     0.031 C 
ATOM     54  C   UNL A   1      44.688  31.330  31.111  1.00  0.00     0.029 A 
ATOM     55  C   UNL A   1      44.891  30.022  30.665  1.00  0.00     0.049 A 
ATOM     56  H   UNL A   1      45.626  28.480  31.896  1.00  0.00     0.167 HD
ATOM     57  C   UNL A   1      44.590  28.098  29.109  1.00  0.00     0.074 A 
ATOM     58  C   UNL A   1      44.577  26.932  29.991  1.00  0.00     0.031 C 
ATOM     59  C   UNL A   1      44.783  29.428  29.347  1.00  0.00     0.031 A 
BRANCH  46  60
ATOM     60  C   UNL A   1      44.352  28.039  34.560  1.00  0.00    -0.014 A 
ATOM     61  C   UNL A   1      44.598  26.782  33.967  1.00  0.00     0.010 A 
ATOM     62  C   UNL A   1      44.493  28.120  35.960  1.00  0.00     0.010 A 
ATOM     63  C   UNL A   1      44.878  25.649  34.744  1.00  0.00     0.020 A 
ATOM     64  C   UNL A   1      44.816  27.007  36.739  1.00  0.00     0.020 A 
ATOM     65  C   UNL A   1      44.969  25.769  36.129  1.00  0.00     0.054 A 
BRANCH  65  66
ATOM     66  S   UNL A   1      45.215  24.282  37.131  1.00  0.00     0.124 S 
ATOM     67  O   UNL A   1      44.588  23.256  36.304  1.00  0.00    -0.237 OA
ATOM     68  O   UNL A   1      46.670  24.217  37.232  1.00  0.00    -0.237 OA
ATOM     69  O   UNL A   1      44.522  24.594  38.379  1.00  0.00    -0.744 OA
ENDBRANCH  65  66
ENDBRANCH  46  60
BRANCH  47  70
ATOM     70  C   UNL A   1      41.858  24.827  27.067  1.00  0.00    -0.014 A 
ATOM     71  C   UNL A   1      42.859  24.239  26.269  1.00  0.00     0.010 A 
ATOM     72  C   UNL A   1      40.788  24.010  27.484  1.00  0.00     0.010 A 
ATOM     73  C   UNL A   1      42.838  22.865  25.976  1.00  0.00     0.020 A 
ATOM     74  C   UNL A   1      40.757  22.640  27.190  1.00  0.00     0.020 A 
ATOM     75  C   UNL A   1      41.800  22.068  26.464  1.00  0.00     0.054 A 
BRANCH  75  76
ATOM     76  S   UNL A   1      41.893  20.263  26.258  1.00  0.00     0.124 S 
ATOM     77  O   UNL A   1      40.540  19.929  25.823  1.00  0.00    -0.237 OA
ATOM     78  O   UNL A   1      42.936  20.114  25.247  1.00  0.00    -0.237 OA
ATOM     79  O   UNL A   1      42.253  19.782  27.591  1.00  0.00    -0.744 OA
ENDBRANCH  75  76
ENDBRANCH  47  70
BRANCH  59  80
ATOM     80  C   UNL A   1      44.655  30.395  28.190  1.00  0.00    -0.014 A 
ATOM     81  C   UNL A   1      43.447  31.008  27.803  1.00  0.00     0.010 A 
ATOM     82  C   UNL A   1      45.847  30.815  27.572  1.00  0.00     0.010 A 
ATOM     83  C   UNL A   1      43.435  32.006  26.814  1.00  0.00     0.020 A 
ATOM     84  C   UNL A   1      45.844  31.819  26.603  1.00  0.00     0.020 A 
ATOM     85  C   UNL A   1      44.637  32.407  26.223  1.00  0.00     0.054 A 
BRANCH  85  86
ATOM     86  S   UNL A   1      44.629  33.737  24.987  1.00  0.00     0.124 S 
ATOM     87  O   UNL A   1      44.398  33.012  23.740  1.00  0.00    -0.237 OA
ATOM     88  O   UNL A   1      43.527  34.587  25.433  1.00  0.00    -0.237 OA
ATOM     89  O   UNL A   1      45.954  34.341  25.114  1.00  0.00    -0.744 OA
ENDBRANCH  85  86
ENDBRANCH  59  80
ENDBRANCH  33  34
ENDBRANCH  25  28
ENDBRANCH  23  24
ENDBRANCH  22  23
ENDBRANCH   1  22
TORSDOF 17
ENDMDL
