MODEL 1
REMARK VINA RESULT:     -13.0      0.000      0.000
REMARK SMILES Cc1nccn1CCC[NH+]1CCC2(CC1)[C@@H](C(=O)NCCCCNC(=O)c1ccc(-c3c4nc(c(-c5ccc(S(=O)(=O)[O-])cc5)c5ccc([nH]5)c(-c5ccc(S(=O)(=O)[O-])cc5)c5nc(c(-c6ccc(S(=O)(=O)[O-])cc6)c6ccc3[nH]6)C=C5)C=C4)cc1)CC(=O)N2C
REMARK SMILES IDX 21 1 20 2 19 3 17 4 18 5 16 7 10 8 11 9 15 10 12 12 14 13
REMARK SMILES IDX 13 14 90 15 87 16 88 17 91 18 89 19 9 20 8 21 7 22 6 23 1 24
REMARK SMILES IDX 2 25 3 26 4 27 5 28 22 29 23 30 24 31 25 32 26 34 27 35
REMARK SMILES IDX 28 36 86 37 29 38 85 39 30 40 31 41 32 42 79 43 33 44 84 45
REMARK SMILES IDX 78 46 80 47 34 48 83 49 77 50 76 51 35 53 65 54 46 55 64 56
REMARK SMILES IDX 47 57 50 58 63 59 81 60 48 61 49 62 62 64 82 65 51 66 36 67
REMARK SMILES IDX 37 68 45 69 38 70 44 71 39 72 40 73 41 74 42 75 43 76 66 77
REMARK SMILES IDX 67 78 75 79 68 80 74 81 69 82 70 83 71 84 72 85 73 86 52 87
REMARK SMILES IDX 53 88 61 89 54 90 60 91 55 92 56 93 57 94 58 95 59 96
REMARK H PARENT 19 6 10 11 24 33 80 52 50 63
REMARK Flexibility Score: inf
ROOT
ATOM      1  C   UNL A   1      31.546  28.196  27.607  1.00  0.00     0.023 C 
ENDROOT
BRANCH   1   2
ATOM      2  C   UNL A   1      31.376  27.151  26.472  1.00  0.00     0.116 C 
BRANCH   2   3
ATOM      3  N   UNL A   1      31.055  25.773  26.857  1.00  0.00    -0.356 N 
ATOM      4  C   UNL A   1      31.704  24.566  26.792  1.00  0.00     0.226 C 
ATOM      5  O   UNL A   1      31.169  23.605  27.352  1.00  0.00    -0.275 OA
ATOM      6  H   UNL A   1      30.158  25.696  27.258  1.00  0.00     0.163 HD
BRANCH   4   7
ATOM      7  C   UNL A   1      33.054  24.388  26.100  1.00  0.00     0.114 C 
ATOM      8  N   UNL A   1      32.607  26.463  22.167  1.00  0.00    -0.335 N 
ATOM      9  C   UNL A   1      33.907  26.441  22.846  1.00  0.00     0.264 C 
ATOM     10  C   UNL A   1      31.869  25.221  22.322  1.00  0.00     0.264 C 
ATOM     11  H   UNL A   1      32.711  26.423  21.153  1.00  0.00     0.348 HD
ATOM     12  C   UNL A   1      33.863  25.941  24.291  1.00  0.00     0.091 C 
ATOM     13  C   UNL A   1      31.813  24.574  23.725  1.00  0.00     0.091 C 
ATOM     14  C   UNL A   1      33.141  24.587  24.517  1.00  0.00     0.065 C 
ATOM     15  N   UNL A   1      34.012  23.450  24.112  1.00  0.00    -0.339 N 
ATOM     16  C   UNL A   1      33.503  22.941  26.349  1.00  0.00     0.116 C 
ATOM     17  C   UNL A   1      34.267  22.545  25.130  1.00  0.00     0.223 C 
ATOM     18  C   UNL A   1      34.262  23.021  22.747  1.00  0.00     0.147 C 
ATOM     19  O   UNL A   1      34.948  21.535  25.034  1.00  0.00    -0.275 OA
BRANCH   8  20
ATOM     20  C   UNL A   1      31.960  27.771  22.244  1.00  0.00     0.264 C 
BRANCH  20  21
ATOM     21  C   UNL A   1      30.462  28.014  22.591  1.00  0.00     0.083 C 
BRANCH  21  22
ATOM     22  C   UNL A   1      29.964  29.281  23.322  1.00  0.00     0.129 C 
BRANCH  22  23
ATOM     23  N   UNL A   1      28.825  29.982  22.751  1.00  0.00    -0.335 N 
ATOM     24  C   UNL A   1      26.762  28.625  23.358  1.00  0.00     0.087 C 
ATOM     25  C   UNL A   1      27.542  29.873  23.260  1.00  0.00     0.105 A 
ATOM     26  N   UNL A   1      27.168  31.054  23.694  1.00  0.00    -0.242 NA
ATOM     27  C   UNL A   1      28.142  31.884  23.243  1.00  0.00     0.131 A 
ATOM     28  C   UNL A   1      28.919  31.268  22.303  1.00  0.00     0.107 A 
ENDBRANCH  22  23
ENDBRANCH  21  22
ENDBRANCH  20  21
ENDBRANCH   8  20
ENDBRANCH   4   7
ENDBRANCH   2   3
ENDBRANCH   1   2
BRANCH   1  29
ATOM     29  C   UNL A   1      32.079  29.611  27.287  1.00  0.00     0.023 C 
BRANCH  29  30
ATOM     30  C   UNL A   1      33.563  29.858  27.340  1.00  0.00     0.116 C 
BRANCH  30  31
ATOM     31  N   UNL A   1      33.925  31.261  27.186  1.00  0.00    -0.352 N 
ATOM     32  C   UNL A   1      34.997  31.911  27.781  1.00  0.00     0.251 C 
ATOM     33  H   UNL A   1      33.350  31.804  26.600  1.00  0.00     0.163 HD
ATOM     34  O   UNL A   1      34.978  33.113  27.973  1.00  0.00    -0.269 OA
BRANCH  32  35
ATOM     35  C   UNL A   1      36.162  31.089  28.167  1.00  0.00     0.039 A 
ATOM     36  C   UNL A   1      36.390  29.812  27.652  1.00  0.00     0.014 A 
ATOM     37  C   UNL A   1      37.082  31.688  29.019  1.00  0.00     0.014 A 
ATOM     38  C   UNL A   1      37.593  29.182  27.964  1.00  0.00     0.010 A 
ATOM     39  C   UNL A   1      38.352  31.198  29.078  1.00  0.00     0.010 A 
ATOM     40  C   UNL A   1      38.576  29.897  28.669  1.00  0.00    -0.014 A 
BRANCH  40  41
ATOM     41  C   UNL A   1      39.902  29.364  28.932  1.00  0.00     0.031 A 
ATOM     42  C   UNL A   1      40.171  29.137  30.370  1.00  0.00     0.074 A 
ATOM     43  C   UNL A   1      40.707  28.905  27.945  1.00  0.00     0.049 A 
ATOM     44  N   UNL A   1      40.884  29.879  31.148  1.00  0.00    -0.248 NA
ATOM     45  C   UNL A   1      39.398  28.102  31.079  1.00  0.00     0.031 C 
ATOM     46  C   UNL A   1      40.414  28.771  26.508  1.00  0.00     0.029 A 
ATOM     47  N   UNL A   1      41.937  28.339  28.036  1.00  0.00    -0.354 N 
ATOM     48  C   UNL A   1      40.883  29.234  32.377  1.00  0.00     0.074 A 
ATOM     49  C   UNL A   1      39.771  28.319  32.343  1.00  0.00     0.031 C 
ATOM     50  C   UNL A   1      41.316  27.944  25.932  1.00  0.00     0.029 A 
ATOM     51  C   UNL A   1      42.349  27.640  26.904  1.00  0.00     0.049 A 
ATOM     52  H   UNL A   1      42.496  28.418  28.842  1.00  0.00     0.167 HD
ATOM     53  C   UNL A   1      41.977  29.277  33.187  1.00  0.00     0.031 A 
ATOM     54  C   UNL A   1      43.448  26.849  26.788  1.00  0.00     0.031 A 
ATOM     55  C   UNL A   1      42.930  30.258  32.723  1.00  0.00     0.049 A 
ATOM     56  C   UNL A   1      44.371  27.248  27.882  1.00  0.00     0.074 A 
ATOM     57  C   UNL A   1      42.889  31.618  32.483  1.00  0.00     0.029 A 
ATOM     58  N   UNL A   1      44.005  29.777  32.010  1.00  0.00    -0.354 N 
ATOM     59  N   UNL A   1      44.930  28.423  27.947  1.00  0.00    -0.248 NA
ATOM     60  C   UNL A   1      44.270  26.535  29.145  1.00  0.00     0.031 C 
ATOM     61  C   UNL A   1      43.634  31.801  31.281  1.00  0.00     0.029 A 
ATOM     62  C   UNL A   1      44.174  30.570  30.904  1.00  0.00     0.049 A 
ATOM     63  H   UNL A   1      44.556  28.998  32.251  1.00  0.00     0.167 HD
ATOM     64  C   UNL A   1      44.828  28.789  29.282  1.00  0.00     0.074 A 
ATOM     65  C   UNL A   1      44.498  27.548  29.987  1.00  0.00     0.031 C 
ATOM     66  C   UNL A   1      44.727  30.103  29.648  1.00  0.00     0.031 A 
BRANCH  53  67
ATOM     67  C   UNL A   1      42.392  28.150  34.102  1.00  0.00    -0.014 A 
ATOM     68  C   UNL A   1      42.509  28.417  35.481  1.00  0.00     0.010 A 
ATOM     69  C   UNL A   1      42.933  26.934  33.639  1.00  0.00     0.010 A 
ATOM     70  C   UNL A   1      43.196  27.547  36.335  1.00  0.00     0.020 A 
ATOM     71  C   UNL A   1      43.583  26.037  34.489  1.00  0.00     0.020 A 
ATOM     72  C   UNL A   1      43.737  26.366  35.828  1.00  0.00     0.054 A 
BRANCH  72  73
ATOM     73  S   UNL A   1      44.691  25.289  36.923  1.00  0.00     0.124 S 
ATOM     74  O   UNL A   1      44.415  23.970  36.364  1.00  0.00    -0.237 OA
ATOM     75  O   UNL A   1      46.051  25.788  36.733  1.00  0.00    -0.237 OA
ATOM     76  O   UNL A   1      44.118  25.547  38.241  1.00  0.00    -0.744 OA
ENDBRANCH  72  73
ENDBRANCH  53  67
BRANCH  54  77
ATOM     77  C   UNL A   1      43.593  25.567  26.047  1.00  0.00    -0.014 A 
ATOM     78  C   UNL A   1      44.770  25.272  25.328  1.00  0.00     0.010 A 
ATOM     79  C   UNL A   1      42.702  24.503  26.298  1.00  0.00     0.010 A 
ATOM     80  C   UNL A   1      45.081  23.951  24.951  1.00  0.00     0.020 A 
ATOM     81  C   UNL A   1      43.003  23.186  25.920  1.00  0.00     0.020 A 
ATOM     82  C   UNL A   1      44.205  22.911  25.273  1.00  0.00     0.054 A 
BRANCH  82  83
ATOM     83  S   UNL A   1      44.707  21.187  24.971  1.00  0.00     0.124 S 
ATOM     84  O   UNL A   1      46.063  21.157  25.511  1.00  0.00    -0.237 OA
ATOM     85  O   UNL A   1      43.711  20.428  25.724  1.00  0.00    -0.237 OA
ATOM     86  O   UNL A   1      44.614  21.052  23.519  1.00  0.00    -0.744 OA
ENDBRANCH  82  83
ENDBRANCH  54  77
BRANCH  66  87
ATOM     87  C   UNL A   1      45.043  31.165  28.617  1.00  0.00    -0.014 A 
ATOM     88  C   UNL A   1      44.102  31.739  27.738  1.00  0.00     0.010 A 
ATOM     89  C   UNL A   1      46.346  31.690  28.632  1.00  0.00     0.010 A 
ATOM     90  C   UNL A   1      44.475  32.781  26.871  1.00  0.00     0.020 A 
ATOM     91  C   UNL A   1      46.718  32.737  27.789  1.00  0.00     0.020 A 
ATOM     92  C   UNL A   1      45.786  33.267  26.898  1.00  0.00     0.054 A 
BRANCH  92  93
ATOM     93  S   UNL A   1      46.277  34.605  25.774  1.00  0.00     0.124 S 
ATOM     94  O   UNL A   1      47.686  34.310  25.526  1.00  0.00    -0.237 OA
ATOM     95  O   UNL A   1      45.385  34.415  24.632  1.00  0.00    -0.237 OA
ATOM     96  O   UNL A   1      46.028  35.820  26.548  1.00  0.00    -0.744 OA
ENDBRANCH  92  93
ENDBRANCH  66  87
ENDBRANCH  40  41
ENDBRANCH  32  35
ENDBRANCH  30  31
ENDBRANCH  29  30
ENDBRANCH   1  29
TORSDOF 18
ENDMDL
MODEL 2
REMARK VINA RESULT:     -12.6      2.750      8.907
REMARK SMILES Cc1nccn1CCC[NH+]1CCC2(CC1)[C@@H](C(=O)NCCCCNC(=O)c1ccc(-c3c4nc(c(-c5ccc(S(=O)(=O)[O-])cc5)c5ccc([nH]5)c(-c5ccc(S(=O)(=O)[O-])cc5)c5nc(c(-c6ccc(S(=O)(=O)[O-])cc6)c6ccc3[nH]6)C=C5)C=C4)cc1)CC(=O)N2C
REMARK SMILES IDX 21 1 20 2 19 3 17 4 18 5 16 7 10 8 11 9 15 10 12 12 14 13
REMARK SMILES IDX 13 14 90 15 87 16 88 17 91 18 89 19 9 20 8 21 7 22 6 23 1 24
REMARK SMILES IDX 2 25 3 26 4 27 5 28 22 29 23 30 24 31 25 32 26 34 27 35
REMARK SMILES IDX 28 36 86 37 29 38 85 39 30 40 31 41 32 42 79 43 33 44 84 45
REMARK SMILES IDX 78 46 80 47 34 48 83 49 77 50 76 51 35 53 65 54 46 55 64 56
REMARK SMILES IDX 47 57 50 58 63 59 81 60 48 61 49 62 62 64 82 65 51 66 36 67
REMARK SMILES IDX 37 68 45 69 38 70 44 71 39 72 40 73 41 74 42 75 43 76 66 77
REMARK SMILES IDX 67 78 75 79 68 80 74 81 69 82 70 83 71 84 72 85 73 86 52 87
REMARK SMILES IDX 53 88 61 89 54 90 60 91 55 92 56 93 57 94 58 95 59 96
REMARK H PARENT 19 6 10 11 24 33 80 52 50 63
REMARK Flexibility Score: inf
ROOT
ATOM      1  C   UNL A   1      38.129  23.816  26.170  1.00  0.00     0.023 C 
ENDROOT
BRANCH   1   2
ATOM      2  C   UNL A   1      36.602  23.864  25.897  1.00  0.00     0.116 C 
BRANCH   2   3
ATOM      3  N   UNL A   1      35.743  22.962  26.670  1.00  0.00    -0.356 N 
ATOM      4  C   UNL A   1      34.899  21.922  26.370  1.00  0.00     0.226 C 
ATOM      5  O   UNL A   1      34.430  21.283  27.316  1.00  0.00    -0.275 OA
ATOM      6  H   UNL A   1      35.781  23.146  27.637  1.00  0.00     0.163 HD
BRANCH   4   7
ATOM      7  C   UNL A   1      34.564  21.516  24.936  1.00  0.00     0.114 C 
ATOM      8  N   UNL A   1      32.855  25.202  23.073  1.00  0.00    -0.335 N 
ATOM      9  C   UNL A   1      33.627  24.255  22.261  1.00  0.00     0.264 C 
ATOM     10  C   UNL A   1      32.025  24.546  24.068  1.00  0.00     0.264 C 
ATOM     11  H   UNL A   1      32.098  25.627  22.537  1.00  0.00     0.348 HD
ATOM     12  C   UNL A   1      34.375  23.189  23.064  1.00  0.00     0.091 C 
ATOM     13  C   UNL A   1      32.646  23.398  24.897  1.00  0.00     0.091 C 
ATOM     14  C   UNL A   1      33.531  22.407  24.104  1.00  0.00     0.065 C 
ATOM     15  N   UNL A   1      32.698  21.371  23.436  1.00  0.00    -0.339 N 
ATOM     16  C   UNL A   1      33.930  20.119  24.998  1.00  0.00     0.116 C 
ATOM     17  C   UNL A   1      32.938  20.081  23.883  1.00  0.00     0.223 C 
ATOM     18  C   UNL A   1      31.466  21.616  22.707  1.00  0.00     0.147 C 
ATOM     19  O   UNL A   1      32.375  19.072  23.489  1.00  0.00    -0.275 OA
BRANCH   8  20
ATOM     20  C   UNL A   1      33.600  26.426  23.361  1.00  0.00     0.264 C 
BRANCH  20  21
ATOM     21  C   UNL A   1      33.073  27.873  23.138  1.00  0.00     0.083 C 
BRANCH  21  22
ATOM     22  C   UNL A   1      33.466  29.059  24.047  1.00  0.00     0.129 C 
BRANCH  22  23
ATOM     23  N   UNL A   1      32.853  29.127  25.364  1.00  0.00    -0.335 N 
ATOM     24  C   UNL A   1      34.747  28.967  27.053  1.00  0.00     0.087 C 
ATOM     25  C   UNL A   1      33.528  29.575  26.487  1.00  0.00     0.105 A 
ATOM     26  N   UNL A   1      32.936  30.664  26.919  1.00  0.00    -0.242 NA
ATOM     27  C   UNL A   1      31.799  30.723  26.180  1.00  0.00     0.131 A 
ATOM     28  C   UNL A   1      31.564  29.540  25.540  1.00  0.00     0.107 A 
ENDBRANCH  22  23
ENDBRANCH  21  22
ENDBRANCH  20  21
ENDBRANCH   8  20
ENDBRANCH   4   7
ENDBRANCH   2   3
ENDBRANCH   1   2
BRANCH   1  29
ATOM     29  C   UNL A   1      38.864  22.459  26.243  1.00  0.00     0.023 C 
BRANCH  29  30
ATOM     30  C   UNL A   1      40.071  22.332  27.133  1.00  0.00     0.116 C 
BRANCH  30  31
ATOM     31  N   UNL A   1      41.297  22.022  26.410  1.00  0.00    -0.352 N 
ATOM     32  C   UNL A   1      42.131  22.925  25.766  1.00  0.00     0.251 C 
ATOM     33  H   UNL A   1      41.562  21.074  26.376  1.00  0.00     0.163 HD
ATOM     34  O   UNL A   1      42.844  22.575  24.842  1.00  0.00    -0.269 OA
BRANCH  32  35
ATOM     35  C   UNL A   1      42.123  24.321  26.245  1.00  0.00     0.039 A 
ATOM     36  C   UNL A   1      41.428  25.340  25.591  1.00  0.00     0.014 A 
ATOM     37  C   UNL A   1      42.782  24.564  27.445  1.00  0.00     0.014 A 
ATOM     38  C   UNL A   1      41.360  26.590  26.206  1.00  0.00     0.010 A 
ATOM     39  C   UNL A   1      42.469  25.680  28.161  1.00  0.00     0.010 A 
ATOM     40  C   UNL A   1      41.875  26.740  27.504  1.00  0.00    -0.014 A 
BRANCH  40  41
ATOM     41  C   UNL A   1      41.740  27.970  28.268  1.00  0.00     0.031 A 
ATOM     42  C   UNL A   1      42.814  28.953  27.995  1.00  0.00     0.074 A 
ATOM     43  C   UNL A   1      40.621  28.268  28.970  1.00  0.00     0.049 A 
ATOM     44  N   UNL A   1      43.831  29.213  28.745  1.00  0.00    -0.248 NA
ATOM     45  C   UNL A   1      42.892  29.560  26.654  1.00  0.00     0.031 C 
ATOM     46  C   UNL A   1      39.356  27.519  29.043  1.00  0.00     0.029 A 
ATOM     47  N   UNL A   1      40.329  29.385  29.683  1.00  0.00    -0.354 N 
ATOM     48  C   UNL A   1      44.517  30.230  28.098  1.00  0.00     0.074 A 
ATOM     49  C   UNL A   1      44.053  30.217  26.733  1.00  0.00     0.031 C 
ATOM     50  C   UNL A   1      38.380  28.316  29.533  1.00  0.00     0.029 A 
ATOM     51  C   UNL A   1      38.980  29.559  29.978  1.00  0.00     0.049 A 
ATOM     52  H   UNL A   1      41.021  30.024  29.970  1.00  0.00     0.167 HD
ATOM     53  C   UNL A   1      45.165  31.195  28.809  1.00  0.00     0.031 A 
ATOM     54  C   UNL A   1      38.399  30.659  30.527  1.00  0.00     0.031 A 
ATOM     55  C   UNL A   1      45.254  30.841  30.206  1.00  0.00     0.049 A 
ATOM     56  C   UNL A   1      39.486  31.418  31.196  1.00  0.00     0.074 A 
ATOM     57  C   UNL A   1      45.787  29.778  30.909  1.00  0.00     0.029 A 
ATOM     58  N   UNL A   1      44.339  31.434  31.046  1.00  0.00    -0.354 N 
ATOM     59  N   UNL A   1      40.146  30.961  32.224  1.00  0.00    -0.248 NA
ATOM     60  C   UNL A   1      40.170  32.444  30.424  1.00  0.00     0.031 C 
ATOM     61  C   UNL A   1      44.835  29.503  31.935  1.00  0.00     0.029 A 
ATOM     62  C   UNL A   1      43.828  30.467  31.873  1.00  0.00     0.049 A 
ATOM     63  H   UNL A   1      44.094  32.388  31.053  1.00  0.00     0.167 HD
ATOM     64  C   UNL A   1      41.470  31.283  31.964  1.00  0.00     0.074 A 
ATOM     65  C   UNL A   1      41.412  32.277  30.890  1.00  0.00     0.031 C 
ATOM     66  C   UNL A   1      42.491  30.504  32.434  1.00  0.00     0.031 A 
BRANCH  53  67
ATOM     67  C   UNL A   1      45.305  32.627  28.351  1.00  0.00    -0.014 A 
ATOM     68  C   UNL A   1      46.583  33.222  28.398  1.00  0.00     0.010 A 
ATOM     69  C   UNL A   1      44.207  33.487  28.143  1.00  0.00     0.010 A 
ATOM     70  C   UNL A   1      46.743  34.610  28.316  1.00  0.00     0.020 A 
ATOM     71  C   UNL A   1      44.359  34.869  28.016  1.00  0.00     0.020 A 
ATOM     72  C   UNL A   1      45.625  35.424  28.136  1.00  0.00     0.054 A 
BRANCH  72  73
ATOM     73  S   UNL A   1      45.835  37.220  28.112  1.00  0.00     0.124 S 
ATOM     74  O   UNL A   1      45.287  37.570  26.805  1.00  0.00    -0.237 OA
ATOM     75  O   UNL A   1      45.041  37.635  29.265  1.00  0.00    -0.237 OA
ATOM     76  O   UNL A   1      47.277  37.397  28.258  1.00  0.00    -0.744 OA
ENDBRANCH  72  73
ENDBRANCH  53  67
BRANCH  54  77
ATOM     77  C   UNL A   1      37.078  31.265  30.209  1.00  0.00    -0.014 A 
ATOM     78  C   UNL A   1      36.244  31.766  31.230  1.00  0.00     0.010 A 
ATOM     79  C   UNL A   1      36.770  31.631  28.883  1.00  0.00     0.010 A 
ATOM     80  C   UNL A   1      35.198  32.663  30.942  1.00  0.00     0.020 A 
ATOM     81  C   UNL A   1      35.727  32.520  28.588  1.00  0.00     0.020 A 
ATOM     82  C   UNL A   1      34.963  33.055  29.622  1.00  0.00     0.054 A 
BRANCH  82  83
ATOM     83  S   UNL A   1      33.751  34.370  29.277  1.00  0.00     0.124 S 
ATOM     84  O   UNL A   1      33.246  34.686  30.609  1.00  0.00    -0.237 OA
ATOM     85  O   UNL A   1      34.572  35.404  28.651  1.00  0.00    -0.237 OA
ATOM     86  O   UNL A   1      32.790  33.725  28.385  1.00  0.00    -0.744 OA
ENDBRANCH  82  83
ENDBRANCH  54  77
BRANCH  66  87
ATOM     87  C   UNL A   1      42.180  29.470  33.495  1.00  0.00    -0.014 A 
ATOM     88  C   UNL A   1      41.488  28.264  33.266  1.00  0.00     0.010 A 
ATOM     89  C   UNL A   1      42.732  29.689  34.769  1.00  0.00     0.010 A 
ATOM     90  C   UNL A   1      41.319  27.327  34.300  1.00  0.00     0.020 A 
ATOM     91  C   UNL A   1      42.587  28.755  35.794  1.00  0.00     0.020 A 
ATOM     92  C   UNL A   1      41.865  27.584  35.562  1.00  0.00     0.054 A 
BRANCH  92  93
ATOM     93  S   UNL A   1      41.643  26.384  36.905  1.00  0.00     0.124 S 
ATOM     94  O   UNL A   1      40.396  26.826  37.523  1.00  0.00    -0.237 OA
ATOM     95  O   UNL A   1      41.576  25.109  36.195  1.00  0.00    -0.237 OA
ATOM     96  O   UNL A   1      42.836  26.561  37.732  1.00  0.00    -0.744 OA
ENDBRANCH  92  93
ENDBRANCH  66  87
ENDBRANCH  40  41
ENDBRANCH  32  35
ENDBRANCH  30  31
ENDBRANCH  29  30
ENDBRANCH   1  29
TORSDOF 18
ENDMDL
MODEL 3
REMARK VINA RESULT:     -12.6      3.515      8.777
REMARK SMILES Cc1nccn1CCC[NH+]1CCC2(CC1)[C@@H](C(=O)NCCCCNC(=O)c1ccc(-c3c4nc(c(-c5ccc(S(=O)(=O)[O-])cc5)c5ccc([nH]5)c(-c5ccc(S(=O)(=O)[O-])cc5)c5nc(c(-c6ccc(S(=O)(=O)[O-])cc6)c6ccc3[nH]6)C=C5)C=C4)cc1)CC(=O)N2C
REMARK SMILES IDX 21 1 20 2 19 3 17 4 18 5 16 7 10 8 11 9 15 10 12 12 14 13
REMARK SMILES IDX 13 14 90 15 87 16 88 17 91 18 89 19 9 20 8 21 7 22 6 23 1 24
REMARK SMILES IDX 2 25 3 26 4 27 5 28 22 29 23 30 24 31 25 32 26 34 27 35
REMARK SMILES IDX 28 36 86 37 29 38 85 39 30 40 31 41 32 42 79 43 33 44 84 45
REMARK SMILES IDX 78 46 80 47 34 48 83 49 77 50 76 51 35 53 65 54 46 55 64 56
REMARK SMILES IDX 47 57 50 58 63 59 81 60 48 61 49 62 62 64 82 65 51 66 36 67
REMARK SMILES IDX 37 68 45 69 38 70 44 71 39 72 40 73 41 74 42 75 43 76 66 77
REMARK SMILES IDX 67 78 75 79 68 80 74 81 69 82 70 83 71 84 72 85 73 86 52 87
REMARK SMILES IDX 53 88 61 89 54 90 60 91 55 92 56 93 57 94 58 95 59 96
REMARK H PARENT 19 6 10 11 24 33 80 52 50 63
REMARK Flexibility Score: inf
ROOT
ATOM      1  C   UNL A   1      36.103  21.811  24.657  1.00  0.00     0.023 C 
ENDROOT
BRANCH   1   2
ATOM      2  C   UNL A   1      36.412  22.975  23.678  1.00  0.00     0.116 C 
BRANCH   2   3
ATOM      3  N   UNL A   1      35.350  23.392  22.758  1.00  0.00    -0.356 N 
ATOM      4  C   UNL A   1      34.306  24.282  22.812  1.00  0.00     0.226 C 
ATOM      5  O   UNL A   1      33.676  24.478  21.769  1.00  0.00    -0.275 OA
ATOM      6  H   UNL A   1      35.396  22.921  21.895  1.00  0.00     0.163 HD
BRANCH   4   7
ATOM      7  C   UNL A   1      33.936  25.047  24.081  1.00  0.00     0.114 C 
ATOM      8  N   UNL A   1      32.215  21.962  26.819  1.00  0.00    -0.335 N 
ATOM      9  C   UNL A   1      32.961  23.100  27.366  1.00  0.00     0.264 C 
ATOM     10  C   UNL A   1      31.402  22.321  25.669  1.00  0.00     0.264 C 
ATOM     11  H   UNL A   1      31.449  21.684  27.432  1.00  0.00     0.348 HD
ATOM     12  C   UNL A   1      33.718  23.926  26.325  1.00  0.00     0.091 C 
ATOM     13  C   UNL A   1      32.033  23.217  24.578  1.00  0.00     0.091 C 
ATOM     14  C   UNL A   1      32.892  24.394  25.099  1.00  0.00     0.065 C 
ATOM     15  N   UNL A   1      32.037  25.558  25.453  1.00  0.00    -0.339 N 
ATOM     16  C   UNL A   1      33.293  26.370  23.640  1.00  0.00     0.116 C 
ATOM     17  C   UNL A   1      32.276  26.687  24.685  1.00  0.00     0.223 C 
ATOM     18  C   UNL A   1      30.790  25.498  26.196  1.00  0.00     0.147 C 
ATOM     19  O   UNL A   1      31.697  27.758  24.787  1.00  0.00    -0.275 OA
BRANCH   8  20
ATOM     20  C   UNL A   1      32.976  20.716  26.879  1.00  0.00     0.264 C 
BRANCH  20  21
ATOM     21  C   UNL A   1      33.234  19.761  25.677  1.00  0.00     0.083 C 
BRANCH  21  22
ATOM     22  C   UNL A   1      32.740  18.298  25.646  1.00  0.00     0.129 C 
BRANCH  22  23
ATOM     23  N   UNL A   1      33.659  17.289  25.143  1.00  0.00    -0.335 N 
ATOM     24  C   UNL A   1      32.538  15.037  25.518  1.00  0.00     0.087 C 
ATOM     25  C   UNL A   1      33.244  16.044  24.703  1.00  0.00     0.105 A 
ATOM     26  N   UNL A   1      33.529  15.942  23.425  1.00  0.00    -0.242 NA
ATOM     27  C   UNL A   1      34.298  17.033  23.181  1.00  0.00     0.131 A 
ATOM     28  C   UNL A   1      34.719  17.611  24.345  1.00  0.00     0.107 A 
ENDBRANCH  22  23
ENDBRANCH  21  22
ENDBRANCH  20  21
ENDBRANCH   8  20
ENDBRANCH   4   7
ENDBRANCH   2   3
ENDBRANCH   1   2
BRANCH   1  29
ATOM     29  C   UNL A   1      37.106  20.646  24.820  1.00  0.00     0.023 C 
BRANCH  29  30
ATOM     30  C   UNL A   1      38.476  20.937  25.370  1.00  0.00     0.116 C 
BRANCH  30  31
ATOM     31  N   UNL A   1      39.257  19.739  25.651  1.00  0.00    -0.352 N 
ATOM     32  C   UNL A   1      40.615  19.681  25.930  1.00  0.00     0.251 C 
ATOM     33  H   UNL A   1      38.771  18.883  25.644  1.00  0.00     0.163 HD
ATOM     34  O   UNL A   1      41.261  18.672  25.709  1.00  0.00    -0.269 OA
BRANCH  32  35
ATOM     35  C   UNL A   1      41.244  20.886  26.506  1.00  0.00     0.039 A 
ATOM     36  C   UNL A   1      41.981  21.792  25.742  1.00  0.00     0.014 A 
ATOM     37  C   UNL A   1      40.995  21.127  27.852  1.00  0.00     0.014 A 
ATOM     38  C   UNL A   1      42.406  22.973  26.349  1.00  0.00     0.010 A 
ATOM     39  C   UNL A   1      41.157  22.387  28.344  1.00  0.00     0.010 A 
ATOM     40  C   UNL A   1      41.970  23.265  27.653  1.00  0.00    -0.014 A 
BRANCH  40  41
ATOM     41  C   UNL A   1      42.263  24.524  28.318  1.00  0.00     0.031 A 
ATOM     42  C   UNL A   1      41.257  25.577  28.052  1.00  0.00     0.074 A 
ATOM     43  C   UNL A   1      43.224  24.636  29.265  1.00  0.00     0.049 A 
ATOM     44  N   UNL A   1      41.381  26.576  27.244  1.00  0.00    -0.248 NA
ATOM     45  C   UNL A   1      39.889  25.395  28.569  1.00  0.00     0.031 C 
ATOM     46  C   UNL A   1      44.063  23.578  29.851  1.00  0.00     0.029 A 
ATOM     47  N   UNL A   1      43.578  25.719  30.002  1.00  0.00    -0.354 N 
ATOM     48  C   UNL A   1      40.208  27.306  27.377  1.00  0.00     0.074 A 
ATOM     49  C   UNL A   1      39.253  26.416  27.987  1.00  0.00     0.031 C 
ATOM     50  C   UNL A   1      44.621  24.021  31.002  1.00  0.00     0.029 A 
ATOM     51  C   UNL A   1      44.333  25.436  31.137  1.00  0.00     0.049 A 
ATOM     52  H   UNL A   1      43.319  26.635  29.753  1.00  0.00     0.167 HD
ATOM     53  C   UNL A   1      40.218  28.664  27.271  1.00  0.00     0.031 A 
ATOM     54  C   UNL A   1      44.674  26.303  32.128  1.00  0.00     0.031 A 
ATOM     55  C   UNL A   1      41.481  29.136  26.752  1.00  0.00     0.049 A 
ATOM     56  C   UNL A   1      44.534  27.668  31.559  1.00  0.00     0.074 A 
ATOM     57  C   UNL A   1      42.206  28.908  25.599  1.00  0.00     0.029 A 
ATOM     58  N   UNL A   1      42.376  29.627  27.676  1.00  0.00    -0.354 N 
ATOM     59  N   UNL A   1      45.279  28.114  30.586  1.00  0.00    -0.248 NA
ATOM     60  C   UNL A   1      43.254  28.340  31.720  1.00  0.00     0.031 C 
ATOM     61  C   UNL A   1      43.563  28.820  26.030  1.00  0.00     0.029 A 
ATOM     62  C   UNL A   1      43.610  29.098  27.398  1.00  0.00     0.049 A 
ATOM     63  H   UNL A   1      42.167  30.250  28.409  1.00  0.00     0.167 HD
ATOM     64  C   UNL A   1      44.400  28.780  29.744  1.00  0.00     0.074 A 
ATOM     65  C   UNL A   1      43.185  28.966  30.541  1.00  0.00     0.031 C 
ATOM     66  C   UNL A   1      44.630  28.851  28.398  1.00  0.00     0.031 A 
BRANCH  53  67
ATOM     67  C   UNL A   1      39.296  29.576  28.045  1.00  0.00    -0.014 A 
ATOM     68  C   UNL A   1      39.704  30.012  29.322  1.00  0.00     0.010 A 
ATOM     69  C   UNL A   1      37.948  29.795  27.694  1.00  0.00     0.010 A 
ATOM     70  C   UNL A   1      38.791  30.568  30.226  1.00  0.00     0.020 A 
ATOM     71  C   UNL A   1      37.039  30.389  28.572  1.00  0.00     0.020 A 
ATOM     72  C   UNL A   1      37.461  30.743  29.845  1.00  0.00     0.054 A 
BRANCH  72  73
ATOM     73  S   UNL A   1      36.275  31.388  31.048  1.00  0.00     0.124 S 
ATOM     74  O   UNL A   1      35.170  31.801  30.189  1.00  0.00    -0.237 OA
ATOM     75  O   UNL A   1      36.025  30.218  31.887  1.00  0.00    -0.237 OA
ATOM     76  O   UNL A   1      37.005  32.472  31.701  1.00  0.00    -0.744 OA
ENDBRANCH  72  73
ENDBRANCH  53  67
BRANCH  54  77
ATOM     77  C   UNL A   1      44.756  26.051  33.592  1.00  0.00    -0.014 A 
ATOM     78  C   UNL A   1      45.894  26.431  34.332  1.00  0.00     0.010 A 
ATOM     79  C   UNL A   1      43.592  25.718  34.316  1.00  0.00     0.010 A 
ATOM     80  C   UNL A   1      45.843  26.554  35.734  1.00  0.00     0.020 A 
ATOM     81  C   UNL A   1      43.537  25.833  35.712  1.00  0.00     0.020 A 
ATOM     82  C   UNL A   1      44.654  26.278  36.414  1.00  0.00     0.054 A 
BRANCH  82  83
ATOM     83  S   UNL A   1      44.532  26.638  38.195  1.00  0.00     0.124 S 
ATOM     84  O   UNL A   1      44.817  28.068  38.245  1.00  0.00    -0.237 OA
ATOM     85  O   UNL A   1      43.157  26.257  38.504  1.00  0.00    -0.237 OA
ATOM     86  O   UNL A   1      45.556  25.780  38.789  1.00  0.00    -0.744 OA
ENDBRANCH  82  83
ENDBRANCH  54  77
BRANCH  66  87
ATOM     87  C   UNL A   1      46.001  28.473  27.880  1.00  0.00    -0.014 A 
ATOM     88  C   UNL A   1      46.378  27.179  27.467  1.00  0.00     0.010 A 
ATOM     89  C   UNL A   1      46.915  29.524  27.690  1.00  0.00     0.010 A 
ATOM     90  C   UNL A   1      47.652  26.943  26.921  1.00  0.00     0.020 A 
ATOM     91  C   UNL A   1      48.172  29.302  27.130  1.00  0.00     0.020 A 
ATOM     92  C   UNL A   1      48.544  28.009  26.764  1.00  0.00     0.054 A 
BRANCH  92  93
ATOM     93  S   UNL A   1      50.194  27.710  26.069  1.00  0.00     0.124 S 
ATOM     94  O   UNL A   1      51.069  28.368  27.036  1.00  0.00    -0.237 OA
ATOM     95  O   UNL A   1      50.275  26.252  26.037  1.00  0.00    -0.237 OA
ATOM     96  O   UNL A   1      50.139  28.348  24.754  1.00  0.00    -0.744 OA
ENDBRANCH  92  93
ENDBRANCH  66  87
ENDBRANCH  40  41
ENDBRANCH  32  35
ENDBRANCH  30  31
ENDBRANCH  29  30
ENDBRANCH   1  29
TORSDOF 18
ENDMDL
