MODEL 1
REMARK VINA RESULT:     -10.7      0.000      0.000
REMARK SMILES CC(C)Cc1ccc(S(=O)(=O)Nc2cnc(N3CCCC3)c(C(=O)NCCCCNC(=O)c3ccc(-c4c5nc(c(-c6ccc(S(=O)(=O)[O-])cc6)c6ccc([nH]6)c(-c6ccc(S(=O)(=O)[O-])cc6)c6nc(c(-c7ccc(S(=O)(=O)[O-])cc7)c7ccc4[nH]7)C=C6)C=C5)cc3)c2)cc1
REMARK SMILES IDX 26 1 25 2 23 3 24 4 22 6 13 7 14 8 93 9 15 10 16 11 12 12
REMARK SMILES IDX 9 14 10 15 11 16 8 17 5 18 6 19 95 20 7 21 94 22 4 23 2 24
REMARK SMILES IDX 1 25 3 26 17 27 18 28 21 29 19 30 20 31 27 32 28 33 29 34
REMARK SMILES IDX 30 35 31 36 32 38 33 39 34 40 92 41 35 42 91 43 36 44 37 45
REMARK SMILES IDX 38 46 85 47 39 48 90 49 84 50 86 51 40 52 89 53 83 54 82 55
REMARK SMILES IDX 41 57 71 58 52 59 70 60 53 61 56 62 69 63 87 64 54 65 55 66
REMARK SMILES IDX 68 68 88 69 57 70 42 71 43 72 51 73 44 74 50 75 45 76 46 77
REMARK SMILES IDX 47 78 48 79 49 80 72 81 73 82 81 83 74 84 80 85 75 86 76 87
REMARK SMILES IDX 77 88 78 89 79 90 58 91 59 92 67 93 60 94 66 95 61 96 62 97
REMARK SMILES IDX 63 98 64 99 65 100
REMARK H PARENT 25 5 12 13 30 37 86 56 56 67
REMARK Flexibility Score: inf
ROOT
ATOM      1  C   UNL A   1      32.307  27.615  26.847  1.00  0.00     0.116 C 
ENDROOT
BRANCH   1   2
ATOM      2  N   UNL A   1      31.097  26.825  26.872  1.00  0.00    -0.352 N 
ATOM      3  C   UNL A   1      30.613  25.752  26.168  1.00  0.00     0.255 C 
ATOM      4  O   UNL A   1      29.474  25.439  26.508  1.00  0.00    -0.269 OA
ATOM      5  H   UNL A   1      30.466  27.133  27.563  1.00  0.00     0.163 HD
BRANCH   3   6
ATOM      6  C   UNL A   1      31.401  24.975  25.141  1.00  0.00     0.084 A 
ATOM      7  C   UNL A   1      32.133  22.820  24.326  1.00  0.00     0.068 A 
ATOM      8  C   UNL A   1      32.299  23.399  23.084  1.00  0.00     0.140 A 
ATOM      9  C   UNL A   1      31.823  23.657  25.387  1.00  0.00     0.046 A 
ATOM     10  N   UNL A   1      32.055  24.697  22.829  1.00  0.00    -0.236 NA
ATOM     11  C   UNL A   1      31.593  25.489  23.836  1.00  0.00     0.141 A 
BRANCH   7  12
ATOM     12  N   UNL A   1      32.328  21.403  24.422  1.00  0.00    -0.278 N 
ATOM     13  H   UNL A   1      31.694  20.797  23.976  1.00  0.00     0.180 HD
BRANCH  12  14
ATOM     14  S   UNL A   1      33.634  20.748  25.294  1.00  0.00     0.261 S 
ATOM     15  O   UNL A   1      34.034  19.575  24.530  1.00  0.00    -0.201 OA
ATOM     16  O   UNL A   1      33.193  20.619  26.659  1.00  0.00    -0.201 OA
BRANCH  14  17
ATOM     17  C   UNL A   1      35.027  21.855  25.280  1.00  0.00     0.087 A 
ATOM     18  C   UNL A   1      37.343  23.402  25.645  1.00  0.00    -0.048 A 
ATOM     19  C   UNL A   1      36.246  23.565  26.498  1.00  0.00     0.005 A 
ATOM     20  C   UNL A   1      37.242  22.505  24.571  1.00  0.00     0.005 A 
ATOM     21  C   UNL A   1      35.097  22.791  26.323  1.00  0.00     0.022 A 
ATOM     22  C   UNL A   1      36.078  21.753  24.369  1.00  0.00     0.022 A 
BRANCH  18  23
ATOM     23  C   UNL A   1      38.623  24.171  25.891  1.00  0.00     0.038 C 
BRANCH  23  24
ATOM     24  C   UNL A   1      39.127  24.097  27.344  1.00  0.00    -0.013 C 
ATOM     25  C   UNL A   1      40.432  23.306  27.452  1.00  0.00     0.008 C 
ATOM     26  C   UNL A   1      39.335  25.510  27.897  1.00  0.00     0.008 C 
ENDBRANCH  23  24
ENDBRANCH  18  23
ENDBRANCH  14  17
ENDBRANCH  12  14
ENDBRANCH   7  12
BRANCH  11  27
ATOM     27  N   UNL A   1      31.308  26.764  23.452  1.00  0.00    -0.356 N 
ATOM     28  C   UNL A   1      32.301  27.747  23.060  1.00  0.00     0.118 C 
ATOM     29  C   UNL A   1      29.976  27.156  23.022  1.00  0.00     0.118 C 
ATOM     30  C   UNL A   1      31.496  29.036  23.168  1.00  0.00     0.023 C 
ATOM     31  C   UNL A   1      30.142  28.623  22.599  1.00  0.00     0.023 C 
ENDBRANCH  11  27
ENDBRANCH   3   6
ENDBRANCH   1   2
BRANCH   1  32
ATOM     32  C   UNL A   1      31.973  29.100  26.960  1.00  0.00     0.023 C 
BRANCH  32  33
ATOM     33  C   UNL A   1      33.068  30.017  26.400  1.00  0.00     0.023 C 
BRANCH  33  34
ATOM     34  C   UNL A   1      33.784  30.874  27.439  1.00  0.00     0.116 C 
BRANCH  34  35
ATOM     35  N   UNL A   1      33.203  32.200  27.580  1.00  0.00    -0.352 N 
ATOM     36  C   UNL A   1      33.622  33.234  28.380  1.00  0.00     0.251 C 
ATOM     37  H   UNL A   1      32.405  32.379  27.031  1.00  0.00     0.163 HD
ATOM     38  O   UNL A   1      32.958  34.261  28.461  1.00  0.00    -0.269 OA
BRANCH  36  39
ATOM     39  C   UNL A   1      34.860  33.078  29.166  1.00  0.00     0.039 A 
ATOM     40  C   UNL A   1      34.844  32.243  30.287  1.00  0.00     0.014 A 
ATOM     41  C   UNL A   1      36.036  33.731  28.784  1.00  0.00     0.014 A 
ATOM     42  C   UNL A   1      36.024  32.019  30.995  1.00  0.00     0.010 A 
ATOM     43  C   UNL A   1      37.222  33.466  29.461  1.00  0.00     0.010 A 
ATOM     44  C   UNL A   1      37.226  32.608  30.572  1.00  0.00    -0.014 A 
BRANCH  44  45
ATOM     45  C   UNL A   1      38.500  32.336  31.280  1.00  0.00     0.031 A 
ATOM     46  C   UNL A   1      39.495  31.374  30.697  1.00  0.00     0.074 A 
ATOM     47  C   UNL A   1      38.731  32.910  32.477  1.00  0.00     0.049 A 
ATOM     48  N   UNL A   1      40.638  30.972  31.191  1.00  0.00    -0.248 NA
ATOM     49  C   UNL A   1      39.150  30.764  29.403  1.00  0.00     0.031 C 
ATOM     50  C   UNL A   1      37.819  33.826  33.168  1.00  0.00     0.029 A 
ATOM     51  N   UNL A   1      39.800  32.801  33.328  1.00  0.00    -0.354 N 
ATOM     52  C   UNL A   1      41.139  30.049  30.280  1.00  0.00     0.074 A 
ATOM     53  C   UNL A   1      40.159  29.922  29.225  1.00  0.00     0.031 C 
ATOM     54  C   UNL A   1      38.379  34.210  34.326  1.00  0.00     0.029 A 
ATOM     55  C   UNL A   1      39.673  33.550  34.473  1.00  0.00     0.049 A 
ATOM     56  H   UNL A   1      40.586  32.239  33.137  1.00  0.00     0.167 HD
ATOM     57  C   UNL A   1      42.317  29.380  30.312  1.00  0.00     0.031 A 
ATOM     58  C   UNL A   1      40.504  33.690  35.523  1.00  0.00     0.031 A 
ATOM     59  C   UNL A   1      43.299  29.522  31.353  1.00  0.00     0.049 A 
ATOM     60  C   UNL A   1      41.818  32.959  35.522  1.00  0.00     0.074 A 
ATOM     61  C   UNL A   1      44.545  28.930  31.447  1.00  0.00     0.029 A 
ATOM     62  N   UNL A   1      43.145  30.316  32.479  1.00  0.00    -0.354 N 
ATOM     63  N   UNL A   1      42.300  32.136  34.622  1.00  0.00    -0.248 NA
ATOM     64  C   UNL A   1      42.704  33.189  36.671  1.00  0.00     0.031 C 
ATOM     65  C   UNL A   1      45.135  29.343  32.647  1.00  0.00     0.029 A 
ATOM     66  C   UNL A   1      44.271  30.223  33.279  1.00  0.00     0.049 A 
ATOM     67  H   UNL A   1      42.354  30.866  32.679  1.00  0.00     0.167 HD
ATOM     68  C   UNL A   1      43.557  31.766  35.085  1.00  0.00     0.074 A 
ATOM     69  C   UNL A   1      43.765  32.464  36.339  1.00  0.00     0.031 C 
ATOM     70  C   UNL A   1      44.459  30.924  34.523  1.00  0.00     0.031 A 
BRANCH  57  71
ATOM     71  C   UNL A   1      42.598  28.430  29.180  1.00  0.00    -0.014 A 
ATOM     72  C   UNL A   1      42.379  27.048  29.325  1.00  0.00     0.010 A 
ATOM     73  C   UNL A   1      43.073  28.924  27.953  1.00  0.00     0.010 A 
ATOM     74  C   UNL A   1      42.676  26.171  28.279  1.00  0.00     0.020 A 
ATOM     75  C   UNL A   1      43.349  28.054  26.895  1.00  0.00     0.020 A 
ATOM     76  C   UNL A   1      43.169  26.679  27.073  1.00  0.00     0.054 A 
BRANCH  76  77
ATOM     77  S   UNL A   1      43.544  25.523  25.727  1.00  0.00     0.124 S 
ATOM     78  O   UNL A   1      42.323  25.588  24.928  1.00  0.00    -0.237 OA
ATOM     79  O   UNL A   1      44.730  26.114  25.112  1.00  0.00    -0.237 OA
ATOM     80  O   UNL A   1      43.772  24.254  26.415  1.00  0.00    -0.744 OA
ENDBRANCH  76  77
ENDBRANCH  57  71
BRANCH  58  81
ATOM     81  C   UNL A   1      40.130  34.586  36.648  1.00  0.00    -0.014 A 
ATOM     82  C   UNL A   1      39.324  34.110  37.696  1.00  0.00     0.010 A 
ATOM     83  C   UNL A   1      40.598  35.912  36.689  1.00  0.00     0.010 A 
ATOM     84  C   UNL A   1      38.979  34.947  38.760  1.00  0.00     0.020 A 
ATOM     85  C   UNL A   1      40.271  36.746  37.763  1.00  0.00     0.020 A 
ATOM     86  C   UNL A   1      39.456  36.261  38.786  1.00  0.00     0.054 A 
BRANCH  86  87
ATOM     87  S   UNL A   1      39.048  37.314  40.207  1.00  0.00     0.124 S 
ATOM     88  O   UNL A   1      38.360  36.377  41.091  1.00  0.00    -0.237 OA
ATOM     89  O   UNL A   1      40.362  37.764  40.660  1.00  0.00    -0.237 OA
ATOM     90  O   UNL A   1      38.209  38.359  39.624  1.00  0.00    -0.744 OA
ENDBRANCH  86  87
ENDBRANCH  58  81
BRANCH  70  91
ATOM     91  C   UNL A   1      45.764  30.734  35.244  1.00  0.00    -0.014 A 
ATOM     92  C   UNL A   1      45.957  29.653  36.121  1.00  0.00     0.010 A 
ATOM     93  C   UNL A   1      46.827  31.624  35.002  1.00  0.00     0.010 A 
ATOM     94  C   UNL A   1      47.184  29.480  36.766  1.00  0.00     0.020 A 
ATOM     95  C   UNL A   1      48.061  31.442  35.629  1.00  0.00     0.020 A 
ATOM     96  C   UNL A   1      48.227  30.377  36.519  1.00  0.00     0.054 A 
BRANCH  96  97
ATOM     97  S   UNL A   1      49.826  30.110  37.333  1.00  0.00     0.124 S 
ATOM     98  O   UNL A   1      50.744  30.089  36.197  1.00  0.00    -0.237 OA
ATOM     99  O   UNL A   1      49.941  31.270  38.213  1.00  0.00    -0.237 OA
ATOM    100  O   UNL A   1      49.655  28.832  38.019  1.00  0.00    -0.744 OA
ENDBRANCH  96  97
ENDBRANCH  70  91
ENDBRANCH  44  45
ENDBRANCH  36  39
ENDBRANCH  34  35
ENDBRANCH  33  34
ENDBRANCH  32  33
ENDBRANCH   1  32
TORSDOF 20
ENDMDL
MODEL 2
REMARK VINA RESULT:     -10.7      1.686      2.722
REMARK SMILES CC(C)Cc1ccc(S(=O)(=O)Nc2cnc(N3CCCC3)c(C(=O)NCCCCNC(=O)c3ccc(-c4c5nc(c(-c6ccc(S(=O)(=O)[O-])cc6)c6ccc([nH]6)c(-c6ccc(S(=O)(=O)[O-])cc6)c6nc(c(-c7ccc(S(=O)(=O)[O-])cc7)c7ccc4[nH]7)C=C6)C=C5)cc3)c2)cc1
REMARK SMILES IDX 26 1 25 2 23 3 24 4 22 6 13 7 14 8 93 9 15 10 16 11 12 12
REMARK SMILES IDX 9 14 10 15 11 16 8 17 5 18 6 19 95 20 7 21 94 22 4 23 2 24
REMARK SMILES IDX 1 25 3 26 17 27 18 28 21 29 19 30 20 31 27 32 28 33 29 34
REMARK SMILES IDX 30 35 31 36 32 38 33 39 34 40 92 41 35 42 91 43 36 44 37 45
REMARK SMILES IDX 38 46 85 47 39 48 90 49 84 50 86 51 40 52 89 53 83 54 82 55
REMARK SMILES IDX 41 57 71 58 52 59 70 60 53 61 56 62 69 63 87 64 54 65 55 66
REMARK SMILES IDX 68 68 88 69 57 70 42 71 43 72 51 73 44 74 50 75 45 76 46 77
REMARK SMILES IDX 47 78 48 79 49 80 72 81 73 82 81 83 74 84 80 85 75 86 76 87
REMARK SMILES IDX 77 88 78 89 79 90 58 91 59 92 67 93 60 94 66 95 61 96 62 97
REMARK SMILES IDX 63 98 64 99 65 100
REMARK H PARENT 25 5 12 13 30 37 86 56 56 67
REMARK Flexibility Score: inf
ROOT
ATOM      1  C   UNL A   1      32.225  28.240  27.434  1.00  0.00     0.116 C 
ENDROOT
BRANCH   1   2
ATOM      2  N   UNL A   1      31.254  27.221  27.109  1.00  0.00    -0.352 N 
ATOM      3  C   UNL A   1      31.013  26.404  26.033  1.00  0.00     0.255 C 
ATOM      4  O   UNL A   1      30.009  25.710  26.182  1.00  0.00    -0.269 OA
ATOM      5  H   UNL A   1      30.606  27.079  27.837  1.00  0.00     0.163 HD
BRANCH   3   6
ATOM      6  C   UNL A   1      31.910  26.294  24.824  1.00  0.00     0.084 A 
ATOM      7  C   UNL A   1      33.490  24.967  23.564  1.00  0.00     0.068 A 
ATOM      8  C   UNL A   1      33.140  25.697  22.446  1.00  0.00     0.140 A 
ATOM      9  C   UNL A   1      32.973  25.376  24.784  1.00  0.00     0.046 A 
ATOM     10  N   UNL A   1      32.235  26.692  22.460  1.00  0.00    -0.236 NA
ATOM     11  C   UNL A   1      31.604  26.990  23.630  1.00  0.00     0.141 A 
BRANCH   7  12
ATOM     12  N   UNL A   1      34.389  23.866  23.375  1.00  0.00    -0.278 N 
ATOM     13  H   UNL A   1      34.570  23.543  22.463  1.00  0.00     0.180 HD
BRANCH  12  14
ATOM     14  S   UNL A   1      35.146  23.106  24.696  1.00  0.00     0.261 S 
ATOM     15  O   UNL A   1      34.548  23.728  25.869  1.00  0.00    -0.201 OA
ATOM     16  O   UNL A   1      36.564  23.194  24.463  1.00  0.00    -0.201 OA
BRANCH  14  17
ATOM     17  C   UNL A   1      34.717  21.381  24.768  1.00  0.00     0.087 A 
ATOM     18  C   UNL A   1      33.969  18.694  24.435  1.00  0.00    -0.048 A 
ATOM     19  C   UNL A   1      33.019  19.712  24.290  1.00  0.00     0.005 A 
ATOM     20  C   UNL A   1      35.277  19.033  24.811  1.00  0.00     0.005 A 
ATOM     21  C   UNL A   1      33.392  21.049  24.447  1.00  0.00     0.022 A 
ATOM     22  C   UNL A   1      35.646  20.370  25.005  1.00  0.00     0.022 A 
BRANCH  18  23
ATOM     23  C   UNL A   1      33.588  17.253  24.172  1.00  0.00     0.038 C 
BRANCH  23  24
ATOM     24  C   UNL A   1      33.862  16.307  25.356  1.00  0.00    -0.013 C 
ATOM     25  C   UNL A   1      32.830  15.181  25.433  1.00  0.00     0.008 C 
ATOM     26  C   UNL A   1      35.267  15.711  25.233  1.00  0.00     0.008 C 
ENDBRANCH  23  24
ENDBRANCH  18  23
ENDBRANCH  14  17
ENDBRANCH  12  14
ENDBRANCH   7  12
BRANCH  11  27
ATOM     27  N   UNL A   1      30.655  27.961  23.517  1.00  0.00    -0.356 N 
ATOM     28  C   UNL A   1      30.939  29.367  23.302  1.00  0.00     0.118 C 
ATOM     29  C   UNL A   1      29.270  27.647  23.209  1.00  0.00     0.118 C 
ATOM     30  C   UNL A   1      29.606  29.997  23.687  1.00  0.00     0.023 C 
ATOM     31  C   UNL A   1      28.599  29.022  23.084  1.00  0.00     0.023 C 
ENDBRANCH  11  27
ENDBRANCH   3   6
ENDBRANCH   1   2
BRANCH   1  32
ATOM     32  C   UNL A   1      31.760  29.600  26.920  1.00  0.00     0.023 C 
BRANCH  32  33
ATOM     33  C   UNL A   1      32.906  30.495  26.433  1.00  0.00     0.023 C 
BRANCH  33  34
ATOM     34  C   UNL A   1      33.627  31.271  27.530  1.00  0.00     0.116 C 
BRANCH  34  35
ATOM     35  N   UNL A   1      33.096  32.612  27.720  1.00  0.00    -0.352 N 
ATOM     36  C   UNL A   1      33.549  33.597  28.562  1.00  0.00     0.251 C 
ATOM     37  H   UNL A   1      32.310  32.843  27.174  1.00  0.00     0.163 HD
ATOM     38  O   UNL A   1      32.925  34.645  28.680  1.00  0.00    -0.269 OA
BRANCH  36  39
ATOM     39  C   UNL A   1      34.775  33.362  29.349  1.00  0.00     0.039 A 
ATOM     40  C   UNL A   1      34.718  32.485  30.435  1.00  0.00     0.014 A 
ATOM     41  C   UNL A   1      35.978  33.984  28.999  1.00  0.00     0.014 A 
ATOM     42  C   UNL A   1      35.884  32.189  31.141  1.00  0.00     0.010 A 
ATOM     43  C   UNL A   1      37.148  33.648  29.672  1.00  0.00     0.010 A 
ATOM     44  C   UNL A   1      37.111  32.747  30.748  1.00  0.00    -0.014 A 
BRANCH  44  45
ATOM     45  C   UNL A   1      38.369  32.398  31.452  1.00  0.00     0.031 A 
ATOM     46  C   UNL A   1      39.304  31.381  30.864  1.00  0.00     0.074 A 
ATOM     47  C   UNL A   1      38.636  32.954  32.650  1.00  0.00     0.049 A 
ATOM     48  N   UNL A   1      40.423  30.911  31.353  1.00  0.00    -0.248 NA
ATOM     49  C   UNL A   1      38.920  30.796  29.569  1.00  0.00     0.031 C 
ATOM     50  C   UNL A   1      37.782  33.920  33.346  1.00  0.00     0.029 A 
ATOM     51  N   UNL A   1      39.699  32.779  33.498  1.00  0.00    -0.354 N 
ATOM     52  C   UNL A   1      40.866  29.963  30.439  1.00  0.00     0.074 A 
ATOM     53  C   UNL A   1      39.877  29.897  29.385  1.00  0.00     0.031 C 
ATOM     54  C   UNL A   1      38.366  34.267  34.504  1.00  0.00     0.029 A 
ATOM     55  C   UNL A   1      39.619  33.531  34.645  1.00  0.00     0.049 A 
ATOM     56  H   UNL A   1      40.450  32.173  33.303  1.00  0.00     0.167 HD
ATOM     57  C   UNL A   1      42.002  29.226  30.465  1.00  0.00     0.031 A 
ATOM     58  C   UNL A   1      40.460  33.619  35.693  1.00  0.00     0.031 A 
ATOM     59  C   UNL A   1      42.993  29.306  31.504  1.00  0.00     0.049 A 
ATOM     60  C   UNL A   1      41.728  32.812  35.686  1.00  0.00     0.074 A 
ATOM     61  C   UNL A   1      44.203  28.642  31.593  1.00  0.00     0.029 A 
ATOM     62  N   UNL A   1      42.890  30.105  32.632  1.00  0.00    -0.354 N 
ATOM     63  N   UNL A   1      42.159  31.965  34.783  1.00  0.00    -0.248 NA
ATOM     64  C   UNL A   1      42.630  32.986  36.834  1.00  0.00     0.031 C 
ATOM     65  C   UNL A   1      44.820  29.015  32.793  1.00  0.00     0.029 A 
ATOM     66  C   UNL A   1      44.010  29.943  33.429  1.00  0.00     0.049 A 
ATOM     67  H   UNL A   1      42.133  30.700  32.836  1.00  0.00     0.167 HD
ATOM     68  C   UNL A   1      43.393  31.520  35.242  1.00  0.00     0.074 A 
ATOM     69  C   UNL A   1      43.645  32.201  36.497  1.00  0.00     0.031 C 
ATOM     70  C   UNL A   1      44.243  30.628  34.675  1.00  0.00     0.031 A 
BRANCH  57  71
ATOM     71  C   UNL A   1      42.224  28.264  29.330  1.00  0.00    -0.014 A 
ATOM     72  C   UNL A   1      42.799  28.695  28.120  1.00  0.00     0.010 A 
ATOM     73  C   UNL A   1      41.868  26.912  29.478  1.00  0.00     0.010 A 
ATOM     74  C   UNL A   1      42.969  27.800  27.060  1.00  0.00     0.020 A 
ATOM     75  C   UNL A   1      42.059  26.008  28.429  1.00  0.00     0.020 A 
ATOM     76  C   UNL A   1      42.588  26.464  27.218  1.00  0.00     0.054 A 
BRANCH  76  77
ATOM     77  S   UNL A   1      42.821  25.319  25.830  1.00  0.00     0.124 S 
ATOM     78  O   UNL A   1      42.601  26.195  24.682  1.00  0.00    -0.237 OA
ATOM     79  O   UNL A   1      44.195  24.860  26.016  1.00  0.00    -0.237 OA
ATOM     80  O   UNL A   1      41.794  24.303  26.045  1.00  0.00    -0.744 OA
ENDBRANCH  76  77
ENDBRANCH  57  71
BRANCH  58  81
ATOM     81  C   UNL A   1      40.142  34.532  36.821  1.00  0.00    -0.014 A 
ATOM     82  C   UNL A   1      40.590  35.864  36.804  1.00  0.00     0.010 A 
ATOM     83  C   UNL A   1      39.370  34.082  37.907  1.00  0.00     0.010 A 
ATOM     84  C   UNL A   1      40.284  36.727  37.859  1.00  0.00     0.020 A 
ATOM     85  C   UNL A   1      39.044  34.948  38.955  1.00  0.00     0.020 A 
ATOM     86  C   UNL A   1      39.512  36.263  38.928  1.00  0.00     0.054 A 
BRANCH  86  87
ATOM     87  S   UNL A   1      39.072  37.416  40.260  1.00  0.00     0.124 S 
ATOM     88  O   UNL A   1      38.401  36.537  41.212  1.00  0.00    -0.237 OA
ATOM     89  O   UNL A   1      40.374  37.930  40.680  1.00  0.00    -0.237 OA
ATOM     90  O   UNL A   1      38.214  38.393  39.592  1.00  0.00    -0.744 OA
ENDBRANCH  86  87
ENDBRANCH  58  81
BRANCH  70  91
ATOM     91  C   UNL A   1      45.536  30.360  35.392  1.00  0.00    -0.014 A 
ATOM     92  C   UNL A   1      46.672  31.154  35.159  1.00  0.00     0.010 A 
ATOM     93  C   UNL A   1      45.599  29.330  36.348  1.00  0.00     0.010 A 
ATOM     94  C   UNL A   1      47.860  30.903  35.851  1.00  0.00     0.020 A 
ATOM     95  C   UNL A   1      46.778  29.090  37.056  1.00  0.00     0.020 A 
ATOM     96  C   UNL A   1      47.907  29.871  36.792  1.00  0.00     0.054 A 
BRANCH  96  97
ATOM     97  S   UNL A   1      49.445  29.591  37.712  1.00  0.00     0.124 S 
ATOM     98  O   UNL A   1      50.458  29.884  36.703  1.00  0.00    -0.237 OA
ATOM     99  O   UNL A   1      49.350  30.554  38.806  1.00  0.00    -0.237 OA
ATOM    100  O   UNL A   1      49.354  28.189  38.116  1.00  0.00    -0.744 OA
ENDBRANCH  96  97
ENDBRANCH  70  91
ENDBRANCH  44  45
ENDBRANCH  36  39
ENDBRANCH  34  35
ENDBRANCH  33  34
ENDBRANCH  32  33
ENDBRANCH   1  32
TORSDOF 20
ENDMDL
MODEL 3
REMARK VINA RESULT:     -10.6      1.527      8.016
REMARK SMILES CC(C)Cc1ccc(S(=O)(=O)Nc2cnc(N3CCCC3)c(C(=O)NCCCCNC(=O)c3ccc(-c4c5nc(c(-c6ccc(S(=O)(=O)[O-])cc6)c6ccc([nH]6)c(-c6ccc(S(=O)(=O)[O-])cc6)c6nc(c(-c7ccc(S(=O)(=O)[O-])cc7)c7ccc4[nH]7)C=C6)C=C5)cc3)c2)cc1
REMARK SMILES IDX 26 1 25 2 23 3 24 4 22 6 13 7 14 8 93 9 15 10 16 11 12 12
REMARK SMILES IDX 9 14 10 15 11 16 8 17 5 18 6 19 95 20 7 21 94 22 4 23 2 24
REMARK SMILES IDX 1 25 3 26 17 27 18 28 21 29 19 30 20 31 27 32 28 33 29 34
REMARK SMILES IDX 30 35 31 36 32 38 33 39 34 40 92 41 35 42 91 43 36 44 37 45
REMARK SMILES IDX 38 46 85 47 39 48 90 49 84 50 86 51 40 52 89 53 83 54 82 55
REMARK SMILES IDX 41 57 71 58 52 59 70 60 53 61 56 62 69 63 87 64 54 65 55 66
REMARK SMILES IDX 68 68 88 69 57 70 42 71 43 72 51 73 44 74 50 75 45 76 46 77
REMARK SMILES IDX 47 78 48 79 49 80 72 81 73 82 81 83 74 84 80 85 75 86 76 87
REMARK SMILES IDX 77 88 78 89 79 90 58 91 59 92 67 93 60 94 66 95 61 96 62 97
REMARK SMILES IDX 63 98 64 99 65 100
REMARK H PARENT 25 5 12 13 30 37 86 56 56 67
REMARK Flexibility Score: inf
ROOT
ATOM      1  C   UNL A   1      32.462  27.412  26.851  1.00  0.00     0.116 C 
ENDROOT
BRANCH   1   2
ATOM      2  N   UNL A   1      31.379  26.456  26.872  1.00  0.00    -0.352 N 
ATOM      3  C   UNL A   1      30.991  25.397  26.090  1.00  0.00     0.255 C 
ATOM      4  O   UNL A   1      29.937  24.891  26.469  1.00  0.00    -0.269 OA
ATOM      5  H   UNL A   1      30.769  26.601  27.632  1.00  0.00     0.163 HD
BRANCH   3   6
ATOM      6  C   UNL A   1      31.793  24.847  24.936  1.00  0.00     0.084 A 
ATOM      7  C   UNL A   1      32.780  22.915  23.869  1.00  0.00     0.068 A 
ATOM      8  C   UNL A   1      32.733  23.608  22.675  1.00  0.00     0.140 A 
ATOM      9  C   UNL A   1      32.442  23.603  25.024  1.00  0.00     0.046 A 
ATOM     10  N   UNL A   1      32.260  24.862  22.562  1.00  0.00    -0.236 NA
ATOM     11  C   UNL A   1      31.774  25.485  23.672  1.00  0.00     0.141 A 
BRANCH   7  12
ATOM     12  N   UNL A   1      33.209  21.548  23.818  1.00  0.00    -0.278 N 
ATOM     13  H   UNL A   1      32.983  21.000  23.032  1.00  0.00     0.180 HD
BRANCH  12  14
ATOM     14  S   UNL A   1      34.101  20.853  25.089  1.00  0.00     0.261 S 
ATOM     15  O   UNL A   1      34.373  19.493  24.647  1.00  0.00    -0.201 OA
ATOM     16  O   UNL A   1      33.352  21.095  26.296  1.00  0.00    -0.201 OA
BRANCH  14  17
ATOM     17  C   UNL A   1      35.682  21.650  25.266  1.00  0.00     0.087 A 
ATOM     18  C   UNL A   1      38.099  22.883  25.991  1.00  0.00    -0.048 A 
ATOM     19  C   UNL A   1      36.883  23.546  26.192  1.00  0.00     0.005 A 
ATOM     20  C   UNL A   1      38.094  21.628  25.365  1.00  0.00     0.005 A 
ATOM     21  C   UNL A   1      35.680  22.930  25.840  1.00  0.00     0.022 A 
ATOM     22  C   UNL A   1      36.892  21.023  24.977  1.00  0.00     0.022 A 
BRANCH  18  23
ATOM     23  C   UNL A   1      39.395  23.509  26.459  1.00  0.00     0.038 C 
BRANCH  23  24
ATOM     24  C   UNL A   1      39.269  24.994  26.848  1.00  0.00    -0.013 C 
ATOM     25  C   UNL A   1      39.288  25.186  28.366  1.00  0.00     0.008 C 
ATOM     26  C   UNL A   1      40.405  25.798  26.212  1.00  0.00     0.008 C 
ENDBRANCH  23  24
ENDBRANCH  18  23
ENDBRANCH  14  17
ENDBRANCH  12  14
ENDBRANCH   7  12
BRANCH  11  27
ATOM     27  N   UNL A   1      31.253  26.720  23.432  1.00  0.00    -0.356 N 
ATOM     28  C   UNL A   1      32.032  27.880  23.041  1.00  0.00     0.118 C 
ATOM     29  C   UNL A   1      29.839  26.916  23.160  1.00  0.00     0.118 C 
ATOM     30  C   UNL A   1      31.048  29.006  23.337  1.00  0.00     0.023 C 
ATOM     31  C   UNL A   1      29.725  28.416  22.858  1.00  0.00     0.023 C 
ENDBRANCH  11  27
ENDBRANCH   3   6
ENDBRANCH   1   2
BRANCH   1  32
ATOM     32  C   UNL A   1      31.931  28.822  27.092  1.00  0.00     0.023 C 
BRANCH  32  33
ATOM     33  C   UNL A   1      32.739  29.911  26.376  1.00  0.00     0.023 C 
BRANCH  33  34
ATOM     34  C   UNL A   1      33.897  30.490  27.182  1.00  0.00     0.116 C 
BRANCH  34  35
ATOM     35  N   UNL A   1      33.686  31.878  27.562  1.00  0.00    -0.352 N 
ATOM     36  C   UNL A   1      34.414  32.642  28.440  1.00  0.00     0.251 C 
ATOM     37  H   UNL A   1      32.922  32.328  27.134  1.00  0.00     0.163 HD
ATOM     38  O   UNL A   1      34.044  33.773  28.730  1.00  0.00    -0.269 OA
BRANCH  36  39
ATOM     39  C   UNL A   1      35.627  32.070  29.056  1.00  0.00     0.039 A 
ATOM     40  C   UNL A   1      36.866  32.642  28.757  1.00  0.00     0.014 A 
ATOM     41  C   UNL A   1      35.537  30.992  29.942  1.00  0.00     0.014 A 
ATOM     42  C   UNL A   1      38.013  32.168  29.392  1.00  0.00     0.010 A 
ATOM     43  C   UNL A   1      36.675  30.554  30.612  1.00  0.00     0.010 A 
ATOM     44  C   UNL A   1      37.922  31.138  30.342  1.00  0.00    -0.014 A 
BRANCH  44  45
ATOM     45  C   UNL A   1      39.125  30.661  31.068  1.00  0.00     0.031 A 
ATOM     46  C   UNL A   1      39.483  31.250  32.402  1.00  0.00     0.074 A 
ATOM     47  C   UNL A   1      39.924  29.740  30.494  1.00  0.00     0.049 A 
ATOM     48  N   UNL A   1      40.518  30.997  33.162  1.00  0.00    -0.248 NA
ATOM     49  C   UNL A   1      38.576  32.275  32.940  1.00  0.00     0.031 C 
ATOM     50  C   UNL A   1      39.707  29.128  29.181  1.00  0.00     0.029 A 
ATOM     51  N   UNL A   1      41.086  29.165  30.940  1.00  0.00    -0.354 N 
ATOM     52  C   UNL A   1      40.397  31.844  34.257  1.00  0.00     0.074 A 
ATOM     53  C   UNL A   1      39.211  32.644  34.044  1.00  0.00     0.031 C 
ATOM     54  C   UNL A   1      40.691  28.247  28.939  1.00  0.00     0.029 A 
ATOM     55  C   UNL A   1      41.622  28.253  30.063  1.00  0.00     0.049 A 
ATOM     56  H   UNL A   1      41.498  29.384  31.807  1.00  0.00     0.167 HD
ATOM     57  C   UNL A   1      41.193  31.936  35.350  1.00  0.00     0.031 A 
ATOM     58  C   UNL A   1      42.738  27.504  30.154  1.00  0.00     0.031 A 
ATOM     59  C   UNL A   1      42.361  31.126  35.568  1.00  0.00     0.049 A 
ATOM     60  C   UNL A   1      43.589  27.603  31.389  1.00  0.00     0.074 A 
ATOM     61  C   UNL A   1      43.201  31.105  36.667  1.00  0.00     0.029 A 
ATOM     62  N   UNL A   1      42.852  30.190  34.671  1.00  0.00    -0.354 N 
ATOM     63  N   UNL A   1      43.426  28.367  32.442  1.00  0.00    -0.248 NA
ATOM     64  C   UNL A   1      44.767  26.727  31.453  1.00  0.00     0.031 C 
ATOM     65  C   UNL A   1      44.219  30.177  36.421  1.00  0.00     0.029 A 
ATOM     66  C   UNL A   1      43.989  29.593  35.186  1.00  0.00     0.049 A 
ATOM     67  H   UNL A   1      42.450  29.981  33.797  1.00  0.00     0.167 HD
ATOM     68  C   UNL A   1      44.468  28.049  33.304  1.00  0.00     0.074 A 
ATOM     69  C   UNL A   1      45.248  27.014  32.655  1.00  0.00     0.031 C 
ATOM     70  C   UNL A   1      44.753  28.566  34.525  1.00  0.00     0.031 A 
BRANCH  57  71
ATOM     71  C   UNL A   1      40.818  32.956  36.389  1.00  0.00    -0.014 A 
ATOM     72  C   UNL A   1      41.325  34.267  36.330  1.00  0.00     0.010 A 
ATOM     73  C   UNL A   1      39.939  32.607  37.429  1.00  0.00     0.010 A 
ATOM     74  C   UNL A   1      40.997  35.197  37.320  1.00  0.00     0.020 A 
ATOM     75  C   UNL A   1      39.589  33.541  38.408  1.00  0.00     0.020 A 
ATOM     76  C   UNL A   1      40.138  34.825  38.359  1.00  0.00     0.054 A 
BRANCH  76  77
ATOM     77  S   UNL A   1      39.724  36.049  39.631  1.00  0.00     0.124 S 
ATOM     78  O   UNL A   1      39.483  37.245  38.828  1.00  0.00    -0.237 OA
ATOM     79  O   UNL A   1      38.543  35.470  40.266  1.00  0.00    -0.237 OA
ATOM     80  O   UNL A   1      40.919  36.092  40.470  1.00  0.00    -0.744 OA
ENDBRANCH  76  77
ENDBRANCH  57  71
BRANCH  58  81
ATOM     81  C   UNL A   1      43.093  26.571  29.055  1.00  0.00    -0.014 A 
ATOM     82  C   UNL A   1      42.731  25.215  29.130  1.00  0.00     0.010 A 
ATOM     83  C   UNL A   1      43.774  27.037  27.916  1.00  0.00     0.010 A 
ATOM     84  C   UNL A   1      43.055  24.337  28.092  1.00  0.00     0.020 A 
ATOM     85  C   UNL A   1      44.082  26.166  26.866  1.00  0.00     0.020 A 
ATOM     86  C   UNL A   1      43.729  24.819  26.966  1.00  0.00     0.054 A 
BRANCH  86  87
ATOM     87  S   UNL A   1      44.087  23.677  25.601  1.00  0.00     0.124 S 
ATOM     88  O   UNL A   1      42.749  23.245  25.209  1.00  0.00    -0.237 OA
ATOM     89  O   UNL A   1      44.783  24.532  24.643  1.00  0.00    -0.237 OA
ATOM     90  O   UNL A   1      44.920  22.653  26.227  1.00  0.00    -0.744 OA
ENDBRANCH  86  87
ENDBRANCH  58  81
BRANCH  70  91
ATOM     91  C   UNL A   1      45.941  28.000  35.250  1.00  0.00    -0.014 A 
ATOM     92  C   UNL A   1      47.213  28.583  35.123  1.00  0.00     0.010 A 
ATOM     93  C   UNL A   1      45.771  26.899  36.110  1.00  0.00     0.010 A 
ATOM     94  C   UNL A   1      48.303  28.057  35.822  1.00  0.00     0.020 A 
ATOM     95  C   UNL A   1      46.853  26.384  36.825  1.00  0.00     0.020 A 
ATOM     96  C   UNL A   1      48.117  26.959  36.666  1.00  0.00     0.054 A 
BRANCH  96  97
ATOM     97  S   UNL A   1      49.535  26.318  37.598  1.00  0.00     0.124 S 
ATOM     98  O   UNL A   1      49.846  25.091  36.871  1.00  0.00    -0.237 OA
ATOM     99  O   UNL A   1      50.518  27.391  37.471  1.00  0.00    -0.237 OA
ATOM    100  O   UNL A   1      49.003  26.127  38.946  1.00  0.00    -0.744 OA
ENDBRANCH  96  97
ENDBRANCH  70  91
ENDBRANCH  44  45
ENDBRANCH  36  39
ENDBRANCH  34  35
ENDBRANCH  33  34
ENDBRANCH  32  33
ENDBRANCH   1  32
TORSDOF 20
ENDMDL
