MODEL 1
REMARK VINA RESULT:     -11.1      0.000      0.000
REMARK SMILES O=C(Cc1cncnc1N1CCC2(CC1)OCCC[C@@H]2O)NCCCCNC(=O)c1ccc(-c2c3nc(c(-c4ccc(S(=O)(=O)[O-])cc4)c4ccc([nH]4)c(-c4ccc(S(=O)(=O)[O-])cc4)c4nc(c(-c5ccc(S(=O)(=O)[O-])cc5)c5ccc2[nH]5)C=C4)C=C3)cc1
REMARK SMILES IDX 24 1 23 2 22 3 1 4 2 5 3 7 4 8 5 9 9 10 6 11 8 12 7 13 10 14
REMARK SMILES IDX 11 15 15 16 12 17 14 18 13 19 16 20 20 21 17 22 19 23 18 24
REMARK SMILES IDX 21 25 25 27 26 28 27 29 28 30 29 32 30 33 31 34 89 35 32 36
REMARK SMILES IDX 88 37 33 38 34 39 35 40 82 41 36 42 87 43 81 44 83 45 37 46
REMARK SMILES IDX 86 47 80 48 79 49 38 51 68 52 49 53 67 54 50 55 53 56 66 57
REMARK SMILES IDX 84 58 51 59 52 60 65 62 85 63 54 64 39 65 40 66 48 67 41 68
REMARK SMILES IDX 47 69 42 70 43 71 44 72 45 73 46 74 69 75 70 76 78 77 71 78
REMARK SMILES IDX 77 79 72 80 73 81 74 82 75 83 76 84 55 85 56 86 64 87 57 88
REMARK SMILES IDX 63 89 58 90 59 91 60 92 61 93 62 94
REMARK H PARENT 22 6 21 26 27 31 83 50 53 61
REMARK Flexibility Score: inf
ROOT
ATOM      1  C   UNL A   1      39.655  22.903  26.636  1.00  0.00     0.023 C 
ENDROOT
BRANCH   1   2
ATOM      2  C   UNL A   1      38.568  23.854  26.158  1.00  0.00     0.116 C 
BRANCH   2   3
ATOM      3  N   UNL A   1      37.764  23.390  25.031  1.00  0.00    -0.356 N 
ATOM      4  O   UNL A   1      35.756  23.763  26.057  1.00  0.00    -0.275 OA
ATOM      5  C   UNL A   1      36.394  23.549  25.022  1.00  0.00     0.224 C 
ATOM      6  H   UNL A   1      38.207  22.956  24.266  1.00  0.00     0.163 HD
BRANCH   5   7
ATOM      7  C   UNL A   1      35.665  23.359  23.707  1.00  0.00     0.141 C 
BRANCH   7   8
ATOM      8  C   UNL A   1      34.209  23.741  23.569  1.00  0.00     0.022 A 
ATOM      9  C   UNL A   1      33.924  25.030  23.133  1.00  0.00     0.121 A 
ATOM     10  C   UNL A   1      33.108  22.883  23.618  1.00  0.00     0.135 A 
ATOM     11  N   UNL A   1      32.699  25.478  22.812  1.00  0.00    -0.244 NA
ATOM     12  N   UNL A   1      31.866  23.303  23.302  1.00  0.00    -0.219 NA
ATOM     13  C   UNL A   1      31.721  24.578  22.921  1.00  0.00     0.224 A 
BRANCH  10  14
ATOM     14  N   UNL A   1      33.252  21.542  23.926  1.00  0.00    -0.356 N 
ATOM     15  C   UNL A   1      32.227  20.615  23.448  1.00  0.00     0.121 C 
ATOM     16  C   UNL A   1      33.613  21.225  25.301  1.00  0.00     0.121 C 
ATOM     17  C   UNL A   1      32.889  19.240  23.318  1.00  0.00     0.060 C 
ATOM     18  C   UNL A   1      34.464  19.968  25.220  1.00  0.00     0.060 C 
ATOM     19  C   UNL A   1      33.711  18.793  24.566  1.00  0.00     0.097 C 
ATOM     20  O   UNL A   1      32.847  18.321  25.618  1.00  0.00    -0.372 OA
ATOM     21  C   UNL A   1      34.751  17.710  24.121  1.00  0.00     0.146 C 
ATOM     22  C   UNL A   1      32.253  17.045  25.436  1.00  0.00     0.161 C 
ATOM     23  C   UNL A   1      34.085  16.361  23.883  1.00  0.00     0.037 C 
ATOM     24  C   UNL A   1      33.269  15.965  25.104  1.00  0.00     0.031 C 
BRANCH  21  25
ATOM     25  O   UNL A   1      35.782  17.503  25.095  1.00  0.00    -0.390 OA
ATOM     26  H   UNL A   1      35.671  18.134  25.824  1.00  0.00     0.211 HD
ENDBRANCH  21  25
ENDBRANCH  10  14
ENDBRANCH   7   8
ENDBRANCH   5   7
ENDBRANCH   2   3
ENDBRANCH   1   2
BRANCH   1  27
ATOM     27  C   UNL A   1      39.578  21.486  26.075  1.00  0.00     0.023 C 
BRANCH  27  28
ATOM     28  C   UNL A   1      40.216  20.396  26.932  1.00  0.00     0.116 C 
BRANCH  28  29
ATOM     29  N   UNL A   1      41.104  19.515  26.188  1.00  0.00    -0.352 N 
ATOM     30  C   UNL A   1      42.359  19.761  25.676  1.00  0.00     0.251 C 
ATOM     31  H   UNL A   1      40.754  18.610  26.024  1.00  0.00     0.163 HD
ATOM     32  O   UNL A   1      42.898  18.927  24.953  1.00  0.00    -0.269 OA
BRANCH  30  33
ATOM     33  C   UNL A   1      43.044  21.041  25.963  1.00  0.00     0.039 A 
ATOM     34  C   UNL A   1      43.282  21.932  24.913  1.00  0.00     0.014 A 
ATOM     35  C   UNL A   1      43.433  21.375  27.262  1.00  0.00     0.014 A 
ATOM     36  C   UNL A   1      43.822  23.193  25.183  1.00  0.00     0.010 A 
ATOM     37  C   UNL A   1      43.887  22.662  27.540  1.00  0.00     0.010 A 
ATOM     38  C   UNL A   1      44.082  23.590  26.506  1.00  0.00    -0.014 A 
BRANCH  38  39
ATOM     39  C   UNL A   1      44.539  24.969  26.827  1.00  0.00     0.031 A 
ATOM     40  C   UNL A   1      43.563  25.995  27.340  1.00  0.00     0.074 A 
ATOM     41  C   UNL A   1      45.821  25.322  26.593  1.00  0.00     0.049 A 
ATOM     42  N   UNL A   1      43.765  27.258  27.619  1.00  0.00    -0.248 NA
ATOM     43  C   UNL A   1      42.174  25.551  27.545  1.00  0.00     0.031 C 
ATOM     44  C   UNL A   1      46.859  24.437  26.058  1.00  0.00     0.029 A 
ATOM     45  N   UNL A   1      46.468  26.520  26.769  1.00  0.00    -0.354 N 
ATOM     46  C   UNL A   1      42.529  27.762  28.012  1.00  0.00     0.074 A 
ATOM     47  C   UNL A   1      41.575  26.683  27.887  1.00  0.00     0.031 C 
ATOM     48  C   UNL A   1      48.018  25.113  25.980  1.00  0.00     0.029 A 
ATOM     49  C   UNL A   1      47.798  26.489  26.413  1.00  0.00     0.049 A 
ATOM     50  H   UNL A   1      46.024  27.326  27.117  1.00  0.00     0.167 HD
ATOM     51  C   UNL A   1      42.220  29.004  28.456  1.00  0.00     0.031 A 
ATOM     52  C   UNL A   1      48.735  27.459  26.425  1.00  0.00     0.031 A 
ATOM     53  C   UNL A   1      43.172  30.075  28.588  1.00  0.00     0.049 A 
ATOM     54  C   UNL A   1      48.361  28.836  26.904  1.00  0.00     0.074 A 
ATOM     55  C   UNL A   1      42.967  31.351  29.085  1.00  0.00     0.029 A 
ATOM     56  N   UNL A   1      44.507  30.000  28.221  1.00  0.00    -0.354 N 
ATOM     57  N   UNL A   1      47.203  29.270  27.338  1.00  0.00    -0.248 NA
ATOM     58  C   UNL A   1      49.425  29.849  26.904  1.00  0.00     0.031 C 
ATOM     59  C   UNL A   1      44.160  32.066  28.959  1.00  0.00     0.029 A 
ATOM     60  C   UNL A   1      45.130  31.216  28.451  1.00  0.00     0.049 A 
ATOM     61  H   UNL A   1      44.947  29.201  27.850  1.00  0.00     0.167 HD
ATOM     62  C   UNL A   1      47.407  30.600  27.693  1.00  0.00     0.074 A 
ATOM     63  C   UNL A   1      48.803  30.892  27.437  1.00  0.00     0.031 C 
ATOM     64  C   UNL A   1      46.520  31.496  28.191  1.00  0.00     0.031 A 
BRANCH  51  65
ATOM     65  C   UNL A   1      40.783  29.277  28.823  1.00  0.00    -0.014 A 
ATOM     66  C   UNL A   1      40.384  29.394  30.168  1.00  0.00     0.010 A 
ATOM     67  C   UNL A   1      39.827  29.467  27.809  1.00  0.00     0.010 A 
ATOM     68  C   UNL A   1      39.049  29.651  30.491  1.00  0.00     0.020 A 
ATOM     69  C   UNL A   1      38.497  29.756  28.127  1.00  0.00     0.020 A 
ATOM     70  C   UNL A   1      38.113  29.829  29.468  1.00  0.00     0.054 A 
BRANCH  70  71
ATOM     71  S   UNL A   1      36.392  30.186  29.918  1.00  0.00     0.124 S 
ATOM     72  O   UNL A   1      36.406  31.643  30.026  1.00  0.00    -0.237 OA
ATOM     73  O   UNL A   1      35.648  29.648  28.783  1.00  0.00    -0.237 OA
ATOM     74  O   UNL A   1      36.206  29.470  31.178  1.00  0.00    -0.744 OA
ENDBRANCH  70  71
ENDBRANCH  51  65
BRANCH  52  75
ATOM     75  C   UNL A   1      50.124  27.158  25.979  1.00  0.00    -0.014 A 
ATOM     76  C   UNL A   1      51.091  26.716  26.899  1.00  0.00     0.010 A 
ATOM     77  C   UNL A   1      50.489  27.311  24.628  1.00  0.00     0.010 A 
ATOM     78  C   UNL A   1      52.400  26.452  26.482  1.00  0.00     0.020 A 
ATOM     79  C   UNL A   1      51.787  27.016  24.201  1.00  0.00     0.020 A 
ATOM     80  C   UNL A   1      52.738  26.601  25.135  1.00  0.00     0.054 A 
BRANCH  80  81
ATOM     81  S   UNL A   1      54.430  26.207  24.609  1.00  0.00     0.124 S 
ATOM     82  O   UNL A   1      55.223  27.115  25.431  1.00  0.00    -0.237 OA
ATOM     83  O   UNL A   1      54.540  24.790  24.942  1.00  0.00    -0.237 OA
ATOM     84  O   UNL A   1      54.420  26.504  23.178  1.00  0.00    -0.744 OA
ENDBRANCH  80  81
ENDBRANCH  52  75
BRANCH  64  85
ATOM     85  C   UNL A   1      47.034  32.871  28.530  1.00  0.00    -0.014 A 
ATOM     86  C   UNL A   1      46.986  33.923  27.597  1.00  0.00     0.010 A 
ATOM     87  C   UNL A   1      47.520  33.127  29.825  1.00  0.00     0.010 A 
ATOM     88  C   UNL A   1      47.446  35.197  27.945  1.00  0.00     0.020 A 
ATOM     89  C   UNL A   1      47.951  34.406  30.186  1.00  0.00     0.020 A 
ATOM     90  C   UNL A   1      47.924  35.430  29.237  1.00  0.00     0.054 A 
BRANCH  90  91
ATOM     91  S   UNL A   1      48.472  37.103  29.675  1.00  0.00     0.124 S 
ATOM     92  O   UNL A   1      47.324  37.615  30.419  1.00  0.00    -0.237 OA
ATOM     93  O   UNL A   1      49.672  36.849  30.469  1.00  0.00    -0.237 OA
ATOM     94  O   UNL A   1      48.711  37.740  28.382  1.00  0.00    -0.744 OA
ENDBRANCH  90  91
ENDBRANCH  64  85
ENDBRANCH  38  39
ENDBRANCH  30  33
ENDBRANCH  28  29
ENDBRANCH  27  28
ENDBRANCH   1  27
TORSDOF 17
ENDMDL
MODEL 2
REMARK VINA RESULT:     -10.9      5.982     10.436
REMARK SMILES O=C(Cc1cncnc1N1CCC2(CC1)OCCC[C@@H]2O)NCCCCNC(=O)c1ccc(-c2c3nc(c(-c4ccc(S(=O)(=O)[O-])cc4)c4ccc([nH]4)c(-c4ccc(S(=O)(=O)[O-])cc4)c4nc(c(-c5ccc(S(=O)(=O)[O-])cc5)c5ccc2[nH]5)C=C4)C=C3)cc1
REMARK SMILES IDX 24 1 23 2 22 3 1 4 2 5 3 7 4 8 5 9 9 10 6 11 8 12 7 13 10 14
REMARK SMILES IDX 11 15 15 16 12 17 14 18 13 19 16 20 20 21 17 22 19 23 18 24
REMARK SMILES IDX 21 25 25 27 26 28 27 29 28 30 29 32 30 33 31 34 89 35 32 36
REMARK SMILES IDX 88 37 33 38 34 39 35 40 82 41 36 42 87 43 81 44 83 45 37 46
REMARK SMILES IDX 86 47 80 48 79 49 38 51 68 52 49 53 67 54 50 55 53 56 66 57
REMARK SMILES IDX 84 58 51 59 52 60 65 62 85 63 54 64 39 65 40 66 48 67 41 68
REMARK SMILES IDX 47 69 42 70 43 71 44 72 45 73 46 74 69 75 70 76 78 77 71 78
REMARK SMILES IDX 77 79 72 80 73 81 74 82 75 83 76 84 55 85 56 86 64 87 57 88
REMARK SMILES IDX 63 89 58 90 59 91 60 92 61 93 62 94
REMARK H PARENT 22 6 21 26 27 31 83 50 53 61
REMARK Flexibility Score: inf
ROOT
ATOM      1  C   UNL A   1      39.054  21.421  25.772  1.00  0.00     0.023 C 
ENDROOT
BRANCH   1   2
ATOM      2  C   UNL A   1      38.040  22.555  25.781  1.00  0.00     0.116 C 
BRANCH   2   3
ATOM      3  N   UNL A   1      36.958  22.451  24.806  1.00  0.00    -0.356 N 
ATOM      4  O   UNL A   1      35.926  24.384  25.452  1.00  0.00    -0.275 OA
ATOM      5  C   UNL A   1      36.071  23.489  24.615  1.00  0.00     0.224 C 
ATOM      6  H   UNL A   1      36.860  21.626  24.277  1.00  0.00     0.163 HD
BRANCH   5   7
ATOM      7  C   UNL A   1      35.195  23.458  23.378  1.00  0.00     0.141 C 
BRANCH   7   8
ATOM      8  C   UNL A   1      33.717  23.759  23.472  1.00  0.00     0.022 A 
ATOM      9  C   UNL A   1      33.294  25.019  23.064  1.00  0.00     0.121 A 
ATOM     10  C   UNL A   1      32.688  22.846  23.713  1.00  0.00     0.135 A 
ATOM     11  N   UNL A   1      32.011  25.394  22.938  1.00  0.00    -0.244 NA
ATOM     12  N   UNL A   1      31.390  23.193  23.596  1.00  0.00    -0.219 NA
ATOM     13  C   UNL A   1      31.114  24.447  23.220  1.00  0.00     0.224 A 
BRANCH  10  14
ATOM     14  N   UNL A   1      32.954  21.523  24.019  1.00  0.00    -0.356 N 
ATOM     15  C   UNL A   1      32.020  20.508  23.535  1.00  0.00     0.121 C 
ATOM     16  C   UNL A   1      33.339  21.237  25.393  1.00  0.00     0.121 C 
ATOM     17  C   UNL A   1      32.806  19.200  23.404  1.00  0.00     0.060 C 
ATOM     18  C   UNL A   1      34.303  20.064  25.312  1.00  0.00     0.060 C 
ATOM     19  C   UNL A   1      33.663  18.827  24.652  1.00  0.00     0.097 C 
ATOM     20  O   UNL A   1      32.844  18.274  25.702  1.00  0.00    -0.372 OA
ATOM     21  C   UNL A   1      34.800  17.846  24.208  1.00  0.00     0.146 C 
ATOM     22  C   UNL A   1      32.370  16.949  25.514  1.00  0.00     0.161 C 
ATOM     23  C   UNL A   1      34.261  16.442  23.964  1.00  0.00     0.037 C 
ATOM     24  C   UNL A   1      33.483  15.968  25.182  1.00  0.00     0.031 C 
BRANCH  21  25
ATOM     25  O   UNL A   1      35.843  17.732  25.184  1.00  0.00    -0.390 OA
ATOM     26  H   UNL A   1      35.653  16.987  25.776  1.00  0.00     0.211 HD
ENDBRANCH  21  25
ENDBRANCH  10  14
ENDBRANCH   7   8
ENDBRANCH   5   7
ENDBRANCH   2   3
ENDBRANCH   1   2
BRANCH   1  27
ATOM     27  C   UNL A   1      40.294  21.644  26.633  1.00  0.00     0.023 C 
BRANCH  27  28
ATOM     28  C   UNL A   1      40.593  23.094  27.004  1.00  0.00     0.116 C 
BRANCH  28  29
ATOM     29  N   UNL A   1      41.345  23.812  25.986  1.00  0.00    -0.352 N 
ATOM     30  C   UNL A   1      41.869  25.086  26.015  1.00  0.00     0.251 C 
ATOM     31  H   UNL A   1      41.501  23.314  25.151  1.00  0.00     0.163 HD
ATOM     32  O   UNL A   1      42.358  25.569  24.996  1.00  0.00    -0.269 OA
BRANCH  30  33
ATOM     33  C   UNL A   1      41.810  25.888  27.257  1.00  0.00     0.039 A 
ATOM     34  C   UNL A   1      42.659  26.989  27.394  1.00  0.00     0.014 A 
ATOM     35  C   UNL A   1      40.909  25.572  28.276  1.00  0.00     0.014 A 
ATOM     36  C   UNL A   1      42.536  27.825  28.508  1.00  0.00     0.010 A 
ATOM     37  C   UNL A   1      40.727  26.454  29.339  1.00  0.00     0.010 A 
ATOM     38  C   UNL A   1      41.535  27.594  29.466  1.00  0.00    -0.014 A 
BRANCH  38  39
ATOM     39  C   UNL A   1      41.305  28.540  30.592  1.00  0.00     0.031 A 
ATOM     40  C   UNL A   1      42.148  28.461  31.838  1.00  0.00     0.074 A 
ATOM     41  C   UNL A   1      40.291  29.429  30.524  1.00  0.00     0.049 A 
ATOM     42  N   UNL A   1      42.056  29.161  32.940  1.00  0.00    -0.248 NA
ATOM     43  C   UNL A   1      43.217  27.450  31.857  1.00  0.00     0.031 C 
ATOM     44  C   UNL A   1      39.372  29.581  29.393  1.00  0.00     0.029 A 
ATOM     45  N   UNL A   1      39.858  30.368  31.428  1.00  0.00    -0.354 N 
ATOM     46  C   UNL A   1      43.041  28.662  33.788  1.00  0.00     0.074 A 
ATOM     47  C   UNL A   1      43.681  27.569  33.092  1.00  0.00     0.031 C 
ATOM     48  C   UNL A   1      38.508  30.575  29.658  1.00  0.00     0.029 A 
ATOM     49  C   UNL A   1      38.777  31.099  30.992  1.00  0.00     0.049 A 
ATOM     50  H   UNL A   1      40.282  30.504  32.306  1.00  0.00     0.167 HD
ATOM     51  C   UNL A   1      43.392  29.088  35.025  1.00  0.00     0.031 A 
ATOM     52  C   UNL A   1      38.074  32.077  31.599  1.00  0.00     0.031 A 
ATOM     53  C   UNL A   1      42.759  30.183  35.714  1.00  0.00     0.049 A 
ATOM     54  C   UNL A   1      38.472  32.518  32.982  1.00  0.00     0.074 A 
ATOM     55  C   UNL A   1      43.083  30.726  36.945  1.00  0.00     0.029 A 
ATOM     56  N   UNL A   1      41.671  30.898  35.236  1.00  0.00    -0.354 N 
ATOM     57  N   UNL A   1      39.451  32.081  33.736  1.00  0.00    -0.248 NA
ATOM     58  C   UNL A   1      37.676  33.594  33.589  1.00  0.00     0.031 C 
ATOM     59  C   UNL A   1      42.154  31.727  37.239  1.00  0.00     0.029 A 
ATOM     60  C   UNL A   1      41.293  31.857  36.160  1.00  0.00     0.049 A 
ATOM     61  H   UNL A   1      41.232  30.745  34.368  1.00  0.00     0.167 HD
ATOM     62  C   UNL A   1      39.408  32.850  34.895  1.00  0.00     0.074 A 
ATOM     63  C   UNL A   1      38.317  33.788  34.734  1.00  0.00     0.031 C 
ATOM     64  C   UNL A   1      40.204  32.786  35.990  1.00  0.00     0.031 A 
BRANCH  51  65
ATOM     65  C   UNL A   1      44.512  28.359  35.723  1.00  0.00    -0.014 A 
ATOM     66  C   UNL A   1      45.851  28.763  35.571  1.00  0.00     0.010 A 
ATOM     67  C   UNL A   1      44.217  27.283  36.581  1.00  0.00     0.010 A 
ATOM     68  C   UNL A   1      46.878  28.078  36.227  1.00  0.00     0.020 A 
ATOM     69  C   UNL A   1      45.238  26.616  37.265  1.00  0.00     0.020 A 
ATOM     70  C   UNL A   1      46.564  27.008  37.070  1.00  0.00     0.054 A 
BRANCH  70  71
ATOM     71  S   UNL A   1      47.915  26.154  37.929  1.00  0.00     0.124 S 
ATOM     72  O   UNL A   1      48.761  27.270  38.343  1.00  0.00    -0.237 OA
ATOM     73  O   UNL A   1      47.217  25.460  39.008  1.00  0.00    -0.237 OA
ATOM     74  O   UNL A   1      48.487  25.286  36.902  1.00  0.00    -0.744 OA
ENDBRANCH  70  71
ENDBRANCH  51  65
BRANCH  52  75
ATOM     75  C   UNL A   1      36.925  32.715  30.897  1.00  0.00    -0.014 A 
ATOM     76  C   UNL A   1      35.648  32.125  30.931  1.00  0.00     0.010 A 
ATOM     77  C   UNL A   1      37.100  33.919  30.191  1.00  0.00     0.010 A 
ATOM     78  C   UNL A   1      34.575  32.715  30.257  1.00  0.00     0.020 A 
ATOM     79  C   UNL A   1      36.022  34.530  29.543  1.00  0.00     0.020 A 
ATOM     80  C   UNL A   1      34.768  33.916  29.569  1.00  0.00     0.054 A 
BRANCH  80  81
ATOM     81  S   UNL A   1      33.350  34.688  28.741  1.00  0.00     0.124 S 
ATOM     82  O   UNL A   1      32.814  33.579  27.960  1.00  0.00    -0.237 OA
ATOM     83  O   UNL A   1      32.530  35.126  29.867  1.00  0.00    -0.237 OA
ATOM     84  O   UNL A   1      33.955  35.767  27.963  1.00  0.00    -0.744 OA
ENDBRANCH  80  81
ENDBRANCH  52  75
BRANCH  64  85
ATOM     85  C   UNL A   1      39.953  33.783  37.092  1.00  0.00    -0.014 A 
ATOM     86  C   UNL A   1      40.555  35.054  37.082  1.00  0.00     0.010 A 
ATOM     87  C   UNL A   1      39.054  33.460  38.125  1.00  0.00     0.010 A 
ATOM     88  C   UNL A   1      40.286  35.971  38.103  1.00  0.00     0.020 A 
ATOM     89  C   UNL A   1      38.759  34.384  39.130  1.00  0.00     0.020 A 
ATOM     90  C   UNL A   1      39.389  35.630  39.119  1.00  0.00     0.054 A 
BRANCH  90  91
ATOM     91  S   UNL A   1      39.024  36.855  40.408  1.00  0.00     0.124 S 
ATOM     92  O   UNL A   1      40.342  37.078  40.997  1.00  0.00    -0.237 OA
ATOM     93  O   UNL A   1      38.481  37.974  39.641  1.00  0.00    -0.237 OA
ATOM     94  O   UNL A   1      38.062  36.173  41.271  1.00  0.00    -0.744 OA
ENDBRANCH  90  91
ENDBRANCH  64  85
ENDBRANCH  38  39
ENDBRANCH  30  33
ENDBRANCH  28  29
ENDBRANCH  27  28
ENDBRANCH   1  27
TORSDOF 17
ENDMDL
MODEL 3
REMARK VINA RESULT:     -10.8      2.483      8.648
REMARK SMILES O=C(Cc1cncnc1N1CCC2(CC1)OCCC[C@@H]2O)NCCCCNC(=O)c1ccc(-c2c3nc(c(-c4ccc(S(=O)(=O)[O-])cc4)c4ccc([nH]4)c(-c4ccc(S(=O)(=O)[O-])cc4)c4nc(c(-c5ccc(S(=O)(=O)[O-])cc5)c5ccc2[nH]5)C=C4)C=C3)cc1
REMARK SMILES IDX 24 1 23 2 22 3 1 4 2 5 3 7 4 8 5 9 9 10 6 11 8 12 7 13 10 14
REMARK SMILES IDX 11 15 15 16 12 17 14 18 13 19 16 20 20 21 17 22 19 23 18 24
REMARK SMILES IDX 21 25 25 27 26 28 27 29 28 30 29 32 30 33 31 34 89 35 32 36
REMARK SMILES IDX 88 37 33 38 34 39 35 40 82 41 36 42 87 43 81 44 83 45 37 46
REMARK SMILES IDX 86 47 80 48 79 49 38 51 68 52 49 53 67 54 50 55 53 56 66 57
REMARK SMILES IDX 84 58 51 59 52 60 65 62 85 63 54 64 39 65 40 66 48 67 41 68
REMARK SMILES IDX 47 69 42 70 43 71 44 72 45 73 46 74 69 75 70 76 78 77 71 78
REMARK SMILES IDX 77 79 72 80 73 81 74 82 75 83 76 84 55 85 56 86 64 87 57 88
REMARK SMILES IDX 63 89 58 90 59 91 60 92 61 93 62 94
REMARK H PARENT 22 6 21 26 27 31 83 50 53 61
REMARK Flexibility Score: inf
ROOT
ATOM      1  C   UNL A   1      34.639  30.376  27.605  1.00  0.00     0.023 C 
ENDROOT
BRANCH   1   2
ATOM      2  C   UNL A   1      33.219  29.930  27.288  1.00  0.00     0.116 C 
BRANCH   2   3
ATOM      3  N   UNL A   1      33.079  28.577  26.755  1.00  0.00    -0.356 N 
ATOM      4  O   UNL A   1      31.347  28.004  28.132  1.00  0.00    -0.275 OA
ATOM      5  C   UNL A   1      32.017  27.776  27.121  1.00  0.00     0.224 C 
ATOM      6  H   UNL A   1      33.752  28.233  26.125  1.00  0.00     0.163 HD
BRANCH   5   7
ATOM      7  C   UNL A   1      31.746  26.535  26.294  1.00  0.00     0.141 C 
BRANCH   7   8
ATOM      8  C   UNL A   1      31.271  26.650  24.864  1.00  0.00     0.022 A 
ATOM      9  C   UNL A   1      30.893  27.909  24.414  1.00  0.00     0.121 A 
ATOM     10  C   UNL A   1      31.373  25.678  23.865  1.00  0.00     0.135 A 
ATOM     11  N   UNL A   1      30.596  28.212  23.139  1.00  0.00    -0.244 NA
ATOM     12  N   UNL A   1      31.082  25.951  22.577  1.00  0.00    -0.219 NA
ATOM     13  C   UNL A   1      30.704  27.200  22.278  1.00  0.00     0.224 A 
BRANCH  10  14
ATOM     14  N   UNL A   1      31.845  24.407  24.141  1.00  0.00    -0.356 N 
ATOM     15  C   UNL A   1      32.432  23.641  23.043  1.00  0.00     0.121 C 
ATOM     16  C   UNL A   1      30.982  23.553  24.944  1.00  0.00     0.121 C 
ATOM     17  C   UNL A   1      33.419  22.648  23.664  1.00  0.00     0.060 C 
ATOM     18  C   UNL A   1      31.919  22.673  25.757  1.00  0.00     0.060 C 
ATOM     19  C   UNL A   1      32.850  21.830  24.864  1.00  0.00     0.097 C 
ATOM     20  O   UNL A   1      31.998  20.760  24.410  1.00  0.00    -0.372 OA
ATOM     21  C   UNL A   1      34.046  21.309  25.731  1.00  0.00     0.146 C 
ATOM     22  C   UNL A   1      32.638  19.635  23.826  1.00  0.00     0.161 C 
ATOM     23  C   UNL A   1      34.750  20.135  25.062  1.00  0.00     0.037 C 
ATOM     24  C   UNL A   1      33.734  19.059  24.706  1.00  0.00     0.031 C 
BRANCH  21  25
ATOM     25  O   UNL A   1      33.634  20.867  27.030  1.00  0.00    -0.390 OA
ATOM     26  H   UNL A   1      34.113  20.057  27.264  1.00  0.00     0.211 HD
ENDBRANCH  21  25
ENDBRANCH  10  14
ENDBRANCH   7   8
ENDBRANCH   5   7
ENDBRANCH   2   3
ENDBRANCH   1   2
BRANCH   1  27
ATOM     27  C   UNL A   1      34.812  31.868  27.873  1.00  0.00     0.023 C 
BRANCH  27  28
ATOM     28  C   UNL A   1      35.797  32.233  28.980  1.00  0.00     0.116 C 
BRANCH  28  29
ATOM     29  N   UNL A   1      35.606  31.469  30.204  1.00  0.00    -0.352 N 
ATOM     30  C   UNL A   1      36.459  30.588  30.832  1.00  0.00     0.251 C 
ATOM     31  H   UNL A   1      34.738  31.601  30.649  1.00  0.00     0.163 HD
ATOM     32  O   UNL A   1      36.061  29.931  31.792  1.00  0.00    -0.269 OA
BRANCH  30  33
ATOM     33  C   UNL A   1      37.838  30.400  30.331  1.00  0.00     0.039 A 
ATOM     34  C   UNL A   1      38.900  30.440  31.238  1.00  0.00     0.014 A 
ATOM     35  C   UNL A   1      38.087  30.166  28.977  1.00  0.00     0.014 A 
ATOM     36  C   UNL A   1      40.197  30.150  30.801  1.00  0.00     0.010 A 
ATOM     37  C   UNL A   1      39.363  29.790  28.561  1.00  0.00     0.010 A 
ATOM     38  C   UNL A   1      40.433  29.773  29.469  1.00  0.00    -0.014 A 
BRANCH  38  39
ATOM     39  C   UNL A   1      41.781  29.340  29.012  1.00  0.00     0.031 A 
ATOM     40  C   UNL A   1      42.913  30.331  28.929  1.00  0.00     0.074 A 
ATOM     41  C   UNL A   1      41.974  28.067  28.606  1.00  0.00     0.049 A 
ATOM     42  N   UNL A   1      44.137  30.151  28.500  1.00  0.00    -0.248 NA
ATOM     43  C   UNL A   1      42.626  31.709  29.360  1.00  0.00     0.031 C 
ATOM     44  C   UNL A   1      40.953  27.016  28.595  1.00  0.00     0.029 A 
ATOM     45  N   UNL A   1      43.095  27.441  28.116  1.00  0.00    -0.354 N 
ATOM     46  C   UNL A   1      44.757  31.392  28.593  1.00  0.00     0.074 A 
ATOM     47  C   UNL A   1      43.761  32.326  29.068  1.00  0.00     0.031 C 
ATOM     48  C   UNL A   1      41.501  25.872  28.155  1.00  0.00     0.029 A 
ATOM     49  C   UNL A   1      42.897  26.115  27.807  1.00  0.00     0.049 A 
ATOM     50  H   UNL A   1      43.958  27.898  27.998  1.00  0.00     0.167 HD
ATOM     51  C   UNL A   1      46.044  31.722  28.326  1.00  0.00     0.031 A 
ATOM     52  C   UNL A   1      43.740  25.196  27.292  1.00  0.00     0.031 A 
ATOM     53  C   UNL A   1      47.037  30.789  27.860  1.00  0.00     0.049 A 
ATOM     54  C   UNL A   1      45.159  25.592  26.985  1.00  0.00     0.074 A 
ATOM     55  C   UNL A   1      48.381  31.015  27.618  1.00  0.00     0.029 A 
ATOM     56  N   UNL A   1      46.796  29.456  27.563  1.00  0.00    -0.354 N 
ATOM     57  N   UNL A   1      45.743  26.754  27.147  1.00  0.00    -0.248 NA
ATOM     58  C   UNL A   1      46.035  24.547  26.435  1.00  0.00     0.031 C 
ATOM     59  C   UNL A   1      48.938  29.836  27.116  1.00  0.00     0.029 A 
ATOM     60  C   UNL A   1      47.959  28.855  27.111  1.00  0.00     0.049 A 
ATOM     61  H   UNL A   1      45.926  29.004  27.659  1.00  0.00     0.167 HD
ATOM     62  C   UNL A   1      47.064  26.572  26.750  1.00  0.00     0.074 A 
ATOM     63  C   UNL A   1      47.195  25.185  26.354  1.00  0.00     0.031 C 
ATOM     64  C   UNL A   1      48.078  27.472  26.719  1.00  0.00     0.031 A 
BRANCH  51  65
ATOM     65  C   UNL A   1      46.452  33.160  28.520  1.00  0.00    -0.014 A 
ATOM     66  C   UNL A   1      46.499  34.057  27.437  1.00  0.00     0.010 A 
ATOM     67  C   UNL A   1      46.746  33.634  29.812  1.00  0.00     0.010 A 
ATOM     68  C   UNL A   1      46.876  35.388  27.635  1.00  0.00     0.020 A 
ATOM     69  C   UNL A   1      47.091  34.973  30.019  1.00  0.00     0.020 A 
ATOM     70  C   UNL A   1      47.171  35.837  28.925  1.00  0.00     0.054 A 
BRANCH  70  71
ATOM     71  S   UNL A   1      47.632  37.577  29.156  1.00  0.00     0.124 S 
ATOM     72  O   UNL A   1      46.413  38.137  29.733  1.00  0.00    -0.237 OA
ATOM     73  O   UNL A   1      48.772  37.486  30.064  1.00  0.00    -0.237 OA
ATOM     74  O   UNL A   1      47.949  38.035  27.805  1.00  0.00    -0.744 OA
ENDBRANCH  70  71
ENDBRANCH  51  65
BRANCH  52  75
ATOM     75  C   UNL A   1      43.267  23.805  27.045  1.00  0.00    -0.014 A 
ATOM     76  C   UNL A   1      43.296  22.846  28.074  1.00  0.00     0.010 A 
ATOM     77  C   UNL A   1      42.781  23.431  25.779  1.00  0.00     0.010 A 
ATOM     78  C   UNL A   1      42.869  21.536  27.836  1.00  0.00     0.020 A 
ATOM     79  C   UNL A   1      42.322  22.131  25.546  1.00  0.00     0.020 A 
ATOM     80  C   UNL A   1      42.381  21.188  26.574  1.00  0.00     0.054 A 
BRANCH  80  81
ATOM     81  S   UNL A   1      41.788  19.495  26.302  1.00  0.00     0.124 S 
ATOM     82  O   UNL A   1      40.358  19.704  26.096  1.00  0.00    -0.237 OA
ATOM     83  O   UNL A   1      42.544  19.082  25.123  1.00  0.00    -0.237 OA
ATOM     84  O   UNL A   1      42.148  18.804  27.538  1.00  0.00    -0.744 OA
ENDBRANCH  80  81
ENDBRANCH  52  75
BRANCH  64  85
ATOM     85  C   UNL A   1      49.432  26.982  26.278  1.00  0.00    -0.014 A 
ATOM     86  C   UNL A   1      49.934  27.266  24.996  1.00  0.00     0.010 A 
ATOM     87  C   UNL A   1      50.240  26.273  27.187  1.00  0.00     0.010 A 
ATOM     88  C   UNL A   1      51.205  26.822  24.619  1.00  0.00     0.020 A 
ATOM     89  C   UNL A   1      51.523  25.854  26.825  1.00  0.00     0.020 A 
ATOM     90  C   UNL A   1      51.991  26.120  25.538  1.00  0.00     0.054 A 
BRANCH  90  91
ATOM     91  S   UNL A   1      53.655  25.593  25.039  1.00  0.00     0.124 S 
ATOM     92  O   UNL A   1      53.748  24.267  25.643  1.00  0.00    -0.237 OA
ATOM     93  O   UNL A   1      53.573  25.615  23.580  1.00  0.00    -0.237 OA
ATOM     94  O   UNL A   1      54.529  26.608  25.623  1.00  0.00    -0.744 OA
ENDBRANCH  90  91
ENDBRANCH  64  85
ENDBRANCH  38  39
ENDBRANCH  30  33
ENDBRANCH  28  29
ENDBRANCH  27  28
ENDBRANCH   1  27
TORSDOF 17
ENDMDL
