MODEL 1
REMARK VINA RESULT:     -11.3      0.000      0.000
REMARK SMILES CC(C)(C)[C@H](CCC(=O)NCCCCNC(=O)c1ccc(-c2c3nc(c(-c4ccc(S(=O)(=O)[O-])cc4)c4ccc([nH]4)c(-c4ccc(S(=O)(=O)[O-])cc4)c4nc(c(-c5ccc(S(=O)(=O)[O-])cc5)c5ccc2[nH]5)C=C4)C=C3)cc1)CC[NH+]1CCOCC1
REMARK SMILES IDX 11 1 10 2 8 3 9 4 7 6 6 7 5 8 2 9 1 10 3 11 4 12 78 13 79 14
REMARK SMILES IDX 80 15 81 16 85 17 82 19 84 20 83 21 12 22 13 23 14 24 15 25
REMARK SMILES IDX 16 26 17 28 18 29 19 30 77 31 20 32 76 33 21 34 22 35 23 36
REMARK SMILES IDX 70 37 24 38 75 39 69 40 71 41 25 42 74 43 68 44 67 45 26 47
REMARK SMILES IDX 56 48 37 49 55 50 38 51 41 52 54 53 72 54 39 55 40 56 53 58
REMARK SMILES IDX 73 59 42 60 27 61 28 62 36 63 29 64 35 65 30 66 31 67 32 68
REMARK SMILES IDX 33 69 34 70 57 71 58 72 66 73 59 74 65 75 60 76 61 77 62 78
REMARK SMILES IDX 63 79 64 80 43 81 44 82 52 83 45 84 51 85 46 86 47 87 48 88
REMARK SMILES IDX 49 89 50 90
REMARK H PARENT 10 5 80 18 15 27 71 46 41 57
REMARK Flexibility Score: inf
ROOT
ATOM      1  C   UNL A   1      32.865  22.993  22.899  1.00  0.00     0.116 C 
ENDROOT
BRANCH   1   2
ATOM      2  N   UNL A   1      33.335  24.246  22.311  1.00  0.00    -0.356 N 
ATOM      3  C   UNL A   1      32.672  25.279  21.733  1.00  0.00     0.220 C 
ATOM      4  O   UNL A   1      33.250  25.833  20.791  1.00  0.00    -0.275 OA
ATOM      5  H   UNL A   1      34.312  24.361  22.339  1.00  0.00     0.163 HD
BRANCH   3   6
ATOM      6  C   UNL A   1      31.400  25.900  22.310  1.00  0.00     0.100 C 
BRANCH   6   7
ATOM      7  C   UNL A   1      31.216  26.313  23.783  1.00  0.00     0.014 C 
BRANCH   7   8
ATOM      8  C   UNL A   1      31.741  27.690  24.234  1.00  0.00     0.000 C 
BRANCH   8   9
ATOM      9  C   UNL A   1      32.547  27.864  25.637  1.00  0.00    -0.035 C 
ATOM     10  C   UNL A   1      33.260  26.573  26.040  1.00  0.00     0.011 C 
ATOM     11  C   UNL A   1      31.628  28.328  26.787  1.00  0.00     0.011 C 
ATOM     12  C   UNL A   1      33.704  28.934  25.617  1.00  0.00     0.011 C 
ENDBRANCH   8   9
BRANCH   8  13
ATOM     13  C   UNL A   1      32.134  28.596  22.998  1.00  0.00     0.065 C 
BRANCH  13  14
ATOM     14  C   UNL A   1      31.035  29.601  22.294  1.00  0.00     0.262 C 
BRANCH  14  15
ATOM     15  N   UNL A   1      29.691  30.017  22.893  1.00  0.00    -0.331 N 
ATOM     16  C   UNL A   1      28.605  29.896  21.713  1.00  0.00     0.291 C 
ATOM     17  C   UNL A   1      29.678  31.454  23.944  1.00  0.00     0.291 C 
ATOM     18  H   UNL A   1      29.416  29.376  23.637  1.00  0.00     0.348 HD
ATOM     19  C   UNL A   1      27.840  31.391  20.853  1.00  0.00     0.221 C 
ATOM     20  C   UNL A   1      28.948  33.190  23.363  1.00  0.00     0.221 C 
ATOM     21  O   UNL A   1      28.059  33.113  21.668  1.00  0.00    -0.370 OA
ENDBRANCH  14  15
ENDBRANCH  13  14
ENDBRANCH   8  13
ENDBRANCH   7   8
ENDBRANCH   6   7
ENDBRANCH   3   6
ENDBRANCH   1   2
BRANCH   1  22
ATOM     22  C   UNL A   1      34.048  22.142  24.014  1.00  0.00     0.023 C 
BRANCH  22  23
ATOM     23  C   UNL A   1      36.190  22.328  24.034  1.00  0.00     0.023 C 
BRANCH  23  24
ATOM     24  C   UNL A   1      37.079  23.358  25.287  1.00  0.00     0.116 C 
BRANCH  24  25
ATOM     25  N   UNL A   1      38.169  22.655  26.080  1.00  0.00    -0.352 N 
ATOM     26  C   UNL A   1      39.429  23.110  26.367  1.00  0.00     0.251 C 
ATOM     27  H   UNL A   1      37.941  21.763  26.430  1.00  0.00     0.163 HD
ATOM     28  O   UNL A   1      40.461  22.476  26.226  1.00  0.00    -0.269 OA
BRANCH  26  29
ATOM     29  C   UNL A   1      39.355  24.411  26.993  1.00  0.00     0.039 A 
ATOM     30  C   UNL A   1      38.869  24.587  28.280  1.00  0.00     0.014 A 
ATOM     31  C   UNL A   1      40.121  25.359  26.308  1.00  0.00     0.014 A 
ATOM     32  C   UNL A   1      39.216  25.767  28.916  1.00  0.00     0.010 A 
ATOM     33  C   UNL A   1      40.632  26.397  27.018  1.00  0.00     0.010 A 
ATOM     34  C   UNL A   1      40.127  26.645  28.296  1.00  0.00    -0.014 A 
BRANCH  34  35
ATOM     35  C   UNL A   1      40.562  27.901  28.905  1.00  0.00     0.031 A 
ATOM     36  C   UNL A   1      41.946  27.956  29.486  1.00  0.00     0.074 A 
ATOM     37  C   UNL A   1      39.675  28.900  29.038  1.00  0.00     0.049 A 
ATOM     38  N   UNL A   1      42.498  28.907  30.184  1.00  0.00    -0.248 NA
ATOM     39  C   UNL A   1      42.800  26.759  29.323  1.00  0.00     0.031 C 
ATOM     40  C   UNL A   1      38.286  28.883  28.567  1.00  0.00     0.029 A 
ATOM     41  N   UNL A   1      39.818  30.128  29.614  1.00  0.00    -0.354 N 
ATOM     42  C   UNL A   1      43.740  28.415  30.554  1.00  0.00     0.074 A 
ATOM     43  C   UNL A   1      43.826  27.050  30.104  1.00  0.00     0.031 C 
ATOM     44  C   UNL A   1      37.727  30.076  28.816  1.00  0.00     0.029 A 
ATOM     45  C   UNL A   1      38.694  30.910  29.520  1.00  0.00     0.049 A 
ATOM     46  H   UNL A   1      40.648  30.425  30.054  1.00  0.00     0.167 HD
ATOM     47  C   UNL A   1      44.742  29.066  31.180  1.00  0.00     0.031 A 
ATOM     48  C   UNL A   1      38.483  32.161  29.961  1.00  0.00     0.031 A 
ATOM     49  C   UNL A   1      44.636  30.434  31.595  1.00  0.00     0.049 A 
ATOM     50  C   UNL A   1      39.613  32.863  30.662  1.00  0.00     0.074 A 
ATOM     51  C   UNL A   1      45.601  31.231  32.177  1.00  0.00     0.029 A 
ATOM     52  N   UNL A   1      43.489  31.205  31.471  1.00  0.00    -0.354 N 
ATOM     53  N   UNL A   1      40.821  32.422  30.928  1.00  0.00    -0.248 NA
ATOM     54  C   UNL A   1      39.356  34.234  31.111  1.00  0.00     0.031 C 
ATOM     55  C   UNL A   1      45.012  32.460  32.479  1.00  0.00     0.029 A 
ATOM     56  C   UNL A   1      43.709  32.461  32.001  1.00  0.00     0.049 A 
ATOM     57  H   UNL A   1      42.643  30.902  31.065  1.00  0.00     0.167 HD
ATOM     58  C   UNL A   1      41.481  33.476  31.546  1.00  0.00     0.074 A 
ATOM     59  C   UNL A   1      40.541  34.580  31.594  1.00  0.00     0.031 C 
ATOM     60  C   UNL A   1      42.747  33.534  32.031  1.00  0.00     0.031 A 
BRANCH  47  61
ATOM     61  C   UNL A   1      46.013  28.307  31.443  1.00  0.00    -0.014 A 
ATOM     62  C   UNL A   1      46.171  27.512  32.595  1.00  0.00     0.010 A 
ATOM     63  C   UNL A   1      47.059  28.368  30.508  1.00  0.00     0.010 A 
ATOM     64  C   UNL A   1      47.362  26.820  32.821  1.00  0.00     0.020 A 
ATOM     65  C   UNL A   1      48.237  27.646  30.709  1.00  0.00     0.020 A 
ATOM     66  C   UNL A   1      48.384  26.884  31.870  1.00  0.00     0.054 A 
BRANCH  66  67
ATOM     67  S   UNL A   1      49.895  25.926  32.161  1.00  0.00     0.124 S 
ATOM     68  O   UNL A   1      49.645  25.361  33.485  1.00  0.00    -0.237 OA
ATOM     69  O   UNL A   1      49.879  24.971  31.056  1.00  0.00    -0.237 OA
ATOM     70  O   UNL A   1      50.957  26.928  32.103  1.00  0.00    -0.744 OA
ENDBRANCH  66  67
ENDBRANCH  47  61
BRANCH  48  71
ATOM     71  C   UNL A   1      37.175  32.824  29.725  1.00  0.00    -0.014 A 
ATOM     72  C   UNL A   1      36.188  32.831  30.726  1.00  0.00     0.010 A 
ATOM     73  C   UNL A   1      36.913  33.469  28.503  1.00  0.00     0.010 A 
ATOM     74  C   UNL A   1      34.952  33.442  30.498  1.00  0.00     0.020 A 
ATOM     75  C   UNL A   1      35.694  34.113  28.285  1.00  0.00     0.020 A 
ATOM     76  C   UNL A   1      34.715  34.082  29.279  1.00  0.00     0.054 A 
BRANCH  76  77
ATOM     77  S   UNL A   1      33.117  34.898  29.021  1.00  0.00     0.124 S 
ATOM     78  O   UNL A   1      32.478  34.015  28.050  1.00  0.00    -0.237 OA
ATOM     79  O   UNL A   1      32.542  34.887  30.364  1.00  0.00    -0.237 OA
ATOM     80  O   UNL A   1      33.484  36.220  28.518  1.00  0.00    -0.744 OA
ENDBRANCH  76  77
ENDBRANCH  48  71
BRANCH  60  81
ATOM     81  C   UNL A   1      43.203  34.846  32.610  1.00  0.00    -0.014 A 
ATOM     82  C   UNL A   1      43.685  35.882  31.791  1.00  0.00     0.010 A 
ATOM     83  C   UNL A   1      43.080  35.062  33.995  1.00  0.00     0.010 A 
ATOM     84  C   UNL A   1      44.074  37.098  32.354  1.00  0.00     0.020 A 
ATOM     85  C   UNL A   1      43.425  36.291  34.555  1.00  0.00     0.020 A 
ATOM     86  C   UNL A   1      43.936  37.296  33.732  1.00  0.00     0.054 A 
BRANCH  86  87
ATOM     87  S   UNL A   1      44.400  38.902  34.428  1.00  0.00     0.124 S 
ATOM     88  O   UNL A   1      44.478  38.604  35.855  1.00  0.00    -0.237 OA
ATOM     89  O   UNL A   1      45.675  39.175  33.771  1.00  0.00    -0.237 OA
ATOM     90  O   UNL A   1      43.302  39.783  34.036  1.00  0.00    -0.744 OA
ENDBRANCH  86  87
ENDBRANCH  60  81
ENDBRANCH  34  35
ENDBRANCH  26  29
ENDBRANCH  24  25
ENDBRANCH  23  24
ENDBRANCH  22  23
ENDBRANCH   1  22
TORSDOF 20
ENDMDL
MODEL 2
REMARK VINA RESULT:     -10.8      4.352      9.685
REMARK SMILES CC(C)(C)[C@H](CCC(=O)NCCCCNC(=O)c1ccc(-c2c3nc(c(-c4ccc(S(=O)(=O)[O-])cc4)c4ccc([nH]4)c(-c4ccc(S(=O)(=O)[O-])cc4)c4nc(c(-c5ccc(S(=O)(=O)[O-])cc5)c5ccc2[nH]5)C=C4)C=C3)cc1)CC[NH+]1CCOCC1
REMARK SMILES IDX 11 1 10 2 8 3 9 4 7 6 6 7 5 8 2 9 1 10 3 11 4 12 78 13 79 14
REMARK SMILES IDX 80 15 81 16 85 17 82 19 84 20 83 21 12 22 13 23 14 24 15 25
REMARK SMILES IDX 16 26 17 28 18 29 19 30 77 31 20 32 76 33 21 34 22 35 23 36
REMARK SMILES IDX 70 37 24 38 75 39 69 40 71 41 25 42 74 43 68 44 67 45 26 47
REMARK SMILES IDX 56 48 37 49 55 50 38 51 41 52 54 53 72 54 39 55 40 56 53 58
REMARK SMILES IDX 73 59 42 60 27 61 28 62 36 63 29 64 35 65 30 66 31 67 32 68
REMARK SMILES IDX 33 69 34 70 57 71 58 72 66 73 59 74 65 75 60 76 61 77 62 78
REMARK SMILES IDX 63 79 64 80 43 81 44 82 52 83 45 84 51 85 46 86 47 87 48 88
REMARK SMILES IDX 49 89 50 90
REMARK H PARENT 10 5 80 18 15 27 71 46 41 57
REMARK Flexibility Score: inf
ROOT
ATOM      1  C   UNL A   1      34.652  31.222  27.533  1.00  0.00     0.116 C 
ENDROOT
BRANCH   1   2
ATOM      2  N   UNL A   1      33.547  30.330  27.877  1.00  0.00    -0.356 N 
ATOM      3  C   UNL A   1      32.901  29.373  27.165  1.00  0.00     0.220 C 
ATOM      4  O   UNL A   1      31.691  29.256  27.390  1.00  0.00    -0.275 OA
ATOM      5  H   UNL A   1      33.208  30.446  28.794  1.00  0.00     0.163 HD
BRANCH   3   6
ATOM      6  C   UNL A   1      33.614  28.333  26.299  1.00  0.00     0.100 C 
BRANCH   6   7
ATOM      7  C   UNL A   1      32.930  27.110  25.658  1.00  0.00     0.014 C 
BRANCH   7   8
ATOM      8  C   UNL A   1      32.385  27.238  24.222  1.00  0.00     0.000 C 
BRANCH   8   9
ATOM      9  C   UNL A   1      32.851  26.207  23.052  1.00  0.00    -0.035 C 
ATOM     10  C   UNL A   1      33.700  25.066  23.613  1.00  0.00     0.011 C 
ATOM     11  C   UNL A   1      33.621  26.917  21.918  1.00  0.00     0.011 C 
ATOM     12  C   UNL A   1      31.677  25.464  22.310  1.00  0.00     0.011 C 
ENDBRANCH   8   9
BRANCH   8  13
ATOM     13  C   UNL A   1      30.910  27.811  24.208  1.00  0.00     0.065 C 
BRANCH  13  14
ATOM     14  C   UNL A   1      30.611  29.382  23.811  1.00  0.00     0.262 C 
BRANCH  14  15
ATOM     15  N   UNL A   1      29.240  30.058  23.809  1.00  0.00    -0.331 N 
ATOM     16  C   UNL A   1      28.439  29.471  22.544  1.00  0.00     0.291 C 
ATOM     17  C   UNL A   1      29.197  31.810  24.129  1.00  0.00     0.291 C 
ATOM     18  H   UNL A   1      28.718  29.815  24.650  1.00  0.00     0.348 HD
ATOM     19  C   UNL A   1      28.105  30.465  20.977  1.00  0.00     0.221 C 
ATOM     20  C   UNL A   1      28.868  33.142  22.714  1.00  0.00     0.221 C 
ATOM     21  O   UNL A   1      28.378  32.362  21.034  1.00  0.00    -0.370 OA
ENDBRANCH  14  15
ENDBRANCH  13  14
ENDBRANCH   8  13
ENDBRANCH   7   8
ENDBRANCH   6   7
ENDBRANCH   3   6
ENDBRANCH   1   2
BRANCH   1  22
ATOM     22  C   UNL A   1      34.648  32.857  28.365  1.00  0.00     0.023 C 
BRANCH  22  23
ATOM     23  C   UNL A   1      36.143  33.654  29.687  1.00  0.00     0.023 C 
BRANCH  23  24
ATOM     24  C   UNL A   1      36.695  32.757  31.208  1.00  0.00     0.116 C 
BRANCH  24  25
ATOM     25  N   UNL A   1      36.402  31.266  31.249  1.00  0.00    -0.352 N 
ATOM     26  C   UNL A   1      36.784  30.306  30.349  1.00  0.00     0.251 C 
ATOM     27  H   UNL A   1      35.871  30.951  32.016  1.00  0.00     0.163 HD
ATOM     28  O   UNL A   1      36.055  29.458  29.863  1.00  0.00    -0.269 OA
BRANCH  26  29
ATOM     29  C   UNL A   1      38.215  30.353  30.154  1.00  0.00     0.039 A 
ATOM     30  C   UNL A   1      39.111  29.960  31.137  1.00  0.00     0.014 A 
ATOM     31  C   UNL A   1      38.550  30.498  28.804  1.00  0.00     0.014 A 
ATOM     32  C   UNL A   1      40.396  29.660  30.720  1.00  0.00     0.010 A 
ATOM     33  C   UNL A   1      39.736  29.990  28.384  1.00  0.00     0.010 A 
ATOM     34  C   UNL A   1      40.689  29.639  29.343  1.00  0.00    -0.014 A 
BRANCH  34  35
ATOM     35  C   UNL A   1      42.013  29.312  28.815  1.00  0.00     0.031 A 
ATOM     36  C   UNL A   1      42.256  27.904  28.353  1.00  0.00     0.074 A 
ATOM     37  C   UNL A   1      42.986  30.235  28.886  1.00  0.00     0.049 A 
ATOM     38  N   UNL A   1      43.374  27.355  27.973  1.00  0.00    -0.248 NA
ATOM     39  C   UNL A   1      41.109  26.970  28.385  1.00  0.00     0.031 C 
ATOM     40  C   UNL A   1      42.838  31.600  29.401  1.00  0.00     0.029 A 
ATOM     41  N   UNL A   1      44.297  30.155  28.520  1.00  0.00    -0.354 N 
ATOM     42  C   UNL A   1      43.067  26.021  27.747  1.00  0.00     0.074 A 
ATOM     43  C   UNL A   1      41.695  25.813  28.131  1.00  0.00     0.031 C 
ATOM     44  C   UNL A   1      44.002  32.249  29.253  1.00  0.00     0.029 A 
ATOM     45  C   UNL A   1      44.986  31.328  28.699  1.00  0.00     0.049 A 
ATOM     46  H   UNL A   1      44.710  29.335  28.163  1.00  0.00     0.167 HD
ATOM     47  C   UNL A   1      43.856  25.062  27.220  1.00  0.00     0.031 A 
ATOM     48  C   UNL A   1      46.274  31.612  28.441  1.00  0.00     0.031 A 
ATOM     49  C   UNL A   1      45.211  25.306  26.824  1.00  0.00     0.049 A 
ATOM     50  C   UNL A   1      47.134  30.523  27.862  1.00  0.00     0.074 A 
ATOM     51  C   UNL A   1      46.096  24.439  26.215  1.00  0.00     0.029 A 
ATOM     52  N   UNL A   1      45.877  26.511  27.003  1.00  0.00    -0.354 N 
ATOM     53  N   UNL A   1      46.811  29.286  27.563  1.00  0.00    -0.248 NA
ATOM     54  C   UNL A   1      48.528  30.873  27.572  1.00  0.00     0.031 C 
ATOM     55  C   UNL A   1      47.323  25.094  26.099  1.00  0.00     0.029 A 
ATOM     56  C   UNL A   1      47.177  26.399  26.550  1.00  0.00     0.049 A 
ATOM     57  H   UNL A   1      45.482  27.323  27.395  1.00  0.00     0.167 HD
ATOM     58  C   UNL A   1      47.955  28.718  27.017  1.00  0.00     0.074 A 
ATOM     59  C   UNL A   1      48.968  29.756  27.011  1.00  0.00     0.031 C 
ATOM     60  C   UNL A   1      48.157  27.456  26.561  1.00  0.00     0.031 A 
BRANCH  47  61
ATOM     61  C   UNL A   1      43.268  23.688  27.050  1.00  0.00    -0.014 A 
ATOM     62  C   UNL A   1      43.229  22.767  28.115  1.00  0.00     0.010 A 
ATOM     63  C   UNL A   1      42.721  23.320  25.809  1.00  0.00     0.010 A 
ATOM     64  C   UNL A   1      42.683  21.496  27.933  1.00  0.00     0.020 A 
ATOM     65  C   UNL A   1      42.138  22.064  25.633  1.00  0.00     0.020 A 
ATOM     66  C   UNL A   1      42.132  21.156  26.694  1.00  0.00     0.054 A 
BRANCH  66  67
ATOM     67  S   UNL A   1      41.375  19.520  26.505  1.00  0.00     0.124 S 
ATOM     68  O   UNL A   1      41.324  19.049  27.887  1.00  0.00    -0.237 OA
ATOM     69  O   UNL A   1      40.085  19.838  25.901  1.00  0.00    -0.237 OA
ATOM     70  O   UNL A   1      42.309  18.804  25.638  1.00  0.00    -0.744 OA
ENDBRANCH  66  67
ENDBRANCH  47  61
BRANCH  48  71
ATOM     71  C   UNL A   1      46.803  32.975  28.701  1.00  0.00    -0.014 A 
ATOM     72  C   UNL A   1      47.567  33.237  29.851  1.00  0.00     0.010 A 
ATOM     73  C   UNL A   1      46.562  34.018  27.788  1.00  0.00     0.010 A 
ATOM     74  C   UNL A   1      48.051  34.524  30.101  1.00  0.00     0.020 A 
ATOM     75  C   UNL A   1      47.077  35.296  28.015  1.00  0.00     0.020 A 
ATOM     76  C   UNL A   1      47.806  35.544  29.179  1.00  0.00     0.054 A 
BRANCH  76  77
ATOM     77  S   UNL A   1      48.477  37.196  29.509  1.00  0.00     0.124 S 
ATOM     78  O   UNL A   1      47.356  38.057  29.145  1.00  0.00    -0.237 OA
ATOM     79  O   UNL A   1      48.786  37.126  30.935  1.00  0.00    -0.237 OA
ATOM     80  O   UNL A   1      49.640  37.276  28.629  1.00  0.00    -0.744 OA
ENDBRANCH  76  77
ENDBRANCH  48  71
BRANCH  60  81
ATOM     81  C   UNL A   1      49.506  27.144  25.973  1.00  0.00    -0.014 A 
ATOM     82  C   UNL A   1      50.547  26.622  26.761  1.00  0.00     0.010 A 
ATOM     83  C   UNL A   1      49.708  27.317  24.591  1.00  0.00     0.010 A 
ATOM     84  C   UNL A   1      51.779  26.315  26.182  1.00  0.00     0.020 A 
ATOM     85  C   UNL A   1      50.922  26.970  24.002  1.00  0.00     0.020 A 
ATOM     86  C   UNL A   1      51.956  26.486  24.805  1.00  0.00     0.054 A 
BRANCH  86  87
ATOM     87  S   UNL A   1      53.549  26.032  24.073  1.00  0.00     0.124 S 
ATOM     88  O   UNL A   1      54.421  27.102  24.554  1.00  0.00    -0.237 OA
ATOM     89  O   UNL A   1      53.797  24.713  24.647  1.00  0.00    -0.237 OA
ATOM     90  O   UNL A   1      53.288  26.042  22.636  1.00  0.00    -0.744 OA
ENDBRANCH  86  87
ENDBRANCH  60  81
ENDBRANCH  34  35
ENDBRANCH  26  29
ENDBRANCH  24  25
ENDBRANCH  23  24
ENDBRANCH  22  23
ENDBRANCH   1  22
TORSDOF 20
ENDMDL
MODEL 3
REMARK VINA RESULT:     -10.5      4.399      9.975
REMARK SMILES CC(C)(C)[C@H](CCC(=O)NCCCCNC(=O)c1ccc(-c2c3nc(c(-c4ccc(S(=O)(=O)[O-])cc4)c4ccc([nH]4)c(-c4ccc(S(=O)(=O)[O-])cc4)c4nc(c(-c5ccc(S(=O)(=O)[O-])cc5)c5ccc2[nH]5)C=C4)C=C3)cc1)CC[NH+]1CCOCC1
REMARK SMILES IDX 11 1 10 2 8 3 9 4 7 6 6 7 5 8 2 9 1 10 3 11 4 12 78 13 79 14
REMARK SMILES IDX 80 15 81 16 85 17 82 19 84 20 83 21 12 22 13 23 14 24 15 25
REMARK SMILES IDX 16 26 17 28 18 29 19 30 77 31 20 32 76 33 21 34 22 35 23 36
REMARK SMILES IDX 70 37 24 38 75 39 69 40 71 41 25 42 74 43 68 44 67 45 26 47
REMARK SMILES IDX 56 48 37 49 55 50 38 51 41 52 54 53 72 54 39 55 40 56 53 58
REMARK SMILES IDX 73 59 42 60 27 61 28 62 36 63 29 64 35 65 30 66 31 67 32 68
REMARK SMILES IDX 33 69 34 70 57 71 58 72 66 73 59 74 65 75 60 76 61 77 62 78
REMARK SMILES IDX 63 79 64 80 43 81 44 82 52 83 45 84 51 85 46 86 47 87 48 88
REMARK SMILES IDX 49 89 50 90
REMARK H PARENT 10 5 80 18 15 27 71 46 41 57
REMARK Flexibility Score: inf
ROOT
ATOM      1  C   UNL A   1      34.447  31.277  27.552  1.00  0.00     0.116 C 
ENDROOT
BRANCH   1   2
ATOM      2  N   UNL A   1      33.477  30.231  27.871  1.00  0.00    -0.356 N 
ATOM      3  C   UNL A   1      33.001  29.187  27.148  1.00  0.00     0.220 C 
ATOM      4  O   UNL A   1      31.816  28.892  27.340  1.00  0.00    -0.275 OA
ATOM      5  H   UNL A   1      33.100  30.296  28.778  1.00  0.00     0.163 HD
BRANCH   3   6
ATOM      6  C   UNL A   1      33.883  28.264  26.307  1.00  0.00     0.100 C 
BRANCH   6   7
ATOM      7  C   UNL A   1      33.560  27.814  24.868  1.00  0.00     0.014 C 
BRANCH   7   8
ATOM      8  C   UNL A   1      32.985  26.401  24.650  1.00  0.00     0.000 C 
BRANCH   8   9
ATOM      9  C   UNL A   1      31.509  26.187  23.996  1.00  0.00    -0.035 C 
ATOM     10  C   UNL A   1      30.405  26.323  25.043  1.00  0.00     0.011 C 
ATOM     11  C   UNL A   1      31.378  24.828  23.277  1.00  0.00     0.011 C 
ATOM     12  C   UNL A   1      31.106  27.241  22.895  1.00  0.00     0.011 C 
ENDBRANCH   8   9
BRANCH   8  13
ATOM     13  C   UNL A   1      34.126  25.348  24.348  1.00  0.00     0.065 C 
BRANCH  13  14
ATOM     14  C   UNL A   1      34.883  24.540  25.567  1.00  0.00     0.262 C 
BRANCH  14  15
ATOM     15  N   UNL A   1      34.338  23.318  26.306  1.00  0.00    -0.331 N 
ATOM     16  C   UNL A   1      34.828  22.026  25.482  1.00  0.00     0.291 C 
ATOM     17  C   UNL A   1      32.653  23.397  26.878  1.00  0.00     0.291 C 
ATOM     18  H   UNL A   1      34.733  23.259  27.244  1.00  0.00     0.348 HD
ATOM     19  C   UNL A   1      33.674  20.973  24.424  1.00  0.00     0.221 C 
ATOM     20  C   UNL A   1      31.185  22.415  26.003  1.00  0.00     0.221 C 
ATOM     21  O   UNL A   1      31.783  21.206  24.643  1.00  0.00    -0.370 OA
ENDBRANCH  14  15
ENDBRANCH  13  14
ENDBRANCH   8  13
ENDBRANCH   7   8
ENDBRANCH   6   7
ENDBRANCH   3   6
ENDBRANCH   1   2
BRANCH   1  22
ATOM     22  C   UNL A   1      34.455  32.727  28.676  1.00  0.00     0.023 C 
BRANCH  22  23
ATOM     23  C   UNL A   1      35.959  33.254  30.118  1.00  0.00     0.023 C 
BRANCH  23  24
ATOM     24  C   UNL A   1      36.517  32.080  31.434  1.00  0.00     0.116 C 
BRANCH  24  25
ATOM     25  N   UNL A   1      36.234  30.608  31.183  1.00  0.00    -0.352 N 
ATOM     26  C   UNL A   1      36.663  29.833  30.137  1.00  0.00     0.251 C 
ATOM     27  H   UNL A   1      35.673  30.155  31.853  1.00  0.00     0.163 HD
ATOM     28  O   UNL A   1      35.962  29.092  29.469  1.00  0.00    -0.269 OA
BRANCH  26  29
ATOM     29  C   UNL A   1      38.101  29.916  30.017  1.00  0.00     0.039 A 
ATOM     30  C   UNL A   1      38.955  29.414  30.988  1.00  0.00     0.014 A 
ATOM     31  C   UNL A   1      38.495  30.226  28.712  1.00  0.00     0.014 A 
ATOM     32  C   UNL A   1      40.262  29.177  30.599  1.00  0.00     0.010 A 
ATOM     33  C   UNL A   1      39.707  29.783  28.291  1.00  0.00     0.010 A 
ATOM     34  C   UNL A   1      40.619  29.326  29.244  1.00  0.00    -0.014 A 
BRANCH  34  35
ATOM     35  C   UNL A   1      41.971  29.077  28.744  1.00  0.00     0.031 A 
ATOM     36  C   UNL A   1      42.290  27.699  28.242  1.00  0.00     0.074 A 
ATOM     37  C   UNL A   1      42.898  30.039  28.875  1.00  0.00     0.049 A 
ATOM     38  N   UNL A   1      43.441  27.212  27.876  1.00  0.00    -0.248 NA
ATOM     39  C   UNL A   1      41.186  26.714  28.209  1.00  0.00     0.031 C 
ATOM     40  C   UNL A   1      42.675  31.377  29.431  1.00  0.00     0.029 A 
ATOM     41  N   UNL A   1      44.222  30.030  28.545  1.00  0.00    -0.354 N 
ATOM     42  C   UNL A   1      43.201  25.875  27.597  1.00  0.00     0.074 A 
ATOM     43  C   UNL A   1      41.830  25.593  27.934  1.00  0.00     0.031 C 
ATOM     44  C   UNL A   1      43.812  32.082  29.340  1.00  0.00     0.029 A 
ATOM     45  C   UNL A   1      44.852  31.225  28.784  1.00  0.00     0.049 A 
ATOM     46  H   UNL A   1      44.680  29.242  28.172  1.00  0.00     0.167 HD
ATOM     47  C   UNL A   1      44.047  24.971  27.061  1.00  0.00     0.031 A 
ATOM     48  C   UNL A   1      46.132  31.574  28.573  1.00  0.00     0.031 A 
ATOM     49  C   UNL A   1      45.400  25.288  26.713  1.00  0.00     0.049 A 
ATOM     50  C   UNL A   1      47.056  30.546  27.983  1.00  0.00     0.074 A 
ATOM     51  C   UNL A   1      46.340  24.484  26.101  1.00  0.00     0.029 A 
ATOM     52  N   UNL A   1      46.006  26.514  26.952  1.00  0.00    -0.354 N 
ATOM     53  N   UNL A   1      46.798  29.307  27.633  1.00  0.00    -0.248 NA
ATOM     54  C   UNL A   1      48.440  30.967  27.745  1.00  0.00     0.031 C 
ATOM     55  C   UNL A   1      47.539  25.196  26.043  1.00  0.00     0.029 A 
ATOM     56  C   UNL A   1      47.321  26.476  26.534  1.00  0.00     0.049 A 
ATOM     57  H   UNL A   1      45.563  27.295  27.360  1.00  0.00     0.167 HD
ATOM     58  C   UNL A   1      47.981  28.809  27.101  1.00  0.00     0.074 A 
ATOM     59  C   UNL A   1      48.946  29.891  27.160  1.00  0.00     0.031 C 
ATOM     60  C   UNL A   1      48.252  27.575  26.609  1.00  0.00     0.031 A 
BRANCH  47  61
ATOM     61  C   UNL A   1      43.527  23.579  26.827  1.00  0.00    -0.014 A 
ATOM     62  C   UNL A   1      43.566  22.984  25.551  1.00  0.00     0.010 A 
ATOM     63  C   UNL A   1      43.014  22.843  27.908  1.00  0.00     0.010 A 
ATOM     64  C   UNL A   1      43.073  21.693  25.356  1.00  0.00     0.020 A 
ATOM     65  C   UNL A   1      42.557  21.537  27.726  1.00  0.00     0.020 A 
ATOM     66  C   UNL A   1      42.581  20.974  26.449  1.00  0.00     0.054 A 
BRANCH  66  67
ATOM     67  S   UNL A   1      42.004  19.278  26.176  1.00  0.00     0.124 S 
ATOM     68  O   UNL A   1      42.765  18.885  24.992  1.00  0.00    -0.237 OA
ATOM     69  O   UNL A   1      42.386  18.612  27.419  1.00  0.00    -0.237 OA
ATOM     70  O   UNL A   1      40.565  19.429  25.969  1.00  0.00    -0.744 OA
ENDBRANCH  66  67
ENDBRANCH  47  61
BRANCH  48  71
ATOM     71  C   UNL A   1      46.592  32.950  28.894  1.00  0.00    -0.014 A 
ATOM     72  C   UNL A   1      46.418  33.994  27.969  1.00  0.00     0.010 A 
ATOM     73  C   UNL A   1      47.192  33.228  30.136  1.00  0.00     0.010 A 
ATOM     74  C   UNL A   1      46.866  35.284  28.267  1.00  0.00     0.020 A 
ATOM     75  C   UNL A   1      47.605  34.524  30.452  1.00  0.00     0.020 A 
ATOM     76  C   UNL A   1      47.452  35.541  29.508  1.00  0.00     0.054 A 
BRANCH  76  77
ATOM     77  S   UNL A   1      47.991  37.231  29.884  1.00  0.00     0.124 S 
ATOM     78  O   UNL A   1      47.060  37.620  30.938  1.00  0.00    -0.237 OA
ATOM     79  O   UNL A   1      49.376  37.029  30.303  1.00  0.00    -0.237 OA
ATOM     80  O   UNL A   1      47.828  37.934  28.613  1.00  0.00    -0.744 OA
ENDBRANCH  76  77
ENDBRANCH  48  71
BRANCH  60  81
ATOM     81  C   UNL A   1      49.629  27.343  26.051  1.00  0.00    -0.014 A 
ATOM     82  C   UNL A   1      49.918  27.565  24.693  1.00  0.00     0.010 A 
ATOM     83  C   UNL A   1      50.666  26.961  26.922  1.00  0.00     0.010 A 
ATOM     84  C   UNL A   1      51.213  27.369  24.210  1.00  0.00     0.020 A 
ATOM     85  C   UNL A   1      51.969  26.808  26.452  1.00  0.00     0.020 A 
ATOM     86  C   UNL A   1      52.231  26.998  25.094  1.00  0.00     0.054 A 
BRANCH  86  87
ATOM     87  S   UNL A   1      53.911  26.801  24.449  1.00  0.00     0.124 S 
ATOM     88  O   UNL A   1      54.701  27.544  25.427  1.00  0.00    -0.237 OA
ATOM     89  O   UNL A   1      54.089  25.352  24.465  1.00  0.00    -0.237 OA
ATOM     90  O   UNL A   1      53.846  27.401  23.118  1.00  0.00    -0.744 OA
ENDBRANCH  86  87
ENDBRANCH  60  81
ENDBRANCH  34  35
ENDBRANCH  26  29
ENDBRANCH  24  25
ENDBRANCH  23  24
ENDBRANCH  22  23
ENDBRANCH   1  22
TORSDOF 20
ENDMDL
