MODEL 1
REMARK VINA RESULT:     -13.2      0.000      0.000
REMARK SMILES Cc1cccc(CN(C)c2ccc(C(=O)NCCCCNC(=O)c3ccc(-c4c5nc(c(-c6ccc(S(=O)(=O)[O-])cc6)c6ccc([nH]6)c(-c6ccc(S(=O)(=O)[O-])cc6)c6nc(c(-c7ccc(S(=O)(=O)[O-])cc7)c7ccc4[nH]7)C=C6)C=C5)cc3)cc2C)n1
REMARK SMILES IDX 18 1 17 2 16 3 14 4 15 5 13 7 10 8 11 9 85 10 12 11 84 12
REMARK SMILES IDX 86 13 8 14 9 15 7 16 6 17 1 18 2 19 3 20 87 21 4 22 5 23
REMARK SMILES IDX 19 24 20 25 21 26 22 27 23 29 24 30 25 31 83 32 26 33 82 34
REMARK SMILES IDX 27 35 28 36 29 37 76 38 30 39 81 40 75 41 77 42 31 43 80 44
REMARK SMILES IDX 74 45 73 46 32 48 62 49 43 50 61 51 44 52 47 53 60 54 78 55
REMARK SMILES IDX 45 56 46 57 59 59 79 60 48 61 33 62 34 63 42 64 35 65 41 66
REMARK SMILES IDX 36 67 37 68 38 69 39 70 40 71 63 72 64 73 72 74 65 75 71 76
REMARK SMILES IDX 66 77 67 78 68 79 69 80 70 81 49 82 50 83 58 84 51 85 57 86
REMARK SMILES IDX 52 87 53 88 54 89 55 90 56 91
REMARK H PARENT 16 6 21 28 77 47 47 58
REMARK Flexibility Score: inf
ROOT
ATOM      1  C   UNL A   1      32.610  29.946  25.586  1.00  0.00     0.023 C 
ENDROOT
BRANCH   1   2
ATOM      2  C   UNL A   1      31.116  30.028  25.250  1.00  0.00     0.116 C 
BRANCH   2   3
ATOM      3  N   UNL A   1      30.783  29.795  23.844  1.00  0.00    -0.352 N 
ATOM      4  C   UNL A   1      30.727  28.665  23.051  1.00  0.00     0.251 C 
ATOM      5  O   UNL A   1      30.432  28.805  21.862  1.00  0.00    -0.269 OA
ATOM      6  H   UNL A   1      30.549  30.620  23.360  1.00  0.00     0.163 HD
BRANCH   4   7
ATOM      7  C   UNL A   1      31.052  27.298  23.543  1.00  0.00     0.040 A 
ATOM      8  C   UNL A   1      31.912  24.796  24.662  1.00  0.00     0.040 A 
ATOM      9  C   UNL A   1      30.744  25.460  25.058  1.00  0.00     0.027 A 
ATOM     10  C   UNL A   1      32.540  25.330  23.517  1.00  0.00    -0.027 A 
ATOM     11  C   UNL A   1      30.281  26.640  24.474  1.00  0.00     0.016 A 
ATOM     12  C   UNL A   1      32.144  26.598  23.010  1.00  0.00     0.019 A 
ATOM     13  C   UNL A   1      33.601  24.586  22.750  1.00  0.00     0.046 C 
BRANCH   8  14
ATOM     14  N   UNL A   1      32.403  23.700  25.378  1.00  0.00    -0.368 N 
ATOM     15  C   UNL A   1      33.424  23.973  26.389  1.00  0.00     0.144 C 
BRANCH  14  16
ATOM     16  C   UNL A   1      31.619  22.456  25.576  1.00  0.00     0.172 C 
BRANCH  16  17
ATOM     17  C   UNL A   1      32.096  21.235  24.788  1.00  0.00     0.060 A 
ATOM     18  C   UNL A   1      32.651  17.654  25.459  1.00  0.00     0.067 C 
ATOM     19  C   UNL A   1      32.483  18.941  24.709  1.00  0.00     0.038 A 
ATOM     20  C   UNL A   1      32.449  18.943  23.317  1.00  0.00     0.023 A 
ATOM     21  N   UNL A   1      32.323  20.069  25.452  1.00  0.00    -0.256 NA
ATOM     22  C   UNL A   1      32.296  20.151  22.652  1.00  0.00     0.004 A 
ATOM     23  C   UNL A   1      32.143  21.318  23.392  1.00  0.00     0.026 A 
ENDBRANCH  16  17
ENDBRANCH  14  16
ENDBRANCH   8  14
ENDBRANCH   4   7
ENDBRANCH   2   3
ENDBRANCH   1   2
BRANCH   1  24
ATOM     24  C   UNL A   1      32.985  29.831  27.061  1.00  0.00     0.023 C 
BRANCH  24  25
ATOM     25  C   UNL A   1      34.448  29.525  27.336  1.00  0.00     0.116 C 
BRANCH  25  26
ATOM     26  N   UNL A   1      35.401  30.597  27.094  1.00  0.00    -0.352 N 
ATOM     27  C   UNL A   1      36.428  30.864  28.009  1.00  0.00     0.251 C 
ATOM     28  H   UNL A   1      35.323  31.142  26.278  1.00  0.00     0.163 HD
ATOM     29  O   UNL A   1      36.581  31.922  28.580  1.00  0.00    -0.269 OA
BRANCH  27  30
ATOM     30  C   UNL A   1      37.364  29.729  28.222  1.00  0.00     0.039 A 
ATOM     31  C   UNL A   1      37.368  29.032  29.433  1.00  0.00     0.014 A 
ATOM     32  C   UNL A   1      38.372  29.531  27.284  1.00  0.00     0.014 A 
ATOM     33  C   UNL A   1      38.486  28.262  29.772  1.00  0.00     0.010 A 
ATOM     34  C   UNL A   1      39.521  28.885  27.672  1.00  0.00     0.010 A 
ATOM     35  C   UNL A   1      39.594  28.270  28.926  1.00  0.00    -0.014 A 
BRANCH  35  36
ATOM     36  C   UNL A   1      40.902  27.700  29.228  1.00  0.00     0.031 A 
ATOM     37  C   UNL A   1      41.212  26.314  28.804  1.00  0.00     0.074 A 
ATOM     38  C   UNL A   1      41.898  28.505  29.661  1.00  0.00     0.049 A 
ATOM     39  N   UNL A   1      42.230  25.634  29.213  1.00  0.00    -0.248 NA
ATOM     40  C   UNL A   1      40.361  25.565  27.884  1.00  0.00     0.031 C 
ATOM     41  C   UNL A   1      43.333  28.236  29.603  1.00  0.00     0.029 A 
ATOM     42  N   UNL A   1      41.810  29.657  30.443  1.00  0.00    -0.354 N 
ATOM     43  C   UNL A   1      42.355  24.542  28.384  1.00  0.00     0.074 A 
ATOM     44  C   UNL A   1      41.121  24.495  27.637  1.00  0.00     0.031 C 
ATOM     45  C   UNL A   1      43.944  28.975  30.541  1.00  0.00     0.029 A 
ATOM     46  C   UNL A   1      42.900  29.601  31.332  1.00  0.00     0.049 A 
ATOM     47  H   UNL A   1      41.126  30.363  30.385  1.00  0.00     0.167 HD
ATOM     48  C   UNL A   1      43.543  23.877  28.319  1.00  0.00     0.031 A 
ATOM     49  C   UNL A   1      42.756  29.480  32.687  1.00  0.00     0.031 A 
ATOM     50  C   UNL A   1      44.516  24.395  29.285  1.00  0.00     0.049 A 
ATOM     51  C   UNL A   1      43.393  28.222  33.259  1.00  0.00     0.074 A 
ATOM     52  C   UNL A   1      45.665  25.163  29.199  1.00  0.00     0.029 A 
ATOM     53  N   UNL A   1      44.193  24.345  30.630  1.00  0.00    -0.354 N 
ATOM     54  N   UNL A   1      44.028  27.329  32.551  1.00  0.00    -0.248 NA
ATOM     55  C   UNL A   1      43.276  27.825  34.664  1.00  0.00     0.031 C 
ATOM     56  C   UNL A   1      46.022  25.578  30.516  1.00  0.00     0.029 A 
ATOM     57  C   UNL A   1      45.098  25.051  31.398  1.00  0.00     0.049 A 
ATOM     58  H   UNL A   1      43.414  23.866  30.995  1.00  0.00     0.167 HD
ATOM     59  C   UNL A   1      44.328  26.247  33.334  1.00  0.00     0.074 A 
ATOM     60  C   UNL A   1      43.858  26.612  34.658  1.00  0.00     0.031 C 
ATOM     61  C   UNL A   1      44.888  25.108  32.834  1.00  0.00     0.031 A 
BRANCH  48  62
ATOM     62  C   UNL A   1      43.904  22.897  27.221  1.00  0.00    -0.014 A 
ATOM     63  C   UNL A   1      42.989  21.887  26.861  1.00  0.00     0.010 A 
ATOM     64  C   UNL A   1      45.131  22.889  26.531  1.00  0.00     0.010 A 
ATOM     65  C   UNL A   1      43.318  20.872  25.948  1.00  0.00     0.020 A 
ATOM     66  C   UNL A   1      45.490  21.862  25.645  1.00  0.00     0.020 A 
ATOM     67  C   UNL A   1      44.582  20.849  25.368  1.00  0.00     0.054 A 
BRANCH  67  68
ATOM     68  S   UNL A   1      45.022  19.489  24.254  1.00  0.00     0.124 S 
ATOM     69  O   UNL A   1      44.477  19.941  22.976  1.00  0.00    -0.237 OA
ATOM     70  O   UNL A   1      46.478  19.467  24.347  1.00  0.00    -0.237 OA
ATOM     71  O   UNL A   1      44.344  18.332  24.836  1.00  0.00    -0.744 OA
ENDBRANCH  67  68
ENDBRANCH  48  62
BRANCH  49  72
ATOM     72  C   UNL A   1      41.522  30.137  33.211  1.00  0.00    -0.014 A 
ATOM     73  C   UNL A   1      41.547  31.545  33.316  1.00  0.00     0.010 A 
ATOM     74  C   UNL A   1      40.281  29.482  33.115  1.00  0.00     0.010 A 
ATOM     75  C   UNL A   1      40.385  32.290  33.101  1.00  0.00     0.020 A 
ATOM     76  C   UNL A   1      39.112  30.230  32.916  1.00  0.00     0.020 A 
ATOM     77  C   UNL A   1      39.194  31.624  32.818  1.00  0.00     0.054 A 
BRANCH  77  78
ATOM     78  S   UNL A   1      37.822  32.587  32.110  1.00  0.00     0.124 S 
ATOM     79  O   UNL A   1      37.495  33.511  33.190  1.00  0.00    -0.237 OA
ATOM     80  O   UNL A   1      38.453  33.189  30.933  1.00  0.00    -0.237 OA
ATOM     81  O   UNL A   1      36.817  31.571  31.820  1.00  0.00    -0.744 OA
ENDBRANCH  77  78
ENDBRANCH  49  72
BRANCH  61  82
ATOM     82  C   UNL A   1      45.245  23.910  33.671  1.00  0.00    -0.014 A 
ATOM     83  C   UNL A   1      46.555  23.666  34.111  1.00  0.00     0.010 A 
ATOM     84  C   UNL A   1      44.278  22.910  33.924  1.00  0.00     0.010 A 
ATOM     85  C   UNL A   1      46.872  22.501  34.826  1.00  0.00     0.020 A 
ATOM     86  C   UNL A   1      44.586  21.738  34.618  1.00  0.00     0.020 A 
ATOM     87  C   UNL A   1      45.882  21.549  35.082  1.00  0.00     0.054 A 
BRANCH  87  88
ATOM     88  S   UNL A   1      46.315  20.036  35.977  1.00  0.00     0.124 S 
ATOM     89  O   UNL A   1      47.775  20.073  35.984  1.00  0.00    -0.237 OA
ATOM     90  O   UNL A   1      45.675  20.260  37.271  1.00  0.00    -0.237 OA
ATOM     91  O   UNL A   1      45.728  18.971  35.168  1.00  0.00    -0.744 OA
ENDBRANCH  87  88
ENDBRANCH  61  82
ENDBRANCH  35  36
ENDBRANCH  27  30
ENDBRANCH  25  26
ENDBRANCH  24  25
ENDBRANCH   1  24
TORSDOF 17
ENDMDL
MODEL 2
REMARK VINA RESULT:     -13.0      1.241      1.939
REMARK SMILES Cc1cccc(CN(C)c2ccc(C(=O)NCCCCNC(=O)c3ccc(-c4c5nc(c(-c6ccc(S(=O)(=O)[O-])cc6)c6ccc([nH]6)c(-c6ccc(S(=O)(=O)[O-])cc6)c6nc(c(-c7ccc(S(=O)(=O)[O-])cc7)c7ccc4[nH]7)C=C6)C=C5)cc3)cc2C)n1
REMARK SMILES IDX 18 1 17 2 16 3 14 4 15 5 13 7 10 8 11 9 85 10 12 11 84 12
REMARK SMILES IDX 86 13 8 14 9 15 7 16 6 17 1 18 2 19 3 20 87 21 4 22 5 23
REMARK SMILES IDX 19 24 20 25 21 26 22 27 23 29 24 30 25 31 83 32 26 33 82 34
REMARK SMILES IDX 27 35 28 36 29 37 76 38 30 39 81 40 75 41 77 42 31 43 80 44
REMARK SMILES IDX 74 45 73 46 32 48 62 49 43 50 61 51 44 52 47 53 60 54 78 55
REMARK SMILES IDX 45 56 46 57 59 59 79 60 48 61 33 62 34 63 42 64 35 65 41 66
REMARK SMILES IDX 36 67 37 68 38 69 39 70 40 71 63 72 64 73 72 74 65 75 71 76
REMARK SMILES IDX 66 77 67 78 68 79 69 80 70 81 49 82 50 83 58 84 51 85 57 86
REMARK SMILES IDX 52 87 53 88 54 89 55 90 56 91
REMARK H PARENT 16 6 21 28 77 47 47 58
REMARK Flexibility Score: inf
ROOT
ATOM      1  C   UNL A   1      32.884  29.838  25.430  1.00  0.00     0.023 C 
ENDROOT
BRANCH   1   2
ATOM      2  C   UNL A   1      31.367  29.689  25.258  1.00  0.00     0.116 C 
BRANCH   2   3
ATOM      3  N   UNL A   1      30.884  29.812  23.882  1.00  0.00    -0.352 N 
ATOM      4  C   UNL A   1      30.933  28.985  22.776  1.00  0.00     0.251 C 
ATOM      5  O   UNL A   1      30.445  29.399  21.722  1.00  0.00    -0.269 OA
ATOM      6  H   UNL A   1      30.426  30.666  23.707  1.00  0.00     0.163 HD
BRANCH   4   7
ATOM      7  C   UNL A   1      31.585  27.647  22.777  1.00  0.00     0.040 A 
ATOM      8  C   UNL A   1      32.718  25.023  22.489  1.00  0.00     0.040 A 
ATOM      9  C   UNL A   1      33.466  26.204  22.396  1.00  0.00     0.027 A 
ATOM     10  C   UNL A   1      31.396  25.193  22.949  1.00  0.00    -0.027 A 
ATOM     11  C   UNL A   1      32.940  27.480  22.601  1.00  0.00     0.016 A 
ATOM     12  C   UNL A   1      30.828  26.494  23.030  1.00  0.00     0.019 A 
ATOM     13  C   UNL A   1      30.546  24.043  23.423  1.00  0.00     0.046 C 
BRANCH   8  14
ATOM     14  N   UNL A   1      33.265  23.787  22.132  1.00  0.00    -0.368 N 
ATOM     15  C   UNL A   1      32.977  23.302  20.781  1.00  0.00     0.144 C 
BRANCH  14  16
ATOM     16  C   UNL A   1      34.490  23.239  22.764  1.00  0.00     0.172 C 
BRANCH  16  17
ATOM     17  C   UNL A   1      34.562  23.354  24.287  1.00  0.00     0.060 A 
ATOM     18  C   UNL A   1      32.389  22.541  27.150  1.00  0.00     0.067 C 
ATOM     19  C   UNL A   1      33.608  22.926  26.366  1.00  0.00     0.038 A 
ATOM     20  C   UNL A   1      34.836  23.067  27.005  1.00  0.00     0.023 A 
ATOM     21  N   UNL A   1      33.453  23.078  25.024  1.00  0.00    -0.256 NA
ATOM     22  C   UNL A   1      35.946  23.427  26.252  1.00  0.00     0.004 A 
ATOM     23  C   UNL A   1      35.807  23.599  24.880  1.00  0.00     0.026 A 
ENDBRANCH  16  17
ENDBRANCH  14  16
ENDBRANCH   8  14
ENDBRANCH   4   7
ENDBRANCH   2   3
ENDBRANCH   1   2
BRANCH   1  24
ATOM     24  C   UNL A   1      33.575  28.861  26.377  1.00  0.00     0.023 C 
BRANCH  24  25
ATOM     25  C   UNL A   1      34.386  29.501  27.491  1.00  0.00     0.116 C 
BRANCH  25  26
ATOM     26  N   UNL A   1      35.330  30.540  27.103  1.00  0.00    -0.352 N 
ATOM     27  C   UNL A   1      36.429  30.848  27.915  1.00  0.00     0.251 C 
ATOM     28  H   UNL A   1      35.194  31.030  26.261  1.00  0.00     0.163 HD
ATOM     29  O   UNL A   1      36.639  31.938  28.400  1.00  0.00    -0.269 OA
BRANCH  27  30
ATOM     30  C   UNL A   1      37.366  29.714  28.130  1.00  0.00     0.039 A 
ATOM     31  C   UNL A   1      37.363  29.011  29.337  1.00  0.00     0.014 A 
ATOM     32  C   UNL A   1      38.381  29.523  27.198  1.00  0.00     0.014 A 
ATOM     33  C   UNL A   1      38.480  28.242  29.681  1.00  0.00     0.010 A 
ATOM     34  C   UNL A   1      39.529  28.877  27.591  1.00  0.00     0.010 A 
ATOM     35  C   UNL A   1      39.594  28.256  28.843  1.00  0.00    -0.014 A 
BRANCH  35  36
ATOM     36  C   UNL A   1      40.900  27.687  29.151  1.00  0.00     0.031 A 
ATOM     37  C   UNL A   1      41.211  26.298  28.736  1.00  0.00     0.074 A 
ATOM     38  C   UNL A   1      41.896  28.494  29.583  1.00  0.00     0.049 A 
ATOM     39  N   UNL A   1      42.227  25.621  29.151  1.00  0.00    -0.248 NA
ATOM     40  C   UNL A   1      40.362  25.546  27.817  1.00  0.00     0.031 C 
ATOM     41  C   UNL A   1      43.331  28.224  29.530  1.00  0.00     0.029 A 
ATOM     42  N   UNL A   1      41.806  29.650  30.359  1.00  0.00    -0.354 N 
ATOM     43  C   UNL A   1      42.354  24.524  28.328  1.00  0.00     0.074 A 
ATOM     44  C   UNL A   1      41.122  24.474  27.578  1.00  0.00     0.031 C 
ATOM     45  C   UNL A   1      43.939  28.968  30.466  1.00  0.00     0.029 A 
ATOM     46  C   UNL A   1      42.894  29.599  31.251  1.00  0.00     0.049 A 
ATOM     47  H   UNL A   1      41.123  30.356  30.295  1.00  0.00     0.167 HD
ATOM     48  C   UNL A   1      43.543  23.858  28.270  1.00  0.00     0.031 A 
ATOM     49  C   UNL A   1      42.745  29.485  32.606  1.00  0.00     0.031 A 
ATOM     50  C   UNL A   1      44.513  24.381  29.236  1.00  0.00     0.049 A 
ATOM     51  C   UNL A   1      43.380  28.230  33.186  1.00  0.00     0.074 A 
ATOM     52  C   UNL A   1      45.663  25.148  29.149  1.00  0.00     0.029 A 
ATOM     53  N   UNL A   1      44.186  24.338  30.581  1.00  0.00    -0.354 N 
ATOM     54  N   UNL A   1      44.017  27.333  32.485  1.00  0.00    -0.248 NA
ATOM     55  C   UNL A   1      43.260  27.840  34.593  1.00  0.00     0.031 C 
ATOM     56  C   UNL A   1      46.016  25.570  30.465  1.00  0.00     0.029 A 
ATOM     57  C   UNL A   1      45.089  25.048  31.347  1.00  0.00     0.049 A 
ATOM     58  H   UNL A   1      43.406  23.862  30.945  1.00  0.00     0.167 HD
ATOM     59  C   UNL A   1      44.315  26.255  33.275  1.00  0.00     0.074 A 
ATOM     60  C   UNL A   1      43.841  26.627  34.595  1.00  0.00     0.031 C 
ATOM     61  C   UNL A   1      44.876  25.113  32.782  1.00  0.00     0.031 A 
BRANCH  48  62
ATOM     62  C   UNL A   1      43.906  22.872  27.178  1.00  0.00    -0.014 A 
ATOM     63  C   UNL A   1      42.985  21.870  26.810  1.00  0.00     0.010 A 
ATOM     64  C   UNL A   1      45.141  22.851  26.502  1.00  0.00     0.010 A 
ATOM     65  C   UNL A   1      43.315  20.850  25.904  1.00  0.00     0.020 A 
ATOM     66  C   UNL A   1      45.499  21.818  25.622  1.00  0.00     0.020 A 
ATOM     67  C   UNL A   1      44.585  20.813  25.338  1.00  0.00     0.054 A 
BRANCH  67  68
ATOM     68  S   UNL A   1      45.024  19.447  24.232  1.00  0.00     0.124 S 
ATOM     69  O   UNL A   1      46.483  19.455  24.287  1.00  0.00    -0.237 OA
ATOM     70  O   UNL A   1      44.375  18.306  24.870  1.00  0.00    -0.237 OA
ATOM     71  O   UNL A   1      44.455  19.846  22.946  1.00  0.00    -0.744 OA
ENDBRANCH  67  68
ENDBRANCH  48  62
BRANCH  49  72
ATOM     72  C   UNL A   1      41.511  30.145  33.123  1.00  0.00    -0.014 A 
ATOM     73  C   UNL A   1      41.528  31.555  33.201  1.00  0.00     0.010 A 
ATOM     74  C   UNL A   1      40.273  29.482  33.046  1.00  0.00     0.010 A 
ATOM     75  C   UNL A   1      40.361  32.289  32.976  1.00  0.00     0.020 A 
ATOM     76  C   UNL A   1      39.099  30.220  32.838  1.00  0.00     0.020 A 
ATOM     77  C   UNL A   1      39.173  31.611  32.712  1.00  0.00     0.054 A 
BRANCH  77  78
ATOM     78  S   UNL A   1      37.792  32.553  31.992  1.00  0.00     0.124 S 
ATOM     79  O   UNL A   1      36.837  31.503  31.653  1.00  0.00    -0.237 OA
ATOM     80  O   UNL A   1      37.406  33.421  33.106  1.00  0.00    -0.237 OA
ATOM     81  O   UNL A   1      38.409  33.236  30.861  1.00  0.00    -0.744 OA
ENDBRANCH  77  78
ENDBRANCH  49  72
BRANCH  61  82
ATOM     82  C   UNL A   1      45.230  23.919  33.627  1.00  0.00    -0.014 A 
ATOM     83  C   UNL A   1      46.544  23.661  34.047  1.00  0.00     0.010 A 
ATOM     84  C   UNL A   1      44.253  22.936  33.908  1.00  0.00     0.010 A 
ATOM     85  C   UNL A   1      46.855  22.499  34.770  1.00  0.00     0.020 A 
ATOM     86  C   UNL A   1      44.556  21.768  34.609  1.00  0.00     0.020 A 
ATOM     87  C   UNL A   1      45.856  21.565  35.053  1.00  0.00     0.054 A 
BRANCH  87  88
ATOM     88  S   UNL A   1      46.283  20.056  35.958  1.00  0.00     0.124 S 
ATOM     89  O   UNL A   1      45.651  19.011  35.158  1.00  0.00    -0.237 OA
ATOM     90  O   UNL A   1      47.743  20.083  35.914  1.00  0.00    -0.237 OA
ATOM     91  O   UNL A   1      45.694  20.263  37.280  1.00  0.00    -0.744 OA
ENDBRANCH  87  88
ENDBRANCH  61  82
ENDBRANCH  35  36
ENDBRANCH  27  30
ENDBRANCH  25  26
ENDBRANCH  24  25
ENDBRANCH   1  24
TORSDOF 17
ENDMDL
MODEL 3
REMARK VINA RESULT:     -12.7      2.296      3.616
REMARK SMILES Cc1cccc(CN(C)c2ccc(C(=O)NCCCCNC(=O)c3ccc(-c4c5nc(c(-c6ccc(S(=O)(=O)[O-])cc6)c6ccc([nH]6)c(-c6ccc(S(=O)(=O)[O-])cc6)c6nc(c(-c7ccc(S(=O)(=O)[O-])cc7)c7ccc4[nH]7)C=C6)C=C5)cc3)cc2C)n1
REMARK SMILES IDX 18 1 17 2 16 3 14 4 15 5 13 7 10 8 11 9 85 10 12 11 84 12
REMARK SMILES IDX 86 13 8 14 9 15 7 16 6 17 1 18 2 19 3 20 87 21 4 22 5 23
REMARK SMILES IDX 19 24 20 25 21 26 22 27 23 29 24 30 25 31 83 32 26 33 82 34
REMARK SMILES IDX 27 35 28 36 29 37 76 38 30 39 81 40 75 41 77 42 31 43 80 44
REMARK SMILES IDX 74 45 73 46 32 48 62 49 43 50 61 51 44 52 47 53 60 54 78 55
REMARK SMILES IDX 45 56 46 57 59 59 79 60 48 61 33 62 34 63 42 64 35 65 41 66
REMARK SMILES IDX 36 67 37 68 38 69 39 70 40 71 63 72 64 73 72 74 65 75 71 76
REMARK SMILES IDX 66 77 67 78 68 79 69 80 70 81 49 82 50 83 58 84 51 85 57 86
REMARK SMILES IDX 52 87 53 88 54 89 55 90 56 91
REMARK H PARENT 16 6 21 28 77 47 47 58
REMARK Flexibility Score: inf
ROOT
ATOM      1  C   UNL A   1      33.647  28.106  25.228  1.00  0.00     0.023 C 
ENDROOT
BRANCH   1   2
ATOM      2  C   UNL A   1      32.702  27.661  24.106  1.00  0.00     0.116 C 
BRANCH   2   3
ATOM      3  N   UNL A   1      31.383  27.206  24.551  1.00  0.00    -0.352 N 
ATOM      4  C   UNL A   1      30.882  25.986  24.961  1.00  0.00     0.251 C 
ATOM      5  O   UNL A   1      29.687  25.919  25.254  1.00  0.00    -0.269 OA
ATOM      6  H   UNL A   1      30.709  27.924  24.560  1.00  0.00     0.163 HD
BRANCH   4   7
ATOM      7  C   UNL A   1      31.696  24.741  25.019  1.00  0.00     0.040 A 
ATOM      8  C   UNL A   1      33.492  22.499  24.973  1.00  0.00     0.040 A 
ATOM      9  C   UNL A   1      33.241  23.267  26.118  1.00  0.00     0.027 A 
ATOM     10  C   UNL A   1      32.638  22.765  23.882  1.00  0.00    -0.027 A 
ATOM     11  C   UNL A   1      32.321  24.314  26.170  1.00  0.00     0.016 A 
ATOM     12  C   UNL A   1      31.798  23.912  23.893  1.00  0.00     0.019 A 
ATOM     13  C   UNL A   1      32.527  21.845  22.694  1.00  0.00     0.046 C 
BRANCH   8  14
ATOM     14  N   UNL A   1      34.527  21.559  24.940  1.00  0.00    -0.368 N 
ATOM     15  C   UNL A   1      34.143  20.149  25.016  1.00  0.00     0.144 C 
BRANCH  14  16
ATOM     16  C   UNL A   1      35.840  21.835  24.307  1.00  0.00     0.172 C 
BRANCH  16  17
ATOM     17  C   UNL A   1      36.961  22.259  25.257  1.00  0.00     0.060 A 
ATOM     18  C   UNL A   1      40.261  20.964  26.265  1.00  0.00     0.067 C 
ATOM     19  C   UNL A   1      39.099  21.897  26.102  1.00  0.00     0.038 A 
ATOM     20  C   UNL A   1      39.194  23.216  26.538  1.00  0.00     0.023 A 
ATOM     21  N   UNL A   1      37.996  21.404  25.479  1.00  0.00    -0.256 NA
ATOM     22  C   UNL A   1      38.100  24.055  26.377  1.00  0.00     0.004 A 
ATOM     23  C   UNL A   1      36.958  23.568  25.752  1.00  0.00     0.026 A 
ENDBRANCH  16  17
ENDBRANCH  14  16
ENDBRANCH   8  14
ENDBRANCH   4   7
ENDBRANCH   2   3
ENDBRANCH   1   2
BRANCH   1  24
ATOM     24  C   UNL A   1      33.118  28.022  26.657  1.00  0.00     0.023 C 
BRANCH  24  25
ATOM     25  C   UNL A   1      32.782  29.355  27.305  1.00  0.00     0.116 C 
BRANCH  25  26
ATOM     26  N   UNL A   1      33.517  30.519  26.831  1.00  0.00    -0.352 N 
ATOM     27  C   UNL A   1      34.451  31.160  27.654  1.00  0.00     0.251 C 
ATOM     28  H   UNL A   1      33.354  30.859  25.922  1.00  0.00     0.163 HD
ATOM     29  O   UNL A   1      34.384  32.321  27.994  1.00  0.00    -0.269 OA
BRANCH  27  30
ATOM     30  C   UNL A   1      35.583  30.295  28.080  1.00  0.00     0.039 A 
ATOM     31  C   UNL A   1      35.639  29.790  29.382  1.00  0.00     0.014 A 
ATOM     32  C   UNL A   1      36.679  30.192  27.230  1.00  0.00     0.014 A 
ATOM     33  C   UNL A   1      36.862  29.335  29.884  1.00  0.00     0.010 A 
ATOM     34  C   UNL A   1      37.904  29.870  27.763  1.00  0.00     0.010 A 
ATOM     35  C   UNL A   1      38.007  29.466  29.098  1.00  0.00    -0.014 A 
BRANCH  35  36
ATOM     36  C   UNL A   1      39.376  29.239  29.542  1.00  0.00     0.031 A 
ATOM     37  C   UNL A   1      40.045  27.953  29.230  1.00  0.00     0.074 A 
ATOM     38  C   UNL A   1      40.108  30.276  30.008  1.00  0.00     0.049 A 
ATOM     39  N   UNL A   1      41.150  27.555  29.763  1.00  0.00    -0.248 NA
ATOM     40  C   UNL A   1      39.487  26.987  28.288  1.00  0.00     0.031 C 
ATOM     41  C   UNL A   1      41.565  30.359  30.087  1.00  0.00     0.029 A 
ATOM     42  N   UNL A   1      39.676  31.402  30.710  1.00  0.00    -0.354 N 
ATOM     43  C   UNL A   1      41.609  26.494  29.015  1.00  0.00     0.074 A 
ATOM     44  C   UNL A   1      40.498  26.123  28.171  1.00  0.00     0.031 C 
ATOM     45  C   UNL A   1      41.890  31.259  31.027  1.00  0.00     0.029 A 
ATOM     46  C   UNL A   1      40.658  31.645  31.689  1.00  0.00     0.049 A 
ATOM     47  H   UNL A   1      38.853  31.920  30.552  1.00  0.00     0.167 HD
ATOM     48  C   UNL A   1      42.922  26.133  29.090  1.00  0.00     0.031 A 
ATOM     49  C   UNL A   1      40.417  31.545  33.032  1.00  0.00     0.031 A 
ATOM     50  C   UNL A   1      43.647  26.907  30.101  1.00  0.00     0.049 A 
ATOM     51  C   UNL A   1      41.275  30.500  33.729  1.00  0.00     0.074 A 
ATOM     52  C   UNL A   1      44.585  27.925  30.066  1.00  0.00     0.029 A 
ATOM     53  N   UNL A   1      43.218  26.832  31.415  1.00  0.00    -0.354 N 
ATOM     54  N   UNL A   1      42.168  29.760  33.132  1.00  0.00    -0.248 NA
ATOM     55  C   UNL A   1      41.122  30.141  35.141  1.00  0.00     0.031 C 
ATOM     56  C   UNL A   1      44.706  28.465  31.381  1.00  0.00     0.029 A 
ATOM     57  C   UNL A   1      43.852  27.764  32.212  1.00  0.00     0.049 A 
ATOM     58  H   UNL A   1      42.543  26.194  31.741  1.00  0.00     0.167 HD
ATOM     59  C   UNL A   1      42.640  28.813  34.002  1.00  0.00     0.074 A 
ATOM     60  C   UNL A   1      41.972  29.105  35.257  1.00  0.00     0.031 C 
ATOM     61  C   UNL A   1      43.499  27.824  33.620  1.00  0.00     0.031 A 
BRANCH  48  62
ATOM     62  C   UNL A   1      43.607  25.228  28.087  1.00  0.00    -0.014 A 
ATOM     63  C   UNL A   1      44.455  25.787  27.109  1.00  0.00     0.010 A 
ATOM     64  C   UNL A   1      43.435  23.832  28.025  1.00  0.00     0.010 A 
ATOM     65  C   UNL A   1      45.010  25.018  26.073  1.00  0.00     0.020 A 
ATOM     66  C   UNL A   1      43.952  23.056  26.977  1.00  0.00     0.020 A 
ATOM     67  C   UNL A   1      44.729  23.658  25.996  1.00  0.00     0.054 A 
BRANCH  67  68
ATOM     68  S   UNL A   1      45.385  22.694  24.611  1.00  0.00     0.124 S 
ATOM     69  O   UNL A   1      46.117  21.627  25.289  1.00  0.00    -0.237 OA
ATOM     70  O   UNL A   1      44.172  22.282  23.913  1.00  0.00    -0.237 OA
ATOM     71  O   UNL A   1      46.223  23.650  23.889  1.00  0.00    -0.744 OA
ENDBRANCH  67  68
ENDBRANCH  48  62
BRANCH  49  72
ATOM     72  C   UNL A   1      39.019  31.904  33.409  1.00  0.00    -0.014 A 
ATOM     73  C   UNL A   1      38.746  33.276  33.607  1.00  0.00     0.010 A 
ATOM     74  C   UNL A   1      37.958  31.037  33.091  1.00  0.00     0.010 A 
ATOM     75  C   UNL A   1      37.497  33.803  33.271  1.00  0.00     0.020 A 
ATOM     76  C   UNL A   1      36.699  31.565  32.771  1.00  0.00     0.020 A 
ATOM     77  C   UNL A   1      36.511  32.951  32.775  1.00  0.00     0.054 A 
BRANCH  77  78
ATOM     78  S   UNL A   1      35.079  33.697  31.936  1.00  0.00     0.124 S 
ATOM     79  O   UNL A   1      34.899  34.945  32.669  1.00  0.00    -0.237 OA
ATOM     80  O   UNL A   1      35.572  33.836  30.564  1.00  0.00    -0.237 OA
ATOM     81  O   UNL A   1      34.030  32.699  32.117  1.00  0.00    -0.744 OA
ENDBRANCH  77  78
ENDBRANCH  49  72
BRANCH  61  82
ATOM     82  C   UNL A   1      44.047  26.780  34.554  1.00  0.00    -0.014 A 
ATOM     83  C   UNL A   1      43.259  25.730  35.051  1.00  0.00     0.010 A 
ATOM     84  C   UNL A   1      45.356  26.912  35.072  1.00  0.00     0.010 A 
ATOM     85  C   UNL A   1      43.778  24.816  35.980  1.00  0.00     0.020 A 
ATOM     86  C   UNL A   1      45.875  26.019  36.012  1.00  0.00     0.020 A 
ATOM     87  C   UNL A   1      45.087  24.962  36.447  1.00  0.00     0.054 A 
BRANCH  87  88
ATOM     88  S   UNL A   1      45.729  23.792  37.671  1.00  0.00     0.124 S 
ATOM     89  O   UNL A   1      47.131  24.182  37.784  1.00  0.00    -0.237 OA
ATOM     90  O   UNL A   1      44.899  24.091  38.835  1.00  0.00    -0.237 OA
ATOM     91  O   UNL A   1      45.498  22.485  37.059  1.00  0.00    -0.744 OA
ENDBRANCH  87  88
ENDBRANCH  61  82
ENDBRANCH  35  36
ENDBRANCH  27  30
ENDBRANCH  25  26
ENDBRANCH  24  25
ENDBRANCH   1  24
TORSDOF 17
ENDMDL
