MODEL 1
REMARK VINA RESULT:      -9.0      0.000      0.000
REMARK SMILES Cc1ccccc1/C=C1\SC(=S)N(CCC(=O)N[C@@H](C)C(=O)NCCCCNC(=O)c2ccc(-c3c4nc(c(-c5ccc(S(=O)(=O)[O-])cc5)c5ccc([nH]5)c(-c5ccc(S(=O)(=O)[O-])cc5)c5nc(c(-c6ccc(S(=O)(=O)[O-])cc6)c6ccc3[nH]6)C=C5)C=C4)cc2)C1=O
REMARK SMILES IDX 24 1 23 2 21 3 22 4 19 6 20 7 18 8 16 9 17 10 15 12 14 13
REMARK SMILES IDX 13 14 8 15 9 16 10 17 91 18 11 19 92 20 12 21 7 22 1 23 2 24
REMARK SMILES IDX 3 25 4 26 6 27 5 28 25 29 26 30 27 31 28 32 29 33 30 35
REMARK SMILES IDX 31 36 32 37 90 38 33 39 89 40 34 41 35 42 36 43 83 44 37 45
REMARK SMILES IDX 88 46 82 47 84 48 38 49 87 50 81 51 80 52 39 54 69 55 50 56
REMARK SMILES IDX 68 57 51 58 54 59 67 60 85 61 52 62 53 63 66 65 86 66 55 67
REMARK SMILES IDX 40 68 41 69 49 70 42 71 48 72 43 73 44 74 45 75 46 76 47 77
REMARK SMILES IDX 70 78 71 79 79 80 72 81 78 82 73 83 74 84 75 85 76 86 77 87
REMARK SMILES IDX 56 88 57 89 65 90 58 91 64 92 59 93 60 94 61 95 62 96 63 97
REMARK H PARENT 23 5 18 11 28 34 84 53 54 64
REMARK Flexibility Score: inf
ROOT
ATOM      1  C   UNL A   1      44.117  24.402  29.822  1.00  0.00     0.116 C 
ENDROOT
BRANCH   1   2
ATOM      2  N   UNL A   1      44.164  23.593  31.032  1.00  0.00    -0.354 N 
ATOM      3  C   UNL A   1      44.537  23.894  32.305  1.00  0.00     0.242 C 
ATOM      4  O   UNL A   1      44.491  22.988  33.144  1.00  0.00    -0.273 OA
ATOM      5  H   UNL A   1      43.873  22.661  30.906  1.00  0.00     0.163 HD
BRANCH   3   6
ATOM      6  C   UNL A   1      44.975  25.305  32.721  1.00  0.00     0.168 C 
ATOM      7  C   UNL A   1      46.388  25.586  32.260  1.00  0.00     0.041 C 
BRANCH   6   8
ATOM      8  N   UNL A   1      44.841  25.642  34.133  1.00  0.00    -0.345 N 
ATOM      9  C   UNL A   1      44.168  26.709  34.664  1.00  0.00     0.222 C 
ATOM     10  O   UNL A   1      44.382  27.023  35.835  1.00  0.00    -0.275 OA
ATOM     11  H   UNL A   1      45.282  25.038  34.772  1.00  0.00     0.164 HD
BRANCH   9  12
ATOM     12  C   UNL A   1      43.118  27.449  33.845  1.00  0.00     0.122 C 
BRANCH  12  13
ATOM     13  C   UNL A   1      41.657  27.244  34.287  1.00  0.00     0.137 C 
BRANCH  13  14
ATOM     14  N   UNL A   1      40.871  28.482  34.449  1.00  0.00    -0.292 N 
ATOM     15  C   UNL A   1      40.985  31.721  35.898  1.00  0.00     0.029 C 
ATOM     16  C   UNL A   1      40.454  30.617  35.347  1.00  0.00     0.081 C 
ATOM     17  S   UNL A   1      39.284  30.496  34.099  1.00  0.00    -0.054 SA
ATOM     18  C   UNL A   1      41.088  29.286  35.562  1.00  0.00     0.266 C 
ATOM     19  C   UNL A   1      39.832  28.886  33.630  1.00  0.00     0.148 C 
ATOM     20  O   UNL A   1      41.749  28.993  36.547  1.00  0.00    -0.268 OA
ATOM     21  S   UNL A   1      39.133  28.048  32.366  1.00  0.00    -0.052 S 
BRANCH  15  22
ATOM     22  C   UNL A   1      40.668  33.109  35.524  1.00  0.00    -0.021 A 
ATOM     23  C   UNL A   1      43.100  33.611  34.987  1.00  0.00     0.045 C 
ATOM     24  C   UNL A   1      41.659  34.012  35.108  1.00  0.00    -0.044 A 
ATOM     25  C   UNL A   1      41.295  35.337  34.819  1.00  0.00     0.004 A 
ATOM     26  C   UNL A   1      39.966  35.753  34.900  1.00  0.00     0.000 A 
ATOM     27  C   UNL A   1      39.327  33.532  35.554  1.00  0.00     0.008 A 
ATOM     28  C   UNL A   1      38.976  34.845  35.246  1.00  0.00     0.001 A 
ENDBRANCH  15  22
ENDBRANCH  13  14
ENDBRANCH  12  13
ENDBRANCH   9  12
ENDBRANCH   6   8
ENDBRANCH   3   6
ENDBRANCH   1   2
BRANCH   1  29
ATOM     29  C   UNL A   1      42.934  24.045  28.919  1.00  0.00     0.023 C 
BRANCH  29  30
ATOM     30  C   UNL A   1      42.812  22.576  28.519  1.00  0.00     0.023 C 
BRANCH  30  31
ATOM     31  C   UNL A   1      41.441  22.157  28.033  1.00  0.00     0.116 C 
BRANCH  31  32
ATOM     32  N   UNL A   1      41.037  22.650  26.732  1.00  0.00    -0.352 N 
ATOM     33  C   UNL A   1      39.789  23.268  26.657  1.00  0.00     0.251 C 
ATOM     34  H   UNL A   1      41.615  22.554  25.940  1.00  0.00     0.163 HD
ATOM     35  O   UNL A   1      38.719  22.690  26.601  1.00  0.00    -0.269 OA
BRANCH  33  36
ATOM     36  C   UNL A   1      39.861  24.705  27.007  1.00  0.00     0.039 A 
ATOM     37  C   UNL A   1      40.465  25.661  26.195  1.00  0.00     0.014 A 
ATOM     38  C   UNL A   1      39.399  25.031  28.285  1.00  0.00     0.014 A 
ATOM     39  C   UNL A   1      40.701  26.936  26.721  1.00  0.00     0.010 A 
ATOM     40  C   UNL A   1      39.724  26.241  28.835  1.00  0.00     0.010 A 
ATOM     41  C   UNL A   1      40.383  27.192  28.058  1.00  0.00    -0.014 A 
BRANCH  41  42
ATOM     42  C   UNL A   1      40.650  28.426  28.777  1.00  0.00     0.031 A 
ATOM     43  C   UNL A   1      39.610  29.476  28.830  1.00  0.00     0.074 A 
ATOM     44  C   UNL A   1      41.723  28.478  29.596  1.00  0.00     0.049 A 
ATOM     45  N   UNL A   1      39.833  30.705  29.152  1.00  0.00    -0.248 NA
ATOM     46  C   UNL A   1      38.209  29.211  28.511  1.00  0.00     0.031 C 
ATOM     47  C   UNL A   1      41.962  29.434  30.670  1.00  0.00     0.029 A 
ATOM     48  N   UNL A   1      42.922  27.773  29.503  1.00  0.00    -0.354 N 
ATOM     49  C   UNL A   1      38.609  31.292  29.393  1.00  0.00     0.074 A 
ATOM     50  C   UNL A   1      37.631  30.355  28.892  1.00  0.00     0.031 C 
ATOM     51  C   UNL A   1      43.280  29.468  30.925  1.00  0.00     0.029 A 
ATOM     52  C   UNL A   1      43.927  28.671  29.897  1.00  0.00     0.049 A 
ATOM     53  H   UNL A   1      43.040  26.837  29.218  1.00  0.00     0.167 HD
ATOM     54  C   UNL A   1      38.545  32.433  30.134  1.00  0.00     0.031 A 
ATOM     55  C   UNL A   1      44.890  29.136  29.045  1.00  0.00     0.031 A 
ATOM     56  C   UNL A   1      39.876  32.887  30.530  1.00  0.00     0.049 A 
ATOM     57  C   UNL A   1      44.852  30.646  28.902  1.00  0.00     0.074 A 
ATOM     58  C   UNL A   1      40.590  32.780  31.713  1.00  0.00     0.029 A 
ATOM     59  N   UNL A   1      40.783  33.276  29.553  1.00  0.00    -0.354 N 
ATOM     60  N   UNL A   1      43.820  31.380  29.212  1.00  0.00    -0.248 NA
ATOM     61  C   UNL A   1      45.960  31.441  28.383  1.00  0.00     0.031 C 
ATOM     62  C   UNL A   1      41.956  33.029  31.421  1.00  0.00     0.029 A 
ATOM     63  C   UNL A   1      42.063  33.312  30.071  1.00  0.00     0.049 A 
ATOM     64  H   UNL A   1      40.548  33.496  28.623  1.00  0.00     0.167 HD
ATOM     65  C   UNL A   1      44.098  32.700  28.972  1.00  0.00     0.074 A 
ATOM     66  C   UNL A   1      45.452  32.686  28.449  1.00  0.00     0.031 C 
ATOM     67  C   UNL A   1      43.189  33.688  29.225  1.00  0.00     0.031 A 
BRANCH  54  68
ATOM     68  C   UNL A   1      37.270  32.975  30.744  1.00  0.00    -0.014 A 
ATOM     69  C   UNL A   1      36.218  33.389  29.899  1.00  0.00     0.010 A 
ATOM     70  C   UNL A   1      37.050  33.132  32.126  1.00  0.00     0.010 A 
ATOM     71  C   UNL A   1      35.061  34.008  30.392  1.00  0.00     0.020 A 
ATOM     72  C   UNL A   1      35.912  33.781  32.633  1.00  0.00     0.020 A 
ATOM     73  C   UNL A   1      34.925  34.225  31.759  1.00  0.00     0.054 A 
BRANCH  73  74
ATOM     74  S   UNL A   1      33.452  35.084  32.369  1.00  0.00     0.124 S 
ATOM     75  O   UNL A   1      34.027  36.162  33.172  1.00  0.00    -0.237 OA
ATOM     76  O   UNL A   1      32.796  35.500  31.134  1.00  0.00    -0.237 OA
ATOM     77  O   UNL A   1      32.745  34.059  33.134  1.00  0.00    -0.744 OA
ENDBRANCH  73  74
ENDBRANCH  54  68
BRANCH  55  78
ATOM     78  C   UNL A   1      45.239  28.179  27.952  1.00  0.00    -0.014 A 
ATOM     79  C   UNL A   1      45.098  28.641  26.625  1.00  0.00     0.010 A 
ATOM     80  C   UNL A   1      46.122  27.115  28.210  1.00  0.00     0.010 A 
ATOM     81  C   UNL A   1      45.973  28.205  25.625  1.00  0.00     0.020 A 
ATOM     82  C   UNL A   1      46.992  26.668  27.204  1.00  0.00     0.020 A 
ATOM     83  C   UNL A   1      46.970  27.284  25.949  1.00  0.00     0.054 A 
BRANCH  83  84
ATOM     84  S   UNL A   1      48.349  27.064  24.779  1.00  0.00     0.124 S 
ATOM     85  O   UNL A   1      49.026  25.884  25.306  1.00  0.00    -0.237 OA
ATOM     86  O   UNL A   1      47.649  26.876  23.504  1.00  0.00    -0.237 OA
ATOM     87  O   UNL A   1      49.090  28.317  24.892  1.00  0.00    -0.744 OA
ENDBRANCH  83  84
ENDBRANCH  55  78
BRANCH  67  88
ATOM     88  C   UNL A   1      43.289  35.129  28.782  1.00  0.00    -0.014 A 
ATOM     89  C   UNL A   1      43.257  36.225  29.655  1.00  0.00     0.010 A 
ATOM     90  C   UNL A   1      43.570  35.405  27.420  1.00  0.00     0.010 A 
ATOM     91  C   UNL A   1      43.433  37.535  29.186  1.00  0.00     0.020 A 
ATOM     92  C   UNL A   1      43.796  36.700  26.950  1.00  0.00     0.020 A 
ATOM     93  C   UNL A   1      43.699  37.765  27.835  1.00  0.00     0.054 A 
BRANCH  93  94
ATOM     94  S   UNL A   1      43.986  39.454  27.254  1.00  0.00     0.124 S 
ATOM     95  O   UNL A   1      42.666  39.826  26.752  1.00  0.00    -0.237 OA
ATOM     96  O   UNL A   1      44.413  40.150  28.467  1.00  0.00    -0.237 OA
ATOM     97  O   UNL A   1      45.023  39.296  26.238  1.00  0.00    -0.744 OA
ENDBRANCH  93  94
ENDBRANCH  67  88
ENDBRANCH  41  42
ENDBRANCH  33  36
ENDBRANCH  31  32
ENDBRANCH  30  31
ENDBRANCH  29  30
ENDBRANCH   1  29
TORSDOF 19
ENDMDL
MODEL 2
REMARK VINA RESULT:      -8.7      5.062     13.484
REMARK SMILES Cc1ccccc1/C=C1\SC(=S)N(CCC(=O)N[C@@H](C)C(=O)NCCCCNC(=O)c2ccc(-c3c4nc(c(-c5ccc(S(=O)(=O)[O-])cc5)c5ccc([nH]5)c(-c5ccc(S(=O)(=O)[O-])cc5)c5nc(c(-c6ccc(S(=O)(=O)[O-])cc6)c6ccc3[nH]6)C=C5)C=C4)cc2)C1=O
REMARK SMILES IDX 24 1 23 2 21 3 22 4 19 6 20 7 18 8 16 9 17 10 15 12 14 13
REMARK SMILES IDX 13 14 8 15 9 16 10 17 91 18 11 19 92 20 12 21 7 22 1 23 2 24
REMARK SMILES IDX 3 25 4 26 6 27 5 28 25 29 26 30 27 31 28 32 29 33 30 35
REMARK SMILES IDX 31 36 32 37 90 38 33 39 89 40 34 41 35 42 36 43 83 44 37 45
REMARK SMILES IDX 88 46 82 47 84 48 38 49 87 50 81 51 80 52 39 54 69 55 50 56
REMARK SMILES IDX 68 57 51 58 54 59 67 60 85 61 52 62 53 63 66 65 86 66 55 67
REMARK SMILES IDX 40 68 41 69 49 70 42 71 48 72 43 73 44 74 45 75 46 76 47 77
REMARK SMILES IDX 70 78 71 79 79 80 72 81 78 82 73 83 74 84 75 85 76 86 77 87
REMARK SMILES IDX 56 88 57 89 65 90 58 91 64 92 59 93 60 94 61 95 62 96 63 97
REMARK H PARENT 23 5 18 11 28 34 84 53 54 64
REMARK Flexibility Score: inf
ROOT
ATOM      1  C   UNL A   1      35.453  29.705  27.411  1.00  0.00     0.116 C 
ENDROOT
BRANCH   1   2
ATOM      2  N   UNL A   1      34.662  30.897  27.684  1.00  0.00    -0.354 N 
ATOM      3  C   UNL A   1      33.404  31.252  27.308  1.00  0.00     0.242 C 
ATOM      4  O   UNL A   1      32.985  32.353  27.680  1.00  0.00    -0.273 OA
ATOM      5  H   UNL A   1      35.121  31.566  28.243  1.00  0.00     0.163 HD
BRANCH   3   6
ATOM      6  C   UNL A   1      32.503  30.327  26.477  1.00  0.00     0.168 C 
ATOM      7  C   UNL A   1      31.255  31.055  26.030  1.00  0.00     0.041 C 
BRANCH   6   8
ATOM      8  N   UNL A   1      32.141  29.052  27.082  1.00  0.00    -0.345 N 
ATOM      9  C   UNL A   1      32.257  27.811  26.517  1.00  0.00     0.222 C 
ATOM     10  O   UNL A   1      31.651  26.867  27.025  1.00  0.00    -0.275 OA
ATOM     11  H   UNL A   1      31.773  29.087  27.994  1.00  0.00     0.164 HD
BRANCH   9  12
ATOM     12  C   UNL A   1      33.179  27.584  25.325  1.00  0.00     0.122 C 
BRANCH  12  13
ATOM     13  C   UNL A   1      32.481  27.376  23.969  1.00  0.00     0.137 C 
BRANCH  13  14
ATOM     14  N   UNL A   1      32.094  25.983  23.669  1.00  0.00    -0.292 N 
ATOM     15  C   UNL A   1      33.410  22.701  23.359  1.00  0.00     0.029 C 
ATOM     16  C   UNL A   1      32.543  23.717  23.221  1.00  0.00     0.081 C 
ATOM     17  S   UNL A   1      30.847  23.724  23.478  1.00  0.00    -0.054 SA
ATOM     18  C   UNL A   1      33.033  25.120  23.118  1.00  0.00     0.266 C 
ATOM     19  C   UNL A   1      30.820  25.461  23.791  1.00  0.00     0.148 C 
ATOM     20  O   UNL A   1      34.127  25.432  22.671  1.00  0.00    -0.268 OA
ATOM     21  S   UNL A   1      29.409  26.269  24.171  1.00  0.00    -0.052 S 
BRANCH  15  22
ATOM     22  C   UNL A   1      33.073  21.332  23.786  1.00  0.00    -0.021 A 
ATOM     23  C   UNL A   1      33.864  21.785  26.157  1.00  0.00     0.045 C 
ATOM     24  C   UNL A   1      33.297  20.886  25.097  1.00  0.00    -0.044 A 
ATOM     25  C   UNL A   1      33.005  19.551  25.421  1.00  0.00     0.004 A 
ATOM     26  C   UNL A   1      32.461  18.682  24.475  1.00  0.00     0.000 A 
ATOM     27  C   UNL A   1      32.480  20.458  22.857  1.00  0.00     0.008 A 
ATOM     28  C   UNL A   1      32.177  19.141  23.198  1.00  0.00     0.001 A 
ENDBRANCH  15  22
ENDBRANCH  13  14
ENDBRANCH  12  13
ENDBRANCH   9  12
ENDBRANCH   6   8
ENDBRANCH   3   6
ENDBRANCH   1   2
BRANCH   1  29
ATOM     29  C   UNL A   1      36.485  29.417  28.503  1.00  0.00     0.023 C 
BRANCH  29  30
ATOM     30  C   UNL A   1      37.336  30.603  28.954  1.00  0.00     0.023 C 
BRANCH  30  31
ATOM     31  C   UNL A   1      36.709  31.470  30.026  1.00  0.00     0.116 C 
BRANCH  31  32
ATOM     32  N   UNL A   1      37.370  32.729  30.306  1.00  0.00    -0.352 N 
ATOM     33  C   UNL A   1      37.913  32.880  31.582  1.00  0.00     0.251 C 
ATOM     34  H   UNL A   1      37.431  33.443  29.630  1.00  0.00     0.163 HD
ATOM     35  O   UNL A   1      37.284  33.159  32.586  1.00  0.00    -0.269 OA
BRANCH  33  36
ATOM     36  C   UNL A   1      39.280  32.320  31.670  1.00  0.00     0.039 A 
ATOM     37  C   UNL A   1      40.284  32.606  30.749  1.00  0.00     0.014 A 
ATOM     38  C   UNL A   1      39.471  31.367  32.675  1.00  0.00     0.014 A 
ATOM     39  C   UNL A   1      41.456  31.842  30.776  1.00  0.00     0.010 A 
ATOM     40  C   UNL A   1      40.569  30.551  32.634  1.00  0.00     0.010 A 
ATOM     41  C   UNL A   1      41.559  30.781  31.681  1.00  0.00    -0.014 A 
BRANCH  41  42
ATOM     42  C   UNL A   1      42.663  29.841  31.771  1.00  0.00     0.031 A 
ATOM     43  C   UNL A   1      42.626  28.597  30.971  1.00  0.00     0.074 A 
ATOM     44  C   UNL A   1      43.807  30.241  32.366  1.00  0.00     0.049 A 
ATOM     45  N   UNL A   1      43.364  27.565  31.197  1.00  0.00    -0.248 NA
ATOM     46  C   UNL A   1      41.725  28.421  29.834  1.00  0.00     0.031 C 
ATOM     47  C   UNL A   1      45.124  29.632  32.236  1.00  0.00     0.029 A 
ATOM     48  N   UNL A   1      43.976  31.192  33.373  1.00  0.00    -0.354 N 
ATOM     49  C   UNL A   1      43.279  26.751  30.087  1.00  0.00     0.074 A 
ATOM     50  C   UNL A   1      42.180  27.278  29.312  1.00  0.00     0.031 C 
ATOM     51  C   UNL A   1      45.868  29.991  33.296  1.00  0.00     0.029 A 
ATOM     52  C   UNL A   1      44.980  30.686  34.213  1.00  0.00     0.049 A 
ATOM     53  H   UNL A   1      43.490  32.043  33.474  1.00  0.00     0.167 HD
ATOM     54  C   UNL A   1      44.246  25.818  29.861  1.00  0.00     0.031 A 
ATOM     55  C   UNL A   1      44.752  30.309  35.508  1.00  0.00     0.031 A 
ATOM     56  C   UNL A   1      45.244  25.815  30.929  1.00  0.00     0.049 A 
ATOM     57  C   UNL A   1      45.071  28.846  35.747  1.00  0.00     0.074 A 
ATOM     58  C   UNL A   1      46.518  26.352  31.023  1.00  0.00     0.029 A 
ATOM     59  N   UNL A   1      44.862  25.470  32.218  1.00  0.00    -0.354 N 
ATOM     60  N   UNL A   1      45.165  27.957  34.797  1.00  0.00    -0.248 NA
ATOM     61  C   UNL A   1      45.289  28.267  37.069  1.00  0.00     0.031 C 
ATOM     62  C   UNL A   1      46.867  26.404  32.397  1.00  0.00     0.029 A 
ATOM     63  C   UNL A   1      45.820  25.873  33.129  1.00  0.00     0.049 A 
ATOM     64  H   UNL A   1      44.028  25.002  32.452  1.00  0.00     0.167 HD
ATOM     65  C   UNL A   1      45.463  26.732  35.333  1.00  0.00     0.074 A 
ATOM     66  C   UNL A   1      45.528  26.978  36.762  1.00  0.00     0.031 C 
ATOM     67  C   UNL A   1      45.633  25.624  34.553  1.00  0.00     0.031 A 
BRANCH  54  68
ATOM     68  C   UNL A   1      44.449  25.114  28.537  1.00  0.00    -0.014 A 
ATOM     69  C   UNL A   1      44.348  23.707  28.477  1.00  0.00     0.010 A 
ATOM     70  C   UNL A   1      44.767  25.762  27.328  1.00  0.00     0.010 A 
ATOM     71  C   UNL A   1      44.641  22.984  27.312  1.00  0.00     0.020 A 
ATOM     72  C   UNL A   1      45.095  25.050  26.162  1.00  0.00     0.020 A 
ATOM     73  C   UNL A   1      45.039  23.660  26.164  1.00  0.00     0.054 A 
BRANCH  73  74
ATOM     74  S   UNL A   1      45.473  22.704  24.688  1.00  0.00     0.124 S 
ATOM     75  O   UNL A   1      46.237  23.670  23.902  1.00  0.00    -0.237 OA
ATOM     76  O   UNL A   1      46.243  21.597  25.246  1.00  0.00    -0.237 OA
ATOM     77  O   UNL A   1      44.178  22.336  24.120  1.00  0.00    -0.744 OA
ENDBRANCH  73  74
ENDBRANCH  54  68
BRANCH  55  78
ATOM     78  C   UNL A   1      43.645  31.066  36.168  1.00  0.00    -0.014 A 
ATOM     79  C   UNL A   1      43.837  32.453  36.350  1.00  0.00     0.010 A 
ATOM     80  C   UNL A   1      42.333  30.560  36.130  1.00  0.00     0.010 A 
ATOM     81  C   UNL A   1      42.754  33.335  36.274  1.00  0.00     0.020 A 
ATOM     82  C   UNL A   1      41.245  31.444  36.065  1.00  0.00     0.020 A 
ATOM     83  C   UNL A   1      41.476  32.823  36.045  1.00  0.00     0.054 A 
BRANCH  83  84
ATOM     84  S   UNL A   1      40.170  33.979  35.515  1.00  0.00     0.124 S 
ATOM     85  O   UNL A   1      40.600  34.346  34.170  1.00  0.00    -0.237 OA
ATOM     86  O   UNL A   1      38.968  33.143  35.589  1.00  0.00    -0.237 OA
ATOM     87  O   UNL A   1      40.239  35.044  36.511  1.00  0.00    -0.744 OA
ENDBRANCH  83  84
ENDBRANCH  55  78
BRANCH  67  88
ATOM     88  C   UNL A   1      45.722  24.196  35.037  1.00  0.00    -0.014 A 
ATOM     89  C   UNL A   1      44.717  23.237  34.851  1.00  0.00     0.010 A 
ATOM     90  C   UNL A   1      46.944  23.740  35.594  1.00  0.00     0.010 A 
ATOM     91  C   UNL A   1      44.896  21.906  35.257  1.00  0.00     0.020 A 
ATOM     92  C   UNL A   1      47.151  22.408  35.957  1.00  0.00     0.020 A 
ATOM     93  C   UNL A   1      46.111  21.500  35.810  1.00  0.00     0.054 A 
BRANCH  93  94
ATOM     94  S   UNL A   1      46.351  19.768  36.271  1.00  0.00     0.124 S 
ATOM     95  O   UNL A   1      47.803  19.694  36.414  1.00  0.00    -0.237 OA
ATOM     96  O   UNL A   1      45.594  19.652  37.517  1.00  0.00    -0.237 OA
ATOM     97  O   UNL A   1      45.792  19.030  35.142  1.00  0.00    -0.744 OA
ENDBRANCH  93  94
ENDBRANCH  67  88
ENDBRANCH  41  42
ENDBRANCH  33  36
ENDBRANCH  31  32
ENDBRANCH  30  31
ENDBRANCH  29  30
ENDBRANCH   1  29
TORSDOF 19
ENDMDL
MODEL 3
REMARK VINA RESULT:      -8.6      3.486      8.595
REMARK SMILES Cc1ccccc1/C=C1\SC(=S)N(CCC(=O)N[C@@H](C)C(=O)NCCCCNC(=O)c2ccc(-c3c4nc(c(-c5ccc(S(=O)(=O)[O-])cc5)c5ccc([nH]5)c(-c5ccc(S(=O)(=O)[O-])cc5)c5nc(c(-c6ccc(S(=O)(=O)[O-])cc6)c6ccc3[nH]6)C=C5)C=C4)cc2)C1=O
REMARK SMILES IDX 24 1 23 2 21 3 22 4 19 6 20 7 18 8 16 9 17 10 15 12 14 13
REMARK SMILES IDX 13 14 8 15 9 16 10 17 91 18 11 19 92 20 12 21 7 22 1 23 2 24
REMARK SMILES IDX 3 25 4 26 6 27 5 28 25 29 26 30 27 31 28 32 29 33 30 35
REMARK SMILES IDX 31 36 32 37 90 38 33 39 89 40 34 41 35 42 36 43 83 44 37 45
REMARK SMILES IDX 88 46 82 47 84 48 38 49 87 50 81 51 80 52 39 54 69 55 50 56
REMARK SMILES IDX 68 57 51 58 54 59 67 60 85 61 52 62 53 63 66 65 86 66 55 67
REMARK SMILES IDX 40 68 41 69 49 70 42 71 48 72 43 73 44 74 45 75 46 76 47 77
REMARK SMILES IDX 70 78 71 79 79 80 72 81 78 82 73 83 74 84 75 85 76 86 77 87
REMARK SMILES IDX 56 88 57 89 65 90 58 91 64 92 59 93 60 94 61 95 62 96 63 97
REMARK H PARENT 23 5 18 11 28 34 84 53 54 64
REMARK Flexibility Score: inf
ROOT
ATOM      1  C   UNL A   1      42.041  30.560  35.629  1.00  0.00     0.116 C 
ENDROOT
BRANCH   1   2
ATOM      2  N   UNL A   1      42.567  31.900  35.846  1.00  0.00    -0.354 N 
ATOM      3  C   UNL A   1      42.103  32.945  36.583  1.00  0.00     0.242 C 
ATOM      4  O   UNL A   1      42.760  33.991  36.571  1.00  0.00    -0.273 OA
ATOM      5  H   UNL A   1      43.412  32.083  35.374  1.00  0.00     0.163 HD
BRANCH   3   6
ATOM      6  C   UNL A   1      40.828  32.848  37.433  1.00  0.00     0.168 C 
ATOM      7  C   UNL A   1      41.171  32.658  38.894  1.00  0.00     0.041 C 
BRANCH   6   8
ATOM      8  N   UNL A   1      39.843  31.855  37.024  1.00  0.00    -0.345 N 
ATOM      9  C   UNL A   1      38.502  32.053  36.841  1.00  0.00     0.222 C 
ATOM     10  O   UNL A   1      37.759  31.073  36.779  1.00  0.00    -0.275 OA
ATOM     11  H   UNL A   1      40.179  30.944  36.863  1.00  0.00     0.164 HD
BRANCH   9  12
ATOM     12  C   UNL A   1      37.945  33.458  36.642  1.00  0.00     0.122 C 
BRANCH  12  13
ATOM     13  C   UNL A   1      37.756  33.902  35.180  1.00  0.00     0.137 C 
BRANCH  13  14
ATOM     14  N   UNL A   1      39.000  34.011  34.392  1.00  0.00    -0.292 N 
ATOM     15  C   UNL A   1      40.444  33.116  31.274  1.00  0.00     0.029 C 
ATOM     16  C   UNL A   1      40.386  33.515  32.555  1.00  0.00     0.081 C 
ATOM     17  S   UNL A   1      41.212  34.813  33.314  1.00  0.00    -0.054 SA
ATOM     18  C   UNL A   1      39.294  33.034  33.448  1.00  0.00     0.266 C 
ATOM     19  C   UNL A   1      39.985  34.963  34.574  1.00  0.00     0.148 C 
ATOM     20  O   UNL A   1      38.718  31.965  33.310  1.00  0.00    -0.268 OA
ATOM     21  S   UNL A   1      40.088  36.121  35.773  1.00  0.00    -0.052 S 
BRANCH  15  22
ATOM     22  C   UNL A   1      41.251  33.740  30.213  1.00  0.00    -0.021 A 
ATOM     23  C   UNL A   1      43.109  32.031  30.501  1.00  0.00     0.045 C 
ATOM     24  C   UNL A   1      42.513  33.246  29.851  1.00  0.00    -0.044 A 
ATOM     25  C   UNL A   1      43.254  33.923  28.868  1.00  0.00     0.004 A 
ATOM     26  C   UNL A   1      42.737  35.047  28.224  1.00  0.00     0.000 A 
ATOM     27  C   UNL A   1      40.724  34.844  29.519  1.00  0.00     0.008 A 
ATOM     28  C   UNL A   1      41.461  35.496  28.532  1.00  0.00     0.001 A 
ENDBRANCH  15  22
ENDBRANCH  13  14
ENDBRANCH  12  13
ENDBRANCH   9  12
ENDBRANCH   6   8
ENDBRANCH   3   6
ENDBRANCH   1   2
BRANCH   1  29
ATOM     29  C   UNL A   1      43.008  29.465  36.082  1.00  0.00     0.023 C 
BRANCH  29  30
ATOM     30  C   UNL A   1      44.064  29.880  37.105  1.00  0.00     0.023 C 
BRANCH  30  31
ATOM     31  C   UNL A   1      45.197  28.894  37.292  1.00  0.00     0.116 C 
BRANCH  31  32
ATOM     32  N   UNL A   1      46.447  29.213  36.631  1.00  0.00    -0.352 N 
ATOM     33  C   UNL A   1      46.958  28.250  35.761  1.00  0.00     0.251 C 
ATOM     34  H   UNL A   1      46.913  30.066  36.790  1.00  0.00     0.163 HD
ATOM     35  O   UNL A   1      47.564  27.249  36.096  1.00  0.00    -0.269 OA
BRANCH  33  36
ATOM     36  C   UNL A   1      46.386  28.375  34.401  1.00  0.00     0.039 A 
ATOM     37  C   UNL A   1      46.275  29.588  33.727  1.00  0.00     0.014 A 
ATOM     38  C   UNL A   1      45.832  27.204  33.877  1.00  0.00     0.014 A 
ATOM     39  C   UNL A   1      45.502  29.640  32.562  1.00  0.00     0.010 A 
ATOM     40  C   UNL A   1      44.991  27.276  32.800  1.00  0.00     0.010 A 
ATOM     41  C   UNL A   1      44.818  28.494  32.146  1.00  0.00    -0.014 A 
BRANCH  41  42
ATOM     42  C   UNL A   1      43.905  28.408  31.018  1.00  0.00     0.031 A 
ATOM     43  C   UNL A   1      42.454  28.580  31.243  1.00  0.00     0.074 A 
ATOM     44  C   UNL A   1      44.417  28.441  29.769  1.00  0.00     0.049 A 
ATOM     45  N   UNL A   1      41.540  28.220  30.407  1.00  0.00    -0.248 NA
ATOM     46  C   UNL A   1      41.913  29.181  32.460  1.00  0.00     0.031 C 
ATOM     47  C   UNL A   1      43.703  28.746  28.535  1.00  0.00     0.029 A 
ATOM     48  N   UNL A   1      45.672  28.019  29.332  1.00  0.00    -0.354 N 
ATOM     49  C   UNL A   1      40.362  28.813  30.809  1.00  0.00     0.074 A 
ATOM     50  C   UNL A   1      40.624  29.320  32.136  1.00  0.00     0.031 C 
ATOM     51  C   UNL A   1      44.392  28.232  27.503  1.00  0.00     0.029 A 
ATOM     52  C   UNL A   1      45.463  27.432  28.073  1.00  0.00     0.049 A 
ATOM     53  H   UNL A   1      46.529  28.111  29.809  1.00  0.00     0.167 HD
ATOM     54  C   UNL A   1      39.342  28.954  29.917  1.00  0.00     0.031 A 
ATOM     55  C   UNL A   1      45.652  26.100  27.828  1.00  0.00     0.031 A 
ATOM     56  C   UNL A   1      39.684  28.373  28.620  1.00  0.00     0.049 A 
ATOM     57  C   UNL A   1      44.384  25.416  27.355  1.00  0.00     0.074 A 
ATOM     58  C   UNL A   1      40.110  28.932  27.425  1.00  0.00     0.029 A 
ATOM     59  N   UNL A   1      39.911  27.007  28.523  1.00  0.00    -0.354 N 
ATOM     60  N   UNL A   1      43.186  25.903  27.529  1.00  0.00    -0.248 NA
ATOM     61  C   UNL A   1      44.362  24.129  26.668  1.00  0.00     0.031 C 
ATOM     62  C   UNL A   1      40.675  27.895  26.638  1.00  0.00     0.029 A 
ATOM     63  C   UNL A   1      40.565  26.710  27.343  1.00  0.00     0.049 A 
ATOM     64  H   UNL A   1      39.644  26.342  29.198  1.00  0.00     0.167 HD
ATOM     65  C   UNL A   1      42.255  25.054  26.991  1.00  0.00     0.074 A 
ATOM     66  C   UNL A   1      43.043  23.954  26.465  1.00  0.00     0.031 C 
ATOM     67  C   UNL A   1      40.918  25.332  27.023  1.00  0.00     0.031 A 
BRANCH  54  68
ATOM     68  C   UNL A   1      38.156  29.870  30.127  1.00  0.00    -0.014 A 
ATOM     69  C   UNL A   1      38.128  31.127  29.484  1.00  0.00     0.010 A 
ATOM     70  C   UNL A   1      37.057  29.576  30.957  1.00  0.00     0.010 A 
ATOM     71  C   UNL A   1      37.120  32.070  29.728  1.00  0.00     0.020 A 
ATOM     72  C   UNL A   1      36.057  30.522  31.236  1.00  0.00     0.020 A 
ATOM     73  C   UNL A   1      36.100  31.771  30.625  1.00  0.00     0.054 A 
BRANCH  73  74
ATOM     74  S   UNL A   1      34.842  33.027  30.974  1.00  0.00     0.124 S 
ATOM     75  O   UNL A   1      34.145  32.461  32.127  1.00  0.00    -0.237 OA
ATOM     76  O   UNL A   1      35.648  34.213  31.246  1.00  0.00    -0.237 OA
ATOM     77  O   UNL A   1      34.054  33.080  29.744  1.00  0.00    -0.744 OA
ENDBRANCH  73  74
ENDBRANCH  54  68
BRANCH  55  78
ATOM     78  C   UNL A   1      46.694  25.472  28.694  1.00  0.00    -0.014 A 
ATOM     79  C   UNL A   1      48.001  25.384  28.164  1.00  0.00     0.010 A 
ATOM     80  C   UNL A   1      46.525  25.453  30.091  1.00  0.00     0.010 A 
ATOM     81  C   UNL A   1      49.115  25.498  29.002  1.00  0.00     0.020 A 
ATOM     82  C   UNL A   1      47.643  25.555  30.932  1.00  0.00     0.020 A 
ATOM     83  C   UNL A   1      48.920  25.670  30.373  1.00  0.00     0.054 A 
BRANCH  83  84
ATOM     84  S   UNL A   1      50.327  26.251  31.374  1.00  0.00     0.124 S 
ATOM     85  O   UNL A   1      51.280  25.154  31.246  1.00  0.00    -0.237 OA
ATOM     86  O   UNL A   1      50.699  27.496  30.695  1.00  0.00    -0.237 OA
ATOM     87  O   UNL A   1      49.746  26.427  32.702  1.00  0.00    -0.744 OA
ENDBRANCH  83  84
ENDBRANCH  55  78
BRANCH  67  88
ATOM     88  C   UNL A   1      39.798  24.377  26.685  1.00  0.00    -0.014 A 
ATOM     89  C   UNL A   1      38.479  24.772  26.422  1.00  0.00     0.010 A 
ATOM     90  C   UNL A   1      40.108  23.008  26.481  1.00  0.00     0.010 A 
ATOM     91  C   UNL A   1      37.503  23.840  26.037  1.00  0.00     0.020 A 
ATOM     92  C   UNL A   1      39.156  22.081  26.051  1.00  0.00     0.020 A 
ATOM     93  C   UNL A   1      37.847  22.500  25.856  1.00  0.00     0.054 A 
BRANCH  93  94
ATOM     94  S   UNL A   1      36.594  21.321  25.299  1.00  0.00     0.124 S 
ATOM     95  O   UNL A   1      35.621  21.383  26.387  1.00  0.00    -0.237 OA
ATOM     96  O   UNL A   1      36.148  21.891  24.029  1.00  0.00    -0.237 OA
ATOM     97  O   UNL A   1      37.330  20.065  25.185  1.00  0.00    -0.744 OA
ENDBRANCH  93  94
ENDBRANCH  67  88
ENDBRANCH  41  42
ENDBRANCH  33  36
ENDBRANCH  31  32
ENDBRANCH  30  31
ENDBRANCH  29  30
ENDBRANCH   1  29
TORSDOF 19
ENDMDL
