MODEL 1
REMARK VINA RESULT:      -9.9      0.000      0.000
REMARK SMILES Cc1ccc2oc(C(=O)N[C@@H]3C=C[C@H](C(=O)NCCCCNC(=O)c4ccc(-c5c6nc(c(-c7ccc(S(=O)(=O)[O-])cc7)c7ccc([nH]7)c(-c7ccc(S(=O)(=O)[O-])cc7)c7nc(c(-c8ccc(S(=O)(=O)[O-])cc8)c8ccc5[nH]8)C=C7)C=C6)cc4)C3)cc2c1
REMARK SMILES IDX 20 1 19 2 18 3 17 4 15 5 16 6 14 8 11 9 12 10 85 11 13 12
REMARK SMILES IDX 10 13 8 14 9 15 7 17 1 18 2 19 3 20 88 21 4 22 87 23 5 24
REMARK SMILES IDX 86 25 6 26 21 27 22 28 23 29 24 31 25 32 26 33 84 34 27 35
REMARK SMILES IDX 83 36 28 37 29 38 30 39 77 40 31 41 82 42 76 43 78 44 32 45
REMARK SMILES IDX 81 46 75 47 74 48 33 50 63 51 44 52 62 53 45 54 48 55 61 56
REMARK SMILES IDX 79 57 46 58 47 59 60 61 80 62 49 63 34 64 35 65 43 66 36 67
REMARK SMILES IDX 42 68 37 69 38 70 39 71 40 72 41 73 64 74 65 75 73 76 66 77
REMARK SMILES IDX 72 78 67 79 68 80 69 81 70 82 71 83 50 84 51 85 59 86 52 87
REMARK SMILES IDX 58 88 53 89 54 90 55 91 56 92 57 93
REMARK H PARENT 17 7 10 16 22 30 78 49 48 60
REMARK Flexibility Score: inf
ROOT
ATOM      1  C   UNL A   1      41.268  19.983  27.204  1.00  0.00     0.023 C 
ENDROOT
BRANCH   1   2
ATOM      2  C   UNL A   1      41.981  19.505  25.928  1.00  0.00     0.023 C 
BRANCH   2   3
ATOM      3  C   UNL A   1      43.404  20.018  25.701  1.00  0.00     0.116 C 
BRANCH   3   4
ATOM      4  N   UNL A   1      43.480  21.232  24.914  1.00  0.00    -0.356 N 
ATOM      5  C   UNL A   1      43.901  22.494  25.195  1.00  0.00     0.227 C 
ATOM      6  O   UNL A   1      44.045  23.220  24.204  1.00  0.00    -0.274 OA
ATOM      7  H   UNL A   1      43.163  21.121  23.989  1.00  0.00     0.163 HD
BRANCH   5   8
ATOM      8  C   UNL A   1      44.067  23.082  26.626  1.00  0.00     0.103 C 
ATOM      9  C   UNL A   1      45.311  25.228  26.787  1.00  0.00     0.106 C 
ATOM     10  C   UNL A   1      46.040  24.125  27.451  1.00  0.00    -0.006 C 
ATOM     11  C   UNL A   1      43.912  24.626  26.570  1.00  0.00     0.047 C 
ATOM     12  C   UNL A   1      45.353  22.971  27.401  1.00  0.00    -0.016 C 
BRANCH   9  13
ATOM     13  N   UNL A   1      45.928  25.841  25.613  1.00  0.00    -0.343 N 
ATOM     14  C   UNL A   1      46.248  27.073  25.083  1.00  0.00     0.287 C 
ATOM     15  O   UNL A   1      46.721  27.019  23.933  1.00  0.00    -0.266 OA
ATOM     16  H   UNL A   1      46.211  25.136  24.989  1.00  0.00     0.164 HD
BRANCH  14  17
ATOM     17  C   UNL A   1      46.023  28.327  25.760  1.00  0.00     0.192 A 
ATOM     18  C   UNL A   1      44.211  33.506  28.238  1.00  0.00     0.044 C 
ATOM     19  C   UNL A   1      45.049  32.404  27.657  1.00  0.00    -0.050 A 
ATOM     20  C   UNL A   1      46.410  32.581  27.362  1.00  0.00     0.007 A 
ATOM     21  C   UNL A   1      44.435  31.187  27.357  1.00  0.00     0.015 A 
ATOM     22  C   UNL A   1      47.177  31.575  26.738  1.00  0.00     0.048 A 
ATOM     23  C   UNL A   1      45.201  30.161  26.789  1.00  0.00     0.021 A 
ATOM     24  C   UNL A   1      46.521  30.384  26.447  1.00  0.00     0.135 A 
ATOM     25  C   UNL A   1      44.967  28.816  26.485  1.00  0.00     0.065 A 
ATOM     26  O   UNL A   1      47.026  29.283  25.802  1.00  0.00    -0.451 OA
ENDBRANCH  14  17
ENDBRANCH   9  13
ENDBRANCH   5   8
ENDBRANCH   3   4
ENDBRANCH   2   3
ENDBRANCH   1   2
BRANCH   1  27
ATOM     27  C   UNL A   1      40.816  21.447  27.256  1.00  0.00     0.116 C 
BRANCH  27  28
ATOM     28  N   UNL A   1      39.616  21.712  26.478  1.00  0.00    -0.352 N 
ATOM     29  C   UNL A   1      38.897  22.868  26.274  1.00  0.00     0.251 C 
ATOM     30  H   UNL A   1      39.252  20.922  26.016  1.00  0.00     0.163 HD
ATOM     31  O   UNL A   1      37.859  22.797  25.616  1.00  0.00    -0.269 OA
BRANCH  29  32
ATOM     32  C   UNL A   1      39.309  24.179  26.843  1.00  0.00     0.039 A 
ATOM     33  C   UNL A   1      38.914  24.486  28.151  1.00  0.00     0.014 A 
ATOM     34  C   UNL A   1      40.020  25.132  26.108  1.00  0.00     0.014 A 
ATOM     35  C   UNL A   1      39.289  25.699  28.742  1.00  0.00     0.010 A 
ATOM     36  C   UNL A   1      40.443  26.322  26.718  1.00  0.00     0.010 A 
ATOM     37  C   UNL A   1      40.092  26.616  28.044  1.00  0.00    -0.014 A 
BRANCH  37  38
ATOM     38  C   UNL A   1      40.585  27.858  28.708  1.00  0.00     0.031 A 
ATOM     39  C   UNL A   1      42.009  27.970  29.191  1.00  0.00     0.074 A 
ATOM     40  C   UNL A   1      39.738  28.890  28.903  1.00  0.00     0.049 A 
ATOM     41  N   UNL A   1      42.596  28.973  29.798  1.00  0.00    -0.248 NA
ATOM     42  C   UNL A   1      42.879  26.804  28.980  1.00  0.00     0.031 C 
ATOM     43  C   UNL A   1      38.325  28.911  28.519  1.00  0.00     0.029 A 
ATOM     44  N   UNL A   1      39.941  30.124  29.475  1.00  0.00    -0.354 N 
ATOM     45  C   UNL A   1      43.902  28.560  30.040  1.00  0.00     0.074 A 
ATOM     46  C   UNL A   1      44.006  27.199  29.558  1.00  0.00     0.031 C 
ATOM     47  C   UNL A   1      37.797  30.103  28.842  1.00  0.00     0.029 A 
ATOM     48  C   UNL A   1      38.821  30.922  29.482  1.00  0.00     0.049 A 
ATOM     49  H   UNL A   1      40.808  30.408  29.845  1.00  0.00     0.167 HD
ATOM     50  C   UNL A   1      44.929  29.252  30.595  1.00  0.00     0.031 A 
ATOM     51  C   UNL A   1      38.633  32.172  29.947  1.00  0.00     0.031 A 
ATOM     52  C   UNL A   1      44.837  30.604  31.081  1.00  0.00     0.049 A 
ATOM     53  C   UNL A   1      39.787  32.916  30.565  1.00  0.00     0.074 A 
ATOM     54  C   UNL A   1      45.831  31.388  31.643  1.00  0.00     0.029 A 
ATOM     55  N   UNL A   1      43.687  31.378  31.058  1.00  0.00    -0.354 N 
ATOM     56  N   UNL A   1      41.022  32.517  30.746  1.00  0.00    -0.248 NA
ATOM     57  C   UNL A   1      39.520  34.287  31.026  1.00  0.00     0.031 C 
ATOM     58  C   UNL A   1      45.275  32.626  31.986  1.00  0.00     0.029 A 
ATOM     59  C   UNL A   1      43.946  32.628  31.599  1.00  0.00     0.049 A 
ATOM     60  H   UNL A   1      42.815  31.084  30.708  1.00  0.00     0.167 HD
ATOM     61  C   UNL A   1      41.686  33.597  31.317  1.00  0.00     0.074 A 
ATOM     62  C   UNL A   1      40.721  34.670  31.436  1.00  0.00     0.031 C 
ATOM     63  C   UNL A   1      42.980  33.691  31.709  1.00  0.00     0.031 A 
BRANCH  50  64
ATOM     64  C   UNL A   1      46.259  28.552  30.697  1.00  0.00    -0.014 A 
ATOM     65  C   UNL A   1      46.595  27.819  31.850  1.00  0.00     0.010 A 
ATOM     66  C   UNL A   1      47.161  28.584  29.619  1.00  0.00     0.010 A 
ATOM     67  C   UNL A   1      47.827  27.165  31.939  1.00  0.00     0.020 A 
ATOM     68  C   UNL A   1      48.385  27.911  29.696  1.00  0.00     0.020 A 
ATOM     69  C   UNL A   1      48.716  27.220  30.863  1.00  0.00     0.054 A 
BRANCH  69  70
ATOM     70  S   UNL A   1      50.300  26.346  30.998  1.00  0.00     0.124 S 
ATOM     71  O   UNL A   1      50.927  26.660  29.717  1.00  0.00    -0.237 OA
ATOM     72  O   UNL A   1      50.916  26.971  32.166  1.00  0.00    -0.237 OA
ATOM     73  O   UNL A   1      49.912  24.949  31.177  1.00  0.00    -0.744 OA
ENDBRANCH  69  70
ENDBRANCH  50  64
BRANCH  51  74
ATOM     74  C   UNL A   1      37.298  32.821  29.833  1.00  0.00    -0.014 A 
ATOM     75  C   UNL A   1      36.951  33.541  28.676  1.00  0.00     0.010 A 
ATOM     76  C   UNL A   1      36.376  32.740  30.892  1.00  0.00     0.010 A 
ATOM     77  C   UNL A   1      35.719  34.194  28.591  1.00  0.00     0.020 A 
ATOM     78  C   UNL A   1      35.131  33.369  30.800  1.00  0.00     0.020 A 
ATOM     79  C   UNL A   1      34.818  34.108  29.657  1.00  0.00     0.054 A 
BRANCH  79  80
ATOM     80  S   UNL A   1      33.210  34.937  29.520  1.00  0.00     0.124 S 
ATOM     81  O   UNL A   1      32.753  34.939  30.906  1.00  0.00    -0.237 OA
ATOM     82  O   UNL A   1      33.568  36.242  28.969  1.00  0.00    -0.237 OA
ATOM     83  O   UNL A   1      32.459  34.072  28.612  1.00  0.00    -0.744 OA
ENDBRANCH  79  80
ENDBRANCH  51  74
BRANCH  63  84
ATOM     84  C   UNL A   1      43.437  35.013  32.267  1.00  0.00    -0.014 A 
ATOM     85  C   UNL A   1      43.930  36.026  31.427  1.00  0.00     0.010 A 
ATOM     86  C   UNL A   1      43.353  35.248  33.651  1.00  0.00     0.010 A 
ATOM     87  C   UNL A   1      44.373  37.238  31.967  1.00  0.00     0.020 A 
ATOM     88  C   UNL A   1      43.772  36.466  34.192  1.00  0.00     0.020 A 
ATOM     89  C   UNL A   1      44.298  37.447  33.348  1.00  0.00     0.054 A 
BRANCH  89  90
ATOM     90  S   UNL A   1      44.859  39.032  34.027  1.00  0.00     0.124 S 
ATOM     91  O   UNL A   1      44.575  39.951  32.928  1.00  0.00    -0.237 OA
ATOM     92  O   UNL A   1      44.022  39.193  35.213  1.00  0.00    -0.237 OA
ATOM     93  O   UNL A   1      46.278  38.808  34.301  1.00  0.00    -0.744 OA
ENDBRANCH  89  90
ENDBRANCH  63  84
ENDBRANCH  37  38
ENDBRANCH  29  32
ENDBRANCH  27  28
ENDBRANCH   1  27
TORSDOF 16
ENDMDL
MODEL 2
REMARK VINA RESULT:      -9.8      4.204     10.459
REMARK SMILES Cc1ccc2oc(C(=O)N[C@@H]3C=C[C@H](C(=O)NCCCCNC(=O)c4ccc(-c5c6nc(c(-c7ccc(S(=O)(=O)[O-])cc7)c7ccc([nH]7)c(-c7ccc(S(=O)(=O)[O-])cc7)c7nc(c(-c8ccc(S(=O)(=O)[O-])cc8)c8ccc5[nH]8)C=C7)C=C6)cc4)C3)cc2c1
REMARK SMILES IDX 20 1 19 2 18 3 17 4 15 5 16 6 14 8 11 9 12 10 85 11 13 12
REMARK SMILES IDX 10 13 8 14 9 15 7 17 1 18 2 19 3 20 88 21 4 22 87 23 5 24
REMARK SMILES IDX 86 25 6 26 21 27 22 28 23 29 24 31 25 32 26 33 84 34 27 35
REMARK SMILES IDX 83 36 28 37 29 38 30 39 77 40 31 41 82 42 76 43 78 44 32 45
REMARK SMILES IDX 81 46 75 47 74 48 33 50 63 51 44 52 62 53 45 54 48 55 61 56
REMARK SMILES IDX 79 57 46 58 47 59 60 61 80 62 49 63 34 64 35 65 43 66 36 67
REMARK SMILES IDX 42 68 37 69 38 70 39 71 40 72 41 73 64 74 65 75 73 76 66 77
REMARK SMILES IDX 72 78 67 79 68 80 69 81 70 82 71 83 50 84 51 85 59 86 52 87
REMARK SMILES IDX 58 88 53 89 54 90 55 91 56 92 57 93
REMARK H PARENT 17 7 10 16 22 30 78 49 48 60
REMARK Flexibility Score: inf
ROOT
ATOM      1  C   UNL A   1      33.877  28.551  25.147  1.00  0.00     0.023 C 
ENDROOT
BRANCH   1   2
ATOM      2  C   UNL A   1      33.434  27.312  24.352  1.00  0.00     0.023 C 
BRANCH   2   3
ATOM      3  C   UNL A   1      33.990  25.963  24.812  1.00  0.00     0.116 C 
BRANCH   3   4
ATOM      4  N   UNL A   1      34.316  25.055  23.732  1.00  0.00    -0.356 N 
ATOM      5  C   UNL A   1      34.902  23.828  23.697  1.00  0.00     0.227 C 
ATOM      6  O   UNL A   1      34.805  23.242  22.611  1.00  0.00    -0.274 OA
ATOM      7  H   UNL A   1      34.063  25.394  22.843  1.00  0.00     0.163 HD
BRANCH   5   8
ATOM      8  C   UNL A   1      35.760  23.217  24.841  1.00  0.00     0.103 C 
ATOM      9  C   UNL A   1      35.296  20.840  25.404  1.00  0.00     0.106 C 
ATOM     10  C   UNL A   1      34.942  21.744  26.521  1.00  0.00    -0.006 C 
ATOM     11  C   UNL A   1      36.127  21.750  24.483  1.00  0.00     0.047 C 
ATOM     12  C   UNL A   1      35.228  23.025  26.237  1.00  0.00    -0.016 C 
BRANCH   9  13
ATOM     13  N   UNL A   1      34.214  20.102  24.757  1.00  0.00    -0.343 N 
ATOM     14  C   UNL A   1      32.919  20.257  24.310  1.00  0.00     0.287 C 
ATOM     15  O   UNL A   1      32.404  19.208  23.884  1.00  0.00    -0.266 OA
ATOM     16  H   UNL A   1      34.510  19.180  24.579  1.00  0.00     0.164 HD
BRANCH  14  17
ATOM     17  C   UNL A   1      32.191  21.502  24.364  1.00  0.00     0.192 A 
ATOM     18  C   UNL A   1      29.648  26.932  23.827  1.00  0.00     0.044 C 
ATOM     19  C   UNL A   1      30.163  25.632  24.373  1.00  0.00    -0.050 A 
ATOM     20  C   UNL A   1      30.203  25.367  25.751  1.00  0.00     0.007 A 
ATOM     21  C   UNL A   1      30.664  24.685  23.477  1.00  0.00     0.015 A 
ATOM     22  C   UNL A   1      30.765  24.182  26.268  1.00  0.00     0.048 A 
ATOM     23  C   UNL A   1      31.173  23.480  23.977  1.00  0.00     0.021 A 
ATOM     24  C   UNL A   1      31.262  23.273  25.341  1.00  0.00     0.135 A 
ATOM     25  C   UNL A   1      31.622  22.289  23.396  1.00  0.00     0.065 A 
ATOM     26  O   UNL A   1      31.898  22.082  25.589  1.00  0.00    -0.451 OA
ENDBRANCH  14  17
ENDBRANCH   9  13
ENDBRANCH   5   8
ENDBRANCH   3   4
ENDBRANCH   2   3
ENDBRANCH   1   2
BRANCH   1  27
ATOM     27  C   UNL A   1      33.948  28.424  26.674  1.00  0.00     0.116 C 
BRANCH  27  28
ATOM     28  N   UNL A   1      33.778  29.690  27.369  1.00  0.00    -0.352 N 
ATOM     29  C   UNL A   1      34.633  30.415  28.168  1.00  0.00     0.251 C 
ATOM     30  H   UNL A   1      32.892  30.102  27.247  1.00  0.00     0.163 HD
ATOM     31  O   UNL A   1      34.203  31.438  28.700  1.00  0.00    -0.269 OA
BRANCH  29  32
ATOM     32  C   UNL A   1      36.033  29.990  28.435  1.00  0.00     0.039 A 
ATOM     33  C   UNL A   1      36.963  30.087  27.392  1.00  0.00     0.014 A 
ATOM     34  C   UNL A   1      36.439  29.448  29.657  1.00  0.00     0.014 A 
ATOM     35  C   UNL A   1      38.299  29.717  27.594  1.00  0.00     0.010 A 
ATOM     36  C   UNL A   1      37.787  29.131  29.876  1.00  0.00     0.010 A 
ATOM     37  C   UNL A   1      38.736  29.271  28.852  1.00  0.00    -0.014 A 
BRANCH  37  38
ATOM     38  C   UNL A   1      40.178  28.982  29.101  1.00  0.00     0.031 A 
ATOM     39  C   UNL A   1      40.773  27.637  28.768  1.00  0.00     0.074 A 
ATOM     40  C   UNL A   1      40.960  29.929  29.660  1.00  0.00     0.049 A 
ATOM     41  N   UNL A   1      42.003  27.216  28.932  1.00  0.00    -0.248 NA
ATOM     42  C   UNL A   1      39.868  26.633  28.191  1.00  0.00     0.031 C 
ATOM     43  C   UNL A   1      40.514  31.264  30.066  1.00  0.00     0.029 A 
ATOM     44  N   UNL A   1      42.296  29.917  29.983  1.00  0.00    -0.354 N 
ATOM     45  C   UNL A   1      42.022  25.902  28.479  1.00  0.00     0.074 A 
ATOM     46  C   UNL A   1      40.668  25.580  28.079  1.00  0.00     0.031 C 
ATOM     47  C   UNL A   1      41.560  31.948  30.559  1.00  0.00     0.029 A 
ATOM     48  C   UNL A   1      42.744  31.095  30.533  1.00  0.00     0.049 A 
ATOM     49  H   UNL A   1      42.878  29.136  29.834  1.00  0.00     0.167 HD
ATOM     50  C   UNL A   1      43.068  25.044  28.385  1.00  0.00     0.031 A 
ATOM     51  C   UNL A   1      43.967  31.455  30.968  1.00  0.00     0.031 A 
ATOM     52  C   UNL A   1      44.418  25.352  28.783  1.00  0.00     0.049 A 
ATOM     53  C   UNL A   1      45.110  30.482  30.860  1.00  0.00     0.074 A 
ATOM     54  C   UNL A   1      45.543  24.548  28.708  1.00  0.00     0.029 A 
ATOM     55  N   UNL A   1      44.828  26.561  29.325  1.00  0.00    -0.354 N 
ATOM     56  N   UNL A   1      45.109  29.258  30.390  1.00  0.00    -0.248 NA
ATOM     57  C   UNL A   1      46.424  30.950  31.326  1.00  0.00     0.031 C 
ATOM     58  C   UNL A   1      46.629  25.261  29.231  1.00  0.00     0.029 A 
ATOM     59  C   UNL A   1      46.188  26.522  29.592  1.00  0.00     0.049 A 
ATOM     60  H   UNL A   1      44.240  27.332  29.494  1.00  0.00     0.167 HD
ATOM     61  C   UNL A   1      46.425  28.820  30.481  1.00  0.00     0.074 A 
ATOM     62  C   UNL A   1      47.198  29.913  31.033  1.00  0.00     0.031 C 
ATOM     63  C   UNL A   1      46.948  27.617  30.138  1.00  0.00     0.031 A 
BRANCH  50  64
ATOM     64  C   UNL A   1      42.793  23.678  27.814  1.00  0.00    -0.014 A 
ATOM     65  C   UNL A   1      42.465  22.602  28.659  1.00  0.00     0.010 A 
ATOM     66  C   UNL A   1      42.814  23.474  26.422  1.00  0.00     0.010 A 
ATOM     67  C   UNL A   1      42.204  21.337  28.126  1.00  0.00     0.020 A 
ATOM     68  C   UNL A   1      42.529  22.214  25.884  1.00  0.00     0.020 A 
ATOM     69  C   UNL A   1      42.243  21.150  26.741  1.00  0.00     0.054 A 
BRANCH  69  70
ATOM     70  S   UNL A   1      41.880  19.502  26.075  1.00  0.00     0.124 S 
ATOM     71  O   UNL A   1      42.317  18.635  27.165  1.00  0.00    -0.237 OA
ATOM     72  O   UNL A   1      40.436  19.553  25.855  1.00  0.00    -0.237 OA
ATOM     73  O   UNL A   1      42.689  19.433  24.861  1.00  0.00    -0.744 OA
ENDBRANCH  69  70
ENDBRANCH  50  64
BRANCH  51  74
ATOM     74  C   UNL A   1      44.191  32.814  31.535  1.00  0.00    -0.014 A 
ATOM     75  C   UNL A   1      44.044  33.044  32.914  1.00  0.00     0.010 A 
ATOM     76  C   UNL A   1      44.533  33.888  30.693  1.00  0.00     0.010 A 
ATOM     77  C   UNL A   1      44.202  34.330  33.438  1.00  0.00     0.020 A 
ATOM     78  C   UNL A   1      44.718  35.170  31.218  1.00  0.00     0.020 A 
ATOM     79  C   UNL A   1      44.534  35.386  32.585  1.00  0.00     0.054 A 
BRANCH  79  80
ATOM     80  S   UNL A   1      44.766  37.044  33.285  1.00  0.00     0.124 S 
ATOM     81  O   UNL A   1      44.285  37.898  32.203  1.00  0.00    -0.237 OA
ATOM     82  O   UNL A   1      43.928  37.006  34.481  1.00  0.00    -0.237 OA
ATOM     83  O   UNL A   1      46.202  37.105  33.543  1.00  0.00    -0.744 OA
ENDBRANCH  79  80
ENDBRANCH  51  74
BRANCH  63  84
ATOM     84  C   UNL A   1      48.432  27.436  30.313  1.00  0.00    -0.014 A 
ATOM     85  C   UNL A   1      49.333  27.768  29.286  1.00  0.00     0.010 A 
ATOM     86  C   UNL A   1      48.932  26.942  31.531  1.00  0.00     0.010 A 
ATOM     87  C   UNL A   1      50.706  27.569  29.458  1.00  0.00     0.020 A 
ATOM     88  C   UNL A   1      50.306  26.764  31.716  1.00  0.00     0.020 A 
ATOM     89  C   UNL A   1      51.183  27.060  30.671  1.00  0.00     0.054 A 
BRANCH  89  90
ATOM     90  S   UNL A   1      52.969  26.827  30.883  1.00  0.00     0.124 S 
ATOM     91  O   UNL A   1      53.341  28.010  31.654  1.00  0.00    -0.237 OA
ATOM     92  O   UNL A   1      53.048  25.557  31.602  1.00  0.00    -0.237 OA
ATOM     93  O   UNL A   1      53.478  26.790  29.512  1.00  0.00    -0.744 OA
ENDBRANCH  89  90
ENDBRANCH  63  84
ENDBRANCH  37  38
ENDBRANCH  29  32
ENDBRANCH  27  28
ENDBRANCH   1  27
TORSDOF 16
ENDMDL
MODEL 3
REMARK VINA RESULT:      -9.7      4.591     11.773
REMARK SMILES Cc1ccc2oc(C(=O)N[C@@H]3C=C[C@H](C(=O)NCCCCNC(=O)c4ccc(-c5c6nc(c(-c7ccc(S(=O)(=O)[O-])cc7)c7ccc([nH]7)c(-c7ccc(S(=O)(=O)[O-])cc7)c7nc(c(-c8ccc(S(=O)(=O)[O-])cc8)c8ccc5[nH]8)C=C7)C=C6)cc4)C3)cc2c1
REMARK SMILES IDX 20 1 19 2 18 3 17 4 15 5 16 6 14 8 11 9 12 10 85 11 13 12
REMARK SMILES IDX 10 13 8 14 9 15 7 17 1 18 2 19 3 20 88 21 4 22 87 23 5 24
REMARK SMILES IDX 86 25 6 26 21 27 22 28 23 29 24 31 25 32 26 33 84 34 27 35
REMARK SMILES IDX 83 36 28 37 29 38 30 39 77 40 31 41 82 42 76 43 78 44 32 45
REMARK SMILES IDX 81 46 75 47 74 48 33 50 63 51 44 52 62 53 45 54 48 55 61 56
REMARK SMILES IDX 79 57 46 58 47 59 60 61 80 62 49 63 34 64 35 65 43 66 36 67
REMARK SMILES IDX 42 68 37 69 38 70 39 71 40 72 41 73 64 74 65 75 73 76 66 77
REMARK SMILES IDX 72 78 67 79 68 80 69 81 70 82 71 83 50 84 51 85 59 86 52 87
REMARK SMILES IDX 58 88 53 89 54 90 55 91 56 92 57 93
REMARK H PARENT 17 7 10 16 22 30 78 49 48 60
REMARK Flexibility Score: inf
ROOT
ATOM      1  C   UNL A   1      34.103  27.903  26.183  1.00  0.00     0.023 C 
ENDROOT
BRANCH   1   2
ATOM      2  C   UNL A   1      33.432  27.465  24.871  1.00  0.00     0.023 C 
BRANCH   2   3
ATOM      3  C   UNL A   1      33.318  28.520  23.770  1.00  0.00     0.116 C 
BRANCH   3   4
ATOM      4  N   UNL A   1      32.094  29.294  23.810  1.00  0.00    -0.356 N 
ATOM      5  C   UNL A   1      30.800  28.996  23.522  1.00  0.00     0.227 C 
ATOM      6  O   UNL A   1      29.980  29.843  23.900  1.00  0.00    -0.274 OA
ATOM      7  H   UNL A   1      32.227  30.223  24.106  1.00  0.00     0.163 HD
BRANCH   5   8
ATOM      8  C   UNL A   1      30.332  27.784  22.665  1.00  0.00     0.103 C 
ATOM      9  C   UNL A   1      30.218  25.596  23.839  1.00  0.00     0.106 C 
ATOM     10  C   UNL A   1      31.255  25.594  22.783  1.00  0.00    -0.006 C 
ATOM     11  C   UNL A   1      29.415  26.870  23.522  1.00  0.00     0.047 C 
ATOM     12  C   UNL A   1      31.294  26.762  22.119  1.00  0.00    -0.016 C 
BRANCH   9  13
ATOM     13  N   UNL A   1      30.658  25.451  25.225  1.00  0.00    -0.343 N 
ATOM     14  C   UNL A   1      31.336  24.586  26.055  1.00  0.00     0.287 C 
ATOM     15  O   UNL A   1      31.353  24.941  27.248  1.00  0.00    -0.266 OA
ATOM     16  H   UNL A   1      30.373  26.240  25.740  1.00  0.00     0.164 HD
BRANCH  14  17
ATOM     17  C   UNL A   1      31.941  23.352  25.615  1.00  0.00     0.192 A 
ATOM     18  C   UNL A   1      33.687  17.790  24.111  1.00  0.00     0.044 C 
ATOM     19  C   UNL A   1      33.679  19.244  24.485  1.00  0.00    -0.050 A 
ATOM     20  C   UNL A   1      34.856  19.936  24.810  1.00  0.00     0.007 A 
ATOM     21  C   UNL A   1      32.451  19.906  24.559  1.00  0.00     0.015 A 
ATOM     22  C   UNL A   1      34.839  21.278  25.243  1.00  0.00     0.048 A 
ATOM     23  C   UNL A   1      32.429  21.255  24.934  1.00  0.00     0.021 A 
ATOM     24  C   UNL A   1      33.594  21.893  25.313  1.00  0.00     0.135 A 
ATOM     25  C   UNL A   1      31.438  22.241  24.988  1.00  0.00     0.065 A 
ATOM     26  O   UNL A   1      33.308  23.163  25.750  1.00  0.00    -0.451 OA
ENDBRANCH  14  17
ENDBRANCH   9  13
ENDBRANCH   5   8
ENDBRANCH   3   4
ENDBRANCH   2   3
ENDBRANCH   1   2
BRANCH   1  27
ATOM     27  C   UNL A   1      33.190  28.363  27.325  1.00  0.00     0.116 C 
BRANCH  27  28
ATOM     28  N   UNL A   1      33.194  29.803  27.526  1.00  0.00    -0.352 N 
ATOM     29  C   UNL A   1      34.177  30.661  27.965  1.00  0.00     0.251 C 
ATOM     30  H   UNL A   1      32.340  30.245  27.310  1.00  0.00     0.163 HD
ATOM     31  O   UNL A   1      33.888  31.848  28.114  1.00  0.00    -0.269 OA
BRANCH  29  32
ATOM     32  C   UNL A   1      35.553  30.201  28.294  1.00  0.00     0.039 A 
ATOM     33  C   UNL A   1      36.522  30.240  27.284  1.00  0.00     0.014 A 
ATOM     34  C   UNL A   1      35.898  29.680  29.544  1.00  0.00     0.014 A 
ATOM     35  C   UNL A   1      37.838  29.835  27.544  1.00  0.00     0.010 A 
ATOM     36  C   UNL A   1      37.227  29.328  29.820  1.00  0.00     0.010 A 
ATOM     37  C   UNL A   1      38.215  29.410  28.828  1.00  0.00    -0.014 A 
BRANCH  37  38
ATOM     38  C   UNL A   1      39.637  29.084  29.137  1.00  0.00     0.031 A 
ATOM     39  C   UNL A   1      40.541  30.090  29.804  1.00  0.00     0.074 A 
ATOM     40  C   UNL A   1      40.134  27.877  28.792  1.00  0.00     0.049 A 
ATOM     41  N   UNL A   1      41.805  29.973  30.132  1.00  0.00    -0.248 NA
ATOM     42  C   UNL A   1      39.956  31.398  30.130  1.00  0.00     0.031 C 
ATOM     43  C   UNL A   1      39.388  26.817  28.111  1.00  0.00     0.029 A 
ATOM     44  N   UNL A   1      41.387  27.337  28.966  1.00  0.00    -0.354 N 
ATOM     45  C   UNL A   1      42.165  31.188  30.703  1.00  0.00     0.074 A 
ATOM     46  C   UNL A   1      41.000  32.045  30.631  1.00  0.00     0.031 C 
ATOM     47  C   UNL A   1      40.186  25.749  27.949  1.00  0.00     0.029 A 
ATOM     48  C   UNL A   1      41.508  26.055  28.485  1.00  0.00     0.049 A 
ATOM     49  H   UNL A   1      42.127  27.824  29.395  1.00  0.00     0.167 HD
ATOM     50  C   UNL A   1      43.349  31.557  31.254  1.00  0.00     0.031 A 
ATOM     51  C   UNL A   1      42.561  25.214  28.475  1.00  0.00     0.031 A 
ATOM     52  C   UNL A   1      44.515  30.715  31.328  1.00  0.00     0.049 A 
ATOM     53  C   UNL A   1      43.866  25.650  29.085  1.00  0.00     0.074 A 
ATOM     54  C   UNL A   1      45.751  31.002  31.883  1.00  0.00     0.029 A 
ATOM     55  N   UNL A   1      44.590  29.421  30.838  1.00  0.00    -0.354 N 
ATOM     56  N   UNL A   1      44.168  26.791  29.654  1.00  0.00    -0.248 NA
ATOM     57  C   UNL A   1      44.965  24.673  29.066  1.00  0.00     0.031 C 
ATOM     58  C   UNL A   1      46.583  29.890  31.704  1.00  0.00     0.029 A 
ATOM     59  C   UNL A   1      45.851  28.897  31.075  1.00  0.00     0.049 A 
ATOM     60  H   UNL A   1      43.855  28.943  30.390  1.00  0.00     0.167 HD
ATOM     61  C   UNL A   1      45.485  26.659  30.083  1.00  0.00     0.074 A 
ATOM     62  C   UNL A   1      45.914  25.324  29.725  1.00  0.00     0.031 C 
ATOM     63  C   UNL A   1      46.268  27.566  30.718  1.00  0.00     0.031 A 
BRANCH  50  64
ATOM     64  C   UNL A   1      43.438  32.944  31.836  1.00  0.00    -0.014 A 
ATOM     65  C   UNL A   1      43.160  33.167  33.197  1.00  0.00     0.010 A 
ATOM     66  C   UNL A   1      43.848  34.024  31.035  1.00  0.00     0.010 A 
ATOM     67  C   UNL A   1      43.250  34.452  33.737  1.00  0.00     0.020 A 
ATOM     68  C   UNL A   1      43.962  35.309  31.578  1.00  0.00     0.020 A 
ATOM     69  C   UNL A   1      43.646  35.517  32.922  1.00  0.00     0.054 A 
BRANCH  69  70
ATOM     70  S   UNL A   1      43.773  37.172  33.653  1.00  0.00     0.124 S 
ATOM     71  O   UNL A   1      42.571  37.227  34.481  1.00  0.00    -0.237 OA
ATOM     72  O   UNL A   1      45.035  37.105  34.386  1.00  0.00    -0.237 OA
ATOM     73  O   UNL A   1      43.775  38.063  32.496  1.00  0.00    -0.744 OA
ENDBRANCH  69  70
ENDBRANCH  50  64
BRANCH  51  74
ATOM     74  C   UNL A   1      42.429  23.856  27.879  1.00  0.00    -0.014 A 
ATOM     75  C   UNL A   1      41.924  22.789  28.643  1.00  0.00     0.010 A 
ATOM     76  C   UNL A   1      42.829  23.619  26.552  1.00  0.00     0.010 A 
ATOM     77  C   UNL A   1      41.850  21.503  28.101  1.00  0.00     0.020 A 
ATOM     78  C   UNL A   1      42.731  22.340  25.997  1.00  0.00     0.020 A 
ATOM     79  C   UNL A   1      42.259  21.286  26.782  1.00  0.00     0.054 A 
BRANCH  79  80
ATOM     80  S   UNL A   1      42.129  19.617  26.083  1.00  0.00     0.124 S 
ATOM     81  O   UNL A   1      43.036  19.696  24.942  1.00  0.00    -0.237 OA
ATOM     82  O   UNL A   1      42.574  18.771  27.187  1.00  0.00    -0.237 OA
ATOM     83  O   UNL A   1      40.711  19.498  25.751  1.00  0.00    -0.744 OA
ENDBRANCH  79  80
ENDBRANCH  51  74
BRANCH  63  84
ATOM     84  C   UNL A   1      47.657  27.127  31.100  1.00  0.00    -0.014 A 
ATOM     85  C   UNL A   1      48.775  27.500  30.335  1.00  0.00     0.010 A 
ATOM     86  C   UNL A   1      47.844  26.345  32.254  1.00  0.00     0.010 A 
ATOM     87  C   UNL A   1      50.054  27.062  30.692  1.00  0.00     0.020 A 
ATOM     88  C   UNL A   1      49.123  25.924  32.627  1.00  0.00     0.020 A 
ATOM     89  C   UNL A   1      50.219  26.269  31.833  1.00  0.00     0.054 A 
BRANCH  89  90
ATOM     90  S   UNL A   1      51.888  25.726  32.291  1.00  0.00     0.124 S 
ATOM     91  O   UNL A   1      51.629  24.417  32.884  1.00  0.00    -0.237 OA
ATOM     92  O   UNL A   1      52.587  25.707  31.007  1.00  0.00    -0.237 OA
ATOM     93  O   UNL A   1      52.342  26.756  33.224  1.00  0.00    -0.744 OA
ENDBRANCH  89  90
ENDBRANCH  63  84
ENDBRANCH  37  38
ENDBRANCH  29  32
ENDBRANCH  27  28
ENDBRANCH   1  27
TORSDOF 16
ENDMDL
