MODEL 1
REMARK VINA RESULT:     -12.4      0.000      0.000
REMARK SMILES O=C(NCCCCNC(=O)c1ccc2nc(-n3cccc3)sc2c1)c1ccc(-c2c3nc(c(-c4ccc(S(=O)(=O)[O-])cc4)c4ccc([nH]4)c(-c4ccc(S(=O)(=O)[O-])cc4)c4nc(c(-c5ccc(S(=O)(=O)[O-])cc5)c5ccc2[nH]5)C=C4)C=C3)cc1
REMARK SMILES IDX 4 1 3 2 1 3 2 4 25 6 26 7 84 8 27 9 83 10 28 11 29 12 30 13
REMARK SMILES IDX 77 14 31 15 82 16 76 17 78 18 32 19 81 20 75 21 74 22 33 24
REMARK SMILES IDX 63 25 44 26 62 27 45 28 48 29 61 30 79 31 46 32 47 33 60 35
REMARK SMILES IDX 80 36 49 37 34 38 35 39 43 40 36 41 42 42 37 43 38 44 39 45
REMARK SMILES IDX 40 46 41 47 64 48 65 49 73 50 66 51 72 52 67 53 68 54 69 55
REMARK SMILES IDX 70 56 71 57 50 58 51 59 59 60 52 61 58 62 53 63 54 64 55 65
REMARK SMILES IDX 56 66 57 67 5 68 6 69 7 70 8 71 9 72 10 74 11 75 12 76 24 77
REMARK SMILES IDX 13 78 23 79 14 80 22 81 15 82 16 83 17 84 18 85 21 86 19 87
REMARK SMILES IDX 20 88
REMARK H PARENT 3 5 78 23 48 34 8 73
REMARK Flexibility Score: inf
ROOT
ATOM      1  C   UNL A   1      33.269  28.315  26.906  1.00  0.00     0.116 C 
ENDROOT
BRANCH   1   2
ATOM      2  N   UNL A   1      33.244  29.707  27.313  1.00  0.00    -0.352 N 
ATOM      3  O   UNL A   1      33.858  31.758  27.905  1.00  0.00    -0.269 OA
ATOM      4  C   UNL A   1      34.200  30.581  27.769  1.00  0.00     0.251 C 
ATOM      5  H   UNL A   1      32.349  30.113  27.248  1.00  0.00     0.163 HD
BRANCH   4   6
ATOM      6  C   UNL A   1      35.579  30.180  28.160  1.00  0.00     0.039 A 
ATOM      7  C   UNL A   1      36.675  30.200  27.297  1.00  0.00     0.014 A 
ATOM      8  C   UNL A   1      35.778  29.782  29.495  1.00  0.00     0.014 A 
ATOM      9  C   UNL A   1      37.918  29.748  27.730  1.00  0.00     0.010 A 
ATOM     10  C   UNL A   1      37.031  29.356  29.945  1.00  0.00     0.010 A 
ATOM     11  C   UNL A   1      38.104  29.332  29.054  1.00  0.00    -0.014 A 
BRANCH  11  12
ATOM     12  C   UNL A   1      39.502  29.071  29.475  1.00  0.00     0.031 A 
ATOM     13  C   UNL A   1      40.167  30.344  30.018  1.00  0.00     0.074 A 
ATOM     14  C   UNL A   1      40.035  27.850  29.167  1.00  0.00     0.049 A 
ATOM     15  N   UNL A   1      41.360  30.808  29.811  1.00  0.00    -0.248 NA
ATOM     16  C   UNL A   1      39.346  31.302  30.806  1.00  0.00     0.031 C 
ATOM     17  C   UNL A   1      39.252  26.679  28.711  1.00  0.00     0.029 A 
ATOM     18  N   UNL A   1      41.318  27.340  29.153  1.00  0.00    -0.354 N 
ATOM     19  C   UNL A   1      41.488  32.011  30.545  1.00  0.00     0.074 A 
ATOM     20  C   UNL A   1      40.185  32.310  31.058  1.00  0.00     0.031 C 
ATOM     21  C   UNL A   1      40.066  25.645  28.399  1.00  0.00     0.029 A 
ATOM     22  C   UNL A   1      41.447  26.038  28.599  1.00  0.00     0.049 A 
ATOM     23  H   UNL A   1      42.089  27.843  29.501  1.00  0.00     0.167 HD
ATOM     24  C   UNL A   1      42.685  32.629  30.773  1.00  0.00     0.031 A 
ATOM     25  C   UNL A   1      42.581  25.348  28.261  1.00  0.00     0.031 A 
ATOM     26  C   UNL A   1      43.734  31.924  30.119  1.00  0.00     0.049 A 
ATOM     27  C   UNL A   1      43.707  26.216  28.637  1.00  0.00     0.074 A 
ATOM     28  C   UNL A   1      44.133  31.809  28.814  1.00  0.00     0.029 A 
ATOM     29  N   UNL A   1      44.360  30.956  30.864  1.00  0.00    -0.354 N 
ATOM     30  N   UNL A   1      44.137  26.408  29.845  1.00  0.00    -0.248 NA
ATOM     31  C   UNL A   1      44.398  26.969  27.580  1.00  0.00     0.031 C 
ATOM     32  C   UNL A   1      44.629  30.488  28.731  1.00  0.00     0.029 A 
ATOM     33  C   UNL A   1      44.633  29.920  30.009  1.00  0.00     0.049 A 
ATOM     34  H   UNL A   1      44.572  30.999  31.825  1.00  0.00     0.167 HD
ATOM     35  C   UNL A   1      44.866  27.561  29.718  1.00  0.00     0.074 A 
ATOM     36  C   UNL A   1      45.260  27.652  28.330  1.00  0.00     0.031 C 
ATOM     37  C   UNL A   1      44.645  28.591  30.571  1.00  0.00     0.031 A 
BRANCH  24  38
ATOM     38  C   UNL A   1      43.102  33.701  31.753  1.00  0.00    -0.014 A 
ATOM     39  C   UNL A   1      42.884  33.429  33.131  1.00  0.00     0.010 A 
ATOM     40  C   UNL A   1      43.365  35.030  31.396  1.00  0.00     0.010 A 
ATOM     41  C   UNL A   1      42.770  34.447  34.079  1.00  0.00     0.020 A 
ATOM     42  C   UNL A   1      43.296  36.059  32.356  1.00  0.00     0.020 A 
ATOM     43  C   UNL A   1      42.940  35.765  33.675  1.00  0.00     0.054 A 
BRANCH  43  44
ATOM     44  S   UNL A   1      42.609  37.078  34.880  1.00  0.00     0.124 S 
ATOM     45  O   UNL A   1      42.660  38.277  34.050  1.00  0.00    -0.237 OA
ATOM     46  O   UNL A   1      41.282  36.723  35.381  1.00  0.00    -0.237 OA
ATOM     47  O   UNL A   1      43.690  36.934  35.851  1.00  0.00    -0.744 OA
ENDBRANCH  43  44
ENDBRANCH  24  38
BRANCH  25  48
ATOM     48  C   UNL A   1      42.967  24.081  27.524  1.00  0.00    -0.014 A 
ATOM     49  C   UNL A   1      42.142  23.303  26.704  1.00  0.00     0.010 A 
ATOM     50  C   UNL A   1      44.325  23.652  27.604  1.00  0.00     0.010 A 
ATOM     51  C   UNL A   1      42.679  22.261  25.905  1.00  0.00     0.020 A 
ATOM     52  C   UNL A   1      44.877  22.660  26.791  1.00  0.00     0.020 A 
ATOM     53  C   UNL A   1      44.051  21.981  25.918  1.00  0.00     0.054 A 
BRANCH  53  54
ATOM     54  S   UNL A   1      44.799  20.840  24.717  1.00  0.00     0.124 S 
ATOM     55  O   UNL A   1      43.903  19.691  24.775  1.00  0.00    -0.237 OA
ATOM     56  O   UNL A   1      44.764  21.609  23.475  1.00  0.00    -0.237 OA
ATOM     57  O   UNL A   1      46.141  20.616  25.254  1.00  0.00    -0.744 OA
ENDBRANCH  53  54
ENDBRANCH  25  48
BRANCH  37  58
ATOM     58  C   UNL A   1      44.002  28.197  31.894  1.00  0.00    -0.014 A 
ATOM     59  C   UNL A   1      44.775  27.565  32.884  1.00  0.00     0.010 A 
ATOM     60  C   UNL A   1      42.620  28.339  32.142  1.00  0.00     0.010 A 
ATOM     61  C   UNL A   1      44.195  27.088  34.069  1.00  0.00     0.020 A 
ATOM     62  C   UNL A   1      42.029  27.866  33.327  1.00  0.00     0.020 A 
ATOM     63  C   UNL A   1      42.824  27.240  34.286  1.00  0.00     0.054 A 
BRANCH  63  64
ATOM     64  S   UNL A   1      42.105  26.589  35.823  1.00  0.00     0.124 S 
ATOM     65  O   UNL A   1      40.879  25.943  35.358  1.00  0.00    -0.237 OA
ATOM     66  O   UNL A   1      43.145  25.682  36.299  1.00  0.00    -0.237 OA
ATOM     67  O   UNL A   1      41.896  27.779  36.648  1.00  0.00    -0.744 OA
ENDBRANCH  63  64
ENDBRANCH  37  58
ENDBRANCH  11  12
ENDBRANCH   4   6
ENDBRANCH   1   2
BRANCH   1  68
ATOM     68  C   UNL A   1      33.621  28.065  25.440  1.00  0.00     0.023 C 
BRANCH  68  69
ATOM     69  C   UNL A   1      33.455  29.271  24.511  1.00  0.00     0.023 C 
BRANCH  69  70
ATOM     70  C   UNL A   1      33.345  28.947  23.024  1.00  0.00     0.116 C 
BRANCH  70  71
ATOM     71  N   UNL A   1      32.023  29.228  22.489  1.00  0.00    -0.352 N 
ATOM     72  C   UNL A   1      30.918  28.414  22.429  1.00  0.00     0.251 C 
ATOM     73  H   UNL A   1      31.903  30.131  22.114  1.00  0.00     0.163 HD
ATOM     74  O   UNL A   1      29.906  28.765  21.852  1.00  0.00    -0.269 OA
BRANCH  72  75
ATOM     75  C   UNL A   1      30.963  27.089  23.080  1.00  0.00     0.041 A 
ATOM     76  C   UNL A   1      30.256  26.863  24.261  1.00  0.00     0.016 A 
ATOM     77  C   UNL A   1      31.696  26.072  22.455  1.00  0.00     0.035 A 
ATOM     78  C   UNL A   1      30.275  25.599  24.855  1.00  0.00     0.031 A 
ATOM     79  C   UNL A   1      31.733  24.819  23.086  1.00  0.00     0.057 A 
ATOM     80  C   UNL A   1      31.013  24.556  24.257  1.00  0.00     0.084 A 
ATOM     81  S   UNL A   1      32.616  23.404  22.648  1.00  0.00    -0.096 S 
ATOM     82  N   UNL A   1      31.091  23.255  24.723  1.00  0.00    -0.219 NA
ATOM     83  C   UNL A   1      31.938  22.586  23.975  1.00  0.00     0.194 A 
BRANCH  83  84
ATOM     84  N   UNL A   1      32.266  21.247  24.222  1.00  0.00    -0.300 N 
ATOM     85  C   UNL A   1      32.335  20.187  23.331  1.00  0.00     0.093 A 
ATOM     86  C   UNL A   1      32.616  20.741  25.466  1.00  0.00     0.093 A 
ATOM     87  C   UNL A   1      32.734  19.050  24.002  1.00  0.00     0.020 A 
ATOM     88  C   UNL A   1      32.885  19.396  25.360  1.00  0.00     0.020 A 
ENDBRANCH  83  84
ENDBRANCH  72  75
ENDBRANCH  70  71
ENDBRANCH  69  70
ENDBRANCH  68  69
ENDBRANCH   1  68
TORSDOF 15
ENDMDL
MODEL 2
REMARK VINA RESULT:     -12.4      1.279      2.052
REMARK SMILES O=C(NCCCCNC(=O)c1ccc2nc(-n3cccc3)sc2c1)c1ccc(-c2c3nc(c(-c4ccc(S(=O)(=O)[O-])cc4)c4ccc([nH]4)c(-c4ccc(S(=O)(=O)[O-])cc4)c4nc(c(-c5ccc(S(=O)(=O)[O-])cc5)c5ccc2[nH]5)C=C4)C=C3)cc1
REMARK SMILES IDX 4 1 3 2 1 3 2 4 25 6 26 7 84 8 27 9 83 10 28 11 29 12 30 13
REMARK SMILES IDX 77 14 31 15 82 16 76 17 78 18 32 19 81 20 75 21 74 22 33 24
REMARK SMILES IDX 63 25 44 26 62 27 45 28 48 29 61 30 79 31 46 32 47 33 60 35
REMARK SMILES IDX 80 36 49 37 34 38 35 39 43 40 36 41 42 42 37 43 38 44 39 45
REMARK SMILES IDX 40 46 41 47 64 48 65 49 73 50 66 51 72 52 67 53 68 54 69 55
REMARK SMILES IDX 70 56 71 57 50 58 51 59 59 60 52 61 58 62 53 63 54 64 55 65
REMARK SMILES IDX 56 66 57 67 5 68 6 69 7 70 8 71 9 72 10 74 11 75 12 76 24 77
REMARK SMILES IDX 13 78 23 79 14 80 22 81 15 82 16 83 17 84 18 85 21 86 19 87
REMARK SMILES IDX 20 88
REMARK H PARENT 3 5 78 23 48 34 8 73
REMARK Flexibility Score: inf
ROOT
ATOM      1  C   UNL A   1      33.536  28.587  26.278  1.00  0.00     0.116 C 
ENDROOT
BRANCH   1   2
ATOM      2  N   UNL A   1      33.388  29.852  26.972  1.00  0.00    -0.352 N 
ATOM      3  O   UNL A   1      33.819  31.750  28.043  1.00  0.00    -0.269 OA
ATOM      4  C   UNL A   1      34.247  30.650  27.687  1.00  0.00     0.251 C 
ATOM      5  H   UNL A   1      32.476  30.219  26.919  1.00  0.00     0.163 HD
BRANCH   4   6
ATOM      6  C   UNL A   1      35.618  30.241  28.100  1.00  0.00     0.039 A 
ATOM      7  C   UNL A   1      36.740  30.316  27.276  1.00  0.00     0.014 A 
ATOM      8  C   UNL A   1      35.778  29.773  29.418  1.00  0.00     0.014 A 
ATOM      9  C   UNL A   1      37.974  29.852  27.724  1.00  0.00     0.010 A 
ATOM     10  C   UNL A   1      37.020  29.334  29.885  1.00  0.00     0.010 A 
ATOM     11  C   UNL A   1      38.121  29.367  29.030  1.00  0.00    -0.014 A 
BRANCH  11  12
ATOM     12  C   UNL A   1      39.507  29.096  29.482  1.00  0.00     0.031 A 
ATOM     13  C   UNL A   1      40.165  30.361  30.051  1.00  0.00     0.074 A 
ATOM     14  C   UNL A   1      40.042  27.875  29.176  1.00  0.00     0.049 A 
ATOM     15  N   UNL A   1      41.366  30.821  29.876  1.00  0.00    -0.248 NA
ATOM     16  C   UNL A   1      39.330  31.316  30.827  1.00  0.00     0.031 C 
ATOM     17  C   UNL A   1      39.264  26.712  28.692  1.00  0.00     0.029 A 
ATOM     18  N   UNL A   1      41.322  27.359  29.188  1.00  0.00    -0.354 N 
ATOM     19  C   UNL A   1      41.482  32.018  30.622  1.00  0.00     0.074 A 
ATOM     20  C   UNL A   1      40.168  32.318  31.107  1.00  0.00     0.031 C 
ATOM     21  C   UNL A   1      40.081  25.676  28.390  1.00  0.00     0.029 A 
ATOM     22  C   UNL A   1      41.459  26.061  28.627  1.00  0.00     0.049 A 
ATOM     23  H   UNL A   1      42.088  27.856  29.559  1.00  0.00     0.167 HD
ATOM     24  C   UNL A   1      42.676  32.628  30.884  1.00  0.00     0.031 A 
ATOM     25  C   UNL A   1      42.597  25.368  28.310  1.00  0.00     0.031 A 
ATOM     26  C   UNL A   1      43.736  31.923  30.249  1.00  0.00     0.049 A 
ATOM     27  C   UNL A   1      43.718  26.227  28.720  1.00  0.00     0.074 A 
ATOM     28  C   UNL A   1      44.166  31.817  28.953  1.00  0.00     0.029 A 
ATOM     29  N   UNL A   1      44.340  30.946  31.001  1.00  0.00    -0.354 N 
ATOM     30  N   UNL A   1      44.119  26.407  29.939  1.00  0.00    -0.248 NA
ATOM     31  C   UNL A   1      44.438  26.986  27.686  1.00  0.00     0.031 C 
ATOM     32  C   UNL A   1      44.658  30.494  28.871  1.00  0.00     0.029 A 
ATOM     33  C   UNL A   1      44.629  29.915  30.144  1.00  0.00     0.049 A 
ATOM     34  H   UNL A   1      44.529  30.980  31.967  1.00  0.00     0.167 HD
ATOM     35  C   UNL A   1      44.858  27.558  29.840  1.00  0.00     0.074 A 
ATOM     36  C   UNL A   1      45.285  27.658  28.461  1.00  0.00     0.031 C 
ATOM     37  C   UNL A   1      44.621  28.582  30.695  1.00  0.00     0.031 A 
BRANCH  24  38
ATOM     38  C   UNL A   1      43.074  33.690  31.882  1.00  0.00    -0.014 A 
ATOM     39  C   UNL A   1      42.830  33.404  33.254  1.00  0.00     0.010 A 
ATOM     40  C   UNL A   1      43.343  35.022  31.544  1.00  0.00     0.010 A 
ATOM     41  C   UNL A   1      42.699  34.411  34.210  1.00  0.00     0.020 A 
ATOM     42  C   UNL A   1      43.256  36.041  32.513  1.00  0.00     0.020 A 
ATOM     43  C   UNL A   1      42.876  35.734  33.822  1.00  0.00     0.054 A 
BRANCH  43  44
ATOM     44  S   UNL A   1      42.522  37.035  35.034  1.00  0.00     0.124 S 
ATOM     45  O   UNL A   1      41.150  36.728  35.423  1.00  0.00    -0.237 OA
ATOM     46  O   UNL A   1      43.532  36.793  36.064  1.00  0.00    -0.237 OA
ATOM     47  O   UNL A   1      42.704  38.270  34.276  1.00  0.00    -0.744 OA
ENDBRANCH  43  44
ENDBRANCH  24  38
BRANCH  25  48
ATOM     48  C   UNL A   1      42.995  24.105  27.572  1.00  0.00    -0.014 A 
ATOM     49  C   UNL A   1      42.185  23.336  26.729  1.00  0.00     0.010 A 
ATOM     50  C   UNL A   1      44.350  23.671  27.677  1.00  0.00     0.010 A 
ATOM     51  C   UNL A   1      42.735  22.298  25.934  1.00  0.00     0.020 A 
ATOM     52  C   UNL A   1      44.916  22.684  26.868  1.00  0.00     0.020 A 
ATOM     53  C   UNL A   1      44.106  22.014  25.973  1.00  0.00     0.054 A 
BRANCH  53  54
ATOM     54  S   UNL A   1      44.875  20.879  24.780  1.00  0.00     0.124 S 
ATOM     55  O   UNL A   1      44.771  21.621  23.528  1.00  0.00    -0.237 OA
ATOM     56  O   UNL A   1      46.226  20.718  25.312  1.00  0.00    -0.237 OA
ATOM     57  O   UNL A   1      44.041  19.680  24.868  1.00  0.00    -0.744 OA
ENDBRANCH  53  54
ENDBRANCH  25  48
BRANCH  37  58
ATOM     58  C   UNL A   1      43.944  28.180  31.999  1.00  0.00    -0.014 A 
ATOM     59  C   UNL A   1      42.601  28.531  32.224  1.00  0.00     0.010 A 
ATOM     60  C   UNL A   1      44.637  27.554  33.056  1.00  0.00     0.010 A 
ATOM     61  C   UNL A   1      41.978  28.275  33.454  1.00  0.00     0.020 A 
ATOM     62  C   UNL A   1      44.021  27.292  34.292  1.00  0.00     0.020 A 
ATOM     63  C   UNL A   1      42.690  27.657  34.484  1.00  0.00     0.054 A 
BRANCH  63  64
ATOM     64  S   UNL A   1      41.854  27.363  36.071  1.00  0.00     0.124 S 
ATOM     65  O   UNL A   1      40.965  28.517  36.187  1.00  0.00    -0.237 OA
ATOM     66  O   UNL A   1      41.188  26.083  35.845  1.00  0.00    -0.237 OA
ATOM     67  O   UNL A   1      42.945  27.330  37.045  1.00  0.00    -0.744 OA
ENDBRANCH  63  64
ENDBRANCH  37  58
ENDBRANCH  11  12
ENDBRANCH   4   6
ENDBRANCH   1   2
BRANCH   1  68
ATOM     68  C   UNL A   1      32.416  27.574  26.515  1.00  0.00     0.023 C 
BRANCH  68  69
ATOM     69  C   UNL A   1      31.430  27.403  25.357  1.00  0.00     0.023 C 
BRANCH  69  70
ATOM     70  C   UNL A   1      31.580  26.120  24.546  1.00  0.00     0.116 C 
BRANCH  70  71
ATOM     71  N   UNL A   1      32.262  26.337  23.280  1.00  0.00    -0.352 N 
ATOM     72  C   UNL A   1      33.234  25.577  22.675  1.00  0.00     0.251 C 
ATOM     73  H   UNL A   1      31.990  27.144  22.786  1.00  0.00     0.163 HD
ATOM     74  O   UNL A   1      33.783  25.950  21.656  1.00  0.00    -0.269 OA
BRANCH  72  75
ATOM     75  C   UNL A   1      33.617  24.283  23.277  1.00  0.00     0.041 A 
ATOM     76  C   UNL A   1      34.748  24.194  24.088  1.00  0.00     0.016 A 
ATOM     77  C   UNL A   1      32.792  23.176  23.041  1.00  0.00     0.035 A 
ATOM     78  C   UNL A   1      35.087  22.976  24.681  1.00  0.00     0.031 A 
ATOM     79  C   UNL A   1      33.168  21.953  23.616  1.00  0.00     0.057 A 
ATOM     80  C   UNL A   1      34.283  21.840  24.455  1.00  0.00     0.084 A 
ATOM     81  S   UNL A   1      32.446  20.397  23.439  1.00  0.00    -0.096 S 
ATOM     82  N   UNL A   1      34.488  20.586  25.004  1.00  0.00    -0.219 NA
ATOM     83  C   UNL A   1      33.606  19.753  24.501  1.00  0.00     0.194 A 
BRANCH  83  84
ATOM     84  N   UNL A   1      33.583  18.391  24.830  1.00  0.00    -0.300 N 
ATOM     85  C   UNL A   1      32.684  17.702  25.631  1.00  0.00     0.093 A 
ATOM     86  C   UNL A   1      34.496  17.455  24.364  1.00  0.00     0.093 A 
ATOM     87  C   UNL A   1      33.020  16.365  25.650  1.00  0.00     0.020 A 
ATOM     88  C   UNL A   1      34.184  16.214  24.869  1.00  0.00     0.020 A 
ENDBRANCH  83  84
ENDBRANCH  72  75
ENDBRANCH  70  71
ENDBRANCH  69  70
ENDBRANCH  68  69
ENDBRANCH   1  68
TORSDOF 15
ENDMDL
MODEL 3
REMARK VINA RESULT:     -12.3      3.044      9.369
REMARK SMILES O=C(NCCCCNC(=O)c1ccc2nc(-n3cccc3)sc2c1)c1ccc(-c2c3nc(c(-c4ccc(S(=O)(=O)[O-])cc4)c4ccc([nH]4)c(-c4ccc(S(=O)(=O)[O-])cc4)c4nc(c(-c5ccc(S(=O)(=O)[O-])cc5)c5ccc2[nH]5)C=C4)C=C3)cc1
REMARK SMILES IDX 4 1 3 2 1 3 2 4 25 6 26 7 84 8 27 9 83 10 28 11 29 12 30 13
REMARK SMILES IDX 77 14 31 15 82 16 76 17 78 18 32 19 81 20 75 21 74 22 33 24
REMARK SMILES IDX 63 25 44 26 62 27 45 28 48 29 61 30 79 31 46 32 47 33 60 35
REMARK SMILES IDX 80 36 49 37 34 38 35 39 43 40 36 41 42 42 37 43 38 44 39 45
REMARK SMILES IDX 40 46 41 47 64 48 65 49 73 50 66 51 72 52 67 53 68 54 69 55
REMARK SMILES IDX 70 56 71 57 50 58 51 59 59 60 52 61 58 62 53 63 54 64 55 65
REMARK SMILES IDX 56 66 57 67 5 68 6 69 7 70 8 71 9 72 10 74 11 75 12 76 24 77
REMARK SMILES IDX 13 78 23 79 14 80 22 81 15 82 16 83 17 84 18 85 21 86 19 87
REMARK SMILES IDX 20 88
REMARK H PARENT 3 5 78 23 48 34 8 73
REMARK Flexibility Score: inf
ROOT
ATOM      1  C   UNL A   1      34.737  28.575  26.409  1.00  0.00     0.116 C 
ENDROOT
BRANCH   1   2
ATOM      2  N   UNL A   1      34.914  29.824  27.124  1.00  0.00    -0.352 N 
ATOM      3  O   UNL A   1      35.817  31.567  28.163  1.00  0.00    -0.269 OA
ATOM      4  C   UNL A   1      35.980  30.414  27.756  1.00  0.00     0.251 C 
ATOM      5  H   UNL A   1      34.092  30.366  27.166  1.00  0.00     0.163 HD
BRANCH   4   6
ATOM      6  C   UNL A   1      37.274  29.730  28.027  1.00  0.00     0.039 A 
ATOM      7  C   UNL A   1      38.392  29.809  27.196  1.00  0.00     0.014 A 
ATOM      8  C   UNL A   1      37.366  28.978  29.214  1.00  0.00     0.014 A 
ATOM      9  C   UNL A   1      39.542  29.085  27.495  1.00  0.00     0.010 A 
ATOM     10  C   UNL A   1      38.529  28.272  29.535  1.00  0.00     0.010 A 
ATOM     11  C   UNL A   1      39.619  28.321  28.666  1.00  0.00    -0.014 A 
BRANCH  11  12
ATOM     12  C   UNL A   1      40.950  27.759  29.002  1.00  0.00     0.031 A 
ATOM     13  C   UNL A   1      41.243  26.494  28.184  1.00  0.00     0.074 A 
ATOM     14  C   UNL A   1      41.614  28.307  30.066  1.00  0.00     0.049 A 
ATOM     15  N   UNL A   1      41.772  25.370  28.558  1.00  0.00    -0.248 NA
ATOM     16  C   UNL A   1      40.769  26.424  26.776  1.00  0.00     0.031 C 
ATOM     17  C   UNL A   1      41.251  29.584  30.719  1.00  0.00     0.029 A 
ATOM     18  N   UNL A   1      42.701  27.914  30.821  1.00  0.00    -0.354 N 
ATOM     19  C   UNL A   1      41.832  24.524  27.425  1.00  0.00     0.074 A 
ATOM     20  C   UNL A   1      41.113  25.195  26.384  1.00  0.00     0.031 C 
ATOM     21  C   UNL A   1      42.035  29.816  31.796  1.00  0.00     0.029 A 
ATOM     22  C   UNL A   1      42.967  28.717  31.963  1.00  0.00     0.049 A 
ATOM     23  H   UNL A   1      43.252  27.133  30.587  1.00  0.00     0.167 HD
ATOM     24  C   UNL A   1      42.564  23.371  27.385  1.00  0.00     0.031 A 
ATOM     25  C   UNL A   1      43.826  28.486  33.005  1.00  0.00     0.031 A 
ATOM     26  C   UNL A   1      43.178  23.137  28.647  1.00  0.00     0.049 A 
ATOM     27  C   UNL A   1      44.499  27.215  32.697  1.00  0.00     0.074 A 
ATOM     28  C   UNL A   1      42.720  22.709  29.864  1.00  0.00     0.029 A 
ATOM     29  N   UNL A   1      44.441  23.653  28.802  1.00  0.00    -0.354 N 
ATOM     30  N   UNL A   1      45.448  27.060  31.828  1.00  0.00    -0.248 NA
ATOM     31  C   UNL A   1      44.053  25.997  33.389  1.00  0.00     0.031 C 
ATOM     32  C   UNL A   1      43.532  23.401  30.790  1.00  0.00     0.029 A 
ATOM     33  C   UNL A   1      44.523  24.102  30.095  1.00  0.00     0.049 A 
ATOM     34  H   UNL A   1      45.148  23.693  28.119  1.00  0.00     0.167 HD
ATOM     35  C   UNL A   1      45.432  25.707  31.612  1.00  0.00     0.074 A 
ATOM     36  C   UNL A   1      44.839  25.107  32.787  1.00  0.00     0.031 C 
ATOM     37  C   UNL A   1      45.387  25.230  30.344  1.00  0.00     0.031 A 
BRANCH  24  38
ATOM     38  C   UNL A   1      43.024  22.501  26.239  1.00  0.00    -0.014 A 
ATOM     39  C   UNL A   1      42.603  21.142  26.257  1.00  0.00     0.010 A 
ATOM     40  C   UNL A   1      44.072  22.835  25.373  1.00  0.00     0.010 A 
ATOM     41  C   UNL A   1      43.295  20.143  25.573  1.00  0.00     0.020 A 
ATOM     42  C   UNL A   1      44.749  21.837  24.645  1.00  0.00     0.020 A 
ATOM     43  C   UNL A   1      44.393  20.495  24.798  1.00  0.00     0.054 A 
BRANCH  43  44
ATOM     44  S   UNL A   1      45.386  19.164  24.068  1.00  0.00     0.124 S 
ATOM     45  O   UNL A   1      46.725  19.744  24.068  1.00  0.00    -0.237 OA
ATOM     46  O   UNL A   1      45.183  18.063  25.008  1.00  0.00    -0.237 OA
ATOM     47  O   UNL A   1      44.781  18.966  22.753  1.00  0.00    -0.744 OA
ENDBRANCH  43  44
ENDBRANCH  24  38
BRANCH  25  48
ATOM     48  C   UNL A   1      44.148  29.068  34.366  1.00  0.00    -0.014 A 
ATOM     49  C   UNL A   1      45.340  29.692  34.752  1.00  0.00     0.010 A 
ATOM     50  C   UNL A   1      43.121  29.052  35.357  1.00  0.00     0.010 A 
ATOM     51  C   UNL A   1      45.438  30.380  35.989  1.00  0.00     0.020 A 
ATOM     52  C   UNL A   1      43.186  29.763  36.557  1.00  0.00     0.020 A 
ATOM     53  C   UNL A   1      44.343  30.453  36.859  1.00  0.00     0.054 A 
BRANCH  53  54
ATOM     54  S   UNL A   1      44.356  31.543  38.312  1.00  0.00     0.124 S 
ATOM     55  O   UNL A   1      42.953  31.552  38.712  1.00  0.00    -0.237 OA
ATOM     56  O   UNL A   1      45.270  30.856  39.223  1.00  0.00    -0.237 OA
ATOM     57  O   UNL A   1      44.864  32.808  37.782  1.00  0.00    -0.744 OA
ENDBRANCH  53  54
ENDBRANCH  25  48
BRANCH  37  58
ATOM     58  C   UNL A   1      45.885  26.201  29.281  1.00  0.00    -0.014 A 
ATOM     59  C   UNL A   1      44.975  27.064  28.644  1.00  0.00     0.010 A 
ATOM     60  C   UNL A   1      47.218  26.206  28.818  1.00  0.00     0.010 A 
ATOM     61  C   UNL A   1      45.376  27.892  27.585  1.00  0.00     0.020 A 
ATOM     62  C   UNL A   1      47.629  27.034  27.759  1.00  0.00     0.020 A 
ATOM     63  C   UNL A   1      46.701  27.874  27.146  1.00  0.00     0.054 A 
BRANCH  63  64
ATOM     64  S   UNL A   1      47.176  28.944  25.756  1.00  0.00     0.124 S 
ATOM     65  O   UNL A   1      48.604  28.671  25.611  1.00  0.00    -0.237 OA
ATOM     66  O   UNL A   1      46.333  28.448  24.672  1.00  0.00    -0.237 OA
ATOM     67  O   UNL A   1      46.854  30.293  26.223  1.00  0.00    -0.744 OA
ENDBRANCH  63  64
ENDBRANCH  37  58
ENDBRANCH  11  12
ENDBRANCH   4   6
ENDBRANCH   1   2
BRANCH   1  68
ATOM     68  C   UNL A   1      33.309  28.031  26.380  1.00  0.00     0.023 C 
BRANCH  68  69
ATOM     69  C   UNL A   1      33.187  26.520  26.167  1.00  0.00     0.023 C 
BRANCH  69  70
ATOM     70  C   UNL A   1      32.162  26.081  25.126  1.00  0.00     0.116 C 
BRANCH  70  71
ATOM     71  N   UNL A   1      32.619  26.305  23.764  1.00  0.00    -0.352 N 
ATOM     72  C   UNL A   1      33.421  25.515  22.975  1.00  0.00     0.251 C 
ATOM     73  H   UNL A   1      32.311  27.142  23.348  1.00  0.00     0.163 HD
ATOM     74  O   UNL A   1      33.800  25.893  21.883  1.00  0.00    -0.269 OA
BRANCH  72  75
ATOM     75  C   UNL A   1      33.826  24.182  23.466  1.00  0.00     0.041 A 
ATOM     76  C   UNL A   1      35.078  24.003  24.054  1.00  0.00     0.016 A 
ATOM     77  C   UNL A   1      32.906  23.131  23.358  1.00  0.00     0.035 A 
ATOM     78  C   UNL A   1      35.444  22.748  24.547  1.00  0.00     0.031 A 
ATOM     79  C   UNL A   1      33.306  21.870  23.825  1.00  0.00     0.057 A 
ATOM     80  C   UNL A   1      34.545  21.666  24.444  1.00  0.00     0.084 A 
ATOM     81  S   UNL A   1      32.471  20.363  23.745  1.00  0.00    -0.096 S 
ATOM     82  N   UNL A   1      34.769  20.385  24.916  1.00  0.00    -0.219 NA
ATOM     83  C   UNL A   1      33.762  19.620  24.562  1.00  0.00     0.194 A 
BRANCH  83  84
ATOM     84  N   UNL A   1      33.716  18.251  24.858  1.00  0.00    -0.300 N 
ATOM     85  C   UNL A   1      32.726  17.531  25.510  1.00  0.00     0.093 A 
ATOM     86  C   UNL A   1      34.701  17.338  24.506  1.00  0.00     0.093 A 
ATOM     87  C   UNL A   1      33.079  16.199  25.548  1.00  0.00     0.020 A 
ATOM     88  C   UNL A   1      34.343  16.082  24.936  1.00  0.00     0.020 A 
ENDBRANCH  83  84
ENDBRANCH  72  75
ENDBRANCH  70  71
ENDBRANCH  69  70
ENDBRANCH  68  69
ENDBRANCH   1  68
TORSDOF 15
ENDMDL
