MODEL 1
REMARK VINA RESULT:      -9.0      0.000      0.000
REMARK SMILES COC(=O)c1ccc([C@H]2Nc3c(C(=O)NCCCCNC(=O)c4ccc(-c5c6nc(c(-c7ccc(S(=O)(=O)[O-])cc7)c7ccc([nH]7)c(-c7ccc(S(=O)(=O)[O-])cc7)c7nc(c(-c8ccc(S(=O)(=O)[O-])cc8)c8ccc5[nH]8)C=C7)C=C6)cc4)cccc3[C@@H]3[C@@H]4CC[C@@H](C4)[C@@H]32)cc1
REMARK SMILES IDX 17 1 16 2 15 3 13 4 14 5 12 7 9 8 10 9 93 10 11 11 87 13
REMARK SMILES IDX 91 14 86 15 88 16 90 17 92 18 83 19 85 20 89 21 84 22 8 23
REMARK SMILES IDX 5 24 6 25 95 26 7 27 94 28 3 29 4 30 2 31 1 32 18 33 19 34
REMARK SMILES IDX 20 35 21 36 22 38 23 39 24 40 82 41 25 42 81 43 26 44 27 45
REMARK SMILES IDX 28 46 75 47 29 48 80 49 74 50 76 51 30 52 79 53 73 54 72 55
REMARK SMILES IDX 31 57 61 58 42 59 60 60 43 61 46 62 59 63 77 64 44 65 45 66
REMARK SMILES IDX 58 68 78 69 47 70 32 71 33 72 41 73 34 74 40 75 35 76 36 77
REMARK SMILES IDX 37 78 38 79 39 80 62 81 63 82 71 83 64 84 70 85 65 86 66 87
REMARK SMILES IDX 67 88 68 89 69 90 48 91 49 92 57 93 50 94 56 95 51 96 52 97
REMARK SMILES IDX 53 98 54 99 55 100
REMARK H PARENT 15 6 10 12 20 37 76 56 46 67
REMARK Flexibility Score: inf
ROOT
ATOM      1  C   UNL A   1      45.084  25.170  30.255  1.00  0.00     0.023 C 
ENDROOT
BRANCH   1   2
ATOM      2  C   UNL A   1      46.315  25.042  31.149  1.00  0.00     0.116 C 
BRANCH   2   3
ATOM      3  N   UNL A   1      46.890  26.230  31.745  1.00  0.00    -0.352 N 
ATOM      4  C   UNL A   1      48.018  26.339  32.558  1.00  0.00     0.253 C 
ATOM      5  O   UNL A   1      48.406  27.471  32.853  1.00  0.00    -0.269 OA
ATOM      6  H   UNL A   1      46.422  27.074  31.551  1.00  0.00     0.163 HD
BRANCH   4   7
ATOM      7  C   UNL A   1      48.721  25.163  33.183  1.00  0.00     0.063 A 
ATOM      8  C   UNL A   1      46.410  23.311  35.079  1.00  0.00     0.113 C 
ATOM      9  N   UNL A   1      47.039  24.627  34.860  1.00  0.00    -0.377 N 
ATOM     10  C   UNL A   1      46.967  22.994  36.484  1.00  0.00     0.027 C 
ATOM     11  C   UNL A   1      48.320  24.500  34.345  1.00  0.00     0.051 A 
ATOM     12  H   UNL A   1      46.603  25.487  35.057  1.00  0.00     0.161 HD
ATOM     13  C   UNL A   1      48.583  23.128  36.388  1.00  0.00     0.030 C 
ATOM     14  C   UNL A   1      46.829  21.621  37.176  1.00  0.00    -0.005 C 
ATOM     15  C   UNL A   1      49.116  23.544  35.015  1.00  0.00    -0.020 A 
ATOM     16  C   UNL A   1      49.072  21.831  37.052  1.00  0.00    -0.003 C 
ATOM     17  C   UNL A   1      47.254  20.451  36.282  1.00  0.00     0.004 C 
ATOM     18  C   UNL A   1      48.021  21.668  38.158  1.00  0.00     0.008 C 
ATOM     19  C   UNL A   1      49.803  24.597  32.503  1.00  0.00     0.016 A 
ATOM     20  C   UNL A   1      50.246  23.072  34.363  1.00  0.00     0.006 A 
ATOM     21  C   UNL A   1      48.777  20.599  36.186  1.00  0.00     0.004 C 
ATOM     22  C   UNL A   1      50.539  23.544  33.075  1.00  0.00     0.001 A 
BRANCH   8  23
ATOM     23  C   UNL A   1      45.061  23.618  34.414  1.00  0.00    -0.025 A 
ATOM     24  C   UNL A   1      42.580  24.779  35.103  1.00  0.00     0.060 A 
ATOM     25  C   UNL A   1      43.635  25.592  34.697  1.00  0.00     0.016 A 
ATOM     26  C   UNL A   1      42.692  23.389  34.920  1.00  0.00     0.016 A 
ATOM     27  C   UNL A   1      44.841  25.020  34.295  1.00  0.00     0.007 A 
ATOM     28  C   UNL A   1      43.933  22.800  34.578  1.00  0.00     0.007 A 
BRANCH  24  29
ATOM     29  C   UNL A   1      41.494  25.451  35.885  1.00  0.00     0.337 C 
ATOM     30  O   UNL A   1      41.193  26.628  35.733  1.00  0.00    -0.246 OA
BRANCH  29  31
ATOM     31  O   UNL A   1      41.014  24.656  36.875  1.00  0.00    -0.465 OA
ATOM     32  C   UNL A   1      40.214  25.359  37.839  1.00  0.00     0.282 C 
ENDBRANCH  29  31
ENDBRANCH  24  29
ENDBRANCH   8  23
ENDBRANCH   4   7
ENDBRANCH   2   3
ENDBRANCH   1   2
BRANCH   1  33
ATOM     33  C   UNL A   1      44.926  24.175  29.108  1.00  0.00     0.023 C 
BRANCH  33  34
ATOM     34  C   UNL A   1      45.345  24.642  27.717  1.00  0.00     0.116 C 
BRANCH  34  35
ATOM     35  N   UNL A   1      44.361  24.510  26.659  1.00  0.00    -0.352 N 
ATOM     36  C   UNL A   1      43.231  25.262  26.416  1.00  0.00     0.251 C 
ATOM     37  H   UNL A   1      44.524  23.777  26.022  1.00  0.00     0.163 HD
ATOM     38  O   UNL A   1      42.555  25.032  25.416  1.00  0.00    -0.269 OA
BRANCH  36  39
ATOM     39  C   UNL A   1      42.779  26.296  27.381  1.00  0.00     0.039 A 
ATOM     40  C   UNL A   1      41.803  25.938  28.315  1.00  0.00     0.014 A 
ATOM     41  C   UNL A   1      43.301  27.593  27.393  1.00  0.00     0.014 A 
ATOM     42  C   UNL A   1      41.425  26.839  29.315  1.00  0.00     0.010 A 
ATOM     43  C   UNL A   1      42.974  28.468  28.435  1.00  0.00     0.010 A 
ATOM     44  C   UNL A   1      42.042  28.097  29.419  1.00  0.00    -0.014 A 
BRANCH  44  45
ATOM     45  C   UNL A   1      41.738  29.000  30.568  1.00  0.00     0.031 A 
ATOM     46  C   UNL A   1      42.590  28.988  31.811  1.00  0.00     0.074 A 
ATOM     47  C   UNL A   1      40.669  29.823  30.507  1.00  0.00     0.049 A 
ATOM     48  N   UNL A   1      42.475  29.714  32.896  1.00  0.00    -0.248 NA
ATOM     49  C   UNL A   1      43.706  28.031  31.847  1.00  0.00     0.031 C 
ATOM     50  C   UNL A   1      39.736  29.917  29.381  1.00  0.00     0.029 A 
ATOM     51  N   UNL A   1      40.187  30.741  31.410  1.00  0.00    -0.354 N 
ATOM     52  C   UNL A   1      43.495  29.298  33.744  1.00  0.00     0.074 A 
ATOM     53  C   UNL A   1      44.190  28.223  33.067  1.00  0.00     0.031 C 
ATOM     54  C   UNL A   1      38.819  30.862  29.645  1.00  0.00     0.029 A 
ATOM     55  C   UNL A   1      39.066  31.413  30.973  1.00  0.00     0.049 A 
ATOM     56  H   UNL A   1      40.603  30.904  32.286  1.00  0.00     0.167 HD
ATOM     57  C   UNL A   1      43.837  29.776  34.966  1.00  0.00     0.031 A 
ATOM     58  C   UNL A   1      38.316  32.361  31.570  1.00  0.00     0.031 A 
ATOM     59  C   UNL A   1      43.149  30.845  35.644  1.00  0.00     0.049 A 
ATOM     60  C   UNL A   1      38.698  32.853  32.941  1.00  0.00     0.074 A 
ATOM     61  C   UNL A   1      43.456  31.427  36.861  1.00  0.00     0.029 A 
ATOM     62  N   UNL A   1      42.012  31.484  35.173  1.00  0.00    -0.354 N 
ATOM     63  N   UNL A   1      39.712  32.497  33.692  1.00  0.00    -0.248 NA
ATOM     64  C   UNL A   1      37.839  33.885  33.541  1.00  0.00     0.031 C 
ATOM     65  C   UNL A   1      42.471  32.374  37.157  1.00  0.00     0.029 A 
ATOM     66  C   UNL A   1      41.588  32.433  36.091  1.00  0.00     0.049 A 
ATOM     67  H   UNL A   1      41.570  31.293  34.314  1.00  0.00     0.167 HD
ATOM     68  C   UNL A   1      39.630  33.281  34.837  1.00  0.00     0.074 A 
ATOM     69  C   UNL A   1      38.478  34.143  34.674  1.00  0.00     0.031 C 
ATOM     70  C   UNL A   1      40.439  33.288  35.925  1.00  0.00     0.031 A 
BRANCH  57  71
ATOM     71  C   UNL A   1      45.013  29.139  35.663  1.00  0.00    -0.014 A 
ATOM     72  C   UNL A   1      46.331  29.540  35.383  1.00  0.00     0.010 A 
ATOM     73  C   UNL A   1      44.793  28.163  36.653  1.00  0.00     0.010 A 
ATOM     74  C   UNL A   1      47.409  28.952  36.051  1.00  0.00     0.020 A 
ATOM     75  C   UNL A   1      45.866  27.594  37.345  1.00  0.00     0.020 A 
ATOM     76  C   UNL A   1      47.169  27.981  37.028  1.00  0.00     0.054 A 
BRANCH  76  77
ATOM     77  S   UNL A   1      48.586  27.256  37.897  1.00  0.00     0.124 S 
ATOM     78  O   UNL A   1      47.946  26.221  38.704  1.00  0.00    -0.237 OA
ATOM     79  O   UNL A   1      49.419  26.770  36.800  1.00  0.00    -0.237 OA
ATOM     80  O   UNL A   1      49.145  28.376  38.650  1.00  0.00    -0.744 OA
ENDBRANCH  76  77
ENDBRANCH  57  71
BRANCH  58  81
ATOM     81  C   UNL A   1      37.122  32.919  30.872  1.00  0.00    -0.014 A 
ATOM     82  C   UNL A   1      37.265  33.894  29.870  1.00  0.00     0.010 A 
ATOM     83  C   UNL A   1      35.830  32.477  31.213  1.00  0.00     0.010 A 
ATOM     84  C   UNL A   1      36.140  34.434  29.237  1.00  0.00     0.020 A 
ATOM     85  C   UNL A   1      34.705  32.991  30.561  1.00  0.00     0.020 A 
ATOM     86  C   UNL A   1      34.867  33.975  29.585  1.00  0.00     0.054 A 
BRANCH  86  87
ATOM     87  S   UNL A   1      33.425  34.656  28.720  1.00  0.00     0.124 S 
ATOM     88  O   UNL A   1      33.023  33.539  27.872  1.00  0.00    -0.237 OA
ATOM     89  O   UNL A   1      32.519  34.974  29.821  1.00  0.00    -0.237 OA
ATOM     90  O   UNL A   1      33.965  35.817  28.015  1.00  0.00    -0.744 OA
ENDBRANCH  86  87
ENDBRANCH  58  81
BRANCH  70  91
ATOM     91  C   UNL A   1      40.138  34.283  37.016  1.00  0.00    -0.014 A 
ATOM     92  C   UNL A   1      40.546  35.625  36.920  1.00  0.00     0.010 A 
ATOM     93  C   UNL A   1      39.384  33.878  38.134  1.00  0.00     0.010 A 
ATOM     94  C   UNL A   1      40.234  36.536  37.935  1.00  0.00     0.020 A 
ATOM     95  C   UNL A   1      39.044  34.791  39.136  1.00  0.00     0.020 A 
ATOM     96  C   UNL A   1      39.484  36.112  39.037  1.00  0.00     0.054 A 
BRANCH  96  97
ATOM     97  S   UNL A   1      39.055  37.322  40.318  1.00  0.00     0.124 S 
ATOM     98  O   UNL A   1      38.364  38.351  39.547  1.00  0.00    -0.237 OA
ATOM     99  O   UNL A   1      38.213  36.545  41.224  1.00  0.00    -0.237 OA
ATOM    100  O   UNL A   1      40.349  37.720  40.868  1.00  0.00    -0.744 OA
ENDBRANCH  96  97
ENDBRANCH  70  91
ENDBRANCH  44  45
ENDBRANCH  36  39
ENDBRANCH  34  35
ENDBRANCH  33  34
ENDBRANCH   1  33
TORSDOF 17
ENDMDL
MODEL 2
REMARK VINA RESULT:      -8.8      9.805     17.833
REMARK SMILES COC(=O)c1ccc([C@H]2Nc3c(C(=O)NCCCCNC(=O)c4ccc(-c5c6nc(c(-c7ccc(S(=O)(=O)[O-])cc7)c7ccc([nH]7)c(-c7ccc(S(=O)(=O)[O-])cc7)c7nc(c(-c8ccc(S(=O)(=O)[O-])cc8)c8ccc5[nH]8)C=C7)C=C6)cc4)cccc3[C@@H]3[C@@H]4CC[C@@H](C4)[C@@H]32)cc1
REMARK SMILES IDX 17 1 16 2 15 3 13 4 14 5 12 7 9 8 10 9 93 10 11 11 87 13
REMARK SMILES IDX 91 14 86 15 88 16 90 17 92 18 83 19 85 20 89 21 84 22 8 23
REMARK SMILES IDX 5 24 6 25 95 26 7 27 94 28 3 29 4 30 2 31 1 32 18 33 19 34
REMARK SMILES IDX 20 35 21 36 22 38 23 39 24 40 82 41 25 42 81 43 26 44 27 45
REMARK SMILES IDX 28 46 75 47 29 48 80 49 74 50 76 51 30 52 79 53 73 54 72 55
REMARK SMILES IDX 31 57 61 58 42 59 60 60 43 61 46 62 59 63 77 64 44 65 45 66
REMARK SMILES IDX 58 68 78 69 47 70 32 71 33 72 41 73 34 74 40 75 35 76 36 77
REMARK SMILES IDX 37 78 38 79 39 80 62 81 63 82 71 83 64 84 70 85 65 86 66 87
REMARK SMILES IDX 67 88 68 89 69 90 48 91 49 92 57 93 50 94 56 95 51 96 52 97
REMARK SMILES IDX 53 98 54 99 55 100
REMARK H PARENT 15 6 10 12 20 37 76 56 46 67
REMARK Flexibility Score: inf
ROOT
ATOM      1  C   UNL A   1      46.083  39.541  25.783  1.00  0.00     0.023 C 
ENDROOT
BRANCH   1   2
ATOM      2  C   UNL A   1      44.884  40.111  26.539  1.00  0.00     0.116 C 
BRANCH   2   3
ATOM      3  N   UNL A   1      43.734  40.586  25.797  1.00  0.00    -0.352 N 
ATOM      4  C   UNL A   1      43.623  41.720  24.993  1.00  0.00     0.253 C 
ATOM      5  O   UNL A   1      42.582  41.867  24.349  1.00  0.00    -0.269 OA
ATOM      6  H   UNL A   1      42.922  40.034  25.870  1.00  0.00     0.163 HD
BRANCH   4   7
ATOM      7  C   UNL A   1      44.646  42.824  24.951  1.00  0.00     0.063 A 
ATOM      8  C   UNL A   1      45.668  43.326  21.625  1.00  0.00     0.113 C 
ATOM      9  N   UNL A   1      45.539  42.363  22.733  1.00  0.00    -0.377 N 
ATOM     10  C   UNL A   1      47.208  43.383  21.516  1.00  0.00     0.027 C 
ATOM     11  C   UNL A   1      45.622  42.991  23.967  1.00  0.00     0.051 A 
ATOM     12  H   UNL A   1      45.410  41.394  22.613  1.00  0.00     0.161 HD
ATOM     13  C   UNL A   1      47.768  43.752  22.996  1.00  0.00     0.030 C 
ATOM     14  C   UNL A   1      47.973  44.408  20.652  1.00  0.00    -0.005 C 
ATOM     15  C   UNL A   1      46.692  43.908  24.073  1.00  0.00    -0.020 A 
ATOM     16  C   UNL A   1      48.755  44.894  22.711  1.00  0.00    -0.003 C 
ATOM     17  C   UNL A   1      47.514  45.852  20.882  1.00  0.00     0.004 C 
ATOM     18  C   UNL A   1      49.341  44.432  21.370  1.00  0.00     0.008 C 
ATOM     19  C   UNL A   1      44.562  43.844  25.904  1.00  0.00     0.016 A 
ATOM     20  C   UNL A   1      46.640  44.848  25.093  1.00  0.00     0.006 A 
ATOM     21  C   UNL A   1      48.034  46.181  22.286  1.00  0.00     0.004 C 
ATOM     22  C   UNL A   1      45.533  44.860  25.955  1.00  0.00     0.001 A 
BRANCH   8  23
ATOM     23  C   UNL A   1      44.469  42.844  20.796  1.00  0.00    -0.025 A 
ATOM     24  C   UNL A   1      42.302  43.959  19.367  1.00  0.00     0.060 A 
ATOM     25  C   UNL A   1      43.542  43.820  18.746  1.00  0.00     0.016 A 
ATOM     26  C   UNL A   1      42.090  43.314  20.599  1.00  0.00     0.016 A 
ATOM     27  C   UNL A   1      44.597  43.213  19.426  1.00  0.00     0.007 A 
ATOM     28  C   UNL A   1      43.172  42.756  21.321  1.00  0.00     0.007 A 
BRANCH  24  29
ATOM     29  C   UNL A   1      41.367  44.954  18.752  1.00  0.00     0.337 C 
ATOM     30  O   UNL A   1      40.164  44.758  18.640  1.00  0.00    -0.246 OA
BRANCH  29  31
ATOM     31  O   UNL A   1      42.031  46.001  18.199  1.00  0.00    -0.465 OA
ATOM     32  C   UNL A   1      41.915  46.063  16.769  1.00  0.00     0.282 C 
ENDBRANCH  29  31
ENDBRANCH  24  29
ENDBRANCH   8  23
ENDBRANCH   4   7
ENDBRANCH   2   3
ENDBRANCH   1   2
BRANCH   1  33
ATOM     33  C   UNL A   1      47.357  39.258  26.575  1.00  0.00     0.023 C 
BRANCH  33  34
ATOM     34  C   UNL A   1      47.396  37.971  27.394  1.00  0.00     0.116 C 
BRANCH  34  35
ATOM     35  N   UNL A   1      48.537  37.789  28.272  1.00  0.00    -0.352 N 
ATOM     36  C   UNL A   1      49.003  36.639  28.875  1.00  0.00     0.251 C 
ATOM     37  H   UNL A   1      49.054  38.604  28.465  1.00  0.00     0.163 HD
ATOM     38  O   UNL A   1      50.038  36.680  29.536  1.00  0.00    -0.269 OA
BRANCH  36  39
ATOM     39  C   UNL A   1      48.234  35.371  28.799  1.00  0.00     0.039 A 
ATOM     40  C   UNL A   1      47.806  34.940  27.541  1.00  0.00     0.014 A 
ATOM     41  C   UNL A   1      47.940  34.600  29.928  1.00  0.00     0.014 A 
ATOM     42  C   UNL A   1      47.177  33.698  27.401  1.00  0.00     0.010 A 
ATOM     43  C   UNL A   1      47.375  33.328  29.778  1.00  0.00     0.010 A 
ATOM     44  C   UNL A   1      47.000  32.854  28.510  1.00  0.00    -0.014 A 
BRANCH  44  45
ATOM     45  C   UNL A   1      46.456  31.475  28.335  1.00  0.00     0.031 A 
ATOM     46  C   UNL A   1      45.011  31.168  28.629  1.00  0.00     0.074 A 
ATOM     47  C   UNL A   1      47.274  30.480  27.930  1.00  0.00     0.049 A 
ATOM     48  N   UNL A   1      44.371  30.030  28.521  1.00  0.00    -0.248 NA
ATOM     49  C   UNL A   1      44.179  32.276  29.123  1.00  0.00     0.031 C 
ATOM     50  C   UNL A   1      48.703  30.624  27.640  1.00  0.00     0.029 A 
ATOM     51  N   UNL A   1      47.023  29.150  27.689  1.00  0.00    -0.354 N 
ATOM     52  C   UNL A   1      43.068  30.282  28.936  1.00  0.00     0.074 A 
ATOM     53  C   UNL A   1      43.021  31.670  29.346  1.00  0.00     0.031 C 
ATOM     54  C   UNL A   1      49.192  29.443  27.229  1.00  0.00     0.029 A 
ATOM     55  C   UNL A   1      48.128  28.444  27.265  1.00  0.00     0.049 A 
ATOM     56  H   UNL A   1      46.137  28.740  27.807  1.00  0.00     0.167 HD
ATOM     57  C   UNL A   1      42.003  29.444  28.960  1.00  0.00     0.031 A 
ATOM     58  C   UNL A   1      48.275  27.143  26.945  1.00  0.00     0.031 A 
ATOM     59  C   UNL A   1      42.045  28.062  28.554  1.00  0.00     0.049 A 
ATOM     60  C   UNL A   1      47.084  26.225  27.010  1.00  0.00     0.074 A 
ATOM     61  C   UNL A   1      41.003  27.152  28.498  1.00  0.00     0.029 A 
ATOM     62  N   UNL A   1      43.186  27.386  28.149  1.00  0.00    -0.354 N 
ATOM     63  N   UNL A   1      45.845  26.504  27.334  1.00  0.00    -0.248 NA
ATOM     64  C   UNL A   1      47.309  24.817  26.653  1.00  0.00     0.031 C 
ATOM     65  C   UNL A   1      41.524  25.911  28.119  1.00  0.00     0.029 A 
ATOM     66  C   UNL A   1      42.878  26.063  27.870  1.00  0.00     0.049 A 
ATOM     67  H   UNL A   1      44.082  27.786  28.069  1.00  0.00     0.167 HD
ATOM     68  C   UNL A   1      45.138  25.315  27.192  1.00  0.00     0.074 A 
ATOM     69  C   UNL A   1      46.083  24.317  26.735  1.00  0.00     0.031 C 
ATOM     70  C   UNL A   1      43.823  25.073  27.416  1.00  0.00     0.031 A 
BRANCH  57  71
ATOM     71  C   UNL A   1      40.689  29.996  29.451  1.00  0.00    -0.014 A 
ATOM     72  C   UNL A   1      39.569  30.075  28.604  1.00  0.00     0.010 A 
ATOM     73  C   UNL A   1      40.555  30.389  30.796  1.00  0.00     0.010 A 
ATOM     74  C   UNL A   1      38.353  30.573  29.080  1.00  0.00     0.020 A 
ATOM     75  C   UNL A   1      39.331  30.858  31.284  1.00  0.00     0.020 A 
ATOM     76  C   UNL A   1      38.242  30.962  30.418  1.00  0.00     0.054 A 
BRANCH  76  77
ATOM     77  S   UNL A   1      36.643  31.578  31.013  1.00  0.00     0.124 S 
ATOM     78  O   UNL A   1      36.077  30.386  31.640  1.00  0.00    -0.237 OA
ATOM     79  O   UNL A   1      37.033  32.644  31.933  1.00  0.00    -0.237 OA
ATOM     80  O   UNL A   1      35.967  32.024  29.798  1.00  0.00    -0.744 OA
ENDBRANCH  76  77
ENDBRANCH  57  71
BRANCH  58  81
ATOM     81  C   UNL A   1      49.609  26.623  26.526  1.00  0.00    -0.014 A 
ATOM     82  C   UNL A   1      49.958  26.551  25.166  1.00  0.00     0.010 A 
ATOM     83  C   UNL A   1      50.537  26.191  27.492  1.00  0.00     0.010 A 
ATOM     84  C   UNL A   1      51.200  26.037  24.778  1.00  0.00     0.020 A 
ATOM     85  C   UNL A   1      51.792  25.707  27.109  1.00  0.00     0.020 A 
ATOM     86  C   UNL A   1      52.110  25.621  25.753  1.00  0.00     0.054 A 
BRANCH  86  87
ATOM     87  S   UNL A   1      53.732  25.000  25.228  1.00  0.00     0.124 S 
ATOM     88  O   UNL A   1      53.463  23.580  25.022  1.00  0.00    -0.237 OA
ATOM     89  O   UNL A   1      53.990  25.778  24.019  1.00  0.00    -0.237 OA
ATOM     90  O   UNL A   1      54.602  25.315  26.359  1.00  0.00    -0.744 OA
ENDBRANCH  86  87
ENDBRANCH  58  81
BRANCH  70  91
ATOM     91  C   UNL A   1      43.309  23.684  27.137  1.00  0.00    -0.014 A 
ATOM     92  C   UNL A   1      43.211  23.186  25.826  1.00  0.00     0.010 A 
ATOM     93  C   UNL A   1      42.968  22.842  28.213  1.00  0.00     0.010 A 
ATOM     94  C   UNL A   1      42.752  21.885  25.593  1.00  0.00     0.020 A 
ATOM     95  C   UNL A   1      42.539  21.532  27.987  1.00  0.00     0.020 A 
ATOM     96  C   UNL A   1      42.419  21.066  26.677  1.00  0.00     0.054 A 
BRANCH  96  97
ATOM     97  S   UNL A   1      41.869  19.369  26.351  1.00  0.00     0.124 S 
ATOM     98  O   UNL A   1      40.418  19.524  26.297  1.00  0.00    -0.237 OA
ATOM     99  O   UNL A   1      42.515  19.061  25.077  1.00  0.00    -0.237 OA
ATOM    100  O   UNL A   1      42.372  18.613  27.496  1.00  0.00    -0.744 OA
ENDBRANCH  96  97
ENDBRANCH  70  91
ENDBRANCH  44  45
ENDBRANCH  36  39
ENDBRANCH  34  35
ENDBRANCH  33  34
ENDBRANCH   1  33
TORSDOF 17
ENDMDL
MODEL 3
REMARK VINA RESULT:      -8.8      7.016     13.776
REMARK SMILES COC(=O)c1ccc([C@H]2Nc3c(C(=O)NCCCCNC(=O)c4ccc(-c5c6nc(c(-c7ccc(S(=O)(=O)[O-])cc7)c7ccc([nH]7)c(-c7ccc(S(=O)(=O)[O-])cc7)c7nc(c(-c8ccc(S(=O)(=O)[O-])cc8)c8ccc5[nH]8)C=C7)C=C6)cc4)cccc3[C@@H]3[C@@H]4CC[C@@H](C4)[C@@H]32)cc1
REMARK SMILES IDX 17 1 16 2 15 3 13 4 14 5 12 7 9 8 10 9 93 10 11 11 87 13
REMARK SMILES IDX 91 14 86 15 88 16 90 17 92 18 83 19 85 20 89 21 84 22 8 23
REMARK SMILES IDX 5 24 6 25 95 26 7 27 94 28 3 29 4 30 2 31 1 32 18 33 19 34
REMARK SMILES IDX 20 35 21 36 22 38 23 39 24 40 82 41 25 42 81 43 26 44 27 45
REMARK SMILES IDX 28 46 75 47 29 48 80 49 74 50 76 51 30 52 79 53 73 54 72 55
REMARK SMILES IDX 31 57 61 58 42 59 60 60 43 61 46 62 59 63 77 64 44 65 45 66
REMARK SMILES IDX 58 68 78 69 47 70 32 71 33 72 41 73 34 74 40 75 35 76 36 77
REMARK SMILES IDX 37 78 38 79 39 80 62 81 63 82 71 83 64 84 70 85 65 86 66 87
REMARK SMILES IDX 67 88 68 89 69 90 48 91 49 92 57 93 50 94 56 95 51 96 52 97
REMARK SMILES IDX 53 98 54 99 55 100
REMARK H PARENT 15 6 10 12 20 37 76 56 46 67
REMARK Flexibility Score: inf
ROOT
ATOM      1  C   UNL A   1      39.251  34.575  31.339  1.00  0.00     0.023 C 
ENDROOT
BRANCH   1   2
ATOM      2  C   UNL A   1      39.118  33.791  32.643  1.00  0.00     0.116 C 
BRANCH   2   3
ATOM      3  N   UNL A   1      38.031  32.847  32.800  1.00  0.00    -0.352 N 
ATOM      4  C   UNL A   1      38.067  31.454  32.725  1.00  0.00     0.253 C 
ATOM      5  O   UNL A   1      37.041  30.837  33.018  1.00  0.00    -0.269 OA
ATOM      6  H   UNL A   1      37.147  33.240  32.984  1.00  0.00     0.163 HD
BRANCH   4   7
ATOM      7  C   UNL A   1      39.243  30.671  32.205  1.00  0.00     0.063 A 
ATOM      8  C   UNL A   1      38.572  29.628  28.915  1.00  0.00     0.113 C 
ATOM      9  N   UNL A   1      38.125  29.610  30.320  1.00  0.00    -0.377 N 
ATOM     10  C   UNL A   1      38.887  28.127  28.729  1.00  0.00     0.027 C 
ATOM     11  C   UNL A   1      39.196  29.706  31.196  1.00  0.00     0.051 A 
ATOM     12  H   UNL A   1      37.184  29.538  30.600  1.00  0.00     0.161 HD
ATOM     13  C   UNL A   1      39.918  27.716  29.915  1.00  0.00     0.030 C 
ATOM     14  C   UNL A   1      39.613  27.545  27.498  1.00  0.00    -0.005 C 
ATOM     15  C   UNL A   1      40.272  28.846  30.884  1.00  0.00    -0.020 A 
ATOM     16  C   UNL A   1      41.025  26.964  29.159  1.00  0.00    -0.003 C 
ATOM     17  C   UNL A   1      40.906  28.292  27.152  1.00  0.00     0.004 C 
ATOM     18  C   UNL A   1      40.193  26.241  28.090  1.00  0.00     0.008 C 
ATOM     19  C   UNL A   1      40.519  30.996  32.675  1.00  0.00     0.016 A 
ATOM     20  C   UNL A   1      41.509  29.127  31.447  1.00  0.00     0.006 A 
ATOM     21  C   UNL A   1      41.864  27.908  28.287  1.00  0.00     0.004 C 
ATOM     22  C   UNL A   1      41.643  30.250  32.278  1.00  0.00     0.001 A 
BRANCH   8  23
ATOM     23  C   UNL A   1      37.571  30.670  28.396  1.00  0.00    -0.025 A 
ATOM     24  C   UNL A   1      35.475  32.272  29.405  1.00  0.00     0.060 A 
ATOM     25  C   UNL A   1      36.792  32.716  29.501  1.00  0.00     0.016 A 
ATOM     26  C   UNL A   1      35.196  31.162  28.588  1.00  0.00     0.016 A 
ATOM     27  C   UNL A   1      37.824  31.959  28.948  1.00  0.00     0.007 A 
ATOM     28  C   UNL A   1      36.242  30.353  28.082  1.00  0.00     0.007 A 
BRANCH  24  29
ATOM     29  C   UNL A   1      34.497  32.906  30.346  1.00  0.00     0.337 C 
ATOM     30  O   UNL A   1      33.953  33.979  30.120  1.00  0.00    -0.246 OA
BRANCH  29  31
ATOM     31  O   UNL A   1      34.422  32.239  31.526  1.00  0.00    -0.465 OA
ATOM     32  C   UNL A   1      34.419  33.102  32.674  1.00  0.00     0.282 C 
ENDBRANCH  29  31
ENDBRANCH  24  29
ENDBRANCH   8  23
ENDBRANCH   4   7
ENDBRANCH   2   3
ENDBRANCH   1   2
BRANCH   1  33
ATOM     33  C   UNL A   1      40.570  34.474  30.577  1.00  0.00     0.023 C 
BRANCH  33  34
ATOM     34  C   UNL A   1      40.500  34.539  29.054  1.00  0.00     0.116 C 
BRANCH  34  35
ATOM     35  N   UNL A   1      40.630  35.851  28.448  1.00  0.00    -0.352 N 
ATOM     36  C   UNL A   1      41.617  36.337  27.615  1.00  0.00     0.251 C 
ATOM     37  H   UNL A   1      39.909  36.487  28.663  1.00  0.00     0.163 HD
ATOM     38  O   UNL A   1      41.509  37.468  27.147  1.00  0.00    -0.269 OA
BRANCH  36  39
ATOM     39  C   UNL A   1      42.839  35.543  27.335  1.00  0.00     0.039 A 
ATOM     40  C   UNL A   1      43.726  35.312  28.391  1.00  0.00     0.014 A 
ATOM     41  C   UNL A   1      43.121  35.017  26.072  1.00  0.00     0.014 A 
ATOM     42  C   UNL A   1      44.833  34.478  28.207  1.00  0.00     0.010 A 
ATOM     43  C   UNL A   1      44.189  34.126  25.907  1.00  0.00     0.010 A 
ATOM     44  C   UNL A   1      45.051  33.834  26.978  1.00  0.00    -0.014 A 
BRANCH  44  45
ATOM     45  C   UNL A   1      46.152  32.837  26.827  1.00  0.00     0.031 A 
ATOM     46  C   UNL A   1      47.573  33.281  26.594  1.00  0.00     0.074 A 
ATOM     47  C   UNL A   1      45.871  31.517  26.876  1.00  0.00     0.049 A 
ATOM     48  N   UNL A   1      48.651  32.551  26.453  1.00  0.00    -0.248 NA
ATOM     49  C   UNL A   1      47.813  34.728  26.491  1.00  0.00     0.031 C 
ATOM     50  C   UNL A   1      44.536  30.943  27.063  1.00  0.00     0.029 A 
ATOM     51  N   UNL A   1      46.690  30.418  26.777  1.00  0.00    -0.354 N 
ATOM     52  C   UNL A   1      49.694  33.445  26.240  1.00  0.00     0.074 A 
ATOM     53  C   UNL A   1      49.110  34.770  26.221  1.00  0.00     0.031 C 
ATOM     54  C   UNL A   1      44.633  29.603  27.099  1.00  0.00     0.029 A 
ATOM     55  C   UNL A   1      46.026  29.217  26.895  1.00  0.00     0.049 A 
ATOM     56  H   UNL A   1      47.661  30.482  26.635  1.00  0.00     0.167 HD
ATOM     57  C   UNL A   1      51.018  33.194  26.091  1.00  0.00     0.031 A 
ATOM     58  C   UNL A   1      46.478  27.948  26.842  1.00  0.00     0.031 A 
ATOM     59  C   UNL A   1      51.603  31.877  26.108  1.00  0.00     0.049 A 
ATOM     60  C   UNL A   1      47.948  27.694  26.643  1.00  0.00     0.074 A 
ATOM     61  C   UNL A   1      52.940  31.531  26.014  1.00  0.00     0.029 A 
ATOM     62  N   UNL A   1      50.892  30.692  26.214  1.00  0.00    -0.354 N 
ATOM     63  N   UNL A   1      48.925  28.559  26.519  1.00  0.00    -0.248 NA
ATOM     64  C   UNL A   1      48.379  26.289  26.590  1.00  0.00     0.031 C 
ATOM     65  C   UNL A   1      53.034  30.136  26.000  1.00  0.00     0.029 A 
ATOM     66  C   UNL A   1      51.761  29.613  26.157  1.00  0.00     0.049 A 
ATOM     67  H   UNL A   1      49.915  30.625  26.315  1.00  0.00     0.167 HD
ATOM     68  C   UNL A   1      50.088  27.805  26.403  1.00  0.00     0.074 A 
ATOM     69  C   UNL A   1      49.696  26.414  26.490  1.00  0.00     0.031 C 
ATOM     70  C   UNL A   1      51.366  28.228  26.242  1.00  0.00     0.031 A 
BRANCH  57  71
ATOM     71  C   UNL A   1      51.936  34.372  25.885  1.00  0.00    -0.014 A 
ATOM     72  C   UNL A   1      52.190  34.883  24.599  1.00  0.00     0.010 A 
ATOM     73  C   UNL A   1      52.509  35.015  26.999  1.00  0.00     0.010 A 
ATOM     74  C   UNL A   1      53.029  35.987  24.427  1.00  0.00     0.020 A 
ATOM     75  C   UNL A   1      53.324  36.139  26.833  1.00  0.00     0.020 A 
ATOM     76  C   UNL A   1      53.592  36.608  25.547  1.00  0.00     0.054 A 
BRANCH  76  77
ATOM     77  S   UNL A   1      54.654  38.056  25.293  1.00  0.00     0.124 S 
ATOM     78  O   UNL A   1      55.492  37.622  24.177  1.00  0.00    -0.237 OA
ATOM     79  O   UNL A   1      53.692  39.109  24.982  1.00  0.00    -0.237 OA
ATOM     80  O   UNL A   1      55.348  38.207  26.570  1.00  0.00    -0.744 OA
ENDBRANCH  76  77
ENDBRANCH  57  71
BRANCH  58  81
ATOM     81  C   UNL A   1      45.525  26.809  26.984  1.00  0.00    -0.014 A 
ATOM     82  C   UNL A   1      44.808  26.329  25.874  1.00  0.00     0.010 A 
ATOM     83  C   UNL A   1      45.329  26.200  28.237  1.00  0.00     0.010 A 
ATOM     84  C   UNL A   1      43.896  25.278  26.018  1.00  0.00     0.020 A 
ATOM     85  C   UNL A   1      44.443  25.128  28.379  1.00  0.00     0.020 A 
ATOM     86  C   UNL A   1      43.722  24.682  27.270  1.00  0.00     0.054 A 
BRANCH  86  87
ATOM     87  S   UNL A   1      42.568  23.290  27.423  1.00  0.00     0.124 S 
ATOM     88  O   UNL A   1      41.613  23.568  26.356  1.00  0.00    -0.237 OA
ATOM     89  O   UNL A   1      43.438  22.136  27.212  1.00  0.00    -0.237 OA
ATOM     90  O   UNL A   1      42.048  23.425  28.782  1.00  0.00    -0.744 OA
ENDBRANCH  86  87
ENDBRANCH  58  81
BRANCH  70  91
ATOM     91  C   UNL A   1      52.449  27.181  26.187  1.00  0.00    -0.014 A 
ATOM     92  C   UNL A   1      52.834  26.585  24.973  1.00  0.00     0.010 A 
ATOM     93  C   UNL A   1      53.132  26.828  27.367  1.00  0.00     0.010 A 
ATOM     94  C   UNL A   1      53.857  25.633  24.944  1.00  0.00     0.020 A 
ATOM     95  C   UNL A   1      54.176  25.900  27.338  1.00  0.00     0.020 A 
ATOM     96  C   UNL A   1      54.523  25.297  26.128  1.00  0.00     0.054 A 
BRANCH  96  97
ATOM     97  S   UNL A   1      55.876  24.092  26.056  1.00  0.00     0.124 S 
ATOM     98  O   UNL A   1      56.596  24.368  27.297  1.00  0.00    -0.237 OA
ATOM     99  O   UNL A   1      55.167  22.815  26.014  1.00  0.00    -0.237 OA
ATOM    100  O   UNL A   1      56.590  24.442  24.831  1.00  0.00    -0.744 OA
ENDBRANCH  96  97
ENDBRANCH  70  91
ENDBRANCH  44  45
ENDBRANCH  36  39
ENDBRANCH  34  35
ENDBRANCH  33  34
ENDBRANCH   1  33
TORSDOF 17
ENDMDL
