MODEL 1
REMARK VINA RESULT:     -12.1      0.000      0.000
REMARK SMILES C[C@@H](C(=O)NCCCCNC(=O)c1ccc(-c2c3nc(c(-c4ccc(S(=O)(=O)[O-])cc4)c4ccc([nH]4)c(-c4ccc(S(=O)(=O)[O-])cc4)c4nc(c(-c5ccc(S(=O)(=O)[O-])cc5)c5ccc2[nH]5)C=C4)C=C3)cc1)[N@@H+]1CCc2n[nH]c(C(c3ccccc3)c3ccccc3)c2C1
REMARK SMILES IDX 7 1 6 2 5 3 3 4 4 5 2 7 1 8 73 9 74 10 94 11 75 13 93 14
REMARK SMILES IDX 76 15 79 16 77 17 78 18 80 20 81 21 82 22 86 23 83 24 85 25
REMARK SMILES IDX 84 26 87 27 88 28 92 29 89 30 91 31 90 32 8 33 9 34 10 35
REMARK SMILES IDX 11 36 12 38 13 39 14 40 72 41 15 42 71 43 16 44 17 45 18 46
REMARK SMILES IDX 65 47 19 48 70 49 64 50 66 51 20 52 69 53 63 54 62 55 21 57
REMARK SMILES IDX 51 58 32 59 50 60 33 61 36 62 49 63 67 64 34 65 35 66 48 68
REMARK SMILES IDX 68 69 37 70 22 71 23 72 31 73 24 74 30 75 25 76 26 77 27 78
REMARK SMILES IDX 28 79 29 80 52 81 53 82 61 83 54 84 60 85 55 86 56 87 57 88
REMARK SMILES IDX 58 89 59 90 38 91 39 92 47 93 40 94 46 95 41 96 42 97 43 98
REMARK SMILES IDX 44 99 45 100
REMARK H PARENT 5 6 73 12 78 19 10 37 66 56 36 67
REMARK Flexibility Score: inf
ROOT
ATOM      1  C   UNL A   1      36.726  23.751  25.784  1.00  0.00     0.023 C 
ENDROOT
BRANCH   1   2
ATOM      2  C   UNL A   1      35.692  22.671  26.063  1.00  0.00     0.116 C 
BRANCH   2   3
ATOM      3  N   UNL A   1      34.590  23.146  26.878  1.00  0.00    -0.351 N 
ATOM      4  C   UNL A   1      33.262  22.853  26.622  1.00  0.00     0.278 C 
ATOM      5  O   UNL A   1      32.758  21.893  27.210  1.00  0.00    -0.268 OA
ATOM      6  H   UNL A   1      34.800  23.710  27.658  1.00  0.00     0.163 HD
BRANCH   4   7
ATOM      7  C   UNL A   1      32.381  23.903  25.846  1.00  0.00     0.271 C 
ATOM      8  C   UNL A   1      31.021  24.148  26.492  1.00  0.00     0.086 C 
BRANCH   7   9
ATOM      9  N   UNL A   1      32.390  23.603  24.379  1.00  0.00    -0.321 N 
ATOM     10  C   UNL A   1      33.707  23.736  23.660  1.00  0.00     0.269 C 
ATOM     11  C   UNL A   1      31.310  24.277  23.658  1.00  0.00     0.303 C 
ATOM     12  H   UNL A   1      32.215  22.599  24.364  1.00  0.00     0.349 HD
ATOM     13  C   UNL A   1      33.645  24.253  22.165  1.00  0.00     0.120 C 
ATOM     14  C   UNL A   1      31.813  25.607  23.195  1.00  0.00     0.052 A 
ATOM     15  C   UNL A   1      32.703  25.405  22.113  1.00  0.00     0.077 A 
ATOM     16  C   UNL A   1      31.243  26.819  22.848  1.00  0.00     0.056 A 
ATOM     17  N   UNL A   1      32.140  25.893  20.999  1.00  0.00    -0.180 NA
ATOM     18  N   UNL A   1      31.073  26.566  21.497  1.00  0.00    -0.281 N 
ATOM     19  H   UNL A   1      30.286  26.838  20.971  1.00  0.00     0.190 HD
BRANCH  16  20
ATOM     20  C   UNL A   1      31.273  28.256  23.404  1.00  0.00     0.098 C 
BRANCH  20  21
ATOM     21  C   UNL A   1      29.976  29.105  23.314  1.00  0.00    -0.035 A 
ATOM     22  C   UNL A   1      29.992  30.431  23.808  1.00  0.00     0.005 A 
ATOM     23  C   UNL A   1      28.730  28.594  22.917  1.00  0.00     0.005 A 
ATOM     24  C   UNL A   1      28.851  31.240  23.807  1.00  0.00     0.000 A 
ATOM     25  C   UNL A   1      27.576  29.398  22.937  1.00  0.00     0.000 A 
ATOM     26  C   UNL A   1      27.641  30.724  23.365  1.00  0.00     0.000 A 
ENDBRANCH  20  21
BRANCH  20  27
ATOM     27  C   UNL A   1      31.932  28.363  24.791  1.00  0.00    -0.035 A 
ATOM     28  C   UNL A   1      31.355  27.828  25.954  1.00  0.00     0.005 A 
ATOM     29  C   UNL A   1      33.158  29.044  24.919  1.00  0.00     0.005 A 
ATOM     30  C   UNL A   1      31.986  27.953  27.191  1.00  0.00     0.000 A 
ATOM     31  C   UNL A   1      33.821  29.108  26.141  1.00  0.00     0.000 A 
ATOM     32  C   UNL A   1      33.229  28.572  27.280  1.00  0.00     0.000 A 
ENDBRANCH  20  27
ENDBRANCH  16  20
ENDBRANCH   7   9
ENDBRANCH   4   7
ENDBRANCH   2   3
ENDBRANCH   1   2
BRANCH   1  33
ATOM     33  C   UNL A   1      38.169  23.473  26.210  1.00  0.00     0.023 C 
BRANCH  33  34
ATOM     34  C   UNL A   1      38.921  24.620  26.854  1.00  0.00     0.116 C 
BRANCH  34  35
ATOM     35  N   UNL A   1      40.019  25.099  26.027  1.00  0.00    -0.352 N 
ATOM     36  C   UNL A   1      40.793  26.235  26.140  1.00  0.00     0.251 C 
ATOM     37  H   UNL A   1      40.244  24.519  25.263  1.00  0.00     0.163 HD
ATOM     38  O   UNL A   1      41.547  26.544  25.230  1.00  0.00    -0.269 OA
BRANCH  36  39
ATOM     39  C   UNL A   1      40.694  27.086  27.349  1.00  0.00     0.039 A 
ATOM     40  C   UNL A   1      40.060  26.587  28.492  1.00  0.00     0.014 A 
ATOM     41  C   UNL A   1      41.222  28.378  27.358  1.00  0.00     0.014 A 
ATOM     42  C   UNL A   1      40.022  27.357  29.659  1.00  0.00     0.010 A 
ATOM     43  C   UNL A   1      41.286  29.092  28.546  1.00  0.00     0.010 A 
ATOM     44  C   UNL A   1      40.669  28.600  29.706  1.00  0.00    -0.014 A 
BRANCH  44  45
ATOM     45  C   UNL A   1      40.697  29.441  30.930  1.00  0.00     0.031 A 
ATOM     46  C   UNL A   1      41.743  29.178  31.983  1.00  0.00     0.074 A 
ATOM     47  C   UNL A   1      39.724  30.346  31.151  1.00  0.00     0.049 A 
ATOM     48  N   UNL A   1      41.845  29.673  33.188  1.00  0.00    -0.248 NA
ATOM     49  C   UNL A   1      42.784  28.192  31.649  1.00  0.00     0.031 C 
ATOM     50  C   UNL A   1      38.627  30.656  30.230  1.00  0.00     0.029 A 
ATOM     51  N   UNL A   1      39.483  31.153  32.235  1.00  0.00    -0.354 N 
ATOM     52  C   UNL A   1      42.931  29.027  33.768  1.00  0.00     0.074 A 
ATOM     53  C   UNL A   1      43.418  28.066  32.804  1.00  0.00     0.031 C 
ATOM     54  C   UNL A   1      37.841  31.592  30.783  1.00  0.00     0.029 A 
ATOM     55  C   UNL A   1      38.342  31.910  32.116  1.00  0.00     0.049 A 
ATOM     56  H   UNL A   1      40.072  31.186  33.024  1.00  0.00     0.167 HD
ATOM     57  C   UNL A   1      43.485  29.226  34.988  1.00  0.00     0.031 A 
ATOM     58  C   UNL A   1      37.749  32.749  32.990  1.00  0.00     0.031 A 
ATOM     59  C   UNL A   1      43.005  30.201  35.929  1.00  0.00     0.049 A 
ATOM     60  C   UNL A   1      38.384  32.971  34.335  1.00  0.00     0.074 A 
ATOM     61  C   UNL A   1      43.539  30.544  37.157  1.00  0.00     0.029 A 
ATOM     62  N   UNL A   1      41.875  30.985  35.747  1.00  0.00    -0.354 N 
ATOM     63  N   UNL A   1      39.459  32.409  34.837  1.00  0.00    -0.248 NA
ATOM     64  C   UNL A   1      37.740  33.945  35.225  1.00  0.00     0.031 C 
ATOM     65  C   UNL A   1      42.694  31.489  37.748  1.00  0.00     0.029 A 
ATOM     66  C   UNL A   1      41.675  31.789  36.855  1.00  0.00     0.049 A 
ATOM     67  H   UNL A   1      41.300  30.971  34.948  1.00  0.00     0.167 HD
ATOM     68  C   UNL A   1      39.635  32.981  36.092  1.00  0.00     0.074 A 
ATOM     69  C   UNL A   1      38.560  33.937  36.269  1.00  0.00     0.031 C 
ATOM     70  C   UNL A   1      40.603  32.740  37.012  1.00  0.00     0.031 A 
BRANCH  57  71
ATOM     71  C   UNL A   1      44.653  28.354  35.374  1.00  0.00    -0.014 A 
ATOM     72  C   UNL A   1      45.977  28.715  35.059  1.00  0.00     0.010 A 
ATOM     73  C   UNL A   1      44.423  27.152  36.068  1.00  0.00     0.010 A 
ATOM     74  C   UNL A   1      47.038  27.860  35.368  1.00  0.00     0.020 A 
ATOM     75  C   UNL A   1      45.484  26.311  36.412  1.00  0.00     0.020 A 
ATOM     76  C   UNL A   1      46.782  26.658  36.036  1.00  0.00     0.054 A 
BRANCH  76  77
ATOM     77  S   UNL A   1      48.177  25.561  36.413  1.00  0.00     0.124 S 
ATOM     78  O   UNL A   1      49.092  26.466  37.103  1.00  0.00    -0.237 OA
ATOM     79  O   UNL A   1      47.560  24.535  37.249  1.00  0.00    -0.237 OA
ATOM     80  O   UNL A   1      48.625  25.105  35.100  1.00  0.00    -0.744 OA
ENDBRANCH  76  77
ENDBRANCH  57  71
BRANCH  58  81
ATOM     81  C   UNL A   1      36.484  33.433  32.603  1.00  0.00    -0.014 A 
ATOM     82  C   UNL A   1      35.251  32.762  32.681  1.00  0.00     0.010 A 
ATOM     83  C   UNL A   1      36.503  34.786  32.216  1.00  0.00     0.010 A 
ATOM     84  C   UNL A   1      34.061  33.431  32.380  1.00  0.00     0.020 A 
ATOM     85  C   UNL A   1      35.313  35.466  31.941  1.00  0.00     0.020 A 
ATOM     86  C   UNL A   1      34.098  34.783  32.022  1.00  0.00     0.054 A 
BRANCH  86  87
ATOM     87  S   UNL A   1      32.534  35.655  31.726  1.00  0.00     0.124 S 
ATOM     88  O   UNL A   1      31.658  35.055  32.728  1.00  0.00    -0.237 OA
ATOM     89  O   UNL A   1      32.904  37.049  31.959  1.00  0.00    -0.237 OA
ATOM     90  O   UNL A   1      32.218  35.326  30.338  1.00  0.00    -0.744 OA
ENDBRANCH  86  87
ENDBRANCH  58  81
BRANCH  70  91
ATOM     91  C   UNL A   1      40.582  33.546  38.283  1.00  0.00    -0.014 A 
ATOM     92  C   UNL A   1      41.145  34.833  38.343  1.00  0.00     0.010 A 
ATOM     93  C   UNL A   1      39.889  33.046  39.400  1.00  0.00     0.010 A 
ATOM     94  C   UNL A   1      41.017  35.602  39.502  1.00  0.00     0.020 A 
ATOM     95  C   UNL A   1      39.735  33.823  40.550  1.00  0.00     0.020 A 
ATOM     96  C   UNL A   1      40.304  35.096  40.595  1.00  0.00     0.054 A 
BRANCH  96  97
ATOM     97  S   UNL A   1      40.078  36.151  42.052  1.00  0.00     0.124 S 
ATOM     98  O   UNL A   1      41.080  35.620  42.972  1.00  0.00    -0.237 OA
ATOM     99  O   UNL A   1      40.352  37.486  41.525  1.00  0.00    -0.237 OA
ATOM    100  O   UNL A   1      38.689  35.914  42.440  1.00  0.00    -0.744 OA
ENDBRANCH  96  97
ENDBRANCH  70  91
ENDBRANCH  44  45
ENDBRANCH  36  39
ENDBRANCH  34  35
ENDBRANCH  33  34
ENDBRANCH   1  33
TORSDOF 18
ENDMDL
MODEL 2
REMARK VINA RESULT:     -12.1      6.560     11.666
REMARK SMILES C[C@@H](C(=O)NCCCCNC(=O)c1ccc(-c2c3nc(c(-c4ccc(S(=O)(=O)[O-])cc4)c4ccc([nH]4)c(-c4ccc(S(=O)(=O)[O-])cc4)c4nc(c(-c5ccc(S(=O)(=O)[O-])cc5)c5ccc2[nH]5)C=C4)C=C3)cc1)[N@@H+]1CCc2n[nH]c(C(c3ccccc3)c3ccccc3)c2C1
REMARK SMILES IDX 7 1 6 2 5 3 3 4 4 5 2 7 1 8 73 9 74 10 94 11 75 13 93 14
REMARK SMILES IDX 76 15 79 16 77 17 78 18 80 20 81 21 82 22 86 23 83 24 85 25
REMARK SMILES IDX 84 26 87 27 88 28 92 29 89 30 91 31 90 32 8 33 9 34 10 35
REMARK SMILES IDX 11 36 12 38 13 39 14 40 72 41 15 42 71 43 16 44 17 45 18 46
REMARK SMILES IDX 65 47 19 48 70 49 64 50 66 51 20 52 69 53 63 54 62 55 21 57
REMARK SMILES IDX 51 58 32 59 50 60 33 61 36 62 49 63 67 64 34 65 35 66 48 68
REMARK SMILES IDX 68 69 37 70 22 71 23 72 31 73 24 74 30 75 25 76 26 77 27 78
REMARK SMILES IDX 28 79 29 80 52 81 53 82 61 83 54 84 60 85 55 86 56 87 57 88
REMARK SMILES IDX 58 89 59 90 38 91 39 92 47 93 40 94 46 95 41 96 42 97 43 98
REMARK SMILES IDX 44 99 45 100
REMARK H PARENT 5 6 73 12 78 19 10 37 66 56 36 67
REMARK Flexibility Score: inf
ROOT
ATOM      1  C   UNL A   1      34.851  29.708  27.045  1.00  0.00     0.023 C 
ENDROOT
BRANCH   1   2
ATOM      2  C   UNL A   1      33.754  29.424  26.031  1.00  0.00     0.116 C 
BRANCH   2   3
ATOM      3  N   UNL A   1      34.252  28.779  24.830  1.00  0.00    -0.351 N 
ATOM      4  C   UNL A   1      33.437  28.284  23.828  1.00  0.00     0.278 C 
ATOM      5  O   UNL A   1      33.205  29.011  22.859  1.00  0.00    -0.268 OA
ATOM      6  H   UNL A   1      35.228  28.688  24.723  1.00  0.00     0.163 HD
BRANCH   4   7
ATOM      7  C   UNL A   1      33.089  26.748  23.811  1.00  0.00     0.271 C 
ATOM      8  C   UNL A   1      33.449  26.060  22.498  1.00  0.00     0.086 C 
BRANCH   7   9
ATOM      9  N   UNL A   1      31.705  26.524  24.336  1.00  0.00    -0.321 N 
ATOM     10  C   UNL A   1      31.464  26.836  25.790  1.00  0.00     0.269 C 
ATOM     11  C   UNL A   1      31.165  25.215  23.966  1.00  0.00     0.303 C 
ATOM     12  H   UNL A   1      31.172  27.246  23.851  1.00  0.00     0.349 HD
ATOM     13  C   UNL A   1      30.430  25.907  26.548  1.00  0.00     0.120 C 
ATOM     14  C   UNL A   1      31.524  24.239  25.041  1.00  0.00     0.052 A 
ATOM     15  C   UNL A   1      30.718  24.494  26.175  1.00  0.00     0.077 A 
ATOM     16  C   UNL A   1      31.676  22.867  25.125  1.00  0.00     0.056 A 
ATOM     17  N   UNL A   1      29.876  23.465  26.342  1.00  0.00    -0.180 NA
ATOM     18  N   UNL A   1      30.372  22.554  25.468  1.00  0.00    -0.281 N 
ATOM     19  H   UNL A   1      29.873  21.778  25.124  1.00  0.00     0.190 HD
BRANCH  16  20
ATOM     20  C   UNL A   1      32.841  21.898  25.408  1.00  0.00     0.098 C 
BRANCH  20  21
ATOM     21  C   UNL A   1      32.702  20.425  24.934  1.00  0.00    -0.035 A 
ATOM     22  C   UNL A   1      32.977  19.384  25.852  1.00  0.00     0.005 A 
ATOM     23  C   UNL A   1      32.474  20.049  23.601  1.00  0.00     0.005 A 
ATOM     24  C   UNL A   1      32.922  18.035  25.485  1.00  0.00     0.000 A 
ATOM     25  C   UNL A   1      32.443  18.694  23.225  1.00  0.00     0.000 A 
ATOM     26  C   UNL A   1      32.648  17.689  24.169  1.00  0.00     0.000 A 
ENDBRANCH  20  21
BRANCH  20  27
ATOM     27  C   UNL A   1      34.222  22.482  25.065  1.00  0.00    -0.035 A 
ATOM     28  C   UNL A   1      34.678  22.642  23.745  1.00  0.00     0.005 A 
ATOM     29  C   UNL A   1      35.090  22.857  26.109  1.00  0.00     0.005 A 
ATOM     30  C   UNL A   1      35.940  23.173  23.481  1.00  0.00     0.000 A 
ATOM     31  C   UNL A   1      36.321  23.451  25.843  1.00  0.00     0.000 A 
ATOM     32  C   UNL A   1      36.750  23.597  24.528  1.00  0.00     0.000 A 
ENDBRANCH  20  27
ENDBRANCH  16  20
ENDBRANCH   7   9
ENDBRANCH   4   7
ENDBRANCH   2   3
ENDBRANCH   1   2
BRANCH   1  33
ATOM     33  C   UNL A   1      34.897  31.108  27.661  1.00  0.00     0.023 C 
BRANCH  33  34
ATOM     34  C   UNL A   1      36.039  31.395  28.615  1.00  0.00     0.116 C 
BRANCH  34  35
ATOM     35  N   UNL A   1      35.921  30.652  29.862  1.00  0.00    -0.352 N 
ATOM     36  C   UNL A   1      36.796  29.771  30.462  1.00  0.00     0.251 C 
ATOM     37  H   UNL A   1      35.082  30.802  30.355  1.00  0.00     0.163 HD
ATOM     38  O   UNL A   1      36.426  29.113  31.422  1.00  0.00    -0.269 OA
BRANCH  36  39
ATOM     39  C   UNL A   1      38.171  29.610  29.932  1.00  0.00     0.039 A 
ATOM     40  C   UNL A   1      39.229  29.394  30.821  1.00  0.00     0.014 A 
ATOM     41  C   UNL A   1      38.419  29.674  28.561  1.00  0.00     0.014 A 
ATOM     42  C   UNL A   1      40.520  29.173  30.325  1.00  0.00     0.010 A 
ATOM     43  C   UNL A   1      39.672  29.340  28.067  1.00  0.00     0.010 A 
ATOM     44  C   UNL A   1      40.743  29.105  28.943  1.00  0.00    -0.014 A 
BRANCH  44  45
ATOM     45  C   UNL A   1      42.083  28.832  28.363  1.00  0.00     0.031 A 
ATOM     46  C   UNL A   1      42.410  27.441  27.884  1.00  0.00     0.074 A 
ATOM     47  C   UNL A   1      43.033  29.787  28.377  1.00  0.00     0.049 A 
ATOM     48  N   UNL A   1      43.559  26.947  27.505  1.00  0.00    -0.248 NA
ATOM     49  C   UNL A   1      41.306  26.466  27.879  1.00  0.00     0.031 C 
ATOM     50  C   UNL A   1      42.853  31.158  28.860  1.00  0.00     0.029 A 
ATOM     51  N   UNL A   1      44.352  29.740  27.998  1.00  0.00    -0.354 N 
ATOM     52  C   UNL A   1      43.324  25.598  27.259  1.00  0.00     0.074 A 
ATOM     53  C   UNL A   1      41.940  25.341  27.586  1.00  0.00     0.031 C 
ATOM     54  C   UNL A   1      44.012  31.822  28.738  1.00  0.00     0.029 A 
ATOM     55  C   UNL A   1      45.031  30.915  28.220  1.00  0.00     0.049 A 
ATOM     56  H   UNL A   1      44.772  28.941  27.605  1.00  0.00     0.167 HD
ATOM     57  C   UNL A   1      44.179  24.660  26.787  1.00  0.00     0.031 A 
ATOM     58  C   UNL A   1      46.332  31.223  28.050  1.00  0.00     0.031 A 
ATOM     59  C   UNL A   1      45.548  24.933  26.443  1.00  0.00     0.049 A 
ATOM     60  C   UNL A   1      47.267  30.175  27.511  1.00  0.00     0.074 A 
ATOM     61  C   UNL A   1      46.479  24.080  25.880  1.00  0.00     0.029 A 
ATOM     62  N   UNL A   1      46.182  26.151  26.635  1.00  0.00    -0.354 N 
ATOM     63  N   UNL A   1      47.009  28.924  27.208  1.00  0.00    -0.248 NA
ATOM     64  C   UNL A   1      48.659  30.577  27.278  1.00  0.00     0.031 C 
ATOM     65  C   UNL A   1      47.696  24.763  25.793  1.00  0.00     0.029 A 
ATOM     66  C   UNL A   1      47.503  26.065  26.232  1.00  0.00     0.049 A 
ATOM     67  H   UNL A   1      45.756  26.959  27.005  1.00  0.00     0.167 HD
ATOM     68  C   UNL A   1      48.201  28.397  26.724  1.00  0.00     0.074 A 
ATOM     69  C   UNL A   1      49.177  29.466  26.768  1.00  0.00     0.031 C 
ATOM     70  C   UNL A   1      48.460  27.143  26.278  1.00  0.00     0.031 A 
BRANCH  57  71
ATOM     71  C   UNL A   1      43.659  23.252  26.642  1.00  0.00    -0.014 A 
ATOM     72  C   UNL A   1      43.010  22.594  27.705  1.00  0.00     0.010 A 
ATOM     73  C   UNL A   1      43.818  22.575  25.419  1.00  0.00     0.010 A 
ATOM     74  C   UNL A   1      42.595  21.267  27.570  1.00  0.00     0.020 A 
ATOM     75  C   UNL A   1      43.372  21.259  25.267  1.00  0.00     0.020 A 
ATOM     76  C   UNL A   1      42.786  20.606  26.352  1.00  0.00     0.054 A 
BRANCH  76  77
ATOM     77  S   UNL A   1      42.249  18.878  26.209  1.00  0.00     0.124 S 
ATOM     78  O   UNL A   1      42.459  18.387  27.568  1.00  0.00    -0.237 OA
ATOM     79  O   UNL A   1      40.855  19.010  25.797  1.00  0.00    -0.237 OA
ATOM     80  O   UNL A   1      43.144  18.319  25.200  1.00  0.00    -0.744 OA
ENDBRANCH  76  77
ENDBRANCH  57  71
BRANCH  58  81
ATOM     81  C   UNL A   1      46.812  32.589  28.399  1.00  0.00    -0.014 A 
ATOM     82  C   UNL A   1      47.360  32.857  29.665  1.00  0.00     0.010 A 
ATOM     83  C   UNL A   1      46.781  33.615  27.436  1.00  0.00     0.010 A 
ATOM     84  C   UNL A   1      47.869  34.125  29.962  1.00  0.00     0.020 A 
ATOM     85  C   UNL A   1      47.315  34.876  27.720  1.00  0.00     0.020 A 
ATOM     86  C   UNL A   1      47.853  35.124  28.984  1.00  0.00     0.054 A 
BRANCH  86  87
ATOM     87  S   UNL A   1      48.603  36.732  29.361  1.00  0.00     0.124 S 
ATOM     88  O   UNL A   1      49.340  36.444  30.588  1.00  0.00    -0.237 OA
ATOM     89  O   UNL A   1      49.419  36.984  28.176  1.00  0.00    -0.237 OA
ATOM     90  O   UNL A   1      47.451  37.618  29.513  1.00  0.00    -0.744 OA
ENDBRANCH  86  87
ENDBRANCH  58  81
BRANCH  70  91
ATOM     91  C   UNL A   1      49.843  26.852  25.758  1.00  0.00    -0.014 A 
ATOM     92  C   UNL A   1      50.214  27.182  24.443  1.00  0.00     0.010 A 
ATOM     93  C   UNL A   1      50.814  26.343  26.639  1.00  0.00     0.010 A 
ATOM     94  C   UNL A   1      51.533  27.002  24.019  1.00  0.00     0.020 A 
ATOM     95  C   UNL A   1      52.139  26.189  26.228  1.00  0.00     0.020 A 
ATOM     96  C   UNL A   1      52.490  26.515  24.918  1.00  0.00     0.054 A 
BRANCH  96  97
ATOM     97  S   UNL A   1      54.212  26.376  24.367  1.00  0.00     0.124 S 
ATOM     98  O   UNL A   1      54.820  27.563  24.964  1.00  0.00    -0.237 OA
ATOM     99  O   UNL A   1      54.628  25.099  24.942  1.00  0.00    -0.237 OA
ATOM    100  O   UNL A   1      54.113  26.393  22.909  1.00  0.00    -0.744 OA
ENDBRANCH  96  97
ENDBRANCH  70  91
ENDBRANCH  44  45
ENDBRANCH  36  39
ENDBRANCH  34  35
ENDBRANCH  33  34
ENDBRANCH   1  33
TORSDOF 18
ENDMDL
MODEL 3
REMARK VINA RESULT:     -12.0      6.265     11.979
REMARK SMILES C[C@@H](C(=O)NCCCCNC(=O)c1ccc(-c2c3nc(c(-c4ccc(S(=O)(=O)[O-])cc4)c4ccc([nH]4)c(-c4ccc(S(=O)(=O)[O-])cc4)c4nc(c(-c5ccc(S(=O)(=O)[O-])cc5)c5ccc2[nH]5)C=C4)C=C3)cc1)[N@@H+]1CCc2n[nH]c(C(c3ccccc3)c3ccccc3)c2C1
REMARK SMILES IDX 7 1 6 2 5 3 3 4 4 5 2 7 1 8 73 9 74 10 94 11 75 13 93 14
REMARK SMILES IDX 76 15 79 16 77 17 78 18 80 20 81 21 82 22 86 23 83 24 85 25
REMARK SMILES IDX 84 26 87 27 88 28 92 29 89 30 91 31 90 32 8 33 9 34 10 35
REMARK SMILES IDX 11 36 12 38 13 39 14 40 72 41 15 42 71 43 16 44 17 45 18 46
REMARK SMILES IDX 65 47 19 48 70 49 64 50 66 51 20 52 69 53 63 54 62 55 21 57
REMARK SMILES IDX 51 58 32 59 50 60 33 61 36 62 49 63 67 64 34 65 35 66 48 68
REMARK SMILES IDX 68 69 37 70 22 71 23 72 31 73 24 74 30 75 25 76 26 77 27 78
REMARK SMILES IDX 28 79 29 80 52 81 53 82 61 83 54 84 60 85 55 86 56 87 57 88
REMARK SMILES IDX 58 89 59 90 38 91 39 92 47 93 40 94 46 95 41 96 42 97 43 98
REMARK SMILES IDX 44 99 45 100
REMARK H PARENT 5 6 73 12 78 19 10 37 66 56 36 67
REMARK Flexibility Score: inf
ROOT
ATOM      1  C   UNL A   1      34.925  29.344  27.173  1.00  0.00     0.023 C 
ENDROOT
BRANCH   1   2
ATOM      2  C   UNL A   1      33.780  28.605  26.497  1.00  0.00     0.116 C 
BRANCH   2   3
ATOM      3  N   UNL A   1      34.076  28.247  25.123  1.00  0.00    -0.351 N 
ATOM      4  C   UNL A   1      33.108  28.001  24.165  1.00  0.00     0.278 C 
ATOM      5  O   UNL A   1      32.772  28.933  23.430  1.00  0.00    -0.268 OA
ATOM      6  H   UNL A   1      35.022  28.175  24.856  1.00  0.00     0.163 HD
BRANCH   4   7
ATOM      7  C   UNL A   1      32.697  26.512  23.855  1.00  0.00     0.271 C 
ATOM      8  C   UNL A   1      32.920  26.114  22.400  1.00  0.00     0.086 C 
BRANCH   7   9
ATOM      9  N   UNL A   1      31.352  26.213  24.441  1.00  0.00    -0.321 N 
ATOM     10  C   UNL A   1      31.145  26.555  25.893  1.00  0.00     0.269 C 
ATOM     11  C   UNL A   1      30.889  24.860  24.132  1.00  0.00     0.303 C 
ATOM     12  H   UNL A   1      30.753  26.881  23.956  1.00  0.00     0.349 HD
ATOM     13  C   UNL A   1      30.206  25.584  26.719  1.00  0.00     0.120 C 
ATOM     14  C   UNL A   1      31.355  23.946  25.220  1.00  0.00     0.052 A 
ATOM     15  C   UNL A   1      30.575  24.182  26.377  1.00  0.00     0.077 A 
ATOM     16  C   UNL A   1      31.604  22.590  25.339  1.00  0.00     0.056 A 
ATOM     17  N   UNL A   1      29.814  23.105  26.608  1.00  0.00    -0.180 NA
ATOM     18  N   UNL A   1      30.338  22.201  25.742  1.00  0.00    -0.281 N 
ATOM     19  H   UNL A   1      29.881  21.382  25.441  1.00  0.00     0.190 HD
BRANCH  16  20
ATOM     20  C   UNL A   1      32.842  21.711  25.605  1.00  0.00     0.098 C 
BRANCH  20  21
ATOM     21  C   UNL A   1      32.812  20.235  25.122  1.00  0.00    -0.035 A 
ATOM     22  C   UNL A   1      32.475  19.964  23.775  1.00  0.00     0.005 A 
ATOM     23  C   UNL A   1      32.941  19.128  25.976  1.00  0.00     0.005 A 
ATOM     24  C   UNL A   1      32.378  18.660  23.280  1.00  0.00     0.000 A 
ATOM     25  C   UNL A   1      32.820  17.816  25.486  1.00  0.00     0.000 A 
ATOM     26  C   UNL A   1      32.557  17.582  24.136  1.00  0.00     0.000 A 
ENDBRANCH  20  21
BRANCH  20  27
ATOM     27  C   UNL A   1      34.171  22.402  25.252  1.00  0.00    -0.035 A 
ATOM     28  C   UNL A   1      34.950  23.088  26.198  1.00  0.00     0.005 A 
ATOM     29  C   UNL A   1      34.628  22.374  23.920  1.00  0.00     0.005 A 
ATOM     30  C   UNL A   1      36.147  23.704  25.832  1.00  0.00     0.000 A 
ATOM     31  C   UNL A   1      35.856  22.929  23.570  1.00  0.00     0.000 A 
ATOM     32  C   UNL A   1      36.610  23.604  24.524  1.00  0.00     0.000 A 
ENDBRANCH  20  27
ENDBRANCH  16  20
ENDBRANCH   7   9
ENDBRANCH   4   7
ENDBRANCH   2   3
ENDBRANCH   1   2
BRANCH   1  33
ATOM     33  C   UNL A   1      34.705  30.817  27.521  1.00  0.00     0.023 C 
BRANCH  33  34
ATOM     34  C   UNL A   1      35.768  31.482  28.373  1.00  0.00     0.116 C 
BRANCH  34  35
ATOM     35  N   UNL A   1      35.602  31.198  29.791  1.00  0.00    -0.352 N 
ATOM     36  C   UNL A   1      36.449  30.574  30.681  1.00  0.00     0.251 C 
ATOM     37  H   UNL A   1      34.747  31.499  30.175  1.00  0.00     0.163 HD
ATOM     38  O   UNL A   1      36.042  30.272  31.793  1.00  0.00    -0.269 OA
BRANCH  36  39
ATOM     39  C   UNL A   1      37.841  30.253  30.285  1.00  0.00     0.039 A 
ATOM     40  C   UNL A   1      38.816  30.085  31.274  1.00  0.00     0.014 A 
ATOM     41  C   UNL A   1      38.188  30.120  28.940  1.00  0.00     0.014 A 
ATOM     42  C   UNL A   1      40.117  29.716  30.913  1.00  0.00     0.010 A 
ATOM     43  C   UNL A   1      39.442  29.642  28.592  1.00  0.00     0.010 A 
ATOM     44  C   UNL A   1      40.429  29.453  29.571  1.00  0.00    -0.014 A 
BRANCH  44  45
ATOM     45  C   UNL A   1      41.781  29.017  29.137  1.00  0.00     0.031 A 
ATOM     46  C   UNL A   1      42.882  30.038  29.012  1.00  0.00     0.074 A 
ATOM     47  C   UNL A   1      41.987  27.745  28.745  1.00  0.00     0.049 A 
ATOM     48  N   UNL A   1      44.075  29.908  28.496  1.00  0.00    -0.248 NA
ATOM     49  C   UNL A   1      42.579  31.398  29.489  1.00  0.00     0.031 C 
ATOM     50  C   UNL A   1      40.987  26.675  28.772  1.00  0.00     0.029 A 
ATOM     51  N   UNL A   1      43.102  27.141  28.217  1.00  0.00    -0.354 N 
ATOM     52  C   UNL A   1      44.646  31.175  28.546  1.00  0.00     0.074 A 
ATOM     53  C   UNL A   1      43.648  32.069  29.089  1.00  0.00     0.031 C 
ATOM     54  C   UNL A   1      41.537  25.547  28.294  1.00  0.00     0.029 A 
ATOM     55  C   UNL A   1      42.908  25.824  27.877  1.00  0.00     0.049 A 
ATOM     56  H   UNL A   1      43.960  27.609  28.093  1.00  0.00     0.167 HD
ATOM     57  C   UNL A   1      45.895  31.559  28.188  1.00  0.00     0.031 A 
ATOM     58  C   UNL A   1      43.730  24.942  27.275  1.00  0.00     0.031 A 
ATOM     59  C   UNL A   1      46.885  30.655  27.670  1.00  0.00     0.049 A 
ATOM     60  C   UNL A   1      45.119  25.378  26.896  1.00  0.00     0.074 A 
ATOM     61  C   UNL A   1      48.205  30.918  27.352  1.00  0.00     0.029 A 
ATOM     62  N   UNL A   1      46.663  29.315  27.389  1.00  0.00    -0.354 N 
ATOM     63  N   UNL A   1      45.669  26.562  27.024  1.00  0.00    -0.248 NA
ATOM     64  C   UNL A   1      46.000  24.363  26.306  1.00  0.00     0.031 C 
ATOM     65  C   UNL A   1      48.762  29.753  26.816  1.00  0.00     0.029 A 
ATOM     66  C   UNL A   1      47.811  28.744  26.871  1.00  0.00     0.049 A 
ATOM     67  H   UNL A   1      45.812  28.840  27.536  1.00  0.00     0.167 HD
ATOM     68  C   UNL A   1      46.971  26.428  26.554  1.00  0.00     0.074 A 
ATOM     69  C   UNL A   1      47.127  25.047  26.147  1.00  0.00     0.031 C 
ATOM     70  C   UNL A   1      47.950  27.364  26.475  1.00  0.00     0.031 A 
BRANCH  57  71
ATOM     71  C   UNL A   1      46.241  33.020  28.323  1.00  0.00    -0.014 A 
ATOM     72  C   UNL A   1      46.545  33.591  29.574  1.00  0.00     0.010 A 
ATOM     73  C   UNL A   1      46.266  33.837  27.178  1.00  0.00     0.010 A 
ATOM     74  C   UNL A   1      46.798  34.961  29.685  1.00  0.00     0.020 A 
ATOM     75  C   UNL A   1      46.555  35.200  27.279  1.00  0.00     0.020 A 
ATOM     76  C   UNL A   1      46.793  35.758  28.536  1.00  0.00     0.054 A 
BRANCH  76  77
ATOM     77  S   UNL A   1      47.112  37.535  28.712  1.00  0.00     0.124 S 
ATOM     78  O   UNL A   1      46.252  37.884  29.839  1.00  0.00    -0.237 OA
ATOM     79  O   UNL A   1      48.547  37.578  28.981  1.00  0.00    -0.237 OA
ATOM     80  O   UNL A   1      46.706  38.090  27.424  1.00  0.00    -0.744 OA
ENDBRANCH  76  77
ENDBRANCH  57  71
BRANCH  58  81
ATOM     81  C   UNL A   1      43.246  23.560  27.000  1.00  0.00    -0.014 A 
ATOM     82  C   UNL A   1      42.937  23.154  25.691  1.00  0.00     0.010 A 
ATOM     83  C   UNL A   1      43.154  22.623  28.046  1.00  0.00     0.010 A 
ATOM     84  C   UNL A   1      42.546  21.837  25.432  1.00  0.00     0.020 A 
ATOM     85  C   UNL A   1      42.791  21.298  27.787  1.00  0.00     0.020 A 
ATOM     86  C   UNL A   1      42.486  20.913  26.480  1.00  0.00     0.054 A 
BRANCH  86  87
ATOM     87  S   UNL A   1      42.067  19.188  26.106  1.00  0.00     0.124 S 
ATOM     88  O   UNL A   1      40.638  19.277  25.823  1.00  0.00    -0.237 OA
ATOM     89  O   UNL A   1      42.925  18.899  24.960  1.00  0.00    -0.237 OA
ATOM     90  O   UNL A   1      42.422  18.478  27.333  1.00  0.00    -0.744 OA
ENDBRANCH  86  87
ENDBRANCH  58  81
BRANCH  70  91
ATOM     91  C   UNL A   1      49.299  26.931  25.966  1.00  0.00    -0.014 A 
ATOM     92  C   UNL A   1      49.672  27.126  24.625  1.00  0.00     0.010 A 
ATOM     93  C   UNL A   1      50.243  26.421  26.876  1.00  0.00     0.010 A 
ATOM     94  C   UNL A   1      50.967  26.814  24.204  1.00  0.00     0.020 A 
ATOM     95  C   UNL A   1      51.547  26.136  26.465  1.00  0.00     0.020 A 
ATOM     96  C   UNL A   1      51.899  26.331  25.129  1.00  0.00     0.054 A 
BRANCH  96  97
ATOM     97  S   UNL A   1      53.598  26.020  24.574  1.00  0.00     0.124 S 
ATOM     98  O   UNL A   1      53.673  24.562  24.624  1.00  0.00    -0.237 OA
ATOM     99  O   UNL A   1      53.608  26.605  23.235  1.00  0.00    -0.237 OA
ATOM    100  O   UNL A   1      54.419  26.720  25.560  1.00  0.00    -0.744 OA
ENDBRANCH  96  97
ENDBRANCH  70  91
ENDBRANCH  44  45
ENDBRANCH  36  39
ENDBRANCH  34  35
ENDBRANCH  33  34
ENDBRANCH   1  33
TORSDOF 18
ENDMDL
