MODEL 1
REMARK VINA RESULT:     -10.3      0.000      0.000
REMARK SMILES C[C@H](NC(=O)c1cc(S(=O)(=O)N(C)C)cs1)C(=O)NCCCCNC(=O)c1ccc(-c2c3nc(c(-c4ccc(S(=O)(=O)[O-])cc4)c4ccc([nH]4)c(-c4ccc(S(=O)(=O)[O-])cc4)c4nc(c(-c5ccc(S(=O)(=O)[O-])cc5)c5ccc2[nH]5)C=C4)C=C3)cc1
REMARK SMILES IDX 21 1 20 2 19 3 17 4 18 5 2 7 1 8 3 9 4 10 5 12 6 13 7 14
REMARK SMILES IDX 16 15 8 16 15 17 9 18 10 19 11 20 12 21 13 22 14 23 22 24
REMARK SMILES IDX 23 25 24 26 25 27 26 29 27 30 28 31 86 32 29 33 85 34 30 35
REMARK SMILES IDX 31 36 32 37 79 38 33 39 84 40 78 41 80 42 34 43 83 44 77 45
REMARK SMILES IDX 76 46 35 48 65 49 46 50 64 51 47 52 50 53 63 54 81 55 48 56
REMARK SMILES IDX 49 57 62 59 82 60 51 61 36 62 37 63 45 64 38 65 44 66 39 67
REMARK SMILES IDX 40 68 41 69 42 70 43 71 66 72 67 73 75 74 68 75 74 76 69 77
REMARK SMILES IDX 70 78 71 79 72 80 73 81 52 82 53 83 61 84 54 85 60 86 55 87
REMARK SMILES IDX 56 88 57 89 58 90 59 91
REMARK H PARENT 19 6 3 11 24 28 80 47 50 58
REMARK Flexibility Score: inf
ROOT
ATOM      1  C   UNL A   1      34.977  24.278  23.646  1.00  0.00     0.023 C 
ENDROOT
BRANCH   1   2
ATOM      2  C   UNL A   1      33.507  24.346  24.043  1.00  0.00     0.116 C 
BRANCH   2   3
ATOM      3  N   UNL A   1      33.274  25.335  25.082  1.00  0.00    -0.354 N 
ATOM      4  C   UNL A   1      32.107  25.732  25.668  1.00  0.00     0.242 C 
ATOM      5  O   UNL A   1      32.165  26.491  26.637  1.00  0.00    -0.273 OA
ATOM      6  H   UNL A   1      34.082  25.789  25.412  1.00  0.00     0.163 HD
BRANCH   4   7
ATOM      7  C   UNL A   1      30.760  25.163  25.189  1.00  0.00     0.168 C 
ATOM      8  C   UNL A   1      29.971  26.268  24.481  1.00  0.00     0.041 C 
BRANCH   7   9
ATOM      9  N   UNL A   1      30.067  24.529  26.318  1.00  0.00    -0.340 N 
ATOM     10  C   UNL A   1      30.272  23.328  26.947  1.00  0.00     0.262 C 
ATOM     11  H   UNL A   1      29.325  25.059  26.687  1.00  0.00     0.164 HD
ATOM     12  O   UNL A   1      29.452  22.987  27.799  1.00  0.00    -0.268 OA
BRANCH  10  13
ATOM     13  C   UNL A   1      31.418  22.532  26.568  1.00  0.00     0.093 A 
ATOM     14  C   UNL A   1      31.600  21.748  25.447  1.00  0.00     0.047 A 
ATOM     15  S   UNL A   1      32.795  22.495  27.587  1.00  0.00    -0.137 S 
ATOM     16  C   UNL A   1      32.816  21.010  25.499  1.00  0.00     0.094 A 
ATOM     17  C   UNL A   1      33.566  21.318  26.612  1.00  0.00     0.087 A 
BRANCH  16  18
ATOM     18  S   UNL A   1      33.262  19.802  24.340  1.00  0.00     0.243 S 
ATOM     19  O   UNL A   1      32.871  20.356  23.069  1.00  0.00    -0.207 OA
ATOM     20  O   UNL A   1      34.648  19.536  24.676  1.00  0.00    -0.207 OA
BRANCH  18  21
ATOM     21  N   UNL A   1      32.349  18.390  24.636  1.00  0.00    -0.204 NA
ATOM     22  C   UNL A   1      32.267  17.448  23.496  1.00  0.00     0.124 C 
ATOM     23  C   UNL A   1      32.710  17.699  25.891  1.00  0.00     0.124 C 
ENDBRANCH  18  21
ENDBRANCH  16  18
ENDBRANCH  10  13
ENDBRANCH   7   9
ENDBRANCH   4   7
ENDBRANCH   2   3
ENDBRANCH   1   2
BRANCH   1  24
ATOM     24  C   UNL A   1      35.782  23.199  24.370  1.00  0.00     0.023 C 
BRANCH  24  25
ATOM     25  C   UNL A   1      36.807  23.716  25.374  1.00  0.00     0.116 C 
BRANCH  25  26
ATOM     26  N   UNL A   1      37.873  22.762  25.640  1.00  0.00    -0.352 N 
ATOM     27  C   UNL A   1      39.083  22.978  26.255  1.00  0.00     0.251 C 
ATOM     28  H   UNL A   1      37.706  21.840  25.338  1.00  0.00     0.163 HD
ATOM     29  O   UNL A   1      39.926  22.088  26.288  1.00  0.00    -0.269 OA
BRANCH  27  30
ATOM     30  C   UNL A   1      39.369  24.302  26.845  1.00  0.00     0.039 A 
ATOM     31  C   UNL A   1      38.956  24.561  28.154  1.00  0.00     0.014 A 
ATOM     32  C   UNL A   1      40.072  25.267  26.118  1.00  0.00     0.014 A 
ATOM     33  C   UNL A   1      39.310  25.766  28.761  1.00  0.00     0.010 A 
ATOM     34  C   UNL A   1      40.474  26.442  26.746  1.00  0.00     0.010 A 
ATOM     35  C   UNL A   1      40.101  26.701  28.073  1.00  0.00    -0.014 A 
BRANCH  35  36
ATOM     36  C   UNL A   1      40.558  27.951  28.729  1.00  0.00     0.031 A 
ATOM     37  C   UNL A   1      41.940  28.035  29.313  1.00  0.00     0.074 A 
ATOM     38  C   UNL A   1      39.702  28.984  28.863  1.00  0.00     0.049 A 
ATOM     39  N   UNL A   1      42.490  29.009  29.992  1.00  0.00    -0.248 NA
ATOM     40  C   UNL A   1      42.809  26.861  29.132  1.00  0.00     0.031 C 
ATOM     41  C   UNL A   1      38.320  29.010  28.380  1.00  0.00     0.029 A 
ATOM     42  N   UNL A   1      39.868  30.209  29.457  1.00  0.00    -0.354 N 
ATOM     43  C   UNL A   1      43.758  28.559  30.337  1.00  0.00     0.074 A 
ATOM     44  C   UNL A   1      43.882  27.210  29.827  1.00  0.00     0.031 C 
ATOM     45  C   UNL A   1      37.770  30.198  28.682  1.00  0.00     0.029 A 
ATOM     46  C   UNL A   1      38.748  31.004  29.406  1.00  0.00     0.049 A 
ATOM     47  H   UNL A   1      40.710  30.493  29.881  1.00  0.00     0.167 HD
ATOM     48  C   UNL A   1      44.738  29.214  31.005  1.00  0.00     0.031 A 
ATOM     49  C   UNL A   1      38.528  32.241  29.892  1.00  0.00     0.031 A 
ATOM     50  C   UNL A   1      44.621  30.560  31.496  1.00  0.00     0.049 A 
ATOM     51  C   UNL A   1      39.639  32.957  30.610  1.00  0.00     0.074 A 
ATOM     52  C   UNL A   1      45.576  31.327  32.142  1.00  0.00     0.029 A 
ATOM     53  N   UNL A   1      43.482  31.343  31.392  1.00  0.00    -0.354 N 
ATOM     54  N   UNL A   1      40.849  32.532  30.883  1.00  0.00    -0.248 NA
ATOM     55  C   UNL A   1      39.355  34.321  31.075  1.00  0.00     0.031 C 
ATOM     56  C   UNL A   1      45.003  32.565  32.455  1.00  0.00     0.029 A 
ATOM     57  C   UNL A   1      43.704  32.581  31.969  1.00  0.00     0.049 A 
ATOM     58  H   UNL A   1      42.638  31.060  30.970  1.00  0.00     0.167 HD
ATOM     59  C   UNL A   1      41.479  33.586  31.534  1.00  0.00     0.074 A 
ATOM     60  C   UNL A   1      40.522  34.670  31.603  1.00  0.00     0.031 C 
ATOM     61  C   UNL A   1      42.740  33.648  32.029  1.00  0.00     0.031 A 
BRANCH  48  62
ATOM     62  C   UNL A   1      46.024  28.471  31.240  1.00  0.00    -0.014 A 
ATOM     63  C   UNL A   1      47.166  28.739  30.462  1.00  0.00     0.010 A 
ATOM     64  C   UNL A   1      46.101  27.505  32.260  1.00  0.00     0.010 A 
ATOM     65  C   UNL A   1      48.346  28.023  30.668  1.00  0.00     0.020 A 
ATOM     66  C   UNL A   1      47.288  26.803  32.485  1.00  0.00     0.020 A 
ATOM     67  C   UNL A   1      48.398  27.053  31.673  1.00  0.00     0.054 A 
BRANCH  67  68
ATOM     68  S   UNL A   1      49.944  26.138  31.926  1.00  0.00     0.124 S 
ATOM     69  O   UNL A   1      50.944  27.129  31.540  1.00  0.00    -0.237 OA
ATOM     70  O   UNL A   1      49.898  25.814  33.350  1.00  0.00    -0.237 OA
ATOM     71  O   UNL A   1      49.818  24.993  31.027  1.00  0.00    -0.744 OA
ENDBRANCH  67  68
ENDBRANCH  48  62
BRANCH  49  72
ATOM     72  C   UNL A   1      37.205  32.888  29.695  1.00  0.00    -0.014 A 
ATOM     73  C   UNL A   1      36.278  32.944  30.749  1.00  0.00     0.010 A 
ATOM     74  C   UNL A   1      36.877  33.473  28.458  1.00  0.00     0.010 A 
ATOM     75  C   UNL A   1      35.038  33.563  30.568  1.00  0.00     0.020 A 
ATOM     76  C   UNL A   1      35.645  34.111  28.280  1.00  0.00     0.020 A 
ATOM     77  C   UNL A   1      34.730  34.143  29.333  1.00  0.00     0.054 A 
BRANCH  77  78
ATOM     78  S   UNL A   1      33.141  34.997  29.136  1.00  0.00     0.124 S 
ATOM     79  O   UNL A   1      32.494  34.196  28.102  1.00  0.00    -0.237 OA
ATOM     80  O   UNL A   1      32.557  34.899  30.472  1.00  0.00    -0.237 OA
ATOM     81  O   UNL A   1      33.530  36.347  28.733  1.00  0.00    -0.744 OA
ENDBRANCH  77  78
ENDBRANCH  49  72
BRANCH  61  82
ATOM     82  C   UNL A   1      43.165  34.942  32.666  1.00  0.00    -0.014 A 
ATOM     83  C   UNL A   1      42.892  35.208  34.019  1.00  0.00     0.010 A 
ATOM     84  C   UNL A   1      43.895  35.880  31.913  1.00  0.00     0.010 A 
ATOM     85  C   UNL A   1      43.320  36.403  34.603  1.00  0.00     0.020 A 
ATOM     86  C   UNL A   1      44.342  37.066  32.499  1.00  0.00     0.020 A 
ATOM     87  C   UNL A   1      44.040  37.326  33.837  1.00  0.00     0.054 A 
BRANCH  87  88
ATOM     88  S   UNL A   1      44.627  38.851  34.627  1.00  0.00     0.124 S 
ATOM     89  O   UNL A   1      43.533  39.776  34.350  1.00  0.00    -0.237 OA
ATOM     90  O   UNL A   1      44.777  38.455  36.025  1.00  0.00    -0.237 OA
ATOM     91  O   UNL A   1      45.879  39.138  33.931  1.00  0.00    -0.744 OA
ENDBRANCH  87  88
ENDBRANCH  61  82
ENDBRANCH  35  36
ENDBRANCH  27  30
ENDBRANCH  25  26
ENDBRANCH  24  25
ENDBRANCH   1  24
TORSDOF 18
ENDMDL
MODEL 2
REMARK VINA RESULT:     -10.3      1.400      3.411
REMARK SMILES C[C@H](NC(=O)c1cc(S(=O)(=O)N(C)C)cs1)C(=O)NCCCCNC(=O)c1ccc(-c2c3nc(c(-c4ccc(S(=O)(=O)[O-])cc4)c4ccc([nH]4)c(-c4ccc(S(=O)(=O)[O-])cc4)c4nc(c(-c5ccc(S(=O)(=O)[O-])cc5)c5ccc2[nH]5)C=C4)C=C3)cc1
REMARK SMILES IDX 21 1 20 2 19 3 17 4 18 5 2 7 1 8 3 9 4 10 5 12 6 13 7 14
REMARK SMILES IDX 16 15 8 16 15 17 9 18 10 19 11 20 12 21 13 22 14 23 22 24
REMARK SMILES IDX 23 25 24 26 25 27 26 29 27 30 28 31 86 32 29 33 85 34 30 35
REMARK SMILES IDX 31 36 32 37 79 38 33 39 84 40 78 41 80 42 34 43 83 44 77 45
REMARK SMILES IDX 76 46 35 48 65 49 46 50 64 51 47 52 50 53 63 54 81 55 48 56
REMARK SMILES IDX 49 57 62 59 82 60 51 61 36 62 37 63 45 64 38 65 44 66 39 67
REMARK SMILES IDX 40 68 41 69 42 70 43 71 66 72 67 73 75 74 68 75 74 76 69 77
REMARK SMILES IDX 70 78 71 79 72 80 73 81 52 82 53 83 61 84 54 85 60 86 55 87
REMARK SMILES IDX 56 88 57 89 58 90 59 91
REMARK H PARENT 19 6 3 11 24 28 80 47 50 58
REMARK Flexibility Score: inf
ROOT
ATOM      1  C   UNL A   1      35.172  23.094  23.708  1.00  0.00     0.023 C 
ENDROOT
BRANCH   1   2
ATOM      2  C   UNL A   1      33.703  22.870  23.369  1.00  0.00     0.116 C 
BRANCH   2   3
ATOM      3  N   UNL A   1      33.218  21.600  23.882  1.00  0.00    -0.354 N 
ATOM      4  C   UNL A   1      32.737  21.282  25.120  1.00  0.00     0.242 C 
ATOM      5  O   UNL A   1      32.245  20.165  25.288  1.00  0.00    -0.273 OA
ATOM      6  H   UNL A   1      33.242  20.855  23.239  1.00  0.00     0.163 HD
BRANCH   4   7
ATOM      7  C   UNL A   1      32.722  22.330  26.245  1.00  0.00     0.168 C 
ATOM      8  C   UNL A   1      33.799  21.978  27.274  1.00  0.00     0.041 C 
BRANCH   7   9
ATOM      9  N   UNL A   1      31.361  22.451  26.784  1.00  0.00    -0.340 N 
ATOM     10  C   UNL A   1      30.462  23.485  26.751  1.00  0.00     0.262 C 
ATOM     11  H   UNL A   1      31.038  21.647  27.251  1.00  0.00     0.164 HD
ATOM     12  O   UNL A   1      29.425  23.356  27.399  1.00  0.00    -0.268 OA
BRANCH  10  13
ATOM     13  C   UNL A   1      30.787  24.663  25.979  1.00  0.00     0.093 A 
ATOM     14  C   UNL A   1      31.315  25.865  26.405  1.00  0.00     0.047 A 
ATOM     15  S   UNL A   1      30.519  24.664  24.286  1.00  0.00    -0.137 S 
ATOM     16  C   UNL A   1      31.367  26.830  25.360  1.00  0.00     0.094 A 
ATOM     17  C   UNL A   1      30.961  26.312  24.151  1.00  0.00     0.087 A 
BRANCH  16  18
ATOM     18  S   UNL A   1      31.808  28.488  25.600  1.00  0.00     0.243 S 
ATOM     19  O   UNL A   1      31.105  29.204  24.566  1.00  0.00    -0.207 OA
ATOM     20  O   UNL A   1      31.529  28.692  27.009  1.00  0.00    -0.207 OA
BRANCH  18  21
ATOM     21  N   UNL A   1      33.488  28.655  25.347  1.00  0.00    -0.204 NA
ATOM     22  C   UNL A   1      34.320  28.512  26.562  1.00  0.00     0.124 C 
ATOM     23  C   UNL A   1      34.007  27.839  24.230  1.00  0.00     0.124 C 
ENDBRANCH  18  21
ENDBRANCH  16  18
ENDBRANCH  10  13
ENDBRANCH   7   9
ENDBRANCH   4   7
ENDBRANCH   2   3
ENDBRANCH   1   2
BRANCH   1  24
ATOM     24  C   UNL A   1      35.455  24.375  24.495  1.00  0.00     0.023 C 
BRANCH  24  25
ATOM     25  C   UNL A   1      36.308  24.193  25.746  1.00  0.00     0.116 C 
BRANCH  25  26
ATOM     26  N   UNL A   1      37.189  23.038  25.670  1.00  0.00    -0.352 N 
ATOM     27  C   UNL A   1      38.501  22.933  26.065  1.00  0.00     0.251 C 
ATOM     28  H   UNL A   1      36.793  22.224  25.284  1.00  0.00     0.163 HD
ATOM     29  O   UNL A   1      39.142  21.918  25.815  1.00  0.00    -0.269 OA
BRANCH  27  30
ATOM     30  C   UNL A   1      39.140  24.067  26.763  1.00  0.00     0.039 A 
ATOM     31  C   UNL A   1      39.937  24.948  26.029  1.00  0.00     0.014 A 
ATOM     32  C   UNL A   1      38.922  24.278  28.127  1.00  0.00     0.014 A 
ATOM     33  C   UNL A   1      40.462  26.082  26.649  1.00  0.00     0.010 A 
ATOM     34  C   UNL A   1      39.396  25.439  28.729  1.00  0.00     0.010 A 
ATOM     35  C   UNL A   1      40.166  26.354  27.995  1.00  0.00    -0.014 A 
BRANCH  35  36
ATOM     36  C   UNL A   1      40.644  27.596  28.652  1.00  0.00     0.031 A 
ATOM     37  C   UNL A   1      42.021  27.650  29.251  1.00  0.00     0.074 A 
ATOM     38  C   UNL A   1      39.812  28.649  28.773  1.00  0.00     0.049 A 
ATOM     39  N   UNL A   1      42.586  28.612  29.932  1.00  0.00    -0.248 NA
ATOM     40  C   UNL A   1      42.864  26.454  29.084  1.00  0.00     0.031 C 
ATOM     41  C   UNL A   1      38.436  28.705  28.275  1.00  0.00     0.029 A 
ATOM     42  N   UNL A   1      40.000  29.872  29.364  1.00  0.00    -0.354 N 
ATOM     43  C   UNL A   1      43.840  28.134  30.293  1.00  0.00     0.074 A 
ATOM     44  C   UNL A   1      43.938  26.781  29.790  1.00  0.00     0.031 C 
ATOM     45  C   UNL A   1      37.911  29.907  28.566  1.00  0.00     0.029 A 
ATOM     46  C   UNL A   1      38.899  30.693  29.298  1.00  0.00     0.049 A 
ATOM     47  H   UNL A   1      40.844  30.138  29.797  1.00  0.00     0.167 HD
ATOM     48  C   UNL A   1      44.827  28.768  30.970  1.00  0.00     0.031 A 
ATOM     49  C   UNL A   1      38.704  31.936  29.777  1.00  0.00     0.031 A 
ATOM     50  C   UNL A   1      44.737  30.119  31.455  1.00  0.00     0.049 A 
ATOM     51  C   UNL A   1      39.822  32.628  30.505  1.00  0.00     0.074 A 
ATOM     52  C   UNL A   1      45.702  30.866  32.109  1.00  0.00     0.029 A 
ATOM     53  N   UNL A   1      43.618  30.928  31.336  1.00  0.00    -0.354 N 
ATOM     54  N   UNL A   1      41.020  32.177  30.793  1.00  0.00    -0.248 NA
ATOM     55  C   UNL A   1      39.566  34.001  30.962  1.00  0.00     0.031 C 
ATOM     56  C   UNL A   1      45.155  32.117  32.411  1.00  0.00     0.029 A 
ATOM     57  C   UNL A   1      43.862  32.162  31.911  1.00  0.00     0.049 A 
ATOM     58  H   UNL A   1      42.772  30.663  30.905  1.00  0.00     0.167 HD
ATOM     59  C   UNL A   1      41.667  33.218  31.448  1.00  0.00     0.074 A 
ATOM     60  C   UNL A   1      40.734  34.324  31.502  1.00  0.00     0.031 C 
ATOM     61  C   UNL A   1      42.923  33.252  31.957  1.00  0.00     0.031 A 
BRANCH  48  62
ATOM     62  C   UNL A   1      46.093  27.996  31.222  1.00  0.00    -0.014 A 
ATOM     63  C   UNL A   1      47.161  28.041  30.307  1.00  0.00     0.010 A 
ATOM     64  C   UNL A   1      46.226  27.229  32.393  1.00  0.00     0.010 A 
ATOM     65  C   UNL A   1      48.320  27.297  30.535  1.00  0.00     0.020 A 
ATOM     66  C   UNL A   1      47.394  26.502  32.637  1.00  0.00     0.020 A 
ATOM     67  C   UNL A   1      48.426  26.525  31.695  1.00  0.00     0.054 A 
BRANCH  67  68
ATOM     68  S   UNL A   1      49.943  25.570  31.974  1.00  0.00     0.124 S 
ATOM     69  O   UNL A   1      49.551  24.702  33.081  1.00  0.00    -0.237 OA
ATOM     70  O   UNL A   1      50.144  24.900  30.692  1.00  0.00    -0.237 OA
ATOM     71  O   UNL A   1      50.937  26.589  32.302  1.00  0.00    -0.744 OA
ENDBRANCH  67  68
ENDBRANCH  48  62
BRANCH  49  72
ATOM     72  C   UNL A   1      37.398  32.614  29.563  1.00  0.00    -0.014 A 
ATOM     73  C   UNL A   1      37.103  33.210  28.325  1.00  0.00     0.010 A 
ATOM     74  C   UNL A   1      36.436  32.645  30.588  1.00  0.00     0.010 A 
ATOM     75  C   UNL A   1      35.871  33.839  28.119  1.00  0.00     0.020 A 
ATOM     76  C   UNL A   1      35.196  33.254  30.379  1.00  0.00     0.020 A 
ATOM     77  C   UNL A   1      34.925  33.856  29.148  1.00  0.00     0.054 A 
BRANCH  77  78
ATOM     78  S   UNL A   1      33.308  34.621  28.842  1.00  0.00     0.124 S 
ATOM     79  O   UNL A   1      33.687  35.930  28.320  1.00  0.00    -0.237 OA
ATOM     80  O   UNL A   1      32.700  33.706  27.878  1.00  0.00    -0.237 OA
ATOM     81  O   UNL A   1      32.681  34.627  30.163  1.00  0.00    -0.744 OA
ENDBRANCH  77  78
ENDBRANCH  49  72
BRANCH  61  82
ATOM     82  C   UNL A   1      43.372  34.538  32.594  1.00  0.00    -0.014 A 
ATOM     83  C   UNL A   1      43.893  35.587  31.818  1.00  0.00     0.010 A 
ATOM     84  C   UNL A   1      43.219  34.716  33.981  1.00  0.00     0.010 A 
ATOM     85  C   UNL A   1      44.278  36.787  32.423  1.00  0.00     0.020 A 
ATOM     86  C   UNL A   1      43.584  35.920  34.586  1.00  0.00     0.020 A 
ATOM     87  C   UNL A   1      44.123  36.944  33.805  1.00  0.00     0.054 A 
BRANCH  87  88
ATOM     88  S   UNL A   1      44.586  38.526  34.564  1.00  0.00     0.124 S 
ATOM     89  O   UNL A   1      44.075  39.489  33.592  1.00  0.00    -0.237 OA
ATOM     90  O   UNL A   1      43.881  38.490  35.843  1.00  0.00    -0.237 OA
ATOM     91  O   UNL A   1      46.042  38.449  34.660  1.00  0.00    -0.744 OA
ENDBRANCH  87  88
ENDBRANCH  61  82
ENDBRANCH  35  36
ENDBRANCH  27  30
ENDBRANCH  25  26
ENDBRANCH  24  25
ENDBRANCH   1  24
TORSDOF 18
ENDMDL
MODEL 3
REMARK VINA RESULT:     -10.3      3.415      8.998
REMARK SMILES C[C@H](NC(=O)c1cc(S(=O)(=O)N(C)C)cs1)C(=O)NCCCCNC(=O)c1ccc(-c2c3nc(c(-c4ccc(S(=O)(=O)[O-])cc4)c4ccc([nH]4)c(-c4ccc(S(=O)(=O)[O-])cc4)c4nc(c(-c5ccc(S(=O)(=O)[O-])cc5)c5ccc2[nH]5)C=C4)C=C3)cc1
REMARK SMILES IDX 21 1 20 2 19 3 17 4 18 5 2 7 1 8 3 9 4 10 5 12 6 13 7 14
REMARK SMILES IDX 16 15 8 16 15 17 9 18 10 19 11 20 12 21 13 22 14 23 22 24
REMARK SMILES IDX 23 25 24 26 25 27 26 29 27 30 28 31 86 32 29 33 85 34 30 35
REMARK SMILES IDX 31 36 32 37 79 38 33 39 84 40 78 41 80 42 34 43 83 44 77 45
REMARK SMILES IDX 76 46 35 48 65 49 46 50 64 51 47 52 50 53 63 54 81 55 48 56
REMARK SMILES IDX 49 57 62 59 82 60 51 61 36 62 37 63 45 64 38 65 44 66 39 67
REMARK SMILES IDX 40 68 41 69 42 70 43 71 66 72 67 73 75 74 68 75 74 76 69 77
REMARK SMILES IDX 70 78 71 79 72 80 73 81 52 82 53 83 61 84 54 85 60 86 55 87
REMARK SMILES IDX 56 88 57 89 58 90 59 91
REMARK H PARENT 19 6 3 11 24 28 80 47 50 58
REMARK Flexibility Score: inf
ROOT
ATOM      1  C   UNL A   1      32.000  28.114  26.351  1.00  0.00     0.023 C 
ENDROOT
BRANCH   1   2
ATOM      2  C   UNL A   1      31.214  27.181  25.438  1.00  0.00     0.116 C 
BRANCH   2   3
ATOM      3  N   UNL A   1      30.704  27.876  24.267  1.00  0.00    -0.354 N 
ATOM      4  C   UNL A   1      31.310  28.138  23.072  1.00  0.00     0.242 C 
ATOM      5  O   UNL A   1      30.631  28.620  22.164  1.00  0.00    -0.273 OA
ATOM      6  H   UNL A   1      29.782  28.209  24.350  1.00  0.00     0.163 HD
BRANCH   4   7
ATOM      7  C   UNL A   1      32.779  27.746  22.839  1.00  0.00     0.168 C 
ATOM      8  C   UNL A   1      33.632  29.015  22.769  1.00  0.00     0.041 C 
BRANCH   7   9
ATOM      9  N   UNL A   1      32.871  26.868  21.665  1.00  0.00    -0.340 N 
ATOM     10  C   UNL A   1      32.894  25.502  21.556  1.00  0.00     0.262 C 
ATOM     11  H   UNL A   1      32.927  27.345  20.806  1.00  0.00     0.164 HD
ATOM     12  O   UNL A   1      33.105  25.026  20.441  1.00  0.00    -0.268 OA
BRANCH  10  13
ATOM     13  C   UNL A   1      32.687  24.707  22.745  1.00  0.00     0.093 A 
ATOM     14  C   UNL A   1      33.617  24.227  23.644  1.00  0.00     0.047 A 
ATOM     15  S   UNL A   1      31.096  24.248  23.189  1.00  0.00    -0.137 S 
ATOM     16  C   UNL A   1      33.033  23.367  24.616  1.00  0.00     0.094 A 
ATOM     17  C   UNL A   1      31.665  23.286  24.485  1.00  0.00     0.087 A 
BRANCH  16  18
ATOM     18  S   UNL A   1      33.946  22.459  25.775  1.00  0.00     0.243 S 
ATOM     19  O   UNL A   1      34.748  23.444  26.457  1.00  0.00    -0.207 OA
ATOM     20  O   UNL A   1      32.921  21.689  26.454  1.00  0.00    -0.207 OA
BRANCH  18  21
ATOM     21  N   UNL A   1      34.978  21.382  24.945  1.00  0.00    -0.204 NA
ATOM     22  C   UNL A   1      36.376  21.357  25.430  1.00  0.00     0.124 C 
ATOM     23  C   UNL A   1      34.425  20.019  24.802  1.00  0.00     0.124 C 
ENDBRANCH  18  21
ENDBRANCH  16  18
ENDBRANCH  10  13
ENDBRANCH   7   9
ENDBRANCH   4   7
ENDBRANCH   2   3
ENDBRANCH   1   2
BRANCH   1  24
ATOM     24  C   UNL A   1      33.459  27.709  26.571  1.00  0.00     0.023 C 
BRANCH  24  25
ATOM     25  C   UNL A   1      34.485  28.807  26.307  1.00  0.00     0.116 C 
BRANCH  25  26
ATOM     26  N   UNL A   1      33.967  30.141  26.568  1.00  0.00    -0.352 N 
ATOM     27  C   UNL A   1      34.388  31.056  27.503  1.00  0.00     0.251 C 
ATOM     28  H   UNL A   1      33.216  30.427  25.999  1.00  0.00     0.163 HD
ATOM     29  O   UNL A   1      33.760  32.095  27.677  1.00  0.00    -0.269 OA
BRANCH  27  30
ATOM     30  C   UNL A   1      35.584  30.760  28.318  1.00  0.00     0.039 A 
ATOM     31  C   UNL A   1      35.492  29.796  29.325  1.00  0.00     0.014 A 
ATOM     32  C   UNL A   1      36.797  31.406  28.064  1.00  0.00     0.014 A 
ATOM     33  C   UNL A   1      36.636  29.429  30.034  1.00  0.00     0.010 A 
ATOM     34  C   UNL A   1      37.948  30.997  28.730  1.00  0.00     0.010 A 
ATOM     35  C   UNL A   1      37.879  30.002  29.717  1.00  0.00    -0.014 A 
BRANCH  35  36
ATOM     36  C   UNL A   1      39.123  29.566  30.401  1.00  0.00     0.031 A 
ATOM     37  C   UNL A   1      39.587  30.272  31.643  1.00  0.00     0.074 A 
ATOM     38  C   UNL A   1      39.871  28.585  29.860  1.00  0.00     0.049 A 
ATOM     39  N   UNL A   1      40.682  30.090  32.334  1.00  0.00    -0.248 NA
ATOM     40  C   UNL A   1      38.716  31.340  32.164  1.00  0.00     0.031 C 
ATOM     41  C   UNL A   1      39.554  27.853  28.632  1.00  0.00     0.029 A 
ATOM     42  N   UNL A   1      41.062  28.041  30.271  1.00  0.00    -0.354 N 
ATOM     43  C   UNL A   1      40.645  31.031  33.356  1.00  0.00     0.074 A 
ATOM     44  C   UNL A   1      39.438  31.808  33.172  1.00  0.00     0.031 C 
ATOM     45  C   UNL A   1      40.516  26.945  28.400  1.00  0.00     0.029 A 
ATOM     46  C   UNL A   1      41.533  27.051  29.441  1.00  0.00     0.049 A 
ATOM     47  H   UNL A   1      41.536  28.333  31.084  1.00  0.00     0.167 HD
ATOM     48  C   UNL A   1      41.527  31.222  34.365  1.00  0.00     0.031 A 
ATOM     49  C   UNL A   1      42.659  26.316  29.507  1.00  0.00     0.031 A 
ATOM     50  C   UNL A   1      42.718  30.439  34.559  1.00  0.00     0.049 A 
ATOM     51  C   UNL A   1      43.612  26.530  30.650  1.00  0.00     0.074 A 
ATOM     52  C   UNL A   1      43.649  30.524  35.579  1.00  0.00     0.029 A 
ATOM     53  N   UNL A   1      43.140  29.422  33.716  1.00  0.00    -0.354 N 
ATOM     54  N   UNL A   1      43.534  27.392  31.635  1.00  0.00    -0.248 NA
ATOM     55  C   UNL A   1      44.799  25.665  30.694  1.00  0.00     0.031 C 
ATOM     56  C   UNL A   1      44.651  29.577  35.337  1.00  0.00     0.029 A 
ATOM     57  C   UNL A   1      44.322  28.877  34.186  1.00  0.00     0.049 A 
ATOM     58  H   UNL A   1      42.667  29.131  32.902  1.00  0.00     0.167 HD
ATOM     59  C   UNL A   1      44.651  27.160  32.428  1.00  0.00     0.074 A 
ATOM     60  C   UNL A   1      45.381  26.069  31.816  1.00  0.00     0.031 C 
ATOM     61  C   UNL A   1      45.035  27.793  33.564  1.00  0.00     0.031 A 
BRANCH  48  62
ATOM     62  C   UNL A   1      41.229  32.329  35.339  1.00  0.00    -0.014 A 
ATOM     63  C   UNL A   1      40.460  32.089  36.493  1.00  0.00     0.010 A 
ATOM     64  C   UNL A   1      41.735  33.621  35.109  1.00  0.00     0.010 A 
ATOM     65  C   UNL A   1      40.164  33.130  37.374  1.00  0.00     0.020 A 
ATOM     66  C   UNL A   1      41.460  34.661  36.002  1.00  0.00     0.020 A 
ATOM     67  C   UNL A   1      40.658  34.412  37.119  1.00  0.00     0.054 A 
BRANCH  67  68
ATOM     68  S   UNL A   1      40.264  35.749  38.281  1.00  0.00     0.124 S 
ATOM     69  O   UNL A   1      39.845  36.816  37.377  1.00  0.00    -0.237 OA
ATOM     70  O   UNL A   1      39.203  35.165  39.097  1.00  0.00    -0.237 OA
ATOM     71  O   UNL A   1      41.526  35.981  38.979  1.00  0.00    -0.744 OA
ENDBRANCH  67  68
ENDBRANCH  48  62
BRANCH  49  72
ATOM     72  C   UNL A   1      42.934  25.291  28.466  1.00  0.00    -0.014 A 
ATOM     73  C   UNL A   1      42.486  23.970  28.635  1.00  0.00     0.010 A 
ATOM     74  C   UNL A   1      43.624  25.638  27.291  1.00  0.00     0.010 A 
ATOM     75  C   UNL A   1      42.735  23.008  27.652  1.00  0.00     0.020 A 
ATOM     76  C   UNL A   1      43.856  24.683  26.296  1.00  0.00     0.020 A 
ATOM     77  C   UNL A   1      43.419  23.372  26.488  1.00  0.00     0.054 A 
BRANCH  77  78
ATOM     78  S   UNL A   1      43.677  22.125  25.195  1.00  0.00     0.124 S 
ATOM     79  O   UNL A   1      45.032  21.667  25.483  1.00  0.00    -0.237 OA
ATOM     80  O   UNL A   1      42.612  21.162  25.462  1.00  0.00    -0.237 OA
ATOM     81  O   UNL A   1      43.521  22.885  23.956  1.00  0.00    -0.744 OA
ENDBRANCH  77  78
ENDBRANCH  49  72
BRANCH  61  82
ATOM     82  C   UNL A   1      46.290  27.304  34.233  1.00  0.00    -0.014 A 
ATOM     83  C   UNL A   1      47.547  27.829  33.887  1.00  0.00     0.010 A 
ATOM     84  C   UNL A   1      46.201  26.345  35.258  1.00  0.00     0.010 A 
ATOM     85  C   UNL A   1      48.699  27.385  34.540  1.00  0.00     0.020 A 
ATOM     86  C   UNL A   1      47.349  25.913  35.926  1.00  0.00     0.020 A 
ATOM     87  C   UNL A   1      48.593  26.427  35.554  1.00  0.00     0.054 A 
BRANCH  87  88
ATOM     88  S   UNL A   1      50.097  25.898  36.421  1.00  0.00     0.124 S 
ATOM     89  O   UNL A   1      50.726  27.175  36.744  1.00  0.00    -0.237 OA
ATOM     90  O   UNL A   1      49.569  25.151  37.560  1.00  0.00    -0.237 OA
ATOM     91  O   UNL A   1      50.800  25.090  35.427  1.00  0.00    -0.744 OA
ENDBRANCH  87  88
ENDBRANCH  61  82
ENDBRANCH  35  36
ENDBRANCH  27  30
ENDBRANCH  25  26
ENDBRANCH  24  25
ENDBRANCH   1  24
TORSDOF 18
ENDMDL
