MODEL 1
REMARK VINA RESULT:     -11.2      0.000      0.000
REMARK SMILES CCCc1cc(OC(F)(F)F)cc2c1O[C@@H](C(F)(F)F)C(C(=O)NCCCCNC(=O)c1ccc(-c3c4nc(c(-c5ccc(S(=O)(=O)[O-])cc5)c5ccc([nH]5)c(-c5ccc(S(=O)(=O)[O-])cc5)c5nc(c(-c6ccc(S(=O)(=O)[O-])cc6)c6ccc3[nH]6)C=C5)C=C4)cc1)=C2
REMARK SMILES IDX 27 1 26 2 25 3 24 4 22 5 23 6 21 8 4 9 5 10 14 11 6 12 13 13
REMARK SMILES IDX 15 14 12 15 92 16 16 17 3 18 2 19 1 20 7 21 8 22 9 23 10 24
REMARK SMILES IDX 11 25 17 26 18 27 19 28 20 29 28 30 29 31 30 32 31 34 32 35
REMARK SMILES IDX 33 36 91 37 34 38 90 39 35 40 36 41 37 42 84 43 38 44 89 45
REMARK SMILES IDX 83 46 85 47 39 48 88 49 82 50 81 51 40 53 70 54 51 55 69 56
REMARK SMILES IDX 52 57 55 58 68 59 86 60 53 61 54 62 67 64 87 65 56 66 41 67
REMARK SMILES IDX 42 68 50 69 43 70 49 71 44 72 45 73 46 74 47 75 48 76 71 77
REMARK SMILES IDX 72 78 80 79 73 80 79 81 74 82 75 83 76 84 77 85 78 86 57 87
REMARK SMILES IDX 58 88 66 89 59 90 65 91 60 92 61 93 62 94 63 95 64 96
REMARK H PARENT 24 7 29 33 85 52 55 63
REMARK Flexibility Score: inf
ROOT
ATOM      1  C   UNL A   1      32.987  28.093  25.926  1.00  0.00     0.023 C 
ENDROOT
BRANCH   1   2
ATOM      2  C   UNL A   1      31.459  28.131  26.004  1.00  0.00     0.023 C 
BRANCH   2   3
ATOM      3  C   UNL A   1      30.810  26.772  26.291  1.00  0.00     0.116 C 
BRANCH   3   4
ATOM      4  N   UNL A   1      30.022  26.352  25.148  1.00  0.00    -0.352 N 
ATOM      5  C   UNL A   1      30.265  25.454  24.160  1.00  0.00     0.251 C 
ATOM      6  O   UNL A   1      29.498  25.427  23.201  1.00  0.00    -0.270 OA
ATOM      7  H   UNL A   1      29.148  26.801  25.076  1.00  0.00     0.163 HD
BRANCH   5   8
ATOM      8  C   UNL A   1      31.376  24.465  24.217  1.00  0.00     0.067 C 
ATOM      9  C   UNL A   1      34.756  21.951  24.286  1.00  0.00    -0.002 A 
ATOM     10  C   UNL A   1      34.623  20.671  24.871  1.00  0.00     0.054 A 
ATOM     11  C   UNL A   1      33.617  22.764  24.210  1.00  0.00     0.131 A 
ATOM     12  C   UNL A   1      33.408  20.231  25.398  1.00  0.00     0.130 A 
ATOM     13  C   UNL A   1      32.414  22.358  24.790  1.00  0.00     0.021 A 
ATOM     14  O   UNL A   1      33.677  23.913  23.478  1.00  0.00    -0.475 OA
ATOM     15  C   UNL A   1      32.314  21.095  25.380  1.00  0.00     0.058 A 
ATOM     16  C   UNL A   1      31.254  23.235  24.736  1.00  0.00     0.025 C 
ATOM     17  C   UNL A   1      32.747  24.984  23.804  1.00  0.00     0.314 C 
BRANCH   9  18
ATOM     18  C   UNL A   1      36.126  22.320  23.745  1.00  0.00     0.039 C 
BRANCH  18  19
ATOM     19  C   UNL A   1      37.017  23.315  24.500  1.00  0.00     0.001 C 
ATOM     20  C   UNL A   1      36.508  23.686  25.887  1.00  0.00     0.004 C 
ENDBRANCH  18  19
ENDBRANCH   9  18
BRANCH  12  21
ATOM     21  O   UNL A   1      33.149  19.011  25.952  1.00  0.00    -0.406 OA
BRANCH  21  22
ATOM     22  C   UNL A   1      33.005  17.903  25.081  1.00  0.00     0.573 C 
ATOM     23  F   UNL A   1      31.941  18.054  24.263  1.00  0.00    -0.132 F 
ATOM     24  F   UNL A   1      34.119  17.722  24.341  1.00  0.00    -0.132 F 
ATOM     25  F   UNL A   1      32.807  16.790  25.822  1.00  0.00    -0.132 F 
ENDBRANCH  21  22
ENDBRANCH  12  21
BRANCH  17  26
ATOM     26  C   UNL A   1      32.790  25.982  22.623  1.00  0.00     0.429 C 
ATOM     27  F   UNL A   1      32.074  25.566  21.555  1.00  0.00    -0.167 F 
ATOM     28  F   UNL A   1      32.238  27.176  22.979  1.00  0.00    -0.167 F 
ATOM     29  F   UNL A   1      34.052  26.249  22.216  1.00  0.00    -0.167 F 
ENDBRANCH  17  26
ENDBRANCH   5   8
ENDBRANCH   3   4
ENDBRANCH   2   3
ENDBRANCH   1   2
BRANCH   1  30
ATOM     30  C   UNL A   1      33.694  28.434  27.231  1.00  0.00     0.116 C 
BRANCH  30  31
ATOM     31  N   UNL A   1      33.552  29.831  27.609  1.00  0.00    -0.352 N 
ATOM     32  C   UNL A   1      34.489  30.647  28.197  1.00  0.00     0.251 C 
ATOM     33  H   UNL A   1      32.677  30.243  27.421  1.00  0.00     0.163 HD
ATOM     34  O   UNL A   1      34.193  31.777  28.557  1.00  0.00    -0.269 OA
BRANCH  32  35
ATOM     35  C   UNL A   1      35.844  30.109  28.429  1.00  0.00     0.039 A 
ATOM     36  C   UNL A   1      36.779  30.174  27.395  1.00  0.00     0.014 A 
ATOM     37  C   UNL A   1      36.200  29.606  29.683  1.00  0.00     0.014 A 
ATOM     38  C   UNL A   1      38.098  29.793  27.639  1.00  0.00     0.010 A 
ATOM     39  C   UNL A   1      37.528  29.287  29.942  1.00  0.00     0.010 A 
ATOM     40  C   UNL A   1      38.488  29.380  28.923  1.00  0.00    -0.014 A 
BRANCH  40  41
ATOM     41  C   UNL A   1      39.898  29.040  29.227  1.00  0.00     0.031 A 
ATOM     42  C   UNL A   1      40.801  30.071  29.841  1.00  0.00     0.074 A 
ATOM     43  C   UNL A   1      40.381  27.832  28.878  1.00  0.00     0.049 A 
ATOM     44  N   UNL A   1      42.080  29.995  30.105  1.00  0.00    -0.248 NA
ATOM     45  C   UNL A   1      40.192  31.369  30.179  1.00  0.00     0.031 C 
ATOM     46  C   UNL A   1      39.613  26.762  28.237  1.00  0.00     0.029 A 
ATOM     47  N   UNL A   1      41.641  27.303  29.005  1.00  0.00    -0.354 N 
ATOM     48  C   UNL A   1      42.433  31.237  30.618  1.00  0.00     0.074 A 
ATOM     49  C   UNL A   1      41.245  32.062  30.588  1.00  0.00     0.031 C 
ATOM     50  C   UNL A   1      40.411  25.699  28.047  1.00  0.00     0.029 A 
ATOM     51  C   UNL A   1      41.754  26.023  28.517  1.00  0.00     0.049 A 
ATOM     52  H   UNL A   1      42.393  27.795  29.408  1.00  0.00     0.167 HD
ATOM     53  C   UNL A   1      43.634  31.648  31.088  1.00  0.00     0.031 A 
ATOM     54  C   UNL A   1      42.822  25.204  28.450  1.00  0.00     0.031 A 
ATOM     55  C   UNL A   1      44.808  30.819  31.132  1.00  0.00     0.049 A 
ATOM     56  C   UNL A   1      44.145  25.680  28.985  1.00  0.00     0.074 A 
ATOM     57  C   UNL A   1      46.058  31.123  31.640  1.00  0.00     0.029 A 
ATOM     58  N   UNL A   1      44.875  29.521  30.650  1.00  0.00    -0.354 N 
ATOM     59  N   UNL A   1      44.445  26.840  29.520  1.00  0.00    -0.248 NA
ATOM     60  C   UNL A   1      45.267  24.736  28.915  1.00  0.00     0.031 C 
ATOM     61  C   UNL A   1      46.893  30.021  31.431  1.00  0.00     0.029 A 
ATOM     62  C   UNL A   1      46.150  29.013  30.834  1.00  0.00     0.049 A 
ATOM     63  H   UNL A   1      44.127  29.031  30.238  1.00  0.00     0.167 HD
ATOM     64  C   UNL A   1      45.787  26.754  29.875  1.00  0.00     0.074 A 
ATOM     65  C   UNL A   1      46.236  25.427  29.502  1.00  0.00     0.031 C 
ATOM     66  C   UNL A   1      46.576  27.689  30.458  1.00  0.00     0.031 A 
BRANCH  53  67
ATOM     67  C   UNL A   1      43.731  33.064  31.589  1.00  0.00    -0.014 A 
ATOM     68  C   UNL A   1      44.019  34.125  30.712  1.00  0.00     0.010 A 
ATOM     69  C   UNL A   1      43.516  33.341  32.951  1.00  0.00     0.010 A 
ATOM     70  C   UNL A   1      44.138  35.430  31.194  1.00  0.00     0.020 A 
ATOM     71  C   UNL A   1      43.608  34.649  33.434  1.00  0.00     0.020 A 
ATOM     72  C   UNL A   1      43.939  35.683  32.554  1.00  0.00     0.054 A 
BRANCH  72  73
ATOM     73  S   UNL A   1      44.094  37.388  33.156  1.00  0.00     0.124 S 
ATOM     74  O   UNL A   1      45.341  37.325  33.914  1.00  0.00    -0.237 OA
ATOM     75  O   UNL A   1      44.150  38.162  31.919  1.00  0.00    -0.237 OA
ATOM     76  O   UNL A   1      42.888  37.583  33.956  1.00  0.00    -0.744 OA
ENDBRANCH  72  73
ENDBRANCH  53  67
BRANCH  54  77
ATOM     77  C   UNL A   1      42.674  23.840  27.876  1.00  0.00    -0.014 A 
ATOM     78  C   UNL A   1      42.346  22.753  28.705  1.00  0.00     0.010 A 
ATOM     79  C   UNL A   1      42.836  23.625  26.496  1.00  0.00     0.010 A 
ATOM     80  C   UNL A   1      42.195  21.472  28.166  1.00  0.00     0.020 A 
ATOM     81  C   UNL A   1      42.663  22.349  25.950  1.00  0.00     0.020 A 
ATOM     82  C   UNL A   1      42.353  21.279  26.791  1.00  0.00     0.054 A 
BRANCH  82  83
ATOM     83  S   UNL A   1      42.092  19.619  26.106  1.00  0.00     0.124 S 
ATOM     84  O   UNL A   1      40.660  19.626  25.827  1.00  0.00    -0.237 OA
ATOM     85  O   UNL A   1      42.966  19.619  24.935  1.00  0.00    -0.237 OA
ATOM     86  O   UNL A   1      42.518  18.734  27.188  1.00  0.00    -0.744 OA
ENDBRANCH  82  83
ENDBRANCH  54  77
BRANCH  66  87
ATOM     87  C   UNL A   1      47.997  27.305  30.762  1.00  0.00    -0.014 A 
ATOM     88  C   UNL A   1      48.315  26.532  31.891  1.00  0.00     0.010 A 
ATOM     89  C   UNL A   1      49.019  27.669  29.866  1.00  0.00     0.010 A 
ATOM     90  C   UNL A   1      49.636  26.143  32.129  1.00  0.00     0.020 A 
ATOM     91  C   UNL A   1      50.336  27.262  30.089  1.00  0.00     0.020 A 
ATOM     92  C   UNL A   1      50.638  26.511  31.226  1.00  0.00     0.054 A 
BRANCH  92  93
ATOM     93  S   UNL A   1      52.336  25.946  31.525  1.00  0.00     0.124 S 
ATOM     94  O   UNL A   1      52.120  24.598  32.043  1.00  0.00    -0.237 OA
ATOM     95  O   UNL A   1      52.940  26.021  30.197  1.00  0.00    -0.237 OA
ATOM     96  O   UNL A   1      52.855  26.909  32.494  1.00  0.00    -0.744 OA
ENDBRANCH  92  93
ENDBRANCH  66  87
ENDBRANCH  40  41
ENDBRANCH  32  35
ENDBRANCH  30  31
ENDBRANCH   1  30
TORSDOF 19
ENDMDL
MODEL 2
REMARK VINA RESULT:     -11.1      2.953      9.466
REMARK SMILES CCCc1cc(OC(F)(F)F)cc2c1O[C@@H](C(F)(F)F)C(C(=O)NCCCCNC(=O)c1ccc(-c3c4nc(c(-c5ccc(S(=O)(=O)[O-])cc5)c5ccc([nH]5)c(-c5ccc(S(=O)(=O)[O-])cc5)c5nc(c(-c6ccc(S(=O)(=O)[O-])cc6)c6ccc3[nH]6)C=C5)C=C4)cc1)=C2
REMARK SMILES IDX 27 1 26 2 25 3 24 4 22 5 23 6 21 8 4 9 5 10 14 11 6 12 13 13
REMARK SMILES IDX 15 14 12 15 92 16 16 17 3 18 2 19 1 20 7 21 8 22 9 23 10 24
REMARK SMILES IDX 11 25 17 26 18 27 19 28 20 29 28 30 29 31 30 32 31 34 32 35
REMARK SMILES IDX 33 36 91 37 34 38 90 39 35 40 36 41 37 42 84 43 38 44 89 45
REMARK SMILES IDX 83 46 85 47 39 48 88 49 82 50 81 51 40 53 70 54 51 55 69 56
REMARK SMILES IDX 52 57 55 58 68 59 86 60 53 61 54 62 67 64 87 65 56 66 41 67
REMARK SMILES IDX 42 68 50 69 43 70 49 71 44 72 45 73 46 74 47 75 48 76 71 77
REMARK SMILES IDX 72 78 80 79 73 80 79 81 74 82 75 83 76 84 77 85 78 86 57 87
REMARK SMILES IDX 58 88 66 89 59 90 65 91 60 92 61 93 62 94 63 95 64 96
REMARK H PARENT 24 7 29 33 85 52 55 63
REMARK Flexibility Score: inf
ROOT
ATOM      1  C   UNL A   1      36.049  23.806  24.790  1.00  0.00     0.023 C 
ENDROOT
BRANCH   1   2
ATOM      2  C   UNL A   1      35.459  22.699  23.914  1.00  0.00     0.023 C 
BRANCH   2   3
ATOM      3  C   UNL A   1      34.679  23.207  22.697  1.00  0.00     0.116 C 
BRANCH   3   4
ATOM      4  N   UNL A   1      33.362  22.601  22.667  1.00  0.00    -0.352 N 
ATOM      5  C   UNL A   1      32.158  23.023  23.131  1.00  0.00     0.251 C 
ATOM      6  O   UNL A   1      31.228  22.221  23.140  1.00  0.00    -0.270 OA
ATOM      7  H   UNL A   1      33.335  21.719  22.229  1.00  0.00     0.163 HD
BRANCH   5   8
ATOM      8  C   UNL A   1      31.902  24.422  23.569  1.00  0.00     0.067 C 
ATOM      9  C   UNL A   1      31.357  28.297  25.131  1.00  0.00    -0.002 A 
ATOM     10  C   UNL A   1      30.943  29.320  24.247  1.00  0.00     0.054 A 
ATOM     11  C   UNL A   1      31.481  26.996  24.624  1.00  0.00     0.131 A 
ATOM     12  C   UNL A   1      30.700  29.065  22.896  1.00  0.00     0.130 A 
ATOM     13  C   UNL A   1      31.302  26.744  23.262  1.00  0.00     0.021 A 
ATOM     14  O   UNL A   1      31.685  25.967  25.494  1.00  0.00    -0.475 OA
ATOM     15  C   UNL A   1      30.911  27.777  22.405  1.00  0.00     0.058 A 
ATOM     16  C   UNL A   1      31.475  25.393  22.749  1.00  0.00     0.025 C 
ATOM     17  C   UNL A   1      32.322  24.759  24.993  1.00  0.00     0.314 C 
BRANCH   9  18
ATOM     18  C   UNL A   1      31.590  28.692  26.578  1.00  0.00     0.039 C 
BRANCH  18  19
ATOM     19  C   UNL A   1      32.120  30.090  26.925  1.00  0.00     0.001 C 
ATOM     20  C   UNL A   1      33.636  30.173  27.051  1.00  0.00     0.004 C 
ENDBRANCH  18  19
ENDBRANCH   9  18
BRANCH  12  21
ATOM     21  O   UNL A   1      30.265  29.957  21.960  1.00  0.00    -0.406 OA
BRANCH  21  22
ATOM     22  C   UNL A   1      28.917  30.385  22.027  1.00  0.00     0.573 C 
ATOM     23  F   UNL A   1      28.612  31.219  21.008  1.00  0.00    -0.132 F 
ATOM     24  F   UNL A   1      28.074  29.331  22.013  1.00  0.00    -0.132 F 
ATOM     25  F   UNL A   1      28.731  31.056  23.186  1.00  0.00    -0.132 F 
ENDBRANCH  21  22
ENDBRANCH  12  21
BRANCH  17  26
ATOM     26  C   UNL A   1      32.102  23.665  26.065  1.00  0.00     0.429 C 
ATOM     27  F   UNL A   1      33.017  22.672  26.000  1.00  0.00    -0.167 F 
ATOM     28  F   UNL A   1      32.228  24.184  27.318  1.00  0.00    -0.167 F 
ATOM     29  F   UNL A   1      30.867  23.116  25.999  1.00  0.00    -0.167 F 
ENDBRANCH  17  26
ENDBRANCH   5   8
ENDBRANCH   3   4
ENDBRANCH   2   3
ENDBRANCH   1   2
BRANCH   1  30
ATOM     30  C   UNL A   1      36.588  23.329  26.132  1.00  0.00     0.116 C 
BRANCH  30  31
ATOM     31  N   UNL A   1      37.785  22.512  26.009  1.00  0.00    -0.352 N 
ATOM     32  C   UNL A   1      39.079  22.857  26.319  1.00  0.00     0.251 C 
ATOM     33  H   UNL A   1      37.653  21.601  25.658  1.00  0.00     0.163 HD
ATOM     34  O   UNL A   1      40.004  22.100  26.063  1.00  0.00    -0.269 OA
BRANCH  32  35
ATOM     35  C   UNL A   1      39.329  24.181  26.923  1.00  0.00     0.039 A 
ATOM     36  C   UNL A   1      38.916  24.409  28.237  1.00  0.00     0.014 A 
ATOM     37  C   UNL A   1      40.026  25.162  26.213  1.00  0.00     0.014 A 
ATOM     38  C   UNL A   1      39.261  25.605  28.865  1.00  0.00     0.010 A 
ATOM     39  C   UNL A   1      40.423  26.325  26.861  1.00  0.00     0.010 A 
ATOM     40  C   UNL A   1      40.047  26.555  28.193  1.00  0.00    -0.014 A 
BRANCH  40  41
ATOM     41  C   UNL A   1      40.489  27.801  28.863  1.00  0.00     0.031 A 
ATOM     42  C   UNL A   1      41.851  27.869  29.493  1.00  0.00     0.074 A 
ATOM     43  C   UNL A   1      39.636  28.838  28.969  1.00  0.00     0.049 A 
ATOM     44  N   UNL A   1      42.388  28.835  30.193  1.00  0.00    -0.248 NA
ATOM     45  C   UNL A   1      42.712  26.685  29.339  1.00  0.00     0.031 C 
ATOM     46  C   UNL A   1      38.272  28.875  28.434  1.00  0.00     0.029 A 
ATOM     47  N   UNL A   1      39.787  30.061  29.574  1.00  0.00    -0.354 N 
ATOM     48  C   UNL A   1      43.638  28.368  30.581  1.00  0.00     0.074 A 
ATOM     49  C   UNL A   1      43.763  27.018  30.076  1.00  0.00     0.031 C 
ATOM     50  C   UNL A   1      37.721  30.068  28.716  1.00  0.00     0.029 A 
ATOM     51  C   UNL A   1      38.675  30.864  29.482  1.00  0.00     0.049 A 
ATOM     52  H   UNL A   1      40.615  30.336  30.030  1.00  0.00     0.167 HD
ATOM     53  C   UNL A   1      44.602  29.013  31.279  1.00  0.00     0.031 A 
ATOM     54  C   UNL A   1      38.447  32.101  29.965  1.00  0.00     0.031 A 
ATOM     55  C   UNL A   1      44.480  30.360  31.765  1.00  0.00     0.049 A 
ATOM     56  C   UNL A   1      39.536  32.799  30.732  1.00  0.00     0.074 A 
ATOM     57  C   UNL A   1      45.421  31.122  32.434  1.00  0.00     0.029 A 
ATOM     58  N   UNL A   1      43.347  31.147  31.630  1.00  0.00    -0.354 N 
ATOM     59  N   UNL A   1      40.735  32.363  31.039  1.00  0.00    -0.248 NA
ATOM     60  C   UNL A   1      39.245  34.157  31.210  1.00  0.00     0.031 C 
ATOM     61  C   UNL A   1      44.842  32.359  32.739  1.00  0.00     0.029 A 
ATOM     62  C   UNL A   1      43.557  32.383  32.218  1.00  0.00     0.049 A 
ATOM     63  H   UNL A   1      42.515  30.870  31.182  1.00  0.00     0.167 HD
ATOM     64  C   UNL A   1      41.350  33.404  31.723  1.00  0.00     0.074 A 
ATOM     65  C   UNL A   1      40.396  34.493  31.777  1.00  0.00     0.031 C 
ATOM     66  C   UNL A   1      42.595  33.455  32.258  1.00  0.00     0.031 A 
BRANCH  53  67
ATOM     67  C   UNL A   1      45.873  28.256  31.559  1.00  0.00    -0.014 A 
ATOM     68  C   UNL A   1      46.012  27.479  32.723  1.00  0.00     0.010 A 
ATOM     69  C   UNL A   1      46.936  28.309  30.641  1.00  0.00     0.010 A 
ATOM     70  C   UNL A   1      47.207  26.808  32.988  1.00  0.00     0.020 A 
ATOM     71  C   UNL A   1      48.126  27.617  30.888  1.00  0.00     0.020 A 
ATOM     72  C   UNL A   1      48.260  26.887  32.072  1.00  0.00     0.054 A 
BRANCH  72  73
ATOM     73  S   UNL A   1      49.801  26.002  32.436  1.00  0.00     0.124 S 
ATOM     74  O   UNL A   1      49.498  25.394  33.729  1.00  0.00    -0.237 OA
ATOM     75  O   UNL A   1      49.911  25.072  31.316  1.00  0.00    -0.237 OA
ATOM     76  O   UNL A   1      50.808  27.059  32.465  1.00  0.00    -0.744 OA
ENDBRANCH  72  73
ENDBRANCH  53  67
BRANCH  54  77
ATOM     77  C   UNL A   1      37.140  32.764  29.714  1.00  0.00    -0.014 A 
ATOM     78  C   UNL A   1      36.139  32.754  30.700  1.00  0.00     0.010 A 
ATOM     79  C   UNL A   1      36.898  33.428  28.498  1.00  0.00     0.010 A 
ATOM     80  C   UNL A   1      34.913  33.386  30.472  1.00  0.00     0.020 A 
ATOM     81  C   UNL A   1      35.682  34.081  28.274  1.00  0.00     0.020 A 
ATOM     82  C   UNL A   1      34.694  34.048  29.260  1.00  0.00     0.054 A 
BRANCH  82  83
ATOM     83  S   UNL A   1      33.118  34.913  29.009  1.00  0.00     0.124 S 
ATOM     84  O   UNL A   1      32.447  34.049  28.043  1.00  0.00    -0.237 OA
ATOM     85  O   UNL A   1      32.546  34.927  30.353  1.00  0.00    -0.237 OA
ATOM     86  O   UNL A   1      33.527  36.222  28.503  1.00  0.00    -0.744 OA
ENDBRANCH  82  83
ENDBRANCH  54  77
BRANCH  66  87
ATOM     87  C   UNL A   1      43.014  34.739  32.920  1.00  0.00    -0.014 A 
ATOM     88  C   UNL A   1      42.812  34.946  34.294  1.00  0.00     0.010 A 
ATOM     89  C   UNL A   1      43.679  35.722  32.164  1.00  0.00     0.010 A 
ATOM     90  C   UNL A   1      43.252  36.126  34.900  1.00  0.00     0.020 A 
ATOM     91  C   UNL A   1      44.141  36.891  32.772  1.00  0.00     0.020 A 
ATOM     92  C   UNL A   1      43.914  37.091  34.135  1.00  0.00     0.054 A 
BRANCH  92  93
ATOM     93  S   UNL A   1      44.528  38.588  34.955  1.00  0.00     0.124 S 
ATOM     94  O   UNL A   1      43.771  39.637  34.279  1.00  0.00    -0.237 OA
ATOM     95  O   UNL A   1      44.174  38.357  36.354  1.00  0.00    -0.237 OA
ATOM     96  O   UNL A   1      45.963  38.573  34.672  1.00  0.00    -0.744 OA
ENDBRANCH  92  93
ENDBRANCH  66  87
ENDBRANCH  40  41
ENDBRANCH  32  35
ENDBRANCH  30  31
ENDBRANCH   1  30
TORSDOF 19
ENDMDL
MODEL 3
REMARK VINA RESULT:     -10.8      4.760      9.791
REMARK SMILES CCCc1cc(OC(F)(F)F)cc2c1O[C@@H](C(F)(F)F)C(C(=O)NCCCCNC(=O)c1ccc(-c3c4nc(c(-c5ccc(S(=O)(=O)[O-])cc5)c5ccc([nH]5)c(-c5ccc(S(=O)(=O)[O-])cc5)c5nc(c(-c6ccc(S(=O)(=O)[O-])cc6)c6ccc3[nH]6)C=C5)C=C4)cc1)=C2
REMARK SMILES IDX 27 1 26 2 25 3 24 4 22 5 23 6 21 8 4 9 5 10 14 11 6 12 13 13
REMARK SMILES IDX 15 14 12 15 92 16 16 17 3 18 2 19 1 20 7 21 8 22 9 23 10 24
REMARK SMILES IDX 11 25 17 26 18 27 19 28 20 29 28 30 29 31 30 32 31 34 32 35
REMARK SMILES IDX 33 36 91 37 34 38 90 39 35 40 36 41 37 42 84 43 38 44 89 45
REMARK SMILES IDX 83 46 85 47 39 48 88 49 82 50 81 51 40 53 70 54 51 55 69 56
REMARK SMILES IDX 52 57 55 58 68 59 86 60 53 61 54 62 67 64 87 65 56 66 41 67
REMARK SMILES IDX 42 68 50 69 43 70 49 71 44 72 45 73 46 74 47 75 48 76 71 77
REMARK SMILES IDX 72 78 80 79 73 80 79 81 74 82 75 83 76 84 77 85 78 86 57 87
REMARK SMILES IDX 58 88 66 89 59 90 65 91 60 92 61 93 62 94 63 95 64 96
REMARK H PARENT 24 7 29 33 85 52 55 63
REMARK Flexibility Score: inf
ROOT
ATOM      1  C   UNL A   1      37.872  23.688  26.034  1.00  0.00     0.023 C 
ENDROOT
BRANCH   1   2
ATOM      2  C   UNL A   1      37.803  22.185  25.756  1.00  0.00     0.023 C 
BRANCH   2   3
ATOM      3  C   UNL A   1      36.572  21.749  24.953  1.00  0.00     0.116 C 
BRANCH   3   4
ATOM      4  N   UNL A   1      35.565  21.212  25.847  1.00  0.00    -0.352 N 
ATOM      5  C   UNL A   1      34.423  21.744  26.351  1.00  0.00     0.251 C 
ATOM      6  O   UNL A   1      33.844  21.130  27.244  1.00  0.00    -0.270 OA
ATOM      7  H   UNL A   1      35.743  20.290  26.144  1.00  0.00     0.163 HD
BRANCH   5   8
ATOM      8  C   UNL A   1      33.811  22.995  25.829  1.00  0.00     0.067 C 
ATOM      9  C   UNL A   1      31.786  26.329  24.235  1.00  0.00    -0.002 A 
ATOM     10  C   UNL A   1      32.237  27.619  24.597  1.00  0.00     0.054 A 
ATOM     11  C   UNL A   1      32.496  25.221  24.718  1.00  0.00     0.131 A 
ATOM     12  C   UNL A   1      33.333  27.799  25.443  1.00  0.00     0.130 A 
ATOM     13  C   UNL A   1      33.553  25.390  25.614  1.00  0.00     0.021 A 
ATOM     14  O   UNL A   1      32.200  23.985  24.226  1.00  0.00    -0.475 OA
ATOM     15  C   UNL A   1      33.968  26.676  25.972  1.00  0.00     0.058 A 
ATOM     16  C   UNL A   1      34.251  24.224  26.136  1.00  0.00     0.025 C 
ATOM     17  C   UNL A   1      32.516  22.825  25.046  1.00  0.00     0.314 C 
BRANCH   9  18
ATOM     18  C   UNL A   1      30.585  26.256  23.309  1.00  0.00     0.039 C 
BRANCH  18  19
ATOM     19  C   UNL A   1      29.253  26.902  23.712  1.00  0.00     0.001 C 
ATOM     20  C   UNL A   1      28.987  28.252  23.058  1.00  0.00     0.004 C 
ENDBRANCH  18  19
ENDBRANCH   9  18
BRANCH  12  21
ATOM     21  O   UNL A   1      33.881  28.987  25.832  1.00  0.00    -0.406 OA
BRANCH  21  22
ATOM     22  C   UNL A   1      33.484  29.523  27.082  1.00  0.00     0.573 C 
ATOM     23  F   UNL A   1      33.105  30.814  26.968  1.00  0.00    -0.132 F 
ATOM     24  F   UNL A   1      32.477  28.803  27.618  1.00  0.00    -0.132 F 
ATOM     25  F   UNL A   1      34.536  29.470  27.930  1.00  0.00    -0.132 F 
ENDBRANCH  21  22
ENDBRANCH  12  21
BRANCH  17  26
ATOM     26  C   UNL A   1      32.416  21.589  24.121  1.00  0.00     0.429 C 
ATOM     27  F   UNL A   1      33.605  21.234  23.584  1.00  0.00    -0.167 F 
ATOM     28  F   UNL A   1      32.002  20.496  24.820  1.00  0.00    -0.167 F 
ATOM     29  F   UNL A   1      31.527  21.763  23.118  1.00  0.00    -0.167 F 
ENDBRANCH  17  26
ENDBRANCH   5   8
ENDBRANCH   3   4
ENDBRANCH   2   3
ENDBRANCH   1   2
BRANCH   1  30
ATOM     30  C   UNL A   1      39.112  24.131  26.800  1.00  0.00     0.116 C 
BRANCH  30  31
ATOM     31  N   UNL A   1      40.180  24.604  25.933  1.00  0.00    -0.352 N 
ATOM     32  C   UNL A   1      40.887  25.779  26.027  1.00  0.00     0.251 C 
ATOM     33  H   UNL A   1      40.426  24.009  25.187  1.00  0.00     0.163 HD
ATOM     34  O   UNL A   1      41.690  26.093  25.160  1.00  0.00    -0.269 OA
BRANCH  32  35
ATOM     35  C   UNL A   1      40.618  26.673  27.170  1.00  0.00     0.039 A 
ATOM     36  C   UNL A   1      39.760  26.233  28.180  1.00  0.00     0.014 A 
ATOM     37  C   UNL A   1      41.264  27.908  27.269  1.00  0.00     0.014 A 
ATOM     38  C   UNL A   1      39.600  27.009  29.328  1.00  0.00     0.010 A 
ATOM     39  C   UNL A   1      41.152  28.648  28.440  1.00  0.00     0.010 A 
ATOM     40  C   UNL A   1      40.322  28.203  29.480  1.00  0.00    -0.014 A 
BRANCH  40  41
ATOM     41  C   UNL A   1      40.225  29.009  30.721  1.00  0.00     0.031 A 
ATOM     42  C   UNL A   1      39.216  30.116  30.817  1.00  0.00     0.074 A 
ATOM     43  C   UNL A   1      41.098  28.792  31.724  1.00  0.00     0.049 A 
ATOM     44  N   UNL A   1      39.032  30.983  31.780  1.00  0.00    -0.248 NA
ATOM     45  C   UNL A   1      38.311  30.291  29.669  1.00  0.00     0.031 C 
ATOM     46  C   UNL A   1      42.151  27.773  31.729  1.00  0.00     0.029 A 
ATOM     47  N   UNL A   1      41.244  29.425  32.933  1.00  0.00    -0.354 N 
ATOM     48  C   UNL A   1      38.009  31.816  31.346  1.00  0.00     0.074 A 
ATOM     49  C   UNL A   1      37.641  31.380  30.017  1.00  0.00     0.031 C 
ATOM     50  C   UNL A   1      42.819  27.837  32.893  1.00  0.00     0.029 A 
ATOM     51  C   UNL A   1      42.269  28.922  33.699  1.00  0.00     0.049 A 
ATOM     52  H   UNL A   1      40.669  30.169  33.223  1.00  0.00     0.167 HD
ATOM     53  C   UNL A   1      37.417  32.842  32.003  1.00  0.00     0.031 A 
ATOM     54  C   UNL A   1      42.719  29.297  34.912  1.00  0.00     0.031 A 
ATOM     55  C   UNL A   1      37.774  33.261  33.330  1.00  0.00     0.049 A 
ATOM     56  C   UNL A   1      42.040  30.434  35.625  1.00  0.00     0.074 A 
ATOM     57  C   UNL A   1      37.198  34.252  34.104  1.00  0.00     0.029 A 
ATOM     58  N   UNL A   1      38.801  32.710  34.081  1.00  0.00    -0.354 N 
ATOM     59  N   UNL A   1      41.035  31.174  35.222  1.00  0.00    -0.248 NA
ATOM     60  C   UNL A   1      42.552  30.781  36.957  1.00  0.00     0.031 C 
ATOM     61  C   UNL A   1      37.902  34.326  35.311  1.00  0.00     0.029 A 
ATOM     62  C   UNL A   1      38.887  33.351  35.306  1.00  0.00     0.049 A 
ATOM     63  H   UNL A   1      39.384  31.972  33.788  1.00  0.00     0.167 HD
ATOM     64  C   UNL A   1      40.776  32.057  36.264  1.00  0.00     0.074 A 
ATOM     65  C   UNL A   1      41.724  31.753  37.317  1.00  0.00     0.031 C 
ATOM     66  C   UNL A   1      39.836  33.031  36.342  1.00  0.00     0.031 A 
BRANCH  53  67
ATOM     67  C   UNL A   1      36.320  33.580  31.283  1.00  0.00    -0.014 A 
ATOM     68  C   UNL A   1      35.159  33.993  31.960  1.00  0.00     0.010 A 
ATOM     69  C   UNL A   1      36.458  33.879  29.916  1.00  0.00     0.010 A 
ATOM     70  C   UNL A   1      34.135  34.649  31.274  1.00  0.00     0.020 A 
ATOM     71  C   UNL A   1      35.447  34.559  29.230  1.00  0.00     0.020 A 
ATOM     72  C   UNL A   1      34.282  34.921  29.911  1.00  0.00     0.054 A 
BRANCH  72  73
ATOM     73  S   UNL A   1      32.939  35.779  29.044  1.00  0.00     0.124 S 
ATOM     74  O   UNL A   1      32.094  36.211  30.154  1.00  0.00    -0.237 OA
ATOM     75  O   UNL A   1      33.642  36.846  28.338  1.00  0.00    -0.237 OA
ATOM     76  O   UNL A   1      32.364  34.744  28.188  1.00  0.00    -0.744 OA
ENDBRANCH  72  73
ENDBRANCH  53  67
BRANCH  54  77
ATOM     77  C   UNL A   1      43.855  28.569  35.537  1.00  0.00    -0.014 A 
ATOM     78  C   UNL A   1      45.176  29.001  35.324  1.00  0.00     0.010 A 
ATOM     79  C   UNL A   1      43.624  27.458  36.366  1.00  0.00     0.010 A 
ATOM     80  C   UNL A   1      46.247  28.327  35.918  1.00  0.00     0.020 A 
ATOM     81  C   UNL A   1      44.690  26.795  36.981  1.00  0.00     0.020 A 
ATOM     82  C   UNL A   1      45.996  27.228  36.745  1.00  0.00     0.054 A 
BRANCH  82  83
ATOM     83  S   UNL A   1      47.396  26.405  37.555  1.00  0.00     0.124 S 
ATOM     84  O   UNL A   1      46.769  25.206  38.101  1.00  0.00    -0.237 OA
ATOM     85  O   UNL A   1      48.322  26.189  36.445  1.00  0.00    -0.237 OA
ATOM     86  O   UNL A   1      47.842  27.387  38.542  1.00  0.00    -0.744 OA
ENDBRANCH  82  83
ENDBRANCH  54  77
BRANCH  66  87
ATOM     87  C   UNL A   1      39.761  33.820  37.620  1.00  0.00    -0.014 A 
ATOM     88  C   UNL A   1      40.420  35.053  37.750  1.00  0.00     0.010 A 
ATOM     89  C   UNL A   1      38.963  33.349  38.678  1.00  0.00     0.010 A 
ATOM     90  C   UNL A   1      40.298  35.796  38.928  1.00  0.00     0.020 A 
ATOM     91  C   UNL A   1      38.820  34.100  39.847  1.00  0.00     0.020 A 
ATOM     92  C   UNL A   1      39.498  35.314  39.969  1.00  0.00     0.054 A 
BRANCH  92  93
ATOM     93  S   UNL A   1      39.307  36.322  41.465  1.00  0.00     0.124 S 
ATOM     94  O   UNL A   1      38.111  35.745  42.070  1.00  0.00    -0.237 OA
ATOM     95  O   UNL A   1      40.557  36.077  42.181  1.00  0.00    -0.237 OA
ATOM     96  O   UNL A   1      39.151  37.681  40.948  1.00  0.00    -0.744 OA
ENDBRANCH  92  93
ENDBRANCH  66  87
ENDBRANCH  40  41
ENDBRANCH  32  35
ENDBRANCH  30  31
ENDBRANCH   1  30
TORSDOF 19
ENDMDL
