MODEL 1
REMARK VINA RESULT:     -11.3      0.000      0.000
REMARK SMILES O=C(CCc1nc(-c2ccccc2)c(-c2ccccc2)o1)NCCCCNC(=O)c1ccc(-c2c3nc(c(-c4ccc(S(=O)(=O)[O-])cc4)c4ccc([nH]4)c(-c4ccc(S(=O)(=O)[O-])cc4)c4nc(c(-c5ccc(S(=O)(=O)[O-])cc5)c5ccc2[nH]5)C=C4)C=C3)cc1
REMARK SMILES IDX 24 1 23 2 22 3 1 4 2 5 3 7 4 8 5 9 6 10 21 11 7 12 14 13
REMARK SMILES IDX 8 14 9 15 13 16 10 17 12 18 11 19 15 20 16 21 20 22 17 23
REMARK SMILES IDX 19 24 18 25 25 26 26 27 27 28 28 29 29 31 30 32 31 33 89 34
REMARK SMILES IDX 32 35 88 36 33 37 34 38 35 39 82 40 36 41 87 42 81 43 83 44
REMARK SMILES IDX 37 45 86 46 80 47 79 48 38 50 68 51 49 52 67 53 50 54 53 55
REMARK SMILES IDX 66 56 84 57 51 58 52 59 65 61 85 62 54 63 39 64 40 65 48 66
REMARK SMILES IDX 41 67 47 68 42 69 43 70 44 71 45 72 46 73 69 74 70 75 78 76
REMARK SMILES IDX 71 77 77 78 72 79 73 80 74 81 75 82 76 83 55 84 56 85 64 86
REMARK SMILES IDX 57 87 63 88 58 89 59 90 60 91 61 92 62 93
REMARK H PARENT 22 6 27 30 83 49 53 60
REMARK Flexibility Score: inf
ROOT
ATOM      1  C   UNL A   1      35.377  21.836  26.148  1.00  0.00     0.023 C 
ENDROOT
BRANCH   1   2
ATOM      2  C   UNL A   1      34.868  20.821  25.124  1.00  0.00     0.116 C 
BRANCH   2   3
ATOM      3  N   UNL A   1      33.928  21.402  24.185  1.00  0.00    -0.356 N 
ATOM      4  O   UNL A   1      32.034  20.444  25.073  1.00  0.00    -0.275 OA
ATOM      5  C   UNL A   1      32.570  21.181  24.249  1.00  0.00     0.220 C 
ATOM      6  H   UNL A   1      34.275  21.980  23.468  1.00  0.00     0.163 HD
BRANCH   5   7
ATOM      7  C   UNL A   1      31.763  21.915  23.197  1.00  0.00     0.110 C 
BRANCH   7   8
ATOM      8  C   UNL A   1      32.476  23.158  22.676  1.00  0.00     0.107 C 
BRANCH   8   9
ATOM      9  C   UNL A   1      32.097  24.389  23.415  1.00  0.00     0.196 A 
ATOM     10  N   UNL A   1      32.770  25.006  24.363  1.00  0.00    -0.213 NA
ATOM     11  O   UNL A   1      30.960  25.036  23.009  1.00  0.00    -0.440 OA
ATOM     12  C   UNL A   1      32.009  26.119  24.639  1.00  0.00     0.117 A 
ATOM     13  C   UNL A   1      30.918  26.165  23.788  1.00  0.00     0.162 A 
BRANCH  12  14
ATOM     14  C   UNL A   1      32.389  27.115  25.622  1.00  0.00     0.004 A 
ATOM     15  C   UNL A   1      31.528  27.461  26.672  1.00  0.00     0.010 A 
ATOM     16  C   UNL A   1      33.634  27.747  25.525  1.00  0.00     0.010 A 
ATOM     17  C   UNL A   1      31.898  28.441  27.597  1.00  0.00     0.001 A 
ATOM     18  C   UNL A   1      33.999  28.736  26.442  1.00  0.00     0.001 A 
ATOM     19  C   UNL A   1      33.128  29.085  27.475  1.00  0.00     0.000 A 
ENDBRANCH  12  14
BRANCH  13  20
ATOM     20  C   UNL A   1      29.906  27.151  23.454  1.00  0.00     0.020 A 
ATOM     21  C   UNL A   1      30.208  28.367  22.838  1.00  0.00     0.012 A 
ATOM     22  C   UNL A   1      28.568  26.866  23.746  1.00  0.00     0.012 A 
ATOM     23  C   UNL A   1      29.180  29.263  22.514  1.00  0.00     0.001 A 
ATOM     24  C   UNL A   1      27.548  27.769  23.457  1.00  0.00     0.001 A 
ATOM     25  C   UNL A   1      27.854  28.967  22.827  1.00  0.00     0.000 A 
ENDBRANCH  13  20
ENDBRANCH   8   9
ENDBRANCH   7   8
ENDBRANCH   5   7
ENDBRANCH   2   3
ENDBRANCH   1   2
BRANCH   1  26
ATOM     26  C   UNL A   1      35.519  23.273  25.643  1.00  0.00     0.023 C 
BRANCH  26  27
ATOM     27  C   UNL A   1      36.906  23.683  25.159  1.00  0.00     0.116 C 
BRANCH  27  28
ATOM     28  N   UNL A   1      37.955  22.716  25.406  1.00  0.00    -0.352 N 
ATOM     29  C   UNL A   1      39.151  22.894  26.072  1.00  0.00     0.251 C 
ATOM     30  H   UNL A   1      37.794  21.811  25.051  1.00  0.00     0.163 HD
ATOM     31  O   UNL A   1      39.972  21.977  26.087  1.00  0.00    -0.269 OA
BRANCH  29  32
ATOM     32  C   UNL A   1      39.480  24.183  26.743  1.00  0.00     0.039 A 
ATOM     33  C   UNL A   1      39.034  24.405  28.050  1.00  0.00     0.014 A 
ATOM     34  C   UNL A   1      40.203  25.188  26.099  1.00  0.00     0.014 A 
ATOM     35  C   UNL A   1      39.367  25.592  28.721  1.00  0.00     0.010 A 
ATOM     36  C   UNL A   1      40.589  26.343  26.789  1.00  0.00     0.010 A 
ATOM     37  C   UNL A   1      40.180  26.561  28.111  1.00  0.00    -0.014 A 
BRANCH  37  38
ATOM     38  C   UNL A   1      40.639  27.778  28.844  1.00  0.00     0.031 A 
ATOM     39  C   UNL A   1      41.995  27.825  29.506  1.00  0.00     0.074 A 
ATOM     40  C   UNL A   1      39.807  28.831  28.978  1.00  0.00     0.049 A 
ATOM     41  N   UNL A   1      42.549  28.802  30.183  1.00  0.00    -0.248 NA
ATOM     42  C   UNL A   1      42.831  26.618  29.410  1.00  0.00     0.031 C 
ATOM     43  C   UNL A   1      38.450  28.915  28.430  1.00  0.00     0.029 A 
ATOM     44  N   UNL A   1      39.972  30.033  29.625  1.00  0.00    -0.354 N 
ATOM     45  C   UNL A   1      43.794  28.331  30.589  1.00  0.00     0.074 A 
ATOM     46  C   UNL A   1      43.890  26.961  30.131  1.00  0.00     0.031 C 
ATOM     47  C   UNL A   1      37.916  30.104  28.751  1.00  0.00     0.029 A 
ATOM     48  C   UNL A   1      38.876  30.862  29.548  1.00  0.00     0.049 A 
ATOM     49  H   UNL A   1      40.799  30.279  30.100  1.00  0.00     0.167 HD
ATOM     50  C   UNL A   1      44.777  28.980  31.262  1.00  0.00     0.031 A 
ATOM     51  C   UNL A   1      38.659  32.092  30.053  1.00  0.00     0.031 A 
ATOM     52  C   UNL A   1      44.683  30.342  31.725  1.00  0.00     0.049 A 
ATOM     53  C   UNL A   1      39.752  32.783  30.824  1.00  0.00     0.074 A 
ATOM     54  C   UNL A   1      45.655  31.104  32.353  1.00  0.00     0.029 A 
ATOM     55  N   UNL A   1      43.554  31.141  31.628  1.00  0.00    -0.354 N 
ATOM     56  N   UNL A   1      40.958  32.353  31.108  1.00  0.00    -0.248 NA
ATOM     57  C   UNL A   1      39.462  34.135  31.321  1.00  0.00     0.031 C 
ATOM     58  C   UNL A   1      45.091  32.338  32.697  1.00  0.00     0.029 A 
ATOM     59  C   UNL A   1      43.792  32.373  32.217  1.00  0.00     0.049 A 
ATOM     60  H   UNL A   1      42.707  30.873  31.202  1.00  0.00     0.167 HD
ATOM     61  C   UNL A   1      41.581  33.396  31.787  1.00  0.00     0.074 A 
ATOM     62  C   UNL A   1      40.624  34.480  31.859  1.00  0.00     0.031 C 
ATOM     63  C   UNL A   1      42.836  33.450  32.295  1.00  0.00     0.031 A 
BRANCH  50  64
ATOM     64  C   UNL A   1      46.052  28.226  31.548  1.00  0.00    -0.014 A 
ATOM     65  C   UNL A   1      47.143  28.278  30.659  1.00  0.00     0.010 A 
ATOM     66  C   UNL A   1      46.188  27.509  32.751  1.00  0.00     0.010 A 
ATOM     67  C   UNL A   1      48.326  27.593  30.949  1.00  0.00     0.020 A 
ATOM     68  C   UNL A   1      47.382  26.848  33.059  1.00  0.00     0.020 A 
ATOM     69  C   UNL A   1      48.438  26.881  32.146  1.00  0.00     0.054 A 
BRANCH  69  70
ATOM     70  S   UNL A   1      49.995  26.020  32.504  1.00  0.00     0.124 S 
ATOM     71  O   UNL A   1      50.985  26.986  32.034  1.00  0.00    -0.237 OA
ATOM     72  O   UNL A   1      49.933  25.838  33.951  1.00  0.00    -0.237 OA
ATOM     73  O   UNL A   1      49.901  24.793  31.719  1.00  0.00    -0.744 OA
ENDBRANCH  69  70
ENDBRANCH  50  64
BRANCH  51  74
ATOM     74  C   UNL A   1      37.352  32.769  29.822  1.00  0.00    -0.014 A 
ATOM     75  C   UNL A   1      36.304  32.637  30.750  1.00  0.00     0.010 A 
ATOM     76  C   UNL A   1      37.153  33.560  28.674  1.00  0.00     0.010 A 
ATOM     77  C   UNL A   1      35.075  33.264  30.527  1.00  0.00     0.020 A 
ATOM     78  C   UNL A   1      35.937  34.213  28.463  1.00  0.00     0.020 A 
ATOM     79  C   UNL A   1      34.901  34.052  29.385  1.00  0.00     0.054 A 
BRANCH  79  80
ATOM     80  S   UNL A   1      33.314  34.897  29.143  1.00  0.00     0.124 S 
ATOM     81  O   UNL A   1      32.721  34.820  30.474  1.00  0.00    -0.237 OA
ATOM     82  O   UNL A   1      33.730  36.228  28.709  1.00  0.00    -0.237 OA
ATOM     83  O   UNL A   1      32.654  34.094  28.116  1.00  0.00    -0.744 OA
ENDBRANCH  79  80
ENDBRANCH  51  74
BRANCH  63  84
ATOM     84  C   UNL A   1      43.272  34.737  32.949  1.00  0.00    -0.014 A 
ATOM     85  C   UNL A   1      43.779  35.809  32.193  1.00  0.00     0.010 A 
ATOM     86  C   UNL A   1      43.121  34.894  34.339  1.00  0.00     0.010 A 
ATOM     87  C   UNL A   1      44.160  37.000  32.821  1.00  0.00     0.020 A 
ATOM     88  C   UNL A   1      43.471  36.093  34.966  1.00  0.00     0.020 A 
ATOM     89  C   UNL A   1      44.002  37.134  34.204  1.00  0.00     0.054 A 
BRANCH  89  90
ATOM     90  S   UNL A   1      44.464  38.705  34.987  1.00  0.00     0.124 S 
ATOM     91  O   UNL A   1      43.608  39.658  34.286  1.00  0.00    -0.237 OA
ATOM     92  O   UNL A   1      44.128  38.472  36.390  1.00  0.00    -0.237 OA
ATOM     93  O   UNL A   1      45.892  38.826  34.706  1.00  0.00    -0.744 OA
ENDBRANCH  89  90
ENDBRANCH  63  84
ENDBRANCH  37  38
ENDBRANCH  29  32
ENDBRANCH  27  28
ENDBRANCH  26  27
ENDBRANCH   1  26
TORSDOF 18
ENDMDL
MODEL 2
REMARK VINA RESULT:     -11.3      0.503      2.230
REMARK SMILES O=C(CCc1nc(-c2ccccc2)c(-c2ccccc2)o1)NCCCCNC(=O)c1ccc(-c2c3nc(c(-c4ccc(S(=O)(=O)[O-])cc4)c4ccc([nH]4)c(-c4ccc(S(=O)(=O)[O-])cc4)c4nc(c(-c5ccc(S(=O)(=O)[O-])cc5)c5ccc2[nH]5)C=C4)C=C3)cc1
REMARK SMILES IDX 24 1 23 2 22 3 1 4 2 5 3 7 4 8 5 9 6 10 21 11 7 12 14 13
REMARK SMILES IDX 8 14 9 15 13 16 10 17 12 18 11 19 15 20 16 21 20 22 17 23
REMARK SMILES IDX 19 24 18 25 25 26 26 27 27 28 28 29 29 31 30 32 31 33 89 34
REMARK SMILES IDX 32 35 88 36 33 37 34 38 35 39 82 40 36 41 87 42 81 43 83 44
REMARK SMILES IDX 37 45 86 46 80 47 79 48 38 50 68 51 49 52 67 53 50 54 53 55
REMARK SMILES IDX 66 56 84 57 51 58 52 59 65 61 85 62 54 63 39 64 40 65 48 66
REMARK SMILES IDX 41 67 47 68 42 69 43 70 44 71 45 72 46 73 69 74 70 75 78 76
REMARK SMILES IDX 71 77 77 78 72 79 73 80 74 81 75 82 76 83 55 84 56 85 64 86
REMARK SMILES IDX 57 87 63 88 58 89 59 90 60 91 61 92 62 93
REMARK H PARENT 22 6 27 30 83 49 53 60
REMARK Flexibility Score: inf
ROOT
ATOM      1  C   UNL A   1      35.371  21.859  26.166  1.00  0.00     0.023 C 
ENDROOT
BRANCH   1   2
ATOM      2  C   UNL A   1      34.726  20.907  25.158  1.00  0.00     0.116 C 
BRANCH   2   3
ATOM      3  N   UNL A   1      33.934  21.603  24.163  1.00  0.00    -0.356 N 
ATOM      4  O   UNL A   1      31.877  21.128  25.079  1.00  0.00    -0.275 OA
ATOM      5  C   UNL A   1      32.559  21.676  24.217  1.00  0.00     0.220 C 
ATOM      6  H   UNL A   1      34.398  22.044  23.416  1.00  0.00     0.163 HD
BRANCH   5   7
ATOM      7  C   UNL A   1      31.930  22.486  23.102  1.00  0.00     0.110 C 
BRANCH   7   8
ATOM      8  C   UNL A   1      32.843  23.598  22.600  1.00  0.00     0.107 C 
BRANCH   8   9
ATOM      9  C   UNL A   1      32.329  24.954  22.923  1.00  0.00     0.196 A 
ATOM     10  N   UNL A   1      31.278  25.565  22.418  1.00  0.00    -0.213 NA
ATOM     11  O   UNL A   1      32.948  25.631  23.940  1.00  0.00    -0.440 OA
ATOM     12  C   UNL A   1      31.217  26.750  23.115  1.00  0.00     0.117 A 
ATOM     13  C   UNL A   1      32.213  26.782  24.076  1.00  0.00     0.162 A 
BRANCH  12  14
ATOM     14  C   UNL A   1      30.183  27.743  22.900  1.00  0.00     0.004 A 
ATOM     15  C   UNL A   1      30.476  28.976  22.301  1.00  0.00     0.010 A 
ATOM     16  C   UNL A   1      28.868  27.474  23.298  1.00  0.00     0.010 A 
ATOM     17  C   UNL A   1      29.473  29.932  22.124  1.00  0.00     0.001 A 
ATOM     18  C   UNL A   1      27.868  28.437  23.132  1.00  0.00     0.001 A 
ATOM     19  C   UNL A   1      28.173  29.667  22.550  1.00  0.00     0.000 A 
ENDBRANCH  12  14
BRANCH  13  20
ATOM     20  C   UNL A   1      32.528  27.626  25.214  1.00  0.00     0.020 A 
ATOM     21  C   UNL A   1      31.554  28.320  25.934  1.00  0.00     0.012 A 
ATOM     22  C   UNL A   1      33.862  27.739  25.618  1.00  0.00     0.012 A 
ATOM     23  C   UNL A   1      31.921  29.095  27.043  1.00  0.00     0.001 A 
ATOM     24  C   UNL A   1      34.235  28.536  26.698  1.00  0.00     0.001 A 
ATOM     25  C   UNL A   1      33.259  29.207  27.421  1.00  0.00     0.000 A 
ENDBRANCH  13  20
ENDBRANCH   8   9
ENDBRANCH   7   8
ENDBRANCH   5   7
ENDBRANCH   2   3
ENDBRANCH   1   2
BRANCH   1  26
ATOM     26  C   UNL A   1      35.525  23.309  25.704  1.00  0.00     0.023 C 
BRANCH  26  27
ATOM     27  C   UNL A   1      36.903  23.711  25.190  1.00  0.00     0.116 C 
BRANCH  27  28
ATOM     28  N   UNL A   1      37.957  22.750  25.441  1.00  0.00    -0.352 N 
ATOM     29  C   UNL A   1      39.154  22.938  26.103  1.00  0.00     0.251 C 
ATOM     30  H   UNL A   1      37.800  21.842  25.092  1.00  0.00     0.163 HD
ATOM     31  O   UNL A   1      39.979  22.025  26.123  1.00  0.00    -0.269 OA
BRANCH  29  32
ATOM     32  C   UNL A   1      39.478  24.233  26.765  1.00  0.00     0.039 A 
ATOM     33  C   UNL A   1      39.039  24.459  28.073  1.00  0.00     0.014 A 
ATOM     34  C   UNL A   1      40.191  25.240  26.111  1.00  0.00     0.014 A 
ATOM     35  C   UNL A   1      39.368  25.652  28.736  1.00  0.00     0.010 A 
ATOM     36  C   UNL A   1      40.573  26.400  26.793  1.00  0.00     0.010 A 
ATOM     37  C   UNL A   1      40.171  26.623  28.116  1.00  0.00    -0.014 A 
BRANCH  37  38
ATOM     38  C   UNL A   1      40.626  27.847  28.840  1.00  0.00     0.031 A 
ATOM     39  C   UNL A   1      41.987  27.908  29.490  1.00  0.00     0.074 A 
ATOM     40  C   UNL A   1      39.786  28.894  28.977  1.00  0.00     0.049 A 
ATOM     41  N   UNL A   1      42.539  28.893  30.157  1.00  0.00    -0.248 NA
ATOM     42  C   UNL A   1      42.833  26.708  29.391  1.00  0.00     0.031 C 
ATOM     43  C   UNL A   1      38.424  28.963  28.441  1.00  0.00     0.029 A 
ATOM     44  N   UNL A   1      39.947  30.100  29.617  1.00  0.00    -0.354 N 
ATOM     45  C   UNL A   1      43.791  28.434  30.554  1.00  0.00     0.074 A 
ATOM     46  C   UNL A   1      43.895  27.063  30.102  1.00  0.00     0.031 C 
ATOM     47  C   UNL A   1      37.882  30.149  28.761  1.00  0.00     0.029 A 
ATOM     48  C   UNL A   1      38.843  30.919  29.546  1.00  0.00     0.049 A 
ATOM     49  H   UNL A   1      40.776  30.355  30.083  1.00  0.00     0.167 HD
ATOM     50  C   UNL A   1      44.774  29.095  31.215  1.00  0.00     0.031 A 
ATOM     51  C   UNL A   1      38.620  32.150  30.048  1.00  0.00     0.031 A 
ATOM     52  C   UNL A   1      44.673  30.458  31.673  1.00  0.00     0.049 A 
ATOM     53  C   UNL A   1      39.714  32.854  30.806  1.00  0.00     0.074 A 
ATOM     54  C   UNL A   1      45.644  31.231  32.290  1.00  0.00     0.029 A 
ATOM     55  N   UNL A   1      43.537  31.247  31.583  1.00  0.00    -0.354 N 
ATOM     56  N   UNL A   1      40.926  32.435  31.081  1.00  0.00    -0.248 NA
ATOM     57  C   UNL A   1      39.417  34.205  31.300  1.00  0.00     0.031 C 
ATOM     58  C   UNL A   1      45.073  32.461  32.633  1.00  0.00     0.029 A 
ATOM     59  C   UNL A   1      43.770  32.483  32.165  1.00  0.00     0.049 A 
ATOM     60  H   UNL A   1      42.689  30.970  31.166  1.00  0.00     0.167 HD
ATOM     61  C   UNL A   1      41.547  33.486  31.749  1.00  0.00     0.074 A 
ATOM     62  C   UNL A   1      40.580  34.562  31.826  1.00  0.00     0.031 C 
ATOM     63  C   UNL A   1      42.806  33.552  32.246  1.00  0.00     0.031 A 
BRANCH  50  64
ATOM     64  C   UNL A   1      46.058  28.352  31.493  1.00  0.00    -0.014 A 
ATOM     65  C   UNL A   1      47.125  28.376  30.575  1.00  0.00     0.010 A 
ATOM     66  C   UNL A   1      46.227  27.677  32.716  1.00  0.00     0.010 A 
ATOM     67  C   UNL A   1      48.317  27.702  30.857  1.00  0.00     0.020 A 
ATOM     68  C   UNL A   1      47.431  27.029  33.015  1.00  0.00     0.020 A 
ATOM     69  C   UNL A   1      48.462  27.032  32.075  1.00  0.00     0.054 A 
BRANCH  69  70
ATOM     70  S   UNL A   1      50.030  26.186  32.420  1.00  0.00     0.124 S 
ATOM     71  O   UNL A   1      51.001  27.106  31.834  1.00  0.00    -0.237 OA
ATOM     72  O   UNL A   1      50.037  26.111  33.878  1.00  0.00    -0.237 OA
ATOM     73  O   UNL A   1      49.893  24.905  31.733  1.00  0.00    -0.744 OA
ENDBRANCH  69  70
ENDBRANCH  50  64
BRANCH  51  74
ATOM     74  C   UNL A   1      37.306  32.815  29.825  1.00  0.00    -0.014 A 
ATOM     75  C   UNL A   1      36.298  32.751  30.803  1.00  0.00     0.010 A 
ATOM     76  C   UNL A   1      37.060  33.526  28.635  1.00  0.00     0.010 A 
ATOM     77  C   UNL A   1      35.061  33.367  30.588  1.00  0.00     0.020 A 
ATOM     78  C   UNL A   1      35.836  34.168  28.431  1.00  0.00     0.020 A 
ATOM     79  C   UNL A   1      34.840  34.074  29.404  1.00  0.00     0.054 A 
BRANCH  79  80
ATOM     80  S   UNL A   1      33.245  34.908  29.170  1.00  0.00     0.124 S 
ATOM     81  O   UNL A   1      32.600  34.057  28.175  1.00  0.00    -0.237 OA
ATOM     82  O   UNL A   1      32.669  34.864  30.512  1.00  0.00    -0.237 OA
ATOM     83  O   UNL A   1      33.622  36.241  28.705  1.00  0.00    -0.744 OA
ENDBRANCH  79  80
ENDBRANCH  51  74
BRANCH  63  84
ATOM     84  C   UNL A   1      43.236  34.847  32.891  1.00  0.00    -0.014 A 
ATOM     85  C   UNL A   1      43.819  35.882  32.139  1.00  0.00     0.010 A 
ATOM     86  C   UNL A   1      43.003  35.047  34.264  1.00  0.00     0.010 A 
ATOM     87  C   UNL A   1      44.194  37.080  32.757  1.00  0.00     0.020 A 
ATOM     88  C   UNL A   1      43.347  36.255  34.879  1.00  0.00     0.020 A 
ATOM     89  C   UNL A   1      43.954  37.259  34.123  1.00  0.00     0.054 A 
BRANCH  89  90
ATOM     90  S   UNL A   1      44.411  38.838  34.890  1.00  0.00     0.124 S 
ATOM     91  O   UNL A   1      45.820  38.957  34.526  1.00  0.00    -0.237 OA
ATOM     92  O   UNL A   1      43.510  39.784  34.235  1.00  0.00    -0.237 OA
ATOM     93  O   UNL A   1      44.150  38.622  36.312  1.00  0.00    -0.744 OA
ENDBRANCH  89  90
ENDBRANCH  63  84
ENDBRANCH  37  38
ENDBRANCH  29  32
ENDBRANCH  27  28
ENDBRANCH  26  27
ENDBRANCH   1  26
TORSDOF 18
ENDMDL
MODEL 3
REMARK VINA RESULT:     -10.9      0.670      8.111
REMARK SMILES O=C(CCc1nc(-c2ccccc2)c(-c2ccccc2)o1)NCCCCNC(=O)c1ccc(-c2c3nc(c(-c4ccc(S(=O)(=O)[O-])cc4)c4ccc([nH]4)c(-c4ccc(S(=O)(=O)[O-])cc4)c4nc(c(-c5ccc(S(=O)(=O)[O-])cc5)c5ccc2[nH]5)C=C4)C=C3)cc1
REMARK SMILES IDX 24 1 23 2 22 3 1 4 2 5 3 7 4 8 5 9 6 10 21 11 7 12 14 13
REMARK SMILES IDX 8 14 9 15 13 16 10 17 12 18 11 19 15 20 16 21 20 22 17 23
REMARK SMILES IDX 19 24 18 25 25 26 26 27 27 28 28 29 29 31 30 32 31 33 89 34
REMARK SMILES IDX 32 35 88 36 33 37 34 38 35 39 82 40 36 41 87 42 81 43 83 44
REMARK SMILES IDX 37 45 86 46 80 47 79 48 38 50 68 51 49 52 67 53 50 54 53 55
REMARK SMILES IDX 66 56 84 57 51 58 52 59 65 61 85 62 54 63 39 64 40 65 48 66
REMARK SMILES IDX 41 67 47 68 42 69 43 70 44 71 45 72 46 73 69 74 70 75 78 76
REMARK SMILES IDX 71 77 77 78 72 79 73 80 74 81 75 82 76 83 55 84 56 85 64 86
REMARK SMILES IDX 57 87 63 88 58 89 59 90 60 91 61 92 62 93
REMARK H PARENT 22 6 27 30 83 49 53 60
REMARK Flexibility Score: inf
ROOT
ATOM      1  C   UNL A   1      35.263  22.395  26.568  1.00  0.00     0.023 C 
ENDROOT
BRANCH   1   2
ATOM      2  C   UNL A   1      34.262  21.419  25.947  1.00  0.00     0.116 C 
BRANCH   2   3
ATOM      3  N   UNL A   1      33.642  21.946  24.748  1.00  0.00    -0.356 N 
ATOM      4  O   UNL A   1      31.484  21.343  25.275  1.00  0.00    -0.275 OA
ATOM      5  C   UNL A   1      32.285  21.883  24.516  1.00  0.00     0.220 C 
ATOM      6  H   UNL A   1      34.214  22.368  24.067  1.00  0.00     0.163 HD
BRANCH   5   7
ATOM      7  C   UNL A   1      31.839  22.530  23.221  1.00  0.00     0.110 C 
BRANCH   7   8
ATOM      8  C   UNL A   1      32.736  23.690  22.806  1.00  0.00     0.107 C 
BRANCH   8   9
ATOM      9  C   UNL A   1      32.339  24.976  23.436  1.00  0.00     0.196 A 
ATOM     10  N   UNL A   1      32.960  25.639  24.388  1.00  0.00    -0.213 NA
ATOM     11  O   UNL A   1      31.251  25.619  22.910  1.00  0.00    -0.440 OA
ATOM     12  C   UNL A   1      32.212  26.783  24.538  1.00  0.00     0.117 A 
ATOM     13  C   UNL A   1      31.184  26.798  23.611  1.00  0.00     0.162 A 
BRANCH  12  14
ATOM     14  C   UNL A   1      32.548  27.833  25.480  1.00  0.00     0.004 A 
ATOM     15  C   UNL A   1      31.603  28.795  25.861  1.00  0.00     0.010 A 
ATOM     16  C   UNL A   1      33.839  27.894  26.020  1.00  0.00     0.010 A 
ATOM     17  C   UNL A   1      31.951  29.814  26.750  1.00  0.00     0.001 A 
ATOM     18  C   UNL A   1      34.190  28.922  26.899  1.00  0.00     0.001 A 
ATOM     19  C   UNL A   1      33.246  29.884  27.260  1.00  0.00     0.000 A 
ENDBRANCH  12  14
BRANCH  13  20
ATOM     20  C   UNL A   1      30.224  27.781  23.143  1.00  0.00     0.020 A 
ATOM     21  C   UNL A   1      28.854  27.679  23.391  1.00  0.00     0.012 A 
ATOM     22  C   UNL A   1      30.690  28.887  22.424  1.00  0.00     0.012 A 
ATOM     23  C   UNL A   1      27.982  28.678  22.937  1.00  0.00     0.001 A 
ATOM     24  C   UNL A   1      29.823  29.864  21.941  1.00  0.00     0.001 A 
ATOM     25  C   UNL A   1      28.465  29.765  22.209  1.00  0.00     0.000 A 
ENDBRANCH  13  20
ENDBRANCH   8   9
ENDBRANCH   7   8
ENDBRANCH   5   7
ENDBRANCH   2   3
ENDBRANCH   1   2
BRANCH   1  26
ATOM     26  C   UNL A   1      35.472  23.704  25.804  1.00  0.00     0.023 C 
BRANCH  26  27
ATOM     27  C   UNL A   1      36.751  23.807  24.980  1.00  0.00     0.116 C 
BRANCH  27  28
ATOM     28  N   UNL A   1      37.738  22.780  25.244  1.00  0.00    -0.352 N 
ATOM     29  C   UNL A   1      38.913  22.879  25.961  1.00  0.00     0.251 C 
ATOM     30  H   UNL A   1      37.545  21.893  24.861  1.00  0.00     0.163 HD
ATOM     31  O   UNL A   1      39.684  21.919  25.986  1.00  0.00    -0.269 OA
BRANCH  29  32
ATOM     32  C   UNL A   1      39.282  24.134  26.676  1.00  0.00     0.039 A 
ATOM     33  C   UNL A   1      38.843  24.323  27.990  1.00  0.00     0.014 A 
ATOM     34  C   UNL A   1      40.036  25.137  26.067  1.00  0.00     0.014 A 
ATOM     35  C   UNL A   1      39.212  25.476  28.702  1.00  0.00     0.010 A 
ATOM     36  C   UNL A   1      40.457  26.255  26.796  1.00  0.00     0.010 A 
ATOM     37  C   UNL A   1      40.055  26.440  28.125  1.00  0.00    -0.014 A 
BRANCH  37  38
ATOM     38  C   UNL A   1      40.550  27.615  28.900  1.00  0.00     0.031 A 
ATOM     39  C   UNL A   1      39.695  28.845  29.084  1.00  0.00     0.074 A 
ATOM     40  C   UNL A   1      41.809  27.612  29.388  1.00  0.00     0.049 A 
ATOM     41  N   UNL A   1      39.971  29.954  29.728  1.00  0.00    -0.248 NA
ATOM     42  C   UNL A   1      38.364  28.838  28.457  1.00  0.00     0.031 C 
ATOM     43  C   UNL A   1      42.768  26.513  29.252  1.00  0.00     0.029 A 
ATOM     44  N   UNL A   1      42.504  28.567  30.092  1.00  0.00    -0.354 N 
ATOM     45  C   UNL A   1      38.855  30.771  29.585  1.00  0.00     0.074 A 
ATOM     46  C   UNL A   1      37.918  30.053  28.746  1.00  0.00     0.031 C 
ATOM     47  C   UNL A   1      43.915  26.849  29.861  1.00  0.00     0.029 A 
ATOM     48  C   UNL A   1      43.789  28.195  30.412  1.00  0.00     0.049 A 
ATOM     49  H   UNL A   1      42.117  29.437  30.343  1.00  0.00     0.167 HD
ATOM     50  C   UNL A   1      38.616  31.995  30.118  1.00  0.00     0.031 A 
ATOM     51  C   UNL A   1      44.762  28.852  31.074  1.00  0.00     0.031 A 
ATOM     52  C   UNL A   1      39.548  32.716  30.949  1.00  0.00     0.049 A 
ATOM     53  C   UNL A   1      44.488  30.224  31.631  1.00  0.00     0.074 A 
ATOM     54  C   UNL A   1      39.364  33.931  31.589  1.00  0.00     0.029 A 
ATOM     55  N   UNL A   1      40.838  32.304  31.244  1.00  0.00    -0.354 N 
ATOM     56  N   UNL A   1      43.387  30.933  31.566  1.00  0.00    -0.248 NA
ATOM     57  C   UNL A   1      45.580  30.873  32.368  1.00  0.00     0.031 C 
ATOM     58  C   UNL A   1      40.565  34.285  32.213  1.00  0.00     0.029 A 
ATOM     59  C   UNL A   1      41.474  33.256  32.024  1.00  0.00     0.049 A 
ATOM     60  H   UNL A   1      41.243  31.458  30.943  1.00  0.00     0.167 HD
ATOM     61  C   UNL A   1      43.643  32.097  32.286  1.00  0.00     0.074 A 
ATOM     62  C   UNL A   1      44.999  31.989  32.785  1.00  0.00     0.031 C 
ATOM     63  C   UNL A   1      42.825  33.152  32.516  1.00  0.00     0.031 A 
BRANCH  50  64
ATOM     64  C   UNL A   1      37.289  32.648  29.817  1.00  0.00    -0.014 A 
ATOM     65  C   UNL A   1      36.191  32.496  30.684  1.00  0.00     0.010 A 
ATOM     66  C   UNL A   1      37.156  33.479  28.689  1.00  0.00     0.010 A 
ATOM     67  C   UNL A   1      34.975  33.126  30.405  1.00  0.00     0.020 A 
ATOM     68  C   UNL A   1      35.950  34.136  28.423  1.00  0.00     0.020 A 
ATOM     69  C   UNL A   1      34.861  33.941  29.275  1.00  0.00     0.054 A 
BRANCH  69  70
ATOM     70  S   UNL A   1      33.277  34.763  28.952  1.00  0.00     0.124 S 
ATOM     71  O   UNL A   1      32.684  33.886  27.946  1.00  0.00    -0.237 OA
ATOM     72  O   UNL A   1      32.632  34.741  30.262  1.00  0.00    -0.237 OA
ATOM     73  O   UNL A   1      33.663  36.087  28.472  1.00  0.00    -0.744 OA
ENDBRANCH  69  70
ENDBRANCH  50  64
BRANCH  51  74
ATOM     74  C   UNL A   1      46.090  28.207  31.275  1.00  0.00    -0.014 A 
ATOM     75  C   UNL A   1      47.130  28.408  30.351  1.00  0.00     0.010 A 
ATOM     76  C   UNL A   1      46.323  27.393  32.400  1.00  0.00     0.010 A 
ATOM     77  C   UNL A   1      48.372  27.793  30.536  1.00  0.00     0.020 A 
ATOM     78  C   UNL A   1      47.572  26.802  32.604  1.00  0.00     0.020 A 
ATOM     79  C   UNL A   1      48.586  26.996  31.663  1.00  0.00     0.054 A 
BRANCH  79  80
ATOM     80  S   UNL A   1      50.221  26.250  31.907  1.00  0.00     0.124 S 
ATOM     81  O   UNL A   1      50.879  27.232  32.763  1.00  0.00    -0.237 OA
ATOM     82  O   UNL A   1      49.893  24.975  32.539  1.00  0.00    -0.237 OA
ATOM     83  O   UNL A   1      50.753  26.145  30.550  1.00  0.00    -0.744 OA
ENDBRANCH  79  80
ENDBRANCH  51  74
BRANCH  63  84
ATOM     84  C   UNL A   1      43.354  34.271  33.378  1.00  0.00    -0.014 A 
ATOM     85  C   UNL A   1      43.221  34.245  34.778  1.00  0.00     0.010 A 
ATOM     86  C   UNL A   1      44.041  35.343  32.778  1.00  0.00     0.010 A 
ATOM     87  C   UNL A   1      43.734  35.287  35.557  1.00  0.00     0.020 A 
ATOM     88  C   UNL A   1      44.584  36.370  33.556  1.00  0.00     0.020 A 
ATOM     89  C   UNL A   1      44.414  36.342  34.941  1.00  0.00     0.054 A 
BRANCH  89  90
ATOM     90  S   UNL A   1      45.108  37.659  35.979  1.00  0.00     0.124 S 
ATOM     91  O   UNL A   1      45.111  37.036  37.300  1.00  0.00    -0.237 OA
ATOM     92  O   UNL A   1      46.424  37.874  35.383  1.00  0.00    -0.237 OA
ATOM     93  O   UNL A   1      44.167  38.764  35.813  1.00  0.00    -0.744 OA
ENDBRANCH  89  90
ENDBRANCH  63  84
ENDBRANCH  37  38
ENDBRANCH  29  32
ENDBRANCH  27  28
ENDBRANCH  26  27
ENDBRANCH   1  26
TORSDOF 18
ENDMDL
