MODEL 1
REMARK VINA RESULT:     -11.7      0.000      0.000
REMARK SMILES CC1(C)CC(=O)C(/C=N/Cc2ccc(C(=O)NCCCCNC(=O)c3ccc(-c4c5nc(c(-c6ccc(S(=O)(=O)[O-])cc6)c6ccc([nH]6)c(-c6ccc(S(=O)(=O)[O-])cc6)c6nc(c(-c7ccc(S(=O)(=O)[O-])cc7)c7ccc4[nH]7)C=C6)C=C5)cc3)cc2)=C([O-])C1
REMARK SMILES IDX 19 1 18 2 17 3 15 4 16 5 14 7 11 8 12 9 86 10 13 11 85 12
REMARK SMILES IDX 10 13 9 14 8 15 7 16 1 17 2 18 3 19 4 20 89 21 5 22 87 23
REMARK SMILES IDX 6 24 88 25 20 26 21 27 22 28 23 29 24 31 25 32 26 33 84 34
REMARK SMILES IDX 27 35 83 36 28 37 29 38 30 39 77 40 31 41 82 42 76 43 78 44
REMARK SMILES IDX 32 45 81 46 75 47 74 48 33 50 63 51 44 52 62 53 45 54 48 55
REMARK SMILES IDX 61 56 79 57 46 58 47 59 60 61 80 62 49 63 34 64 35 65 43 66
REMARK SMILES IDX 36 67 42 68 37 69 38 70 39 71 40 72 41 73 64 74 65 75 73 76
REMARK SMILES IDX 66 77 72 78 67 79 68 80 69 81 70 82 71 83 50 84 51 85 59 86
REMARK SMILES IDX 52 87 58 88 53 89 54 90 55 91 56 92 57 93
REMARK H PARENT 17 6 22 30 78 49 48 60
REMARK Flexibility Score: inf
ROOT
ATOM      1  C   UNL A   1      32.623  29.363  24.809  1.00  0.00     0.023 C 
ENDROOT
BRANCH   1   2
ATOM      2  C   UNL A   1      31.179  29.844  24.958  1.00  0.00     0.116 C 
BRANCH   2   3
ATOM      3  N   UNL A   1      30.576  30.042  23.655  1.00  0.00    -0.352 N 
ATOM      4  C   UNL A   1      30.274  29.148  22.662  1.00  0.00     0.251 C 
ATOM      5  O   UNL A   1      29.727  29.562  21.641  1.00  0.00    -0.269 OA
ATOM      6  H   UNL A   1      30.344  30.976  23.449  1.00  0.00     0.163 HD
BRANCH   4   7
ATOM      7  C   UNL A   1      30.517  27.690  22.805  1.00  0.00     0.039 A 
ATOM      8  C   UNL A   1      30.840  24.920  23.210  1.00  0.00    -0.027 A 
ATOM      9  C   UNL A   1      29.876  25.639  23.929  1.00  0.00     0.006 A 
ATOM     10  C   UNL A   1      31.622  25.596  22.268  1.00  0.00     0.006 A 
ATOM     11  C   UNL A   1      29.709  27.008  23.723  1.00  0.00     0.014 A 
ATOM     12  C   UNL A   1      31.450  26.968  22.058  1.00  0.00     0.014 A 
BRANCH   8  13
ATOM     13  C   UNL A   1      30.974  23.426  23.386  1.00  0.00     0.177 C 
BRANCH  13  14
ATOM     14  N   UNL A   1      32.384  23.026  23.402  1.00  0.00    -0.288 NA
ATOM     15  C   UNL A   1      33.052  23.458  24.413  1.00  0.00     0.116 C 
BRANCH  15  16
ATOM     16  C   UNL A   1      34.465  23.124  24.719  1.00  0.00     0.024 C 
ATOM     17  C   UNL A   1      38.616  22.339  25.893  1.00  0.00     0.012 C 
ATOM     18  C   UNL A   1      37.175  22.174  25.376  1.00  0.00    -0.025 C 
ATOM     19  C   UNL A   1      36.962  20.692  25.006  1.00  0.00     0.012 C 
ATOM     20  C   UNL A   1      36.981  23.068  24.146  1.00  0.00     0.087 C 
ATOM     21  C   UNL A   1      36.195  22.605  26.482  1.00  0.00     0.026 C 
ATOM     22  C   UNL A   1      35.541  23.136  23.681  1.00  0.00     0.164 C 
ATOM     23  C   UNL A   1      34.792  22.863  26.001  1.00  0.00    -0.120 C 
ATOM     24  O   UNL A   1      35.300  23.284  22.486  1.00  0.00    -0.294 OA
ATOM     25  O   UNL A   1      33.866  22.790  27.029  1.00  0.00    -0.875 OA
ENDBRANCH  15  16
ENDBRANCH  13  14
ENDBRANCH   8  13
ENDBRANCH   4   7
ENDBRANCH   2   3
ENDBRANCH   1   2
BRANCH   1  26
ATOM     26  C   UNL A   1      32.962  28.129  25.650  1.00  0.00     0.023 C 
BRANCH  26  27
ATOM     27  C   UNL A   1      33.600  28.430  27.000  1.00  0.00     0.116 C 
BRANCH  27  28
ATOM     28  N   UNL A   1      33.455  29.821  27.400  1.00  0.00    -0.352 N 
ATOM     29  C   UNL A   1      34.371  30.623  28.040  1.00  0.00     0.251 C 
ATOM     30  H   UNL A   1      32.592  30.242  27.186  1.00  0.00     0.163 HD
ATOM     31  O   UNL A   1      34.058  31.745  28.412  1.00  0.00    -0.269 OA
BRANCH  29  32
ATOM     32  C   UNL A   1      35.721  30.089  28.307  1.00  0.00     0.039 A 
ATOM     33  C   UNL A   1      36.671  30.126  27.284  1.00  0.00     0.014 A 
ATOM     34  C   UNL A   1      36.057  29.599  29.571  1.00  0.00     0.014 A 
ATOM     35  C   UNL A   1      37.981  29.724  27.549  1.00  0.00     0.010 A 
ATOM     36  C   UNL A   1      37.378  29.261  29.850  1.00  0.00     0.010 A 
ATOM     37  C   UNL A   1      38.351  29.320  28.842  1.00  0.00    -0.014 A 
BRANCH  37  38
ATOM     38  C   UNL A   1      39.754  28.959  29.159  1.00  0.00     0.031 A 
ATOM     39  C   UNL A   1      40.666  29.969  29.799  1.00  0.00     0.074 A 
ATOM     40  C   UNL A   1      40.222  27.743  28.813  1.00  0.00     0.049 A 
ATOM     41  N   UNL A   1      41.932  29.857  30.107  1.00  0.00    -0.248 NA
ATOM     42  C   UNL A   1      40.085  31.287  30.110  1.00  0.00     0.031 C 
ATOM     43  C   UNL A   1      39.448  26.695  28.144  1.00  0.00     0.029 A 
ATOM     44  N   UNL A   1      41.466  27.187  28.971  1.00  0.00    -0.354 N 
ATOM     45  C   UNL A   1      42.303  31.089  30.630  1.00  0.00     0.074 A 
ATOM     46  C   UNL A   1      41.143  31.949  30.554  1.00  0.00     0.031 C 
ATOM     47  C   UNL A   1      40.227  25.615  27.972  1.00  0.00     0.029 A 
ATOM     48  C   UNL A   1      41.561  25.904  28.485  1.00  0.00     0.049 A 
ATOM     49  H   UNL A   1      42.219  27.662  29.390  1.00  0.00     0.167 HD
ATOM     50  C   UNL A   1      43.498  31.466  31.146  1.00  0.00     0.031 A 
ATOM     51  C   UNL A   1      42.608  25.056  28.457  1.00  0.00     0.031 A 
ATOM     52  C   UNL A   1      44.645  30.603  31.233  1.00  0.00     0.049 A 
ATOM     53  C   UNL A   1      43.921  25.494  29.043  1.00  0.00     0.074 A 
ATOM     54  C   UNL A   1      45.883  30.870  31.791  1.00  0.00     0.029 A 
ATOM     55  N   UNL A   1      44.695  29.303  30.750  1.00  0.00    -0.354 N 
ATOM     56  N   UNL A   1      44.235  26.641  29.594  1.00  0.00    -0.248 NA
ATOM     57  C   UNL A   1      45.018  24.516  29.016  1.00  0.00     0.031 C 
ATOM     58  C   UNL A   1      46.696  29.746  31.607  1.00  0.00     0.029 A 
ATOM     59  C   UNL A   1      45.948  28.761  30.981  1.00  0.00     0.049 A 
ATOM     60  H   UNL A   1      43.951  28.835  30.309  1.00  0.00     0.167 HD
ATOM     61  C   UNL A   1      45.557  26.515  30.004  1.00  0.00     0.074 A 
ATOM     62  C   UNL A   1      45.980  25.175  29.647  1.00  0.00     0.031 C 
ATOM     63  C   UNL A   1      46.351  27.426  30.619  1.00  0.00     0.031 A 
BRANCH  50  64
ATOM     64  C   UNL A   1      43.620  32.877  31.654  1.00  0.00    -0.014 A 
ATOM     65  C   UNL A   1      43.346  33.189  33.000  1.00  0.00     0.010 A 
ATOM     66  C   UNL A   1      44.041  33.901  30.787  1.00  0.00     0.010 A 
ATOM     67  C   UNL A   1      43.448  34.505  33.456  1.00  0.00     0.020 A 
ATOM     68  C   UNL A   1      44.171  35.214  31.246  1.00  0.00     0.020 A 
ATOM     69  C   UNL A   1      43.856  35.512  32.574  1.00  0.00     0.054 A 
BRANCH  69  70
ATOM     70  S   UNL A   1      43.997  37.209  33.197  1.00  0.00     0.124 S 
ATOM     71  O   UNL A   1      45.315  37.188  33.828  1.00  0.00    -0.237 OA
ATOM     72  O   UNL A   1      43.897  38.008  31.980  1.00  0.00    -0.237 OA
ATOM     73  O   UNL A   1      42.869  37.335  34.118  1.00  0.00    -0.744 OA
ENDBRANCH  69  70
ENDBRANCH  50  64
BRANCH  51  74
ATOM     74  C   UNL A   1      42.446  23.697  27.871  1.00  0.00    -0.014 A 
ATOM     75  C   UNL A   1      42.757  23.462  26.521  1.00  0.00     0.010 A 
ATOM     76  C   UNL A   1      41.996  22.627  28.666  1.00  0.00     0.010 A 
ATOM     77  C   UNL A   1      42.602  22.188  25.969  1.00  0.00     0.020 A 
ATOM     78  C   UNL A   1      41.864  21.345  28.125  1.00  0.00     0.020 A 
ATOM     79  C   UNL A   1      42.157  21.136  26.776  1.00  0.00     0.054 A 
BRANCH  79  80
ATOM     80  S   UNL A   1      42.014  19.478  26.053  1.00  0.00     0.124 S 
ATOM     81  O   UNL A   1      42.529  18.634  27.127  1.00  0.00    -0.237 OA
ATOM     82  O   UNL A   1      40.582  19.368  25.793  1.00  0.00    -0.237 OA
ATOM     83  O   UNL A   1      42.852  19.553  24.858  1.00  0.00    -0.744 OA
ENDBRANCH  79  80
ENDBRANCH  51  74
BRANCH  63  84
ATOM     84  C   UNL A   1      47.747  26.996  30.977  1.00  0.00    -0.014 A 
ATOM     85  C   UNL A   1      48.021  26.356  32.198  1.00  0.00     0.010 A 
ATOM     86  C   UNL A   1      48.791  27.191  30.054  1.00  0.00     0.010 A 
ATOM     87  C   UNL A   1      49.321  25.943  32.501  1.00  0.00     0.020 A 
ATOM     88  C   UNL A   1      50.086  26.757  30.343  1.00  0.00     0.020 A 
ATOM     89  C   UNL A   1      50.346  26.148  31.572  1.00  0.00     0.054 A 
BRANCH  89  90
ATOM     90  S   UNL A   1      52.016  25.564  31.969  1.00  0.00     0.124 S 
ATOM     91  O   UNL A   1      52.328  26.331  33.173  1.00  0.00    -0.237 OA
ATOM     92  O   UNL A   1      51.817  24.131  32.171  1.00  0.00    -0.237 OA
ATOM     93  O   UNL A   1      52.797  25.917  30.786  1.00  0.00    -0.744 OA
ENDBRANCH  89  90
ENDBRANCH  63  84
ENDBRANCH  37  38
ENDBRANCH  29  32
ENDBRANCH  27  28
ENDBRANCH  26  27
ENDBRANCH   1  26
TORSDOF 17
ENDMDL
MODEL 2
REMARK VINA RESULT:     -11.6      2.617      9.364
REMARK SMILES CC1(C)CC(=O)C(/C=N/Cc2ccc(C(=O)NCCCCNC(=O)c3ccc(-c4c5nc(c(-c6ccc(S(=O)(=O)[O-])cc6)c6ccc([nH]6)c(-c6ccc(S(=O)(=O)[O-])cc6)c6nc(c(-c7ccc(S(=O)(=O)[O-])cc7)c7ccc4[nH]7)C=C6)C=C5)cc3)cc2)=C([O-])C1
REMARK SMILES IDX 19 1 18 2 17 3 15 4 16 5 14 7 11 8 12 9 86 10 13 11 85 12
REMARK SMILES IDX 10 13 9 14 8 15 7 16 1 17 2 18 3 19 4 20 89 21 5 22 87 23
REMARK SMILES IDX 6 24 88 25 20 26 21 27 22 28 23 29 24 31 25 32 26 33 84 34
REMARK SMILES IDX 27 35 83 36 28 37 29 38 30 39 77 40 31 41 82 42 76 43 78 44
REMARK SMILES IDX 32 45 81 46 75 47 74 48 33 50 63 51 44 52 62 53 45 54 48 55
REMARK SMILES IDX 61 56 79 57 46 58 47 59 60 61 80 62 49 63 34 64 35 65 43 66
REMARK SMILES IDX 36 67 42 68 37 69 38 70 39 71 40 72 41 73 64 74 65 75 73 76
REMARK SMILES IDX 66 77 72 78 67 79 68 80 69 81 70 82 71 83 50 84 51 85 59 86
REMARK SMILES IDX 52 87 58 88 53 89 54 90 55 91 56 92 57 93
REMARK H PARENT 17 6 22 30 78 49 48 60
REMARK Flexibility Score: inf
ROOT
ATOM      1  C   UNL A   1      35.403  21.682  26.067  1.00  0.00     0.023 C 
ENDROOT
BRANCH   1   2
ATOM      2  C   UNL A   1      35.387  20.578  25.010  1.00  0.00     0.116 C 
BRANCH   2   3
ATOM      3  N   UNL A   1      34.312  19.643  25.271  1.00  0.00    -0.352 N 
ATOM      4  C   UNL A   1      32.954  19.777  25.135  1.00  0.00     0.251 C 
ATOM      5  O   UNL A   1      32.237  18.813  25.397  1.00  0.00    -0.269 OA
ATOM      6  H   UNL A   1      34.604  18.764  25.601  1.00  0.00     0.163 HD
BRANCH   4   7
ATOM      7  C   UNL A   1      32.327  21.019  24.614  1.00  0.00     0.039 A 
ATOM      8  C   UNL A   1      31.077  23.411  23.805  1.00  0.00    -0.027 A 
ATOM      9  C   UNL A   1      31.044  23.006  25.147  1.00  0.00     0.006 A 
ATOM     10  C   UNL A   1      31.765  22.620  22.879  1.00  0.00     0.006 A 
ATOM     11  C   UNL A   1      31.671  21.827  25.549  1.00  0.00     0.014 A 
ATOM     12  C   UNL A   1      32.397  21.441  23.285  1.00  0.00     0.014 A 
BRANCH   8  13
ATOM     13  C   UNL A   1      30.457  24.721  23.382  1.00  0.00     0.177 C 
BRANCH  13  14
ATOM     14  N   UNL A   1      30.695  25.761  24.387  1.00  0.00    -0.288 NA
ATOM     15  C   UNL A   1      31.883  26.254  24.376  1.00  0.00     0.116 C 
BRANCH  15  16
ATOM     16  C   UNL A   1      32.358  27.378  25.221  1.00  0.00     0.024 C 
ATOM     17  C   UNL A   1      34.072  30.638  27.599  1.00  0.00     0.012 C 
ATOM     18  C   UNL A   1      33.133  29.793  26.719  1.00  0.00    -0.025 C 
ATOM     19  C   UNL A   1      31.899  30.649  26.368  1.00  0.00     0.012 C 
ATOM     20  C   UNL A   1      32.712  28.540  27.497  1.00  0.00     0.087 C 
ATOM     21  C   UNL A   1      33.886  29.374  25.444  1.00  0.00     0.026 C 
ATOM     22  C   UNL A   1      31.953  27.541  26.650  1.00  0.00     0.164 C 
ATOM     23  C   UNL A   1      33.240  28.245  24.685  1.00  0.00    -0.120 C 
ATOM     24  O   UNL A   1      31.092  26.838  27.174  1.00  0.00    -0.294 OA
ATOM     25  O   UNL A   1      33.650  28.204  23.362  1.00  0.00    -0.875 OA
ENDBRANCH  15  16
ENDBRANCH  13  14
ENDBRANCH   8  13
ENDBRANCH   4   7
ENDBRANCH   2   3
ENDBRANCH   1   2
BRANCH   1  26
ATOM     26  C   UNL A   1      35.416  23.101  25.492  1.00  0.00     0.023 C 
BRANCH  26  27
ATOM     27  C   UNL A   1      36.799  23.727  25.365  1.00  0.00     0.116 C 
BRANCH  27  28
ATOM     28  N   UNL A   1      37.877  22.762  25.518  1.00  0.00    -0.352 N 
ATOM     29  C   UNL A   1      39.103  22.943  26.113  1.00  0.00     0.251 C 
ATOM     30  H   UNL A   1      37.707  21.866  25.150  1.00  0.00     0.163 HD
ATOM     31  O   UNL A   1      39.951  22.063  26.065  1.00  0.00    -0.269 OA
BRANCH  29  32
ATOM     32  C   UNL A   1      39.392  24.232  26.773  1.00  0.00     0.039 A 
ATOM     33  C   UNL A   1      38.957  24.427  28.085  1.00  0.00     0.014 A 
ATOM     34  C   UNL A   1      40.125  25.222  26.113  1.00  0.00     0.014 A 
ATOM     35  C   UNL A   1      39.312  25.595  28.759  1.00  0.00     0.010 A 
ATOM     36  C   UNL A   1      40.532  26.356  26.808  1.00  0.00     0.010 A 
ATOM     37  C   UNL A   1      40.129  26.553  28.137  1.00  0.00    -0.014 A 
BRANCH  37  38
ATOM     38  C   UNL A   1      40.576  27.767  28.863  1.00  0.00     0.031 A 
ATOM     39  C   UNL A   1      41.934  27.803  29.506  1.00  0.00     0.074 A 
ATOM     40  C   UNL A   1      39.732  28.810  28.996  1.00  0.00     0.049 A 
ATOM     41  N   UNL A   1      42.482  28.752  30.221  1.00  0.00    -0.248 NA
ATOM     42  C   UNL A   1      42.779  26.607  29.345  1.00  0.00     0.031 C 
ATOM     43  C   UNL A   1      38.371  28.874  28.459  1.00  0.00     0.029 A 
ATOM     44  N   UNL A   1      39.894  30.015  29.632  1.00  0.00    -0.354 N 
ATOM     45  C   UNL A   1      43.723  28.263  30.609  1.00  0.00     0.074 A 
ATOM     46  C   UNL A   1      43.829  26.916  30.091  1.00  0.00     0.031 C 
ATOM     47  C   UNL A   1      37.832  30.065  28.765  1.00  0.00     0.029 A 
ATOM     48  C   UNL A   1      38.794  30.835  29.548  1.00  0.00     0.049 A 
ATOM     49  H   UNL A   1      40.720  30.268  30.104  1.00  0.00     0.167 HD
ATOM     50  C   UNL A   1      44.696  28.885  31.317  1.00  0.00     0.031 A 
ATOM     51  C   UNL A   1      38.583  32.068  30.047  1.00  0.00     0.031 A 
ATOM     52  C   UNL A   1      44.592  30.229  31.818  1.00  0.00     0.049 A 
ATOM     53  C   UNL A   1      39.681  32.742  30.822  1.00  0.00     0.074 A 
ATOM     54  C   UNL A   1      45.543  30.971  32.496  1.00  0.00     0.029 A 
ATOM     55  N   UNL A   1      43.469  31.034  31.694  1.00  0.00    -0.354 N 
ATOM     56  N   UNL A   1      40.874  32.288  31.122  1.00  0.00    -0.248 NA
ATOM     57  C   UNL A   1      39.409  34.100  31.314  1.00  0.00     0.031 C 
ATOM     58  C   UNL A   1      44.981  32.210  32.819  1.00  0.00     0.029 A 
ATOM     59  C   UNL A   1      43.697  32.259  32.298  1.00  0.00     0.049 A 
ATOM     60  H   UNL A   1      42.635  30.775  31.243  1.00  0.00     0.167 HD
ATOM     61  C   UNL A   1      41.505  33.315  31.815  1.00  0.00     0.074 A 
ATOM     62  C   UNL A   1      40.566  34.417  31.879  1.00  0.00     0.031 C 
ATOM     63  C   UNL A   1      42.750  33.344  32.352  1.00  0.00     0.031 A 
BRANCH  50  64
ATOM     64  C   UNL A   1      45.957  28.111  31.591  1.00  0.00    -0.014 A 
ATOM     65  C   UNL A   1      46.118  27.389  32.788  1.00  0.00     0.010 A 
ATOM     66  C   UNL A   1      46.983  28.079  30.630  1.00  0.00     0.010 A 
ATOM     67  C   UNL A   1      47.300  26.686  33.037  1.00  0.00     0.020 A 
ATOM     68  C   UNL A   1      48.155  27.355  30.863  1.00  0.00     0.020 A 
ATOM     69  C   UNL A   1      48.314  26.678  32.075  1.00  0.00     0.054 A 
BRANCH  69  70
ATOM     70  S   UNL A   1      49.830  25.743  32.416  1.00  0.00     0.124 S 
ATOM     71  O   UNL A   1      49.305  24.557  33.088  1.00  0.00    -0.237 OA
ATOM     72  O   UNL A   1      50.378  25.519  31.082  1.00  0.00    -0.237 OA
ATOM     73  O   UNL A   1      50.609  26.644  33.263  1.00  0.00    -0.744 OA
ENDBRANCH  69  70
ENDBRANCH  50  64
BRANCH  51  74
ATOM     74  C   UNL A   1      37.284  32.754  29.807  1.00  0.00    -0.014 A 
ATOM     75  C   UNL A   1      37.085  33.514  28.642  1.00  0.00     0.010 A 
ATOM     76  C   UNL A   1      36.234  32.636  30.736  1.00  0.00     0.010 A 
ATOM     77  C   UNL A   1      35.867  34.161  28.418  1.00  0.00     0.020 A 
ATOM     78  C   UNL A   1      35.005  33.261  30.503  1.00  0.00     0.020 A 
ATOM     79  C   UNL A   1      34.834  34.030  29.350  1.00  0.00     0.054 A 
BRANCH  79  80
ATOM     80  S   UNL A   1      33.242  34.835  29.013  1.00  0.00     0.124 S 
ATOM     81  O   UNL A   1      32.607  34.812  30.327  1.00  0.00    -0.237 OA
ATOM     82  O   UNL A   1      33.649  36.151  28.528  1.00  0.00    -0.237 OA
ATOM     83  O   UNL A   1      32.630  33.971  28.006  1.00  0.00    -0.744 OA
ENDBRANCH  79  80
ENDBRANCH  51  74
BRANCH  63  84
ATOM     84  C   UNL A   1      43.183  34.617  33.025  1.00  0.00    -0.014 A 
ATOM     85  C   UNL A   1      43.726  35.682  32.287  1.00  0.00     0.010 A 
ATOM     86  C   UNL A   1      42.995  34.767  34.412  1.00  0.00     0.010 A 
ATOM     87  C   UNL A   1      44.100  36.866  32.930  1.00  0.00     0.020 A 
ATOM     88  C   UNL A   1      43.344  35.957  35.052  1.00  0.00     0.020 A 
ATOM     89  C   UNL A   1      43.909  36.995  34.308  1.00  0.00     0.054 A 
BRANCH  89  90
ATOM     90  S   UNL A   1      44.361  38.556  35.112  1.00  0.00     0.124 S 
ATOM     91  O   UNL A   1      43.590  39.529  34.342  1.00  0.00    -0.237 OA
ATOM     92  O   UNL A   1      43.916  38.350  36.489  1.00  0.00    -0.237 OA
ATOM     93  O   UNL A   1      45.809  38.630  34.937  1.00  0.00    -0.744 OA
ENDBRANCH  89  90
ENDBRANCH  63  84
ENDBRANCH  37  38
ENDBRANCH  29  32
ENDBRANCH  27  28
ENDBRANCH  26  27
ENDBRANCH   1  26
TORSDOF 17
ENDMDL
MODEL 3
REMARK VINA RESULT:     -11.2      4.456     11.686
REMARK SMILES CC1(C)CC(=O)C(/C=N/Cc2ccc(C(=O)NCCCCNC(=O)c3ccc(-c4c5nc(c(-c6ccc(S(=O)(=O)[O-])cc6)c6ccc([nH]6)c(-c6ccc(S(=O)(=O)[O-])cc6)c6nc(c(-c7ccc(S(=O)(=O)[O-])cc7)c7ccc4[nH]7)C=C6)C=C5)cc3)cc2)=C([O-])C1
REMARK SMILES IDX 19 1 18 2 17 3 15 4 16 5 14 7 11 8 12 9 86 10 13 11 85 12
REMARK SMILES IDX 10 13 9 14 8 15 7 16 1 17 2 18 3 19 4 20 89 21 5 22 87 23
REMARK SMILES IDX 6 24 88 25 20 26 21 27 22 28 23 29 24 31 25 32 26 33 84 34
REMARK SMILES IDX 27 35 83 36 28 37 29 38 30 39 77 40 31 41 82 42 76 43 78 44
REMARK SMILES IDX 32 45 81 46 75 47 74 48 33 50 63 51 44 52 62 53 45 54 48 55
REMARK SMILES IDX 61 56 79 57 46 58 47 59 60 61 80 62 49 63 34 64 35 65 43 66
REMARK SMILES IDX 36 67 42 68 37 69 38 70 39 71 40 72 41 73 64 74 65 75 73 76
REMARK SMILES IDX 66 77 72 78 67 79 68 80 69 81 70 82 71 83 50 84 51 85 59 86
REMARK SMILES IDX 52 87 58 88 53 89 54 90 55 91 56 92 57 93
REMARK H PARENT 17 6 22 30 78 49 48 60
REMARK Flexibility Score: inf
ROOT
ATOM      1  C   UNL A   1      43.334  20.631  25.631  1.00  0.00     0.023 C 
ENDROOT
BRANCH   1   2
ATOM      2  C   UNL A   1      44.296  21.815  25.740  1.00  0.00     0.116 C 
BRANCH   2   3
ATOM      3  N   UNL A   1      44.466  22.202  27.126  1.00  0.00    -0.352 N 
ATOM      4  C   UNL A   1      44.997  23.337  27.681  1.00  0.00     0.251 C 
ATOM      5  O   UNL A   1      45.003  23.447  28.906  1.00  0.00    -0.269 OA
ATOM      6  H   UNL A   1      44.146  21.539  27.779  1.00  0.00     0.163 HD
BRANCH   4   7
ATOM      7  C   UNL A   1      45.497  24.466  26.855  1.00  0.00     0.039 A 
ATOM      8  C   UNL A   1      46.613  26.591  25.380  1.00  0.00    -0.027 A 
ATOM      9  C   UNL A   1      47.376  25.909  26.337  1.00  0.00     0.006 A 
ATOM     10  C   UNL A   1      45.295  26.182  25.150  1.00  0.00     0.006 A 
ATOM     11  C   UNL A   1      46.826  24.850  27.061  1.00  0.00     0.014 A 
ATOM     12  C   UNL A   1      44.748  25.117  25.873  1.00  0.00     0.014 A 
BRANCH   8  13
ATOM     13  C   UNL A   1      47.228  27.692  24.550  1.00  0.00     0.177 C 
BRANCH  13  14
ATOM     14  N   UNL A   1      46.540  28.966  24.777  1.00  0.00    -0.288 NA
ATOM     15  C   UNL A   1      46.468  29.323  26.010  1.00  0.00     0.116 C 
BRANCH  15  16
ATOM     16  C   UNL A   1      45.909  30.605  26.506  1.00  0.00     0.024 C 
ATOM     17  C   UNL A   1      44.504  34.398  28.198  1.00  0.00     0.012 C 
ATOM     18  C   UNL A   1      44.878  33.272  27.218  1.00  0.00    -0.025 C 
ATOM     19  C   UNL A   1      44.615  33.772  25.783  1.00  0.00     0.012 C 
ATOM     20  C   UNL A   1      44.019  32.039  27.522  1.00  0.00     0.087 C 
ATOM     21  C   UNL A   1      46.364  32.919  27.406  1.00  0.00     0.026 C 
ATOM     22  C   UNL A   1      44.449  30.809  26.750  1.00  0.00     0.164 C 
ATOM     23  C   UNL A   1      46.770  31.600  26.804  1.00  0.00    -0.120 C 
ATOM     24  O   UNL A   1      43.605  29.978  26.423  1.00  0.00    -0.294 OA
ATOM     25  O   UNL A   1      48.135  31.525  26.580  1.00  0.00    -0.875 OA
ENDBRANCH  15  16
ENDBRANCH  13  14
ENDBRANCH   8  13
ENDBRANCH   4   7
ENDBRANCH   2   3
ENDBRANCH   1   2
BRANCH   1  26
ATOM     26  C   UNL A   1      42.086  20.755  26.509  1.00  0.00     0.023 C 
BRANCH  26  27
ATOM     27  C   UNL A   1      41.408  22.118  26.469  1.00  0.00     0.116 C 
BRANCH  27  28
ATOM     28  N   UNL A   1      40.023  22.052  26.029  1.00  0.00    -0.352 N 
ATOM     29  C   UNL A   1      39.042  23.008  26.158  1.00  0.00     0.251 C 
ATOM     30  H   UNL A   1      39.753  21.218  25.582  1.00  0.00     0.163 HD
ATOM     31  O   UNL A   1      37.889  22.759  25.834  1.00  0.00    -0.269 OA
BRANCH  29  32
ATOM     32  C   UNL A   1      39.398  24.321  26.731  1.00  0.00     0.039 A 
ATOM     33  C   UNL A   1      39.086  24.576  28.068  1.00  0.00     0.014 A 
ATOM     34  C   UNL A   1      40.073  25.274  25.964  1.00  0.00     0.014 A 
ATOM     35  C   UNL A   1      39.508  25.769  28.655  1.00  0.00     0.010 A 
ATOM     36  C   UNL A   1      40.549  26.433  26.569  1.00  0.00     0.010 A 
ATOM     37  C   UNL A   1      40.271  26.691  27.920  1.00  0.00    -0.014 A 
BRANCH  37  38
ATOM     38  C   UNL A   1      40.790  27.931  28.549  1.00  0.00     0.031 A 
ATOM     39  C   UNL A   1      42.228  28.011  28.979  1.00  0.00     0.074 A 
ATOM     40  C   UNL A   1      39.949  28.956  28.788  1.00  0.00     0.049 A 
ATOM     41  N   UNL A   1      42.852  28.987  29.587  1.00  0.00    -0.248 NA
ATOM     42  C   UNL A   1      43.069  26.832  28.715  1.00  0.00     0.031 C 
ATOM     43  C   UNL A   1      38.521  28.977  28.460  1.00  0.00     0.029 A 
ATOM     44  N   UNL A   1      40.173  30.179  29.369  1.00  0.00    -0.354 N 
ATOM     45  C   UNL A   1      44.149  28.535  29.793  1.00  0.00     0.074 A 
ATOM     46  C   UNL A   1      44.211  27.181  29.289  1.00  0.00     0.031 C 
ATOM     47  C   UNL A   1      38.004  30.163  28.822  1.00  0.00     0.029 A 
ATOM     48  C   UNL A   1      39.052  30.971  29.437  1.00  0.00     0.049 A 
ATOM     49  H   UNL A   1      41.054  30.460  29.708  1.00  0.00     0.167 HD
ATOM     50  C   UNL A   1      45.201  29.195  30.335  1.00  0.00     0.031 A 
ATOM     51  C   UNL A   1      38.886  32.210  29.940  1.00  0.00     0.031 A 
ATOM     52  C   UNL A   1      45.138  30.547  30.822  1.00  0.00     0.049 A 
ATOM     53  C   UNL A   1      40.070  32.925  30.529  1.00  0.00     0.074 A 
ATOM     54  C   UNL A   1      46.161  31.325  31.336  1.00  0.00     0.029 A 
ATOM     55  N   UNL A   1      43.989  31.324  30.853  1.00  0.00    -0.354 N 
ATOM     56  N   UNL A   1      41.306  32.506  30.655  1.00  0.00    -0.248 NA
ATOM     57  C   UNL A   1      39.839  34.287  31.031  1.00  0.00     0.031 C 
ATOM     58  C   UNL A   1      45.621  32.558  31.717  1.00  0.00     0.029 A 
ATOM     59  C   UNL A   1      44.273  32.566  31.394  1.00  0.00     0.049 A 
ATOM     60  H   UNL A   1      43.103  31.035  30.537  1.00  0.00     0.167 HD
ATOM     61  C   UNL A   1      42.007  33.561  31.227  1.00  0.00     0.074 A 
ATOM     62  C   UNL A   1      41.059  34.643  31.410  1.00  0.00     0.031 C 
ATOM     63  C   UNL A   1      43.317  33.630  31.569  1.00  0.00     0.031 A 
BRANCH  50  64
ATOM     64  C   UNL A   1      46.508  28.456  30.431  1.00  0.00    -0.014 A 
ATOM     65  C   UNL A   1      47.419  28.454  29.357  1.00  0.00     0.010 A 
ATOM     66  C   UNL A   1      46.847  27.781  31.617  1.00  0.00     0.010 A 
ATOM     67  C   UNL A   1      48.623  27.752  29.452  1.00  0.00     0.020 A 
ATOM     68  C   UNL A   1      48.062  27.101  31.726  1.00  0.00     0.020 A 
ATOM     69  C   UNL A   1      48.936  27.075  30.636  1.00  0.00     0.054 A 
BRANCH  69  70
ATOM     70  S   UNL A   1      50.513  26.186  30.738  1.00  0.00     0.124 S 
ATOM     71  O   UNL A   1      50.085  24.867  31.195  1.00  0.00    -0.237 OA
ATOM     72  O   UNL A   1      51.006  26.245  29.366  1.00  0.00    -0.237 OA
ATOM     73  O   UNL A   1      51.284  26.961  31.708  1.00  0.00    -0.744 OA
ENDBRANCH  69  70
ENDBRANCH  50  64
BRANCH  51  74
ATOM     74  C   UNL A   1      37.549  32.860  29.885  1.00  0.00    -0.014 A 
ATOM     75  C   UNL A   1      37.155  33.584  28.747  1.00  0.00     0.010 A 
ATOM     76  C   UNL A   1      36.655  32.745  30.966  1.00  0.00     0.010 A 
ATOM     77  C   UNL A   1      35.901  34.199  28.696  1.00  0.00     0.020 A 
ATOM     78  C   UNL A   1      35.390  33.336  30.909  1.00  0.00     0.020 A 
ATOM     79  C   UNL A   1      35.026  34.070  29.778  1.00  0.00     0.054 A 
BRANCH  79  80
ATOM     80  S   UNL A   1      33.381  34.830  29.669  1.00  0.00     0.124 S 
ATOM     81  O   UNL A   1      33.691  36.142  29.108  1.00  0.00    -0.237 OA
ATOM     82  O   UNL A   1      32.667  33.915  28.784  1.00  0.00    -0.237 OA
ATOM     83  O   UNL A   1      32.916  34.835  31.054  1.00  0.00    -0.744 OA
ENDBRANCH  79  80
ENDBRANCH  51  74
BRANCH  63  84
ATOM     84  C   UNL A   1      43.813  34.927  32.147  1.00  0.00    -0.014 A 
ATOM     85  C   UNL A   1      44.236  35.979  31.317  1.00  0.00     0.010 A 
ATOM     86  C   UNL A   1      43.806  35.112  33.542  1.00  0.00     0.010 A 
ATOM     87  C   UNL A   1      44.671  37.185  31.874  1.00  0.00     0.020 A 
ATOM     88  C   UNL A   1      44.216  36.325  34.100  1.00  0.00     0.020 A 
ATOM     89  C   UNL A   1      44.660  37.350  33.262  1.00  0.00     0.054 A 
BRANCH  89  90
ATOM     90  S   UNL A   1      45.187  38.938  33.959  1.00  0.00     0.124 S 
ATOM     91  O   UNL A   1      46.639  38.861  33.827  1.00  0.00    -0.237 OA
ATOM     92  O   UNL A   1      44.528  39.908  33.087  1.00  0.00    -0.237 OA
ATOM     93  O   UNL A   1      44.683  38.900  35.329  1.00  0.00    -0.744 OA
ENDBRANCH  89  90
ENDBRANCH  63  84
ENDBRANCH  37  38
ENDBRANCH  29  32
ENDBRANCH  27  28
ENDBRANCH  26  27
ENDBRANCH   1  26
TORSDOF 17
ENDMDL
