MODEL 1
REMARK VINA RESULT:     -10.9      0.000      0.000
REMARK SMILES Cc1nc(CNC(=O)[C@H]2CCO[C@H]2C)sc1C(=O)NCCCCNC(=O)c1ccc(-c2c3nc(c(-c4ccc(S(=O)(=O)[O-])cc4)c4ccc([nH]4)c(-c4ccc(S(=O)(=O)[O-])cc4)c4nc(c(-c5ccc(S(=O)(=O)[O-])cc5)c5ccc2[nH]5)C=C4)C=C3)cc1
REMARK SMILES IDX 21 1 20 2 19 3 17 4 18 5 16 7 1 8 2 9 3 10 4 11 15 12 5 13
REMARK SMILES IDX 6 14 7 15 8 17 9 18 10 19 13 20 11 21 12 22 14 23 22 24
REMARK SMILES IDX 23 25 24 26 25 27 26 29 27 30 28 31 86 32 29 33 85 34 30 35
REMARK SMILES IDX 31 36 32 37 79 38 33 39 84 40 78 41 80 42 34 43 83 44 77 45
REMARK SMILES IDX 76 46 35 48 65 49 46 50 64 51 47 52 50 53 63 54 81 55 48 56
REMARK SMILES IDX 49 57 62 59 82 60 51 61 36 62 37 63 45 64 38 65 44 66 39 67
REMARK SMILES IDX 40 68 41 69 42 70 43 71 66 72 67 73 75 74 68 75 74 76 69 77
REMARK SMILES IDX 70 78 71 79 72 80 73 81 52 82 53 83 61 84 54 85 60 86 55 87
REMARK SMILES IDX 56 88 57 89 58 90 59 91
REMARK H PARENT 19 6 6 16 24 28 80 47 50 58
REMARK Flexibility Score: inf
ROOT
ATOM      1  C   UNL A   1      35.831  21.553  24.673  1.00  0.00     0.023 C 
ENDROOT
BRANCH   1   2
ATOM      2  C   UNL A   1      35.070  21.209  25.954  1.00  0.00     0.116 C 
BRANCH   2   3
ATOM      3  N   UNL A   1      33.985  20.305  25.668  1.00  0.00    -0.351 N 
ATOM      4  C   UNL A   1      32.715  20.469  25.181  1.00  0.00     0.263 C 
ATOM      5  O   UNL A   1      32.101  19.399  25.082  1.00  0.00    -0.268 OA
ATOM      6  H   UNL A   1      34.204  19.365  25.865  1.00  0.00     0.163 HD
BRANCH   4   7
ATOM      7  C   UNL A   1      32.120  21.743  24.777  1.00  0.00     0.115 A 
ATOM      8  C   UNL A   1      32.785  22.514  22.348  1.00  0.00     0.068 C 
ATOM      9  C   UNL A   1      32.108  22.585  23.665  1.00  0.00     0.061 A 
ATOM     10  N   UNL A   1      31.379  23.758  23.824  1.00  0.00    -0.244 NA
ATOM     11  C   UNL A   1      30.923  23.880  25.045  1.00  0.00     0.113 A 
ATOM     12  S   UNL A   1      31.195  22.532  26.042  1.00  0.00    -0.111 S 
BRANCH  11  13
ATOM     13  C   UNL A   1      30.232  25.104  25.558  1.00  0.00     0.183 C 
BRANCH  13  14
ATOM     14  N   UNL A   1      31.236  26.101  25.910  1.00  0.00    -0.349 N 
ATOM     15  C   UNL A   1      31.496  27.310  25.342  1.00  0.00     0.226 C 
ATOM     16  H   UNL A   1      31.811  25.863  26.673  1.00  0.00     0.163 HD
ATOM     17  O   UNL A   1      32.451  27.960  25.770  1.00  0.00    -0.275 OA
BRANCH  15  18
ATOM     18  C   UNL A   1      30.587  27.836  24.251  1.00  0.00     0.109 C 
ATOM     19  C   UNL A   1      30.770  29.313  23.958  1.00  0.00     0.044 C 
ATOM     20  C   UNL A   1      30.796  27.227  22.869  1.00  0.00     0.127 C 
ATOM     21  C   UNL A   1      30.103  29.448  22.608  1.00  0.00     0.161 C 
ATOM     22  O   UNL A   1      30.217  28.180  21.946  1.00  0.00    -0.378 OA
ATOM     23  C   UNL A   1      32.248  27.024  22.443  1.00  0.00     0.039 C 
ENDBRANCH  15  18
ENDBRANCH  13  14
ENDBRANCH  11  13
ENDBRANCH   4   7
ENDBRANCH   2   3
ENDBRANCH   1   2
BRANCH   1  24
ATOM     24  C   UNL A   1      36.044  23.046  24.431  1.00  0.00     0.023 C 
BRANCH  24  25
ATOM     25  C   UNL A   1      37.198  23.660  25.213  1.00  0.00     0.116 C 
BRANCH  25  26
ATOM     26  N   UNL A   1      38.258  22.715  25.534  1.00  0.00    -0.352 N 
ATOM     27  C   UNL A   1      39.400  22.934  26.270  1.00  0.00     0.251 C 
ATOM     28  H   UNL A   1      38.144  21.804  25.178  1.00  0.00     0.163 HD
ATOM     29  O   UNL A   1      40.240  22.056  26.389  1.00  0.00    -0.269 OA
BRANCH  27  30
ATOM     30  C   UNL A   1      39.612  24.271  26.864  1.00  0.00     0.039 A 
ATOM     31  C   UNL A   1      39.173  24.502  28.169  1.00  0.00     0.014 A 
ATOM     32  C   UNL A   1      40.309  25.256  26.161  1.00  0.00     0.014 A 
ATOM     33  C   UNL A   1      39.508  25.699  28.801  1.00  0.00     0.010 A 
ATOM     34  C   UNL A   1      40.704  26.415  26.817  1.00  0.00     0.010 A 
ATOM     35  C   UNL A   1      40.313  26.645  28.145  1.00  0.00    -0.014 A 
BRANCH  35  36
ATOM     36  C   UNL A   1      40.772  27.874  28.834  1.00  0.00     0.031 A 
ATOM     37  C   UNL A   1      42.155  27.933  29.423  1.00  0.00     0.074 A 
ATOM     38  C   UNL A   1      39.919  28.905  28.996  1.00  0.00     0.049 A 
ATOM     39  N   UNL A   1      42.712  28.890  30.118  1.00  0.00    -0.248 NA
ATOM     40  C   UNL A   1      43.010  26.751  29.231  1.00  0.00     0.031 C 
ATOM     41  C   UNL A   1      38.535  28.945  28.517  1.00  0.00     0.029 A 
ATOM     42  N   UNL A   1      40.089  30.116  29.618  1.00  0.00    -0.354 N 
ATOM     43  C   UNL A   1      43.972  28.419  30.463  1.00  0.00     0.074 A 
ATOM     44  C   UNL A   1      44.080  27.074  29.942  1.00  0.00     0.031 C 
ATOM     45  C   UNL A   1      37.992  30.131  28.838  1.00  0.00     0.029 A 
ATOM     46  C   UNL A   1      38.974  30.920  29.574  1.00  0.00     0.049 A 
ATOM     47  H   UNL A   1      40.930  30.386  30.052  1.00  0.00     0.167 HD
ATOM     48  C   UNL A   1      44.960  29.056  31.134  1.00  0.00     0.031 A 
ATOM     49  C   UNL A   1      38.765  32.153  30.074  1.00  0.00     0.031 A 
ATOM     50  C   UNL A   1      44.859  30.402  31.632  1.00  0.00     0.049 A 
ATOM     51  C   UNL A   1      39.882  32.846  30.803  1.00  0.00     0.074 A 
ATOM     52  C   UNL A   1      45.827  31.160  32.266  1.00  0.00     0.029 A 
ATOM     53  N   UNL A   1      43.721  31.190  31.548  1.00  0.00    -0.354 N 
ATOM     54  N   UNL A   1      41.092  32.410  31.059  1.00  0.00    -0.248 NA
ATOM     55  C   UNL A   1      39.608  34.200  31.302  1.00  0.00     0.031 C 
ATOM     56  C   UNL A   1      45.260  32.395  32.602  1.00  0.00     0.029 A 
ATOM     57  C   UNL A   1      43.956  32.420  32.137  1.00  0.00     0.049 A 
ATOM     58  H   UNL A   1      42.872  30.916  31.132  1.00  0.00     0.167 HD
ATOM     59  C   UNL A   1      41.732  33.445  31.733  1.00  0.00     0.074 A 
ATOM     60  C   UNL A   1      40.780  34.532  31.830  1.00  0.00     0.031 C 
ATOM     61  C   UNL A   1      42.994  33.489  32.227  1.00  0.00     0.031 A 
BRANCH  48  62
ATOM     62  C   UNL A   1      46.239  28.297  31.365  1.00  0.00    -0.014 A 
ATOM     63  C   UNL A   1      47.325  28.423  30.480  1.00  0.00     0.010 A 
ATOM     64  C   UNL A   1      46.364  27.461  32.489  1.00  0.00     0.010 A 
ATOM     65  C   UNL A   1      48.496  27.692  30.690  1.00  0.00     0.020 A 
ATOM     66  C   UNL A   1      47.544  26.747  32.716  1.00  0.00     0.020 A 
ATOM     67  C   UNL A   1      48.596  26.852  31.803  1.00  0.00     0.054 A 
BRANCH  67  68
ATOM     68  S   UNL A   1      50.131  25.920  32.057  1.00  0.00     0.124 S 
ATOM     69  O   UNL A   1      50.742  25.982  30.731  1.00  0.00    -0.237 OA
ATOM     70  O   UNL A   1      50.808  26.691  33.097  1.00  0.00    -0.237 OA
ATOM     71  O   UNL A   1      49.669  24.598  32.469  1.00  0.00    -0.744 OA
ENDBRANCH  67  68
ENDBRANCH  48  62
BRANCH  49  72
ATOM     72  C   UNL A   1      37.450  32.820  29.879  1.00  0.00    -0.014 A 
ATOM     73  C   UNL A   1      37.174  33.510  28.686  1.00  0.00     0.010 A 
ATOM     74  C   UNL A   1      36.462  32.755  30.878  1.00  0.00     0.010 A 
ATOM     75  C   UNL A   1      35.938  34.136  28.500  1.00  0.00     0.020 A 
ATOM     76  C   UNL A   1      35.217  33.361  30.686  1.00  0.00     0.020 A 
ATOM     77  C   UNL A   1      34.967  34.057  29.503  1.00  0.00     0.054 A 
BRANCH  77  78
ATOM     78  S   UNL A   1      33.349  34.830  29.219  1.00  0.00     0.124 S 
ATOM     79  O   UNL A   1      33.726  36.134  28.685  1.00  0.00    -0.237 OA
ATOM     80  O   UNL A   1      32.723  33.913  28.268  1.00  0.00    -0.237 OA
ATOM     81  O   UNL A   1      32.742  34.845  30.548  1.00  0.00    -0.744 OA
ENDBRANCH  77  78
ENDBRANCH  49  72
BRANCH  61  82
ATOM     82  C   UNL A   1      43.424  34.762  32.899  1.00  0.00    -0.014 A 
ATOM     83  C   UNL A   1      44.022  35.802  32.164  1.00  0.00     0.010 A 
ATOM     84  C   UNL A   1      43.175  34.944  34.271  1.00  0.00     0.010 A 
ATOM     85  C   UNL A   1      44.386  36.992  32.797  1.00  0.00     0.020 A 
ATOM     86  C   UNL A   1      43.516  36.142  34.903  1.00  0.00     0.020 A 
ATOM     87  C   UNL A   1      44.133  37.155  34.163  1.00  0.00     0.054 A 
BRANCH  87  88
ATOM     88  S   UNL A   1      44.569  38.728  34.953  1.00  0.00     0.124 S 
ATOM     89  O   UNL A   1      43.637  39.655  34.317  1.00  0.00    -0.237 OA
ATOM     90  O   UNL A   1      44.322  38.459  36.367  1.00  0.00    -0.237 OA
ATOM     91  O   UNL A   1      45.975  38.915  34.598  1.00  0.00    -0.744 OA
ENDBRANCH  87  88
ENDBRANCH  61  82
ENDBRANCH  35  36
ENDBRANCH  27  30
ENDBRANCH  25  26
ENDBRANCH  24  25
ENDBRANCH   1  24
TORSDOF 17
ENDMDL
MODEL 2
REMARK VINA RESULT:     -10.6      2.731      9.641
REMARK SMILES Cc1nc(CNC(=O)[C@H]2CCO[C@H]2C)sc1C(=O)NCCCCNC(=O)c1ccc(-c2c3nc(c(-c4ccc(S(=O)(=O)[O-])cc4)c4ccc([nH]4)c(-c4ccc(S(=O)(=O)[O-])cc4)c4nc(c(-c5ccc(S(=O)(=O)[O-])cc5)c5ccc2[nH]5)C=C4)C=C3)cc1
REMARK SMILES IDX 21 1 20 2 19 3 17 4 18 5 16 7 1 8 2 9 3 10 4 11 15 12 5 13
REMARK SMILES IDX 6 14 7 15 8 17 9 18 10 19 13 20 11 21 12 22 14 23 22 24
REMARK SMILES IDX 23 25 24 26 25 27 26 29 27 30 28 31 86 32 29 33 85 34 30 35
REMARK SMILES IDX 31 36 32 37 79 38 33 39 84 40 78 41 80 42 34 43 83 44 77 45
REMARK SMILES IDX 76 46 35 48 65 49 46 50 64 51 47 52 50 53 63 54 81 55 48 56
REMARK SMILES IDX 49 57 62 59 82 60 51 61 36 62 37 63 45 64 38 65 44 66 39 67
REMARK SMILES IDX 40 68 41 69 42 70 43 71 66 72 67 73 75 74 68 75 74 76 69 77
REMARK SMILES IDX 70 78 71 79 72 80 73 81 52 82 53 83 61 84 54 85 60 86 55 87
REMARK SMILES IDX 56 88 57 89 58 90 59 91
REMARK H PARENT 19 6 6 16 24 28 80 47 50 58
REMARK Flexibility Score: inf
ROOT
ATOM      1  C   UNL A   1      33.264  27.334  24.629  1.00  0.00     0.023 C 
ENDROOT
BRANCH   1   2
ATOM      2  C   UNL A   1      32.162  26.323  24.310  1.00  0.00     0.116 C 
BRANCH   2   3
ATOM      3  N   UNL A   1      31.622  25.766  25.526  1.00  0.00    -0.351 N 
ATOM      4  C   UNL A   1      31.926  24.666  26.283  1.00  0.00     0.263 C 
ATOM      5  O   UNL A   1      31.199  24.557  27.278  1.00  0.00    -0.268 OA
ATOM      6  H   UNL A   1      30.873  26.290  25.890  1.00  0.00     0.163 HD
BRANCH   4   7
ATOM      7  C   UNL A   1      33.004  23.716  26.005  1.00  0.00     0.115 A 
ATOM      8  C   UNL A   1      35.366  24.838  25.694  1.00  0.00     0.068 C 
ATOM      9  C   UNL A   1      34.379  23.733  25.776  1.00  0.00     0.061 A 
ATOM     10  N   UNL A   1      34.947  22.494  25.506  1.00  0.00    -0.244 NA
ATOM     11  C   UNL A   1      34.037  21.557  25.422  1.00  0.00     0.113 A 
ATOM     12  S   UNL A   1      32.464  22.057  25.819  1.00  0.00    -0.111 S 
BRANCH  11  13
ATOM     13  C   UNL A   1      34.325  20.151  24.994  1.00  0.00     0.183 C 
BRANCH  13  14
ATOM     14  N   UNL A   1      33.228  19.678  24.160  1.00  0.00    -0.349 N 
ATOM     15  C   UNL A   1      32.708  18.426  24.035  1.00  0.00     0.226 C 
ATOM     16  H   UNL A   1      32.798  20.367  23.603  1.00  0.00     0.163 HD
ATOM     17  O   UNL A   1      31.815  18.247  23.205  1.00  0.00    -0.275 OA
BRANCH  15  18
ATOM     18  C   UNL A   1      33.201  17.317  24.941  1.00  0.00     0.109 C 
ATOM     19  C   UNL A   1      32.254  16.136  25.037  1.00  0.00     0.044 C 
ATOM     20  C   UNL A   1      34.491  16.634  24.504  1.00  0.00     0.127 C 
ATOM     21  C   UNL A   1      33.152  15.062  25.608  1.00  0.00     0.161 C 
ATOM     22  O   UNL A   1      34.492  15.358  25.189  1.00  0.00    -0.378 OA
ATOM     23  C   UNL A   1      34.616  16.336  23.012  1.00  0.00     0.039 C 
ENDBRANCH  15  18
ENDBRANCH  13  14
ENDBRANCH  11  13
ENDBRANCH   4   7
ENDBRANCH   2   3
ENDBRANCH   1   2
BRANCH   1  24
ATOM     24  C   UNL A   1      32.831  28.499  25.518  1.00  0.00     0.023 C 
BRANCH  24  25
ATOM     25  C   UNL A   1      33.654  28.671  26.789  1.00  0.00     0.116 C 
BRANCH  25  26
ATOM     26  N   UNL A   1      33.532  29.989  27.392  1.00  0.00    -0.352 N 
ATOM     27  C   UNL A   1      34.471  30.682  28.124  1.00  0.00     0.251 C 
ATOM     28  H   UNL A   1      32.668  30.444  27.262  1.00  0.00     0.163 HD
ATOM     29  O   UNL A   1      34.192  31.755  28.635  1.00  0.00    -0.269 OA
BRANCH  27  30
ATOM     30  C   UNL A   1      35.801  30.071  28.324  1.00  0.00     0.039 A 
ATOM     31  C   UNL A   1      36.731  30.137  27.285  1.00  0.00     0.014 A 
ATOM     32  C   UNL A   1      36.146  29.510  29.555  1.00  0.00     0.014 A 
ATOM     33  C   UNL A   1      38.041  29.712  27.511  1.00  0.00     0.010 A 
ATOM     34  C   UNL A   1      37.467  29.157  29.800  1.00  0.00     0.010 A 
ATOM     35  C   UNL A   1      38.428  29.261  28.783  1.00  0.00    -0.014 A 
BRANCH  35  36
ATOM     36  C   UNL A   1      39.837  28.908  29.078  1.00  0.00     0.031 A 
ATOM     37  C   UNL A   1      40.757  29.932  29.682  1.00  0.00     0.074 A 
ATOM     38  C   UNL A   1      40.306  27.692  28.731  1.00  0.00     0.049 A 
ATOM     39  N   UNL A   1      42.034  29.835  29.949  1.00  0.00    -0.248 NA
ATOM     40  C   UNL A   1      40.174  31.246  29.998  1.00  0.00     0.031 C 
ATOM     41  C   UNL A   1      39.523  26.632  28.089  1.00  0.00     0.029 A 
ATOM     42  N   UNL A   1      41.558  27.147  28.862  1.00  0.00    -0.354 N 
ATOM     43  C   UNL A   1      42.410  31.076  30.445  1.00  0.00     0.074 A 
ATOM     44  C   UNL A   1      41.239  31.925  30.397  1.00  0.00     0.031 C 
ATOM     45  C   UNL A   1      40.306  25.556  27.908  1.00  0.00     0.029 A 
ATOM     46  C   UNL A   1      41.651  25.860  28.387  1.00  0.00     0.049 A 
ATOM     47  H   UNL A   1      42.317  27.630  29.259  1.00  0.00     0.167 HD
ATOM     48  C   UNL A   1      43.616  31.470  30.918  1.00  0.00     0.031 A 
ATOM     49  C   UNL A   1      42.702  25.019  28.340  1.00  0.00     0.031 A 
ATOM     50  C   UNL A   1      44.772  30.618  30.984  1.00  0.00     0.049 A 
ATOM     51  C   UNL A   1      44.027  25.474  28.884  1.00  0.00     0.074 A 
ATOM     52  C   UNL A   1      46.021  30.902  31.508  1.00  0.00     0.029 A 
ATOM     53  N   UNL A   1      44.820  29.314  30.514  1.00  0.00    -0.354 N 
ATOM     54  N   UNL A   1      44.346  26.631  29.414  1.00  0.00    -0.248 NA
ATOM     55  C   UNL A   1      45.132  24.506  28.834  1.00  0.00     0.031 C 
ATOM     56  C   UNL A   1      46.837  29.781  31.318  1.00  0.00     0.029 A 
ATOM     57  C   UNL A   1      46.083  28.786  30.717  1.00  0.00     0.049 A 
ATOM     58  H   UNL A   1      44.067  28.835  30.098  1.00  0.00     0.167 HD
ATOM     59  C   UNL A   1      45.683  26.524  29.777  1.00  0.00     0.074 A 
ATOM     60  C   UNL A   1      46.108  25.186  29.422  1.00  0.00     0.031 C 
ATOM     61  C   UNL A   1      46.488  27.452  30.353  1.00  0.00     0.031 A 
BRANCH  48  62
ATOM     62  C   UNL A   1      43.738  32.890  31.401  1.00  0.00    -0.014 A 
ATOM     63  C   UNL A   1      44.204  33.906  30.548  1.00  0.00     0.010 A 
ATOM     64  C   UNL A   1      43.365  33.216  32.717  1.00  0.00     0.010 A 
ATOM     65  C   UNL A   1      44.338  35.215  31.016  1.00  0.00     0.020 A 
ATOM     66  C   UNL A   1      43.475  34.530  33.181  1.00  0.00     0.020 A 
ATOM     67  C   UNL A   1      43.980  35.518  32.333  1.00  0.00     0.054 A 
BRANCH  67  68
ATOM     68  S   UNL A   1      44.156  37.227  32.913  1.00  0.00     0.124 S 
ATOM     69  O   UNL A   1      44.028  37.981  31.668  1.00  0.00    -0.237 OA
ATOM     70  O   UNL A   1      43.043  37.367  33.848  1.00  0.00    -0.237 OA
ATOM     71  O   UNL A   1      45.483  37.251  33.522  1.00  0.00    -0.744 OA
ENDBRANCH  67  68
ENDBRANCH  48  62
BRANCH  49  72
ATOM     72  C   UNL A   1      42.535  23.653  27.776  1.00  0.00    -0.014 A 
ATOM     73  C   UNL A   1      42.755  23.418  26.408  1.00  0.00     0.010 A 
ATOM     74  C   UNL A   1      42.172  22.578  28.607  1.00  0.00     0.010 A 
ATOM     75  C   UNL A   1      42.600  22.135  25.875  1.00  0.00     0.020 A 
ATOM     76  C   UNL A   1      42.038  21.288  28.082  1.00  0.00     0.020 A 
ATOM     77  C   UNL A   1      42.242  21.078  26.717  1.00  0.00     0.054 A 
BRANCH  77  78
ATOM     78  S   UNL A   1      42.100  19.409  26.017  1.00  0.00     0.124 S 
ATOM     79  O   UNL A   1      42.973  19.495  24.851  1.00  0.00    -0.237 OA
ATOM     80  O   UNL A   1      42.581  18.565  27.108  1.00  0.00    -0.237 OA
ATOM     81  O   UNL A   1      40.673  19.284  25.726  1.00  0.00    -0.744 OA
ENDBRANCH  77  78
ENDBRANCH  49  72
BRANCH  61  82
ATOM     82  C   UNL A   1      47.903  27.044  30.653  1.00  0.00    -0.014 A 
ATOM     83  C   UNL A   1      48.910  27.156  29.678  1.00  0.00     0.010 A 
ATOM     84  C   UNL A   1      48.240  26.600  31.944  1.00  0.00     0.010 A 
ATOM     85  C   UNL A   1      50.227  26.804  29.983  1.00  0.00     0.020 A 
ATOM     86  C   UNL A   1      49.560  26.270  32.260  1.00  0.00     0.020 A 
ATOM     87  C   UNL A   1      50.544  26.362  31.272  1.00  0.00     0.054 A 
BRANCH  87  88
ATOM     88  S   UNL A   1      52.269  25.958  31.659  1.00  0.00     0.124 S 
ATOM     89  O   UNL A   1      52.908  26.074  30.351  1.00  0.00    -0.237 OA
ATOM     90  O   UNL A   1      52.631  26.987  32.630  1.00  0.00    -0.237 OA
ATOM     91  O   UNL A   1      52.193  24.602  32.198  1.00  0.00    -0.744 OA
ENDBRANCH  87  88
ENDBRANCH  61  82
ENDBRANCH  35  36
ENDBRANCH  27  30
ENDBRANCH  25  26
ENDBRANCH  24  25
ENDBRANCH   1  24
TORSDOF 17
ENDMDL
MODEL 3
REMARK VINA RESULT:     -10.6      3.481      4.260
REMARK SMILES Cc1nc(CNC(=O)[C@H]2CCO[C@H]2C)sc1C(=O)NCCCCNC(=O)c1ccc(-c2c3nc(c(-c4ccc(S(=O)(=O)[O-])cc4)c4ccc([nH]4)c(-c4ccc(S(=O)(=O)[O-])cc4)c4nc(c(-c5ccc(S(=O)(=O)[O-])cc5)c5ccc2[nH]5)C=C4)C=C3)cc1
REMARK SMILES IDX 21 1 20 2 19 3 17 4 18 5 16 7 1 8 2 9 3 10 4 11 15 12 5 13
REMARK SMILES IDX 6 14 7 15 8 17 9 18 10 19 13 20 11 21 12 22 14 23 22 24
REMARK SMILES IDX 23 25 24 26 25 27 26 29 27 30 28 31 86 32 29 33 85 34 30 35
REMARK SMILES IDX 31 36 32 37 79 38 33 39 84 40 78 41 80 42 34 43 83 44 77 45
REMARK SMILES IDX 76 46 35 48 65 49 46 50 64 51 47 52 50 53 63 54 81 55 48 56
REMARK SMILES IDX 49 57 62 59 82 60 51 61 36 62 37 63 45 64 38 65 44 66 39 67
REMARK SMILES IDX 40 68 41 69 42 70 43 71 66 72 67 73 75 74 68 75 74 76 69 77
REMARK SMILES IDX 70 78 71 79 72 80 73 81 52 82 53 83 61 84 54 85 60 86 55 87
REMARK SMILES IDX 56 88 57 89 58 90 59 91
REMARK H PARENT 19 6 6 16 24 28 80 47 50 58
REMARK Flexibility Score: inf
ROOT
ATOM      1  C   UNL A   1      39.578  21.611  25.863  1.00  0.00     0.023 C 
ENDROOT
BRANCH   1   2
ATOM      2  C   UNL A   1      38.071  21.849  25.763  1.00  0.00     0.116 C 
BRANCH   2   3
ATOM      3  N   UNL A   1      37.720  22.307  24.442  1.00  0.00    -0.351 N 
ATOM      4  C   UNL A   1      36.549  22.710  23.856  1.00  0.00     0.263 C 
ATOM      5  O   UNL A   1      36.696  23.035  22.672  1.00  0.00    -0.268 OA
ATOM      6  H   UNL A   1      38.489  22.335  23.827  1.00  0.00     0.163 HD
BRANCH   4   7
ATOM      7  C   UNL A   1      35.251  22.795  24.526  1.00  0.00     0.115 A 
ATOM      8  C   UNL A   1      34.171  20.456  25.070  1.00  0.00     0.068 C 
ATOM      9  C   UNL A   1      34.279  21.934  25.035  1.00  0.00     0.061 A 
ATOM     10  N   UNL A   1      33.154  22.561  25.558  1.00  0.00    -0.244 NA
ATOM     11  C   UNL A   1      33.195  23.856  25.373  1.00  0.00     0.113 A 
ATOM     12  S   UNL A   1      34.647  24.432  24.708  1.00  0.00    -0.111 S 
BRANCH  11  13
ATOM     13  C   UNL A   1      32.061  24.780  25.692  1.00  0.00     0.183 C 
BRANCH  13  14
ATOM     14  N   UNL A   1      32.596  26.108  25.961  1.00  0.00    -0.349 N 
ATOM     15  C   UNL A   1      32.330  27.294  25.348  1.00  0.00     0.226 C 
ATOM     16  H   UNL A   1      33.249  26.155  26.697  1.00  0.00     0.163 HD
ATOM     17  O   UNL A   1      32.962  28.288  25.705  1.00  0.00    -0.275 OA
BRANCH  15  18
ATOM     18  C   UNL A   1      31.243  27.364  24.294  1.00  0.00     0.109 C 
ATOM     19  C   UNL A   1      30.758  28.771  24.005  1.00  0.00     0.044 C 
ATOM     20  C   UNL A   1      31.645  26.892  22.901  1.00  0.00     0.127 C 
ATOM     21  C   UNL A   1      30.049  28.591  22.682  1.00  0.00     0.161 C 
ATOM     22  O   UNL A   1      30.677  27.491  22.007  1.00  0.00    -0.378 OA
ATOM     23  C   UNL A   1      33.025  27.334  22.421  1.00  0.00     0.039 C 
ENDBRANCH  15  18
ENDBRANCH  13  14
ENDBRANCH  11  13
ENDBRANCH   4   7
ENDBRANCH   2   3
ENDBRANCH   1   2
BRANCH   1  24
ATOM     24  C   UNL A   1      40.167  21.788  27.261  1.00  0.00     0.023 C 
BRANCH  24  25
ATOM     25  C   UNL A   1      40.678  23.190  27.564  1.00  0.00     0.116 C 
BRANCH  25  26
ATOM     26  N   UNL A   1      40.841  24.024  26.382  1.00  0.00    -0.352 N 
ATOM     27  C   UNL A   1      40.941  25.395  26.314  1.00  0.00     0.251 C 
ATOM     28  H   UNL A   1      40.883  23.546  25.522  1.00  0.00     0.163 HD
ATOM     29  O   UNL A   1      40.997  25.961  25.233  1.00  0.00    -0.269 OA
BRANCH  27  30
ATOM     30  C   UNL A   1      40.922  26.168  27.573  1.00  0.00     0.039 A 
ATOM     31  C   UNL A   1      42.006  26.996  27.868  1.00  0.00     0.014 A 
ATOM     32  C   UNL A   1      39.805  26.130  28.411  1.00  0.00     0.014 A 
ATOM     33  C   UNL A   1      41.934  27.853  28.966  1.00  0.00     0.010 A 
ATOM     34  C   UNL A   1      39.705  27.037  29.459  1.00  0.00     0.010 A 
ATOM     35  C   UNL A   1      40.766  27.911  29.743  1.00  0.00    -0.014 A 
BRANCH  35  36
ATOM     36  C   UNL A   1      40.624  28.890  30.847  1.00  0.00     0.031 A 
ATOM     37  C   UNL A   1      41.478  28.763  32.077  1.00  0.00     0.074 A 
ATOM     38  C   UNL A   1      39.674  29.844  30.772  1.00  0.00     0.049 A 
ATOM     39  N   UNL A   1      41.455  29.479  33.171  1.00  0.00    -0.248 NA
ATOM     40  C   UNL A   1      42.466  27.673  32.091  1.00  0.00     0.031 C 
ATOM     41  C   UNL A   1      38.748  30.035  29.653  1.00  0.00     0.029 A 
ATOM     42  N   UNL A   1      39.326  30.829  31.662  1.00  0.00    -0.354 N 
ATOM     43  C   UNL A   1      42.407  28.914  34.011  1.00  0.00     0.074 A 
ATOM     44  C   UNL A   1      42.956  27.769  33.318  1.00  0.00     0.031 C 
ATOM     45  C   UNL A   1      37.956  31.088  29.911  1.00  0.00     0.029 A 
ATOM     46  C   UNL A   1      38.294  31.625  31.226  1.00  0.00     0.049 A 
ATOM     47  H   UNL A   1      39.773  30.954  32.529  1.00  0.00     0.167 HD
ATOM     48  C   UNL A   1      42.804  29.324  35.238  1.00  0.00     0.031 A 
ATOM     49  C   UNL A   1      37.685  32.671  31.819  1.00  0.00     0.031 A 
ATOM     50  C   UNL A   1      42.271  30.475  35.915  1.00  0.00     0.049 A 
ATOM     51  C   UNL A   1      38.153  33.116  33.176  1.00  0.00     0.074 A 
ATOM     52  C   UNL A   1      42.653  31.012  37.131  1.00  0.00     0.029 A 
ATOM     53  N   UNL A   1      41.243  31.269  35.430  1.00  0.00    -0.354 N 
ATOM     54  N   UNL A   1      39.104  32.610  33.925  1.00  0.00    -0.248 NA
ATOM     55  C   UNL A   1      37.473  34.278  33.764  1.00  0.00     0.031 C 
ATOM     56  C   UNL A   1      41.828  32.109  37.401  1.00  0.00     0.029 A 
ATOM     57  C   UNL A   1      40.963  32.281  36.333  1.00  0.00     0.049 A 
ATOM     58  H   UNL A   1      40.780  31.134  34.572  1.00  0.00     0.167 HD
ATOM     59  C   UNL A   1      39.150  33.405  35.065  1.00  0.00     0.074 A 
ATOM     60  C   UNL A   1      38.143  34.433  34.899  1.00  0.00     0.031 C 
ATOM     61  C   UNL A   1      39.953  33.293  36.151  1.00  0.00     0.031 A 
BRANCH  48  62
ATOM     62  C   UNL A   1      43.871  28.514  35.924  1.00  0.00    -0.014 A 
ATOM     63  C   UNL A   1      45.233  28.824  35.757  1.00  0.00     0.010 A 
ATOM     64  C   UNL A   1      43.508  27.443  36.760  1.00  0.00     0.010 A 
ATOM     65  C   UNL A   1      46.215  28.048  36.377  1.00  0.00     0.020 A 
ATOM     66  C   UNL A   1      44.488  26.680  37.402  1.00  0.00     0.020 A 
ATOM     67  C   UNL A   1      45.837  26.975  37.189  1.00  0.00     0.054 A 
BRANCH  67  68
ATOM     68  S   UNL A   1      47.131  25.989  37.990  1.00  0.00     0.124 S 
ATOM     69  O   UNL A   1      48.313  26.359  37.213  1.00  0.00    -0.237 OA
ATOM     70  O   UNL A   1      47.107  26.480  39.365  1.00  0.00    -0.237 OA
ATOM     71  O   UNL A   1      46.676  24.613  37.815  1.00  0.00    -0.744 OA
ENDBRANCH  67  68
ENDBRANCH  48  62
BRANCH  49  72
ATOM     72  C   UNL A   1      36.581  33.381  31.120  1.00  0.00    -0.014 A 
ATOM     73  C   UNL A   1      36.738  33.798  29.787  1.00  0.00     0.010 A 
ATOM     74  C   UNL A   1      35.363  33.631  31.778  1.00  0.00     0.010 A 
ATOM     75  C   UNL A   1      35.702  34.464  29.127  1.00  0.00     0.020 A 
ATOM     76  C   UNL A   1      34.316  34.277  31.113  1.00  0.00     0.020 A 
ATOM     77  C   UNL A   1      34.497  34.700  29.795  1.00  0.00     0.054 A 
BRANCH  77  78
ATOM     78  S   UNL A   1      33.144  35.518  28.903  1.00  0.00     0.124 S 
ATOM     79  O   UNL A   1      32.626  34.432  28.078  1.00  0.00    -0.237 OA
ATOM     80  O   UNL A   1      32.271  35.962  29.987  1.00  0.00    -0.237 OA
ATOM     81  O   UNL A   1      33.817  36.593  28.177  1.00  0.00    -0.744 OA
ENDBRANCH  77  78
ENDBRANCH  49  72
BRANCH  61  82
ATOM     82  C   UNL A   1      39.789  34.319  37.236  1.00  0.00    -0.014 A 
ATOM     83  C   UNL A   1      38.946  34.081  38.336  1.00  0.00     0.010 A 
ATOM     84  C   UNL A   1      40.534  35.511  37.185  1.00  0.00     0.010 A 
ATOM     85  C   UNL A   1      38.830  35.031  39.353  1.00  0.00     0.020 A 
ATOM     86  C   UNL A   1      40.439  36.453  38.212  1.00  0.00     0.020 A 
ATOM     87  C   UNL A   1      39.576  36.213  39.284  1.00  0.00     0.054 A 
BRANCH  87  88
ATOM     88  S   UNL A   1      39.447  37.409  40.641  1.00  0.00     0.124 S 
ATOM     89  O   UNL A   1      38.380  38.288  40.170  1.00  0.00    -0.237 OA
ATOM     90  O   UNL A   1      39.110  36.566  41.785  1.00  0.00    -0.237 OA
ATOM     91  O   UNL A   1      40.777  38.015  40.694  1.00  0.00    -0.744 OA
ENDBRANCH  87  88
ENDBRANCH  61  82
ENDBRANCH  35  36
ENDBRANCH  27  30
ENDBRANCH  25  26
ENDBRANCH  24  25
ENDBRANCH   1  24
TORSDOF 17
ENDMDL
