MODEL 1
REMARK VINA RESULT:     -13.1      0.000      0.000
REMARK SMILES Cc1ccccc1/C=C1\SC(=O)N(CC(=O)Nc2ccccc2C(=O)NCCCCNC(=O)c2ccc(-c3c4nc(c(-c5ccc(S(=O)(=O)[O-])cc5)c5ccc([nH]5)c(-c5ccc(S(=O)(=O)[O-])cc5)c5nc(c(-c6ccc(S(=O)(=O)[O-])cc6)c6ccc3[nH]6)C=C5)C=C4)cc2)C1=O
REMARK SMILES IDX 28 1 27 2 26 3 24 4 25 5 23 7 18 8 19 9 20 10 22 11 21 12
REMARK SMILES IDX 17 13 15 14 16 15 14 17 13 18 8 19 9 20 10 21 94 22 11 23
REMARK SMILES IDX 95 24 12 25 7 26 1 27 2 28 3 29 4 30 6 31 5 32 29 33 30 34
REMARK SMILES IDX 31 35 32 36 33 38 34 39 35 40 93 41 36 42 92 43 37 44 38 45
REMARK SMILES IDX 39 46 86 47 40 48 91 49 85 50 87 51 41 52 90 53 84 54 83 55
REMARK SMILES IDX 42 57 72 58 53 59 71 60 54 61 57 62 70 63 88 64 55 65 56 66
REMARK SMILES IDX 69 68 89 69 58 70 43 71 44 72 52 73 45 74 51 75 46 76 47 77
REMARK SMILES IDX 48 78 49 79 50 80 73 81 74 82 82 83 75 84 81 85 76 86 77 87
REMARK SMILES IDX 78 88 79 89 80 90 59 91 60 92 68 93 61 94 67 95 62 96 63 97
REMARK SMILES IDX 64 98 65 99 66 100
REMARK H PARENT 26 6 17 16 31 37 87 56 57 67
REMARK Flexibility Score: inf
ROOT
ATOM      1  C   UNL A   1      33.569  28.629  24.842  1.00  0.00     0.023 C 
ENDROOT
BRANCH   1   2
ATOM      2  C   UNL A   1      33.876  27.150  24.532  1.00  0.00     0.116 C 
BRANCH   2   3
ATOM      3  N   UNL A   1      33.470  26.584  23.236  1.00  0.00    -0.352 N 
ATOM      4  C   UNL A   1      32.306  26.560  22.477  1.00  0.00     0.253 C 
ATOM      5  O   UNL A   1      32.390  26.148  21.319  1.00  0.00    -0.269 OA
ATOM      6  H   UNL A   1      34.207  26.102  22.797  1.00  0.00     0.163 HD
BRANCH   4   7
ATOM      7  C   UNL A   1      30.960  26.976  22.955  1.00  0.00     0.063 A 
ATOM      8  C   UNL A   1      30.064  26.118  23.649  1.00  0.00     0.054 A 
ATOM      9  C   UNL A   1      28.752  26.570  23.919  1.00  0.00     0.027 A 
ATOM     10  C   UNL A   1      28.314  27.833  23.533  1.00  0.00     0.002 A 
ATOM     11  C   UNL A   1      30.443  28.193  22.474  1.00  0.00     0.016 A 
ATOM     12  C   UNL A   1      29.156  28.638  22.788  1.00  0.00     0.001 A 
BRANCH   8  13
ATOM     13  N   UNL A   1      30.190  24.726  23.849  1.00  0.00    -0.324 N 
ATOM     14  C   UNL A   1      30.909  23.938  24.692  1.00  0.00     0.244 C 
ATOM     15  O   UNL A   1      30.572  22.746  24.735  1.00  0.00    -0.273 OA
ATOM     16  H   UNL A   1      29.626  24.204  23.235  1.00  0.00     0.170 HD
BRANCH  14  17
ATOM     17  C   UNL A   1      31.961  24.451  25.655  1.00  0.00     0.230 C 
BRANCH  17  18
ATOM     18  N   UNL A   1      33.096  23.582  25.797  1.00  0.00    -0.259 N 
ATOM     19  C   UNL A   1      36.365  22.856  24.893  1.00  0.00     0.029 C 
ATOM     20  C   UNL A   1      35.128  22.573  25.315  1.00  0.00     0.083 C 
ATOM     21  S   UNL A   1      34.610  21.751  26.715  1.00  0.00    -0.022 SA
ATOM     22  C   UNL A   1      33.977  23.337  24.763  1.00  0.00     0.268 C 
ATOM     23  C   UNL A   1      33.217  22.786  26.891  1.00  0.00     0.294 C 
ATOM     24  O   UNL A   1      33.860  23.669  23.596  1.00  0.00    -0.268 OA
ATOM     25  O   UNL A   1      32.459  22.731  27.856  1.00  0.00    -0.261 OA
BRANCH  19  26
ATOM     26  C   UNL A   1      37.659  22.640  25.567  1.00  0.00    -0.021 A 
ATOM     27  C   UNL A   1      38.013  20.147  25.003  1.00  0.00     0.045 C 
ATOM     28  C   UNL A   1      38.441  21.473  25.559  1.00  0.00    -0.044 A 
ATOM     29  C   UNL A   1      39.712  21.521  26.150  1.00  0.00     0.004 A 
ATOM     30  C   UNL A   1      40.186  22.676  26.769  1.00  0.00     0.000 A 
ATOM     31  C   UNL A   1      38.153  23.792  26.224  1.00  0.00     0.008 A 
ATOM     32  C   UNL A   1      39.401  23.808  26.834  1.00  0.00     0.001 A 
ENDBRANCH  19  26
ENDBRANCH  17  18
ENDBRANCH  14  17
ENDBRANCH   8  13
ENDBRANCH   4   7
ENDBRANCH   2   3
ENDBRANCH   1   2
BRANCH   1  33
ATOM     33  C   UNL A   1      32.687  29.082  26.025  1.00  0.00     0.023 C 
BRANCH  33  34
ATOM     34  C   UNL A   1      33.321  29.818  27.192  1.00  0.00     0.116 C 
BRANCH  34  35
ATOM     35  N   UNL A   1      34.399  30.751  26.838  1.00  0.00    -0.352 N 
ATOM     36  C   UNL A   1      34.810  31.724  27.766  1.00  0.00     0.251 C 
ATOM     37  H   UNL A   1      34.832  30.695  25.955  1.00  0.00     0.163 HD
ATOM     38  O   UNL A   1      34.220  32.784  27.946  1.00  0.00    -0.269 OA
BRANCH  36  39
ATOM     39  C   UNL A   1      35.786  31.236  28.783  1.00  0.00     0.039 A 
ATOM     40  C   UNL A   1      35.556  30.481  29.947  1.00  0.00     0.014 A 
ATOM     41  C   UNL A   1      37.086  31.319  28.384  1.00  0.00     0.014 A 
ATOM     42  C   UNL A   1      36.670  29.874  30.587  1.00  0.00     0.010 A 
ATOM     43  C   UNL A   1      37.759  30.164  28.531  1.00  0.00     0.010 A 
ATOM     44  C   UNL A   1      37.849  29.811  29.853  1.00  0.00    -0.014 A 
BRANCH  44  45
ATOM     45  C   UNL A   1      39.221  29.403  30.111  1.00  0.00     0.031 A 
ATOM     46  C   UNL A   1      39.716  28.087  29.683  1.00  0.00     0.074 A 
ATOM     47  C   UNL A   1      40.083  30.449  30.253  1.00  0.00     0.049 A 
ATOM     48  N   UNL A   1      40.882  27.640  29.980  1.00  0.00    -0.248 NA
ATOM     49  C   UNL A   1      38.974  27.201  28.792  1.00  0.00     0.031 C 
ATOM     50  C   UNL A   1      41.523  30.562  30.054  1.00  0.00     0.029 A 
ATOM     51  N   UNL A   1      39.741  31.729  30.707  1.00  0.00    -0.354 N 
ATOM     52  C   UNL A   1      41.179  26.624  29.097  1.00  0.00     0.074 A 
ATOM     53  C   UNL A   1      39.922  26.314  28.453  1.00  0.00     0.031 C 
ATOM     54  C   UNL A   1      41.960  31.666  30.696  1.00  0.00     0.029 A 
ATOM     55  C   UNL A   1      40.829  32.214  31.436  1.00  0.00     0.049 A 
ATOM     56  H   UNL A   1      38.891  32.199  30.543  1.00  0.00     0.167 HD
ATOM     57  C   UNL A   1      42.488  26.274  28.925  1.00  0.00     0.031 A 
ATOM     58  C   UNL A   1      40.670  32.221  32.797  1.00  0.00     0.031 A 
ATOM     59  C   UNL A   1      43.353  27.077  29.806  1.00  0.00     0.049 A 
ATOM     60  C   UNL A   1      41.464  31.112  33.464  1.00  0.00     0.074 A 
ATOM     61  C   UNL A   1      44.225  28.133  29.601  1.00  0.00     0.029 A 
ATOM     62  N   UNL A   1      43.112  27.044  31.171  1.00  0.00    -0.354 N 
ATOM     63  N   UNL A   1      42.171  30.224  32.818  1.00  0.00    -0.248 NA
ATOM     64  C   UNL A   1      41.505  30.894  34.906  1.00  0.00     0.031 C 
ATOM     65  C   UNL A   1      44.421  28.789  30.858  1.00  0.00     0.029 A 
ATOM     66  C   UNL A   1      43.709  28.103  31.828  1.00  0.00     0.049 A 
ATOM     67  H   UNL A   1      42.578  26.349  31.619  1.00  0.00     0.167 HD
ATOM     68  C   UNL A   1      42.708  29.316  33.681  1.00  0.00     0.074 A 
ATOM     69  C   UNL A   1      42.248  29.773  34.986  1.00  0.00     0.031 C 
ATOM     70  C   UNL A   1      43.473  28.261  33.262  1.00  0.00     0.031 A 
BRANCH  57  71
ATOM     71  C   UNL A   1      43.048  25.351  27.859  1.00  0.00    -0.014 A 
ATOM     72  C   UNL A   1      43.682  24.153  28.262  1.00  0.00     0.010 A 
ATOM     73  C   UNL A   1      43.004  25.580  26.470  1.00  0.00     0.010 A 
ATOM     74  C   UNL A   1      44.270  23.265  27.350  1.00  0.00     0.020 A 
ATOM     75  C   UNL A   1      43.595  24.700  25.541  1.00  0.00     0.020 A 
ATOM     76  C   UNL A   1      44.230  23.548  25.989  1.00  0.00     0.054 A 
BRANCH  76  77
ATOM     77  S   UNL A   1      45.004  22.386  24.831  1.00  0.00     0.124 S 
ATOM     78  O   UNL A   1      43.915  21.456  24.546  1.00  0.00    -0.237 OA
ATOM     79  O   UNL A   1      45.395  23.256  23.726  1.00  0.00    -0.237 OA
ATOM     80  O   UNL A   1      46.114  21.820  25.597  1.00  0.00    -0.744 OA
ENDBRANCH  76  77
ENDBRANCH  57  71
BRANCH  58  81
ATOM     81  C   UNL A   1      39.281  32.703  33.167  1.00  0.00    -0.014 A 
ATOM     82  C   UNL A   1      38.986  34.056  32.866  1.00  0.00     0.010 A 
ATOM     83  C   UNL A   1      38.200  31.801  33.273  1.00  0.00     0.010 A 
ATOM     84  C   UNL A   1      37.692  34.452  32.506  1.00  0.00     0.020 A 
ATOM     85  C   UNL A   1      36.894  32.202  32.920  1.00  0.00     0.020 A 
ATOM     86  C   UNL A   1      36.663  33.511  32.485  1.00  0.00     0.054 A 
BRANCH  86  87
ATOM     87  S   UNL A   1      35.108  33.988  31.665  1.00  0.00     0.124 S 
ATOM     88  O   UNL A   1      35.541  34.250  30.297  1.00  0.00    -0.237 OA
ATOM     89  O   UNL A   1      34.289  32.783  31.847  1.00  0.00    -0.237 OA
ATOM     90  O   UNL A   1      34.658  35.155  32.415  1.00  0.00    -0.744 OA
ENDBRANCH  86  87
ENDBRANCH  58  81
BRANCH  70  91
ATOM     91  C   UNL A   1      44.056  27.247  34.209  1.00  0.00    -0.014 A 
ATOM     92  C   UNL A   1      43.255  26.345  34.921  1.00  0.00     0.010 A 
ATOM     93  C   UNL A   1      45.442  27.234  34.484  1.00  0.00     0.010 A 
ATOM     94  C   UNL A   1      43.824  25.390  35.769  1.00  0.00     0.020 A 
ATOM     95  C   UNL A   1      46.019  26.312  35.355  1.00  0.00     0.020 A 
ATOM     96  C   UNL A   1      45.206  25.368  35.964  1.00  0.00     0.054 A 
BRANCH  96  97
ATOM     97  S   UNL A   1      45.920  24.121  37.057  1.00  0.00     0.124 S 
ATOM     98  O   UNL A   1      45.126  24.275  38.274  1.00  0.00    -0.237 OA
ATOM     99  O   UNL A   1      45.683  22.893  36.303  1.00  0.00    -0.237 OA
ATOM    100  O   UNL A   1      47.320  24.521  37.175  1.00  0.00    -0.744 OA
ENDBRANCH  96  97
ENDBRANCH  70  91
ENDBRANCH  44  45
ENDBRANCH  36  39
ENDBRANCH  34  35
ENDBRANCH  33  34
ENDBRANCH   1  33
TORSDOF 18
ENDMDL
MODEL 2
REMARK VINA RESULT:     -12.5      1.229      1.964
REMARK SMILES Cc1ccccc1/C=C1\SC(=O)N(CC(=O)Nc2ccccc2C(=O)NCCCCNC(=O)c2ccc(-c3c4nc(c(-c5ccc(S(=O)(=O)[O-])cc5)c5ccc([nH]5)c(-c5ccc(S(=O)(=O)[O-])cc5)c5nc(c(-c6ccc(S(=O)(=O)[O-])cc6)c6ccc3[nH]6)C=C5)C=C4)cc2)C1=O
REMARK SMILES IDX 28 1 27 2 26 3 24 4 25 5 23 7 18 8 19 9 20 10 22 11 21 12
REMARK SMILES IDX 17 13 15 14 16 15 14 17 13 18 8 19 9 20 10 21 94 22 11 23
REMARK SMILES IDX 95 24 12 25 7 26 1 27 2 28 3 29 4 30 6 31 5 32 29 33 30 34
REMARK SMILES IDX 31 35 32 36 33 38 34 39 35 40 93 41 36 42 92 43 37 44 38 45
REMARK SMILES IDX 39 46 86 47 40 48 91 49 85 50 87 51 41 52 90 53 84 54 83 55
REMARK SMILES IDX 42 57 72 58 53 59 71 60 54 61 57 62 70 63 88 64 55 65 56 66
REMARK SMILES IDX 69 68 89 69 58 70 43 71 44 72 52 73 45 74 51 75 46 76 47 77
REMARK SMILES IDX 48 78 49 79 50 80 73 81 74 82 82 83 75 84 81 85 76 86 77 87
REMARK SMILES IDX 78 88 79 89 80 90 59 91 60 92 68 93 61 94 67 95 62 96 63 97
REMARK SMILES IDX 64 98 65 99 66 100
REMARK H PARENT 26 6 17 16 31 37 87 56 57 67
REMARK Flexibility Score: inf
ROOT
ATOM      1  C   UNL A   1      31.723  29.797  25.276  1.00  0.00     0.023 C 
ENDROOT
BRANCH   1   2
ATOM      2  C   UNL A   1      31.573  29.001  23.964  1.00  0.00     0.116 C 
BRANCH   2   3
ATOM      3  N   UNL A   1      30.249  28.493  23.574  1.00  0.00    -0.352 N 
ATOM      4  C   UNL A   1      29.511  27.340  23.814  1.00  0.00     0.253 C 
ATOM      5  O   UNL A   1      28.326  27.343  23.478  1.00  0.00    -0.269 OA
ATOM      6  H   UNL A   1      29.764  29.130  23.001  1.00  0.00     0.163 HD
BRANCH   4   7
ATOM      7  C   UNL A   1      30.041  26.093  24.429  1.00  0.00     0.063 A 
ATOM      8  C   UNL A   1      30.925  25.197  23.770  1.00  0.00     0.054 A 
ATOM      9  C   UNL A   1      31.242  23.966  24.390  1.00  0.00     0.027 A 
ATOM     10  C   UNL A   1      30.721  23.610  25.629  1.00  0.00     0.002 A 
ATOM     11  C   UNL A   1      29.440  25.646  25.620  1.00  0.00     0.016 A 
ATOM     12  C   UNL A   1      29.799  24.443  26.235  1.00  0.00     0.001 A 
BRANCH   8  13
ATOM     13  N   UNL A   1      31.309  25.213  22.411  1.00  0.00    -0.324 N 
ATOM     14  C   UNL A   1      32.456  25.498  21.740  1.00  0.00     0.244 C 
ATOM     15  O   UNL A   1      32.481  25.164  20.547  1.00  0.00    -0.273 OA
ATOM     16  H   UNL A   1      30.574  24.960  21.809  1.00  0.00     0.170 HD
BRANCH  14  17
ATOM     17  C   UNL A   1      33.713  26.046  22.387  1.00  0.00     0.230 C 
BRANCH  17  18
ATOM     18  N   UNL A   1      34.268  25.192  23.399  1.00  0.00    -0.259 N 
ATOM     19  C   UNL A   1      36.448  22.611  24.189  1.00  0.00     0.029 C 
ATOM     20  C   UNL A   1      35.366  23.381  24.347  1.00  0.00     0.083 C 
ATOM     21  S   UNL A   1      34.842  24.269  25.703  1.00  0.00    -0.022 SA
ATOM     22  C   UNL A   1      34.651  23.890  23.145  1.00  0.00     0.268 C 
ATOM     23  C   UNL A   1      34.224  25.560  24.707  1.00  0.00     0.294 C 
ATOM     24  O   UNL A   1      34.453  23.245  22.130  1.00  0.00    -0.268 OA
ATOM     25  O   UNL A   1      33.780  26.609  25.167  1.00  0.00    -0.261 OA
BRANCH  19  26
ATOM     26  C   UNL A   1      37.580  22.385  25.106  1.00  0.00    -0.021 A 
ATOM     27  C   UNL A   1      37.809  19.826  24.861  1.00  0.00     0.045 C 
ATOM     28  C   UNL A   1      38.247  21.173  25.355  1.00  0.00    -0.044 A 
ATOM     29  C   UNL A   1      39.394  21.199  26.161  1.00  0.00     0.004 A 
ATOM     30  C   UNL A   1      39.851  22.381  26.740  1.00  0.00     0.000 A 
ATOM     31  C   UNL A   1      38.051  23.566  25.727  1.00  0.00     0.008 A 
ATOM     32  C   UNL A   1      39.169  23.565  26.550  1.00  0.00     0.001 A 
ENDBRANCH  19  26
ENDBRANCH  17  18
ENDBRANCH  14  17
ENDBRANCH   8  13
ENDBRANCH   4   7
ENDBRANCH   2   3
ENDBRANCH   1   2
BRANCH   1  33
ATOM     33  C   UNL A   1      31.846  29.131  26.663  1.00  0.00     0.023 C 
BRANCH  33  34
ATOM     34  C   UNL A   1      33.191  29.109  27.366  1.00  0.00     0.116 C 
BRANCH  34  35
ATOM     35  N   UNL A   1      34.198  30.034  26.828  1.00  0.00    -0.352 N 
ATOM     36  C   UNL A   1      34.647  31.108  27.617  1.00  0.00     0.251 C 
ATOM     37  H   UNL A   1      34.557  29.903  25.921  1.00  0.00     0.163 HD
ATOM     38  O   UNL A   1      34.034  32.162  27.744  1.00  0.00    -0.269 OA
BRANCH  36  39
ATOM     39  C   UNL A   1      35.724  30.755  28.587  1.00  0.00     0.039 A 
ATOM     40  C   UNL A   1      35.620  30.139  29.847  1.00  0.00     0.014 A 
ATOM     41  C   UNL A   1      36.980  30.807  28.060  1.00  0.00     0.014 A 
ATOM     42  C   UNL A   1      36.803  29.625  30.445  1.00  0.00     0.010 A 
ATOM     43  C   UNL A   1      37.690  29.685  28.276  1.00  0.00     0.010 A 
ATOM     44  C   UNL A   1      37.910  29.491  29.615  1.00  0.00    -0.014 A 
BRANCH  44  45
ATOM     45  C   UNL A   1      39.309  29.133  29.788  1.00  0.00     0.031 A 
ATOM     46  C   UNL A   1      39.805  27.801  29.416  1.00  0.00     0.074 A 
ATOM     47  C   UNL A   1      40.151  30.206  29.784  1.00  0.00     0.049 A 
ATOM     48  N   UNL A   1      41.003  27.402  29.648  1.00  0.00    -0.248 NA
ATOM     49  C   UNL A   1      39.018  26.836  28.655  1.00  0.00     0.031 C 
ATOM     50  C   UNL A   1      41.566  30.335  29.460  1.00  0.00     0.029 A 
ATOM     51  N   UNL A   1      39.810  31.507  30.172  1.00  0.00    -0.354 N 
ATOM     52  C   UNL A   1      41.256  26.330  28.818  1.00  0.00     0.074 A 
ATOM     53  C   UNL A   1      39.960  25.947  28.304  1.00  0.00     0.031 C 
ATOM     54  C   UNL A   1      42.022  31.493  29.983  1.00  0.00     0.029 A 
ATOM     55  C   UNL A   1      40.940  32.069  30.772  1.00  0.00     0.049 A 
ATOM     56  H   UNL A   1      38.937  31.946  30.045  1.00  0.00     0.167 HD
ATOM     57  C   UNL A   1      42.556  25.998  28.566  1.00  0.00     0.031 A 
ATOM     58  C   UNL A   1      40.890  32.173  32.138  1.00  0.00     0.031 A 
ATOM     59  C   UNL A   1      43.466  26.883  29.312  1.00  0.00     0.049 A 
ATOM     60  C   UNL A   1      41.766  31.133  32.815  1.00  0.00     0.074 A 
ATOM     61  C   UNL A   1      44.289  27.939  28.961  1.00  0.00     0.029 A 
ATOM     62  N   UNL A   1      43.337  26.945  30.691  1.00  0.00    -0.354 N 
ATOM     63  N   UNL A   1      42.443  30.216  32.179  1.00  0.00    -0.248 NA
ATOM     64  C   UNL A   1      41.928  31.022  34.261  1.00  0.00     0.031 C 
ATOM     65  C   UNL A   1      44.567  28.690  30.148  1.00  0.00     0.029 A 
ATOM     66  C   UNL A   1      43.955  28.062  31.220  1.00  0.00     0.049 A 
ATOM     67  H   UNL A   1      42.860  26.273  31.230  1.00  0.00     0.167 HD
ATOM     68  C   UNL A   1      43.073  29.386  33.057  1.00  0.00     0.074 A 
ATOM     69  C   UNL A   1      42.707  29.928  34.359  1.00  0.00     0.031 C 
ATOM     70  C   UNL A   1      43.830  28.320  32.653  1.00  0.00     0.031 A 
BRANCH  57  71
ATOM     71  C   UNL A   1      43.054  25.012  27.526  1.00  0.00    -0.014 A 
ATOM     72  C   UNL A   1      43.458  23.725  27.949  1.00  0.00     0.010 A 
ATOM     73  C   UNL A   1      43.162  25.261  26.143  1.00  0.00     0.010 A 
ATOM     74  C   UNL A   1      43.977  22.767  27.065  1.00  0.00     0.020 A 
ATOM     75  C   UNL A   1      43.686  24.311  25.244  1.00  0.00     0.020 A 
ATOM     76  C   UNL A   1      44.096  23.069  25.713  1.00  0.00     0.054 A 
BRANCH  76  77
ATOM     77  S   UNL A   1      44.774  21.814  24.594  1.00  0.00     0.124 S 
ATOM     78  O   UNL A   1      44.518  22.394  23.279  1.00  0.00    -0.237 OA
ATOM     79  O   UNL A   1      46.177  21.759  24.995  1.00  0.00    -0.237 OA
ATOM     80  O   UNL A   1      43.995  20.615  24.902  1.00  0.00    -0.744 OA
ENDBRANCH  76  77
ENDBRANCH  57  71
BRANCH  58  81
ATOM     81  C   UNL A   1      39.523  32.650  32.586  1.00  0.00    -0.014 A 
ATOM     82  C   UNL A   1      39.182  33.983  32.246  1.00  0.00     0.010 A 
ATOM     83  C   UNL A   1      38.469  31.738  32.809  1.00  0.00     0.010 A 
ATOM     84  C   UNL A   1      37.858  34.342  31.963  1.00  0.00     0.020 A 
ATOM     85  C   UNL A   1      37.134  32.102  32.534  1.00  0.00     0.020 A 
ATOM     86  C   UNL A   1      36.849  33.385  32.059  1.00  0.00     0.054 A 
BRANCH  86  87
ATOM     87  S   UNL A   1      35.230  33.800  31.333  1.00  0.00     0.124 S 
ATOM     88  O   UNL A   1      34.419  32.642  31.692  1.00  0.00    -0.237 OA
ATOM     89  O   UNL A   1      34.896  35.046  32.035  1.00  0.00    -0.237 OA
ATOM     90  O   UNL A   1      35.510  33.952  29.910  1.00  0.00    -0.744 OA
ENDBRANCH  86  87
ENDBRANCH  58  81
BRANCH  70  91
ATOM     91  C   UNL A   1      44.515  27.391  33.619  1.00  0.00    -0.014 A 
ATOM     92  C   UNL A   1      45.818  27.621  34.078  1.00  0.00     0.010 A 
ATOM     93  C   UNL A   1      43.891  26.191  34.028  1.00  0.00     0.010 A 
ATOM     94  C   UNL A   1      46.420  26.761  35.002  1.00  0.00     0.020 A 
ATOM     95  C   UNL A   1      44.493  25.306  34.920  1.00  0.00     0.020 A 
ATOM     96  C   UNL A   1      45.743  25.618  35.431  1.00  0.00     0.054 A 
BRANCH  96  97
ATOM     97  S   UNL A   1      46.535  24.526  36.631  1.00  0.00     0.124 S 
ATOM     98  O   UNL A   1      46.954  25.456  37.677  1.00  0.00    -0.237 OA
ATOM     99  O   UNL A   1      45.439  23.630  36.989  1.00  0.00    -0.237 OA
ATOM    100  O   UNL A   1      47.624  23.911  35.876  1.00  0.00    -0.744 OA
ENDBRANCH  96  97
ENDBRANCH  70  91
ENDBRANCH  44  45
ENDBRANCH  36  39
ENDBRANCH  34  35
ENDBRANCH  33  34
ENDBRANCH   1  33
TORSDOF 18
ENDMDL
MODEL 3
REMARK VINA RESULT:     -12.3      1.770      2.705
REMARK SMILES Cc1ccccc1/C=C1\SC(=O)N(CC(=O)Nc2ccccc2C(=O)NCCCCNC(=O)c2ccc(-c3c4nc(c(-c5ccc(S(=O)(=O)[O-])cc5)c5ccc([nH]5)c(-c5ccc(S(=O)(=O)[O-])cc5)c5nc(c(-c6ccc(S(=O)(=O)[O-])cc6)c6ccc3[nH]6)C=C5)C=C4)cc2)C1=O
REMARK SMILES IDX 28 1 27 2 26 3 24 4 25 5 23 7 18 8 19 9 20 10 22 11 21 12
REMARK SMILES IDX 17 13 15 14 16 15 14 17 13 18 8 19 9 20 10 21 94 22 11 23
REMARK SMILES IDX 95 24 12 25 7 26 1 27 2 28 3 29 4 30 6 31 5 32 29 33 30 34
REMARK SMILES IDX 31 35 32 36 33 38 34 39 35 40 93 41 36 42 92 43 37 44 38 45
REMARK SMILES IDX 39 46 86 47 40 48 91 49 85 50 87 51 41 52 90 53 84 54 83 55
REMARK SMILES IDX 42 57 72 58 53 59 71 60 54 61 57 62 70 63 88 64 55 65 56 66
REMARK SMILES IDX 69 68 89 69 58 70 43 71 44 72 52 73 45 74 51 75 46 76 47 77
REMARK SMILES IDX 48 78 49 79 50 80 73 81 74 82 82 83 75 84 81 85 76 86 77 87
REMARK SMILES IDX 78 88 79 89 80 90 59 91 60 92 68 93 61 94 67 95 62 96 63 97
REMARK SMILES IDX 64 98 65 99 66 100
REMARK H PARENT 26 6 17 16 31 37 87 56 57 67
REMARK Flexibility Score: inf
ROOT
ATOM      1  C   UNL A   1      33.021  29.325  24.549  1.00  0.00     0.023 C 
ENDROOT
BRANCH   1   2
ATOM      2  C   UNL A   1      33.134  29.001  23.046  1.00  0.00     0.116 C 
BRANCH   2   3
ATOM      3  N   UNL A   1      32.026  29.355  22.145  1.00  0.00    -0.352 N 
ATOM      4  C   UNL A   1      30.674  29.047  22.054  1.00  0.00     0.253 C 
ATOM      5  O   UNL A   1      29.993  29.700  21.262  1.00  0.00    -0.269 OA
ATOM      6  H   UNL A   1      32.315  29.963  21.427  1.00  0.00     0.163 HD
BRANCH   4   7
ATOM      7  C   UNL A   1      29.982  27.978  22.825  1.00  0.00     0.063 A 
ATOM      8  C   UNL A   1      30.456  26.642  22.930  1.00  0.00     0.054 A 
ATOM      9  C   UNL A   1      29.641  25.673  23.558  1.00  0.00     0.027 A 
ATOM     10  C   UNL A   1      28.392  25.989  24.084  1.00  0.00     0.002 A 
ATOM     11  C   UNL A   1      28.668  28.231  23.258  1.00  0.00     0.016 A 
ATOM     12  C   UNL A   1      27.895  27.268  23.912  1.00  0.00     0.001 A 
BRANCH   8  13
ATOM     13  N   UNL A   1      31.518  26.050  22.213  1.00  0.00    -0.324 N 
ATOM     14  C   UNL A   1      32.668  25.411  22.552  1.00  0.00     0.244 C 
ATOM     15  O   UNL A   1      33.241  24.805  21.635  1.00  0.00    -0.273 OA
ATOM     16  H   UNL A   1      31.396  26.113  21.239  1.00  0.00     0.170 HD
BRANCH  14  17
ATOM     17  C   UNL A   1      33.189  25.280  23.970  1.00  0.00     0.230 C 
BRANCH  17  18
ATOM     18  N   UNL A   1      33.455  23.928  24.372  1.00  0.00    -0.259 N 
ATOM     19  C   UNL A   1      32.209  20.749  24.984  1.00  0.00     0.029 C 
ATOM     20  C   UNL A   1      33.057  21.772  25.131  1.00  0.00     0.083 C 
ATOM     21  S   UNL A   1      34.753  21.820  24.971  1.00  0.00    -0.022 SA
ATOM     22  C   UNL A   1      32.538  23.165  25.067  1.00  0.00     0.268 C 
ATOM     23  C   UNL A   1      34.714  23.422  24.284  1.00  0.00     0.294 C 
ATOM     24  O   UNL A   1      31.486  23.537  25.556  1.00  0.00    -0.268 OA
ATOM     25  O   UNL A   1      35.711  23.987  23.843  1.00  0.00    -0.261 OA
BRANCH  19  26
ATOM     26  C   UNL A   1      32.470  19.371  24.529  1.00  0.00    -0.021 A 
ATOM     27  C   UNL A   1      32.092  19.689  21.996  1.00  0.00     0.045 C 
ATOM     28  C   UNL A   1      32.501  18.901  23.205  1.00  0.00    -0.044 A 
ATOM     29  C   UNL A   1      32.908  17.578  22.979  1.00  0.00     0.004 A 
ATOM     30  C   UNL A   1      33.236  16.727  24.031  1.00  0.00     0.000 A 
ATOM     31  C   UNL A   1      32.784  18.478  25.581  1.00  0.00     0.008 A 
ATOM     32  C   UNL A   1      33.151  17.161  25.338  1.00  0.00     0.001 A 
ENDBRANCH  19  26
ENDBRANCH  17  18
ENDBRANCH  14  17
ENDBRANCH   8  13
ENDBRANCH   4   7
ENDBRANCH   2   3
ENDBRANCH   1   2
BRANCH   1  33
ATOM     33  C   UNL A   1      33.604  28.423  25.658  1.00  0.00     0.023 C 
BRANCH  33  34
ATOM     34  C   UNL A   1      34.061  29.045  26.965  1.00  0.00     0.116 C 
BRANCH  34  35
ATOM     35  N   UNL A   1      34.850  30.277  26.835  1.00  0.00    -0.352 N 
ATOM     36  C   UNL A   1      34.958  31.153  27.929  1.00  0.00     0.251 C 
ATOM     37  H   UNL A   1      35.302  30.488  25.985  1.00  0.00     0.163 HD
ATOM     38  O   UNL A   1      34.096  31.973  28.232  1.00  0.00    -0.269 OA
BRANCH  36  39
ATOM     39  C   UNL A   1      36.007  30.778  28.921  1.00  0.00     0.039 A 
ATOM     40  C   UNL A   1      35.875  30.082  30.135  1.00  0.00     0.014 A 
ATOM     41  C   UNL A   1      37.280  30.907  28.453  1.00  0.00     0.014 A 
ATOM     42  C   UNL A   1      37.051  29.574  30.752  1.00  0.00     0.010 A 
ATOM     43  C   UNL A   1      38.023  29.800  28.630  1.00  0.00     0.010 A 
ATOM     44  C   UNL A   1      38.195  29.531  29.963  1.00  0.00    -0.014 A 
BRANCH  44  45
ATOM     45  C   UNL A   1      39.598  29.212  30.174  1.00  0.00     0.031 A 
ATOM     46  C   UNL A   1      40.176  27.956  29.675  1.00  0.00     0.074 A 
ATOM     47  C   UNL A   1      40.387  30.310  30.348  1.00  0.00     0.049 A 
ATOM     48  N   UNL A   1      41.378  27.582  29.928  1.00  0.00    -0.248 NA
ATOM     49  C   UNL A   1      39.478  27.060  28.759  1.00  0.00     0.031 C 
ATOM     50  C   UNL A   1      41.810  30.536  30.125  1.00  0.00     0.029 A 
ATOM     51  N   UNL A   1      39.964  31.540  30.867  1.00  0.00    -0.354 N 
ATOM     52  C   UNL A   1      41.725  26.630  28.992  1.00  0.00     0.074 A 
ATOM     53  C   UNL A   1      40.478  26.260  28.361  1.00  0.00     0.031 C 
ATOM     54  C   UNL A   1      42.181  31.639  30.808  1.00  0.00     0.029 A 
ATOM     55  C   UNL A   1      41.032  32.070  31.596  1.00  0.00     0.049 A 
ATOM     56  H   UNL A   1      39.079  31.955  30.743  1.00  0.00     0.167 HD
ATOM     57  C   UNL A   1      43.051  26.385  28.778  1.00  0.00     0.031 A 
ATOM     58  C   UNL A   1      40.905  32.004  32.958  1.00  0.00     0.031 A 
ATOM     59  C   UNL A   1      43.877  27.208  29.677  1.00  0.00     0.049 A 
ATOM     60  C   UNL A   1      41.792  30.926  33.557  1.00  0.00     0.074 A 
ATOM     61  C   UNL A   1      44.667  28.332  29.504  1.00  0.00     0.029 A 
ATOM     62  N   UNL A   1      43.672  27.096  31.044  1.00  0.00    -0.354 N 
ATOM     63  N   UNL A   1      42.545  30.122  32.857  1.00  0.00    -0.248 NA
ATOM     64  C   UNL A   1      41.882  30.647  34.986  1.00  0.00     0.031 C 
ATOM     65  C   UNL A   1      44.845  28.943  30.786  1.00  0.00     0.029 A 
ATOM     66  C   UNL A   1      44.207  28.165  31.738  1.00  0.00     0.049 A 
ATOM     67  H   UNL A   1      43.199  26.345  31.469  1.00  0.00     0.167 HD
ATOM     68  C   UNL A   1      43.166  29.217  33.665  1.00  0.00     0.074 A 
ATOM     69  C   UNL A   1      42.706  29.581  34.999  1.00  0.00     0.031 C 
ATOM     70  C   UNL A   1      43.994  28.241  33.181  1.00  0.00     0.031 A 
BRANCH  57  71
ATOM     71  C   UNL A   1      43.650  25.554  27.659  1.00  0.00    -0.014 A 
ATOM     72  C   UNL A   1      43.849  24.170  27.871  1.00  0.00     0.010 A 
ATOM     73  C   UNL A   1      44.046  26.040  26.397  1.00  0.00     0.010 A 
ATOM     74  C   UNL A   1      44.440  23.335  26.912  1.00  0.00     0.020 A 
ATOM     75  C   UNL A   1      44.646  25.214  25.424  1.00  0.00     0.020 A 
ATOM     76  C   UNL A   1      44.845  23.865  25.691  1.00  0.00     0.054 A 
BRANCH  76  77
ATOM     77  S   UNL A   1      45.611  22.765  24.472  1.00  0.00     0.124 S 
ATOM     78  O   UNL A   1      46.151  21.696  25.308  1.00  0.00    -0.237 OA
ATOM     79  O   UNL A   1      44.479  22.393  23.627  1.00  0.00    -0.237 OA
ATOM     80  O   UNL A   1      46.615  23.609  23.824  1.00  0.00    -0.744 OA
ENDBRANCH  76  77
ENDBRANCH  57  71
BRANCH  58  81
ATOM     81  C   UNL A   1      39.494  32.367  33.379  1.00  0.00    -0.014 A 
ATOM     82  C   UNL A   1      39.115  33.720  33.197  1.00  0.00     0.010 A 
ATOM     83  C   UNL A   1      38.471  31.395  33.415  1.00  0.00     0.010 A 
ATOM     84  C   UNL A   1      37.794  34.065  32.882  1.00  0.00     0.020 A 
ATOM     85  C   UNL A   1      37.139  31.744  33.107  1.00  0.00     0.020 A 
ATOM     86  C   UNL A   1      36.825  33.068  32.788  1.00  0.00     0.054 A 
BRANCH  86  87
ATOM     87  S   UNL A   1      35.233  33.517  32.024  1.00  0.00     0.124 S 
ATOM     88  O   UNL A   1      34.428  32.321  32.249  1.00  0.00    -0.237 OA
ATOM     89  O   UNL A   1      34.844  34.696  32.808  1.00  0.00    -0.237 OA
ATOM     90  O   UNL A   1      35.574  33.789  30.632  1.00  0.00    -0.744 OA
ENDBRANCH  86  87
ENDBRANCH  58  81
BRANCH  70  91
ATOM     91  C   UNL A   1      44.670  27.230  34.068  1.00  0.00    -0.014 A 
ATOM     92  C   UNL A   1      44.192  25.921  34.207  1.00  0.00     0.010 A 
ATOM     93  C   UNL A   1      45.771  27.602  34.872  1.00  0.00     0.010 A 
ATOM     94  C   UNL A   1      44.858  24.991  35.010  1.00  0.00     0.020 A 
ATOM     95  C   UNL A   1      46.423  26.695  35.706  1.00  0.00     0.020 A 
ATOM     96  C   UNL A   1      45.982  25.381  35.740  1.00  0.00     0.054 A 
BRANCH  96  97
ATOM     97  S   UNL A   1      46.831  24.162  36.765  1.00  0.00     0.124 S 
ATOM     98  O   UNL A   1      46.144  22.921  36.415  1.00  0.00    -0.237 OA
ATOM     99  O   UNL A   1      48.206  24.275  36.286  1.00  0.00    -0.237 OA
ATOM    100  O   UNL A   1      46.604  24.633  38.129  1.00  0.00    -0.744 OA
ENDBRANCH  96  97
ENDBRANCH  70  91
ENDBRANCH  44  45
ENDBRANCH  36  39
ENDBRANCH  34  35
ENDBRANCH  33  34
ENDBRANCH   1  33
TORSDOF 18
ENDMDL
