MODEL 1
REMARK VINA RESULT:     -11.4      0.000      0.000
REMARK SMILES [NH3+][C@@H](CNc1ccc(C(=O)NCCCCNC(=O)c2ccc(-c3c4nc(c(-c5ccc(S(=O)(=O)[O-])cc5)c5ccc([nH]5)c(-c5ccc(S(=O)(=O)[O-])cc5)c5nc(c(-c6ccc(S(=O)(=O)[O-])cc6)c6ccc3[nH]6)C=C5)C=C4)cc2)c(F)c1F)c1ccccc1
REMARK SMILES IDX 13 1 12 2 11 3 9 4 10 5 8 7 5 8 6 9 81 10 7 11 79 12 82 13
REMARK SMILES IDX 80 14 4 15 3 17 2 18 1 19 83 23 84 24 88 25 85 26 87 27
REMARK SMILES IDX 86 28 14 29 15 30 16 31 17 32 18 34 19 35 20 36 78 37 21 38
REMARK SMILES IDX 77 39 22 40 23 41 24 42 71 43 25 44 76 45 70 46 72 47 26 48
REMARK SMILES IDX 75 49 69 50 68 51 27 53 57 54 38 55 56 56 39 57 42 58 55 59
REMARK SMILES IDX 73 60 40 61 41 62 54 64 74 65 43 66 28 67 29 68 37 69 30 70
REMARK SMILES IDX 36 71 31 72 32 73 33 74 34 75 35 76 58 77 59 78 67 79 60 80
REMARK SMILES IDX 66 81 61 82 62 83 63 84 64 85 65 86 44 87 45 88 53 89 46 90
REMARK SMILES IDX 52 91 47 92 48 93 49 94 50 95 51 96
REMARK H PARENT 11 6 4 16 1 20 1 21 1 22 16 33 72 52 42 63
REMARK Flexibility Score: inf
ROOT
ATOM      1  C   UNL A   1      35.562  21.601  26.061  1.00  0.00     0.023 C 
ENDROOT
BRANCH   1   2
ATOM      2  C   UNL A   1      35.440  20.515  24.997  1.00  0.00     0.116 C 
BRANCH   2   3
ATOM      3  N   UNL A   1      34.328  19.607  25.212  1.00  0.00    -0.352 N 
ATOM      4  C   UNL A   1      32.979  19.793  25.039  1.00  0.00     0.254 C 
ATOM      5  O   UNL A   1      32.211  18.867  25.300  1.00  0.00    -0.269 OA
ATOM      6  H   UNL A   1      34.583  18.712  25.536  1.00  0.00     0.163 HD
BRANCH   4   7
ATOM      7  C   UNL A   1      32.400  21.091  24.632  1.00  0.00     0.078 A 
ATOM      8  C   UNL A   1      31.243  23.494  23.679  1.00  0.00     0.074 A 
ATOM      9  C   UNL A   1      31.797  22.568  22.792  1.00  0.00     0.030 A 
ATOM     10  C   UNL A   1      31.358  23.223  25.052  1.00  0.00     0.182 A 
ATOM     11  C   UNL A   1      32.366  21.377  23.260  1.00  0.00     0.019 A 
ATOM     12  C   UNL A   1      31.948  22.053  25.526  1.00  0.00     0.173 A 
ATOM     13  F   UNL A   1      30.864  24.112  25.934  1.00  0.00    -0.201 F 
ATOM     14  F   UNL A   1      32.070  21.885  26.852  1.00  0.00    -0.203 F 
BRANCH   8  15
ATOM     15  N   UNL A   1      30.598  24.652  23.250  1.00  0.00    -0.376 N 
ATOM     16  H   UNL A   1      29.675  24.589  22.911  1.00  0.00     0.160 HD
BRANCH  15  17
ATOM     17  C   UNL A   1      31.257  25.959  23.292  1.00  0.00     0.183 C 
BRANCH  17  18
ATOM     18  C   UNL A   1      30.315  27.087  23.828  1.00  0.00     0.231 C 
BRANCH  18  19
ATOM     19  N   UNL A   1      29.807  27.928  22.724  1.00  0.00    -0.350 N 
ATOM     20  H   UNL A   1      28.951  27.519  22.351  1.00  0.00     0.345 HD
ATOM     21  H   UNL A   1      30.509  27.979  21.985  1.00  0.00     0.345 HD
ATOM     22  H   UNL A   1      29.612  28.867  23.072  1.00  0.00     0.345 HD
ENDBRANCH  18  19
BRANCH  18  23
ATOM     23  C   UNL A   1      30.947  27.891  24.963  1.00  0.00     0.011 A 
ATOM     24  C   UNL A   1      31.333  29.235  24.826  1.00  0.00     0.010 A 
ATOM     25  C   UNL A   1      31.163  27.272  26.208  1.00  0.00     0.010 A 
ATOM     26  C   UNL A   1      31.931  29.926  25.884  1.00  0.00     0.001 A 
ATOM     27  C   UNL A   1      31.763  27.962  27.265  1.00  0.00     0.001 A 
ATOM     28  C   UNL A   1      32.151  29.288  27.101  1.00  0.00     0.000 A 
ENDBRANCH  18  23
ENDBRANCH  17  18
ENDBRANCH  15  17
ENDBRANCH   8  15
ENDBRANCH   4   7
ENDBRANCH   2   3
ENDBRANCH   1   2
BRANCH   1  29
ATOM     29  C   UNL A   1      35.644  23.041  25.560  1.00  0.00     0.023 C 
BRANCH  29  30
ATOM     30  C   UNL A   1      37.036  23.562  25.219  1.00  0.00     0.116 C 
BRANCH  30  31
ATOM     31  N   UNL A   1      38.109  22.650  25.586  1.00  0.00    -0.352 N 
ATOM     32  C   UNL A   1      39.264  22.883  26.300  1.00  0.00     0.251 C 
ATOM     33  H   UNL A   1      37.992  21.723  25.274  1.00  0.00     0.163 HD
ATOM     34  O   UNL A   1      40.088  21.988  26.427  1.00  0.00    -0.269 OA
BRANCH  32  35
ATOM     35  C   UNL A   1      39.527  24.221  26.880  1.00  0.00     0.039 A 
ATOM     36  C   UNL A   1      39.072  24.494  28.174  1.00  0.00     0.014 A 
ATOM     37  C   UNL A   1      40.220  25.200  26.166  1.00  0.00     0.014 A 
ATOM     38  C   UNL A   1      39.380  25.717  28.777  1.00  0.00     0.010 A 
ATOM     39  C   UNL A   1      40.600  26.381  26.797  1.00  0.00     0.010 A 
ATOM     40  C   UNL A   1      40.180  26.657  28.108  1.00  0.00    -0.014 A 
BRANCH  40  41
ATOM     41  C   UNL A   1      40.585  27.930  28.759  1.00  0.00     0.031 A 
ATOM     42  C   UNL A   1      41.948  28.063  29.385  1.00  0.00     0.074 A 
ATOM     43  C   UNL A   1      39.700  28.942  28.861  1.00  0.00     0.049 A 
ATOM     44  N   UNL A   1      42.462  29.075  30.038  1.00  0.00    -0.248 NA
ATOM     45  C   UNL A   1      42.835  26.893  29.296  1.00  0.00     0.031 C 
ATOM     46  C   UNL A   1      38.323  28.916  28.361  1.00  0.00     0.029 A 
ATOM     47  N   UNL A   1      39.822  30.184  29.432  1.00  0.00    -0.354 N 
ATOM     48  C   UNL A   1      43.715  28.651  30.463  1.00  0.00     0.074 A 
ATOM     49  C   UNL A   1      43.861  27.276  30.040  1.00  0.00     0.031 C 
ATOM     50  C   UNL A   1      37.737  30.095  28.630  1.00  0.00     0.029 A 
ATOM     51  C   UNL A   1      38.681  30.946  29.348  1.00  0.00     0.049 A 
ATOM     52  H   UNL A   1      40.649  30.499  29.864  1.00  0.00     0.167 HD
ATOM     53  C   UNL A   1      44.669  29.347  31.131  1.00  0.00     0.031 A 
ATOM     54  C   UNL A   1      38.418  32.188  29.796  1.00  0.00     0.031 A 
ATOM     55  C   UNL A   1      44.528  30.719  31.537  1.00  0.00     0.049 A 
ATOM     56  C   UNL A   1      39.502  32.964  30.491  1.00  0.00     0.074 A 
ATOM     57  C   UNL A   1      45.463  31.539  32.142  1.00  0.00     0.029 A 
ATOM     58  N   UNL A   1      43.373  31.473  31.385  1.00  0.00    -0.354 N 
ATOM     59  N   UNL A   1      40.717  32.579  30.802  1.00  0.00    -0.248 NA
ATOM     60  C   UNL A   1      39.187  34.345  30.876  1.00  0.00     0.031 C 
ATOM     61  C   UNL A   1      44.857  32.775  32.402  1.00  0.00     0.029 A 
ATOM     62  C   UNL A   1      43.563  32.743  31.906  1.00  0.00     0.049 A 
ATOM     63  H   UNL A   1      42.539  31.153  30.969  1.00  0.00     0.167 HD
ATOM     64  C   UNL A   1      41.321  33.679  31.401  1.00  0.00     0.074 A 
ATOM     65  C   UNL A   1      40.341  34.746  31.395  1.00  0.00     0.031 C 
ATOM     66  C   UNL A   1      42.575  33.793  31.906  1.00  0.00     0.031 A 
BRANCH  53  67
ATOM     67  C   UNL A   1      45.940  28.612  31.474  1.00  0.00    -0.014 A 
ATOM     68  C   UNL A   1      46.079  27.920  32.692  1.00  0.00     0.010 A 
ATOM     69  C   UNL A   1      47.019  28.627  30.571  1.00  0.00     0.010 A 
ATOM     70  C   UNL A   1      47.295  27.323  33.032  1.00  0.00     0.020 A 
ATOM     71  C   UNL A   1      48.227  28.003  30.894  1.00  0.00     0.020 A 
ATOM     72  C   UNL A   1      48.367  27.379  32.136  1.00  0.00     0.054 A 
BRANCH  72  73
ATOM     73  S   UNL A   1      49.944  26.622  32.613  1.00  0.00     0.124 S 
ATOM     74  O   UNL A   1      49.704  25.213  32.312  1.00  0.00    -0.237 OA
ATOM     75  O   UNL A   1      50.903  27.296  31.740  1.00  0.00    -0.237 OA
ATOM     76  O   UNL A   1      50.068  26.945  34.032  1.00  0.00    -0.744 OA
ENDBRANCH  72  73
ENDBRANCH  53  67
BRANCH  54  77
ATOM     77  C   UNL A   1      37.071  32.778  29.561  1.00  0.00    -0.014 A 
ATOM     78  C   UNL A   1      36.062  32.664  30.531  1.00  0.00     0.010 A 
ATOM     79  C   UNL A   1      36.818  33.519  28.392  1.00  0.00     0.010 A 
ATOM     80  C   UNL A   1      34.825  33.287  30.342  1.00  0.00     0.020 A 
ATOM     81  C   UNL A   1      35.590  34.163  28.210  1.00  0.00     0.020 A 
ATOM     82  C   UNL A   1      34.600  34.041  29.186  1.00  0.00     0.054 A 
BRANCH  82  83
ATOM     83  S   UNL A   1      33.026  34.928  29.012  1.00  0.00     0.124 S 
ATOM     84  O   UNL A   1      32.319  34.103  28.037  1.00  0.00    -0.237 OA
ATOM     85  O   UNL A   1      32.494  34.897  30.372  1.00  0.00    -0.237 OA
ATOM     86  O   UNL A   1      33.429  36.251  28.541  1.00  0.00    -0.744 OA
ENDBRANCH  82  83
ENDBRANCH  54  77
BRANCH  66  87
ATOM     87  C   UNL A   1      42.972  35.129  32.475  1.00  0.00    -0.014 A 
ATOM     88  C   UNL A   1      43.778  36.022  31.747  1.00  0.00     0.010 A 
ATOM     89  C   UNL A   1      42.486  35.517  33.738  1.00  0.00     0.010 A 
ATOM     90  C   UNL A   1      44.119  37.266  32.287  1.00  0.00     0.020 A 
ATOM     91  C   UNL A   1      42.803  36.770  34.268  1.00  0.00     0.020 A 
ATOM     92  C   UNL A   1      43.631  37.631  33.546  1.00  0.00     0.054 A 
BRANCH  92  93
ATOM     93  S   UNL A   1      44.058  39.264  34.211  1.00  0.00     0.124 S 
ATOM     94  O   UNL A   1      44.189  38.986  35.638  1.00  0.00    -0.237 OA
ATOM     95  O   UNL A   1      45.303  39.579  33.514  1.00  0.00    -0.237 OA
ATOM     96  O   UNL A   1      42.916  40.098  33.840  1.00  0.00    -0.744 OA
ENDBRANCH  92  93
ENDBRANCH  66  87
ENDBRANCH  40  41
ENDBRANCH  32  35
ENDBRANCH  30  31
ENDBRANCH  29  30
ENDBRANCH   1  29
TORSDOF 19
ENDMDL
MODEL 2
REMARK VINA RESULT:     -11.4      2.759      9.322
REMARK SMILES [NH3+][C@@H](CNc1ccc(C(=O)NCCCCNC(=O)c2ccc(-c3c4nc(c(-c5ccc(S(=O)(=O)[O-])cc5)c5ccc([nH]5)c(-c5ccc(S(=O)(=O)[O-])cc5)c5nc(c(-c6ccc(S(=O)(=O)[O-])cc6)c6ccc3[nH]6)C=C5)C=C4)cc2)c(F)c1F)c1ccccc1
REMARK SMILES IDX 13 1 12 2 11 3 9 4 10 5 8 7 5 8 6 9 81 10 7 11 79 12 82 13
REMARK SMILES IDX 80 14 4 15 3 17 2 18 1 19 83 23 84 24 88 25 85 26 87 27
REMARK SMILES IDX 86 28 14 29 15 30 16 31 17 32 18 34 19 35 20 36 78 37 21 38
REMARK SMILES IDX 77 39 22 40 23 41 24 42 71 43 25 44 76 45 70 46 72 47 26 48
REMARK SMILES IDX 75 49 69 50 68 51 27 53 57 54 38 55 56 56 39 57 42 58 55 59
REMARK SMILES IDX 73 60 40 61 41 62 54 64 74 65 43 66 28 67 29 68 37 69 30 70
REMARK SMILES IDX 36 71 31 72 32 73 33 74 34 75 35 76 58 77 59 78 67 79 60 80
REMARK SMILES IDX 66 81 61 82 62 83 63 84 64 85 65 86 44 87 45 88 53 89 46 90
REMARK SMILES IDX 52 91 47 92 48 93 49 94 50 95 51 96
REMARK H PARENT 11 6 4 16 1 20 1 21 1 22 16 33 72 52 42 63
REMARK Flexibility Score: inf
ROOT
ATOM      1  C   UNL A   1      33.654  27.200  25.103  1.00  0.00     0.023 C 
ENDROOT
BRANCH   1   2
ATOM      2  C   UNL A   1      33.785  27.407  23.598  1.00  0.00     0.116 C 
BRANCH   2   3
ATOM      3  N   UNL A   1      32.516  27.608  22.922  1.00  0.00    -0.352 N 
ATOM      4  C   UNL A   1      31.374  26.846  22.926  1.00  0.00     0.254 C 
ATOM      5  O   UNL A   1      30.409  27.216  22.258  1.00  0.00    -0.269 OA
ATOM      6  H   UNL A   1      32.467  28.423  22.371  1.00  0.00     0.163 HD
BRANCH   4   7
ATOM      7  C   UNL A   1      31.284  25.551  23.633  1.00  0.00     0.078 A 
ATOM      8  C   UNL A   1      31.279  23.016  24.897  1.00  0.00     0.074 A 
ATOM      9  C   UNL A   1      31.868  23.187  23.641  1.00  0.00     0.030 A 
ATOM     10  C   UNL A   1      30.625  24.124  25.460  1.00  0.00     0.182 A 
ATOM     11  C   UNL A   1      31.875  24.440  23.016  1.00  0.00     0.019 A 
ATOM     12  C   UNL A   1      30.604  25.367  24.830  1.00  0.00     0.173 A 
ATOM     13  F   UNL A   1      30.019  23.983  26.653  1.00  0.00    -0.201 F 
ATOM     14  F   UNL A   1      29.916  26.367  25.402  1.00  0.00    -0.203 F 
BRANCH   8  15
ATOM     15  N   UNL A   1      31.319  21.807  25.587  1.00  0.00    -0.376 N 
ATOM     16  H   UNL A   1      30.618  21.610  26.250  1.00  0.00     0.160 HD
BRANCH  15  17
ATOM     17  C   UNL A   1      32.376  20.822  25.350  1.00  0.00     0.183 C 
BRANCH  17  18
ATOM     18  C   UNL A   1      33.604  21.023  26.299  1.00  0.00     0.231 C 
BRANCH  18  19
ATOM     19  N   UNL A   1      33.173  21.444  27.648  1.00  0.00    -0.350 N 
ATOM     20  H   UNL A   1      33.417  22.423  27.794  1.00  0.00     0.345 HD
ATOM     21  H   UNL A   1      33.639  20.870  28.350  1.00  0.00     0.345 HD
ATOM     22  H   UNL A   1      32.162  21.330  27.733  1.00  0.00     0.345 HD
ENDBRANCH  18  19
BRANCH  18  23
ATOM     23  C   UNL A   1      34.674  21.929  25.693  1.00  0.00     0.011 A 
ATOM     24  C   UNL A   1      34.841  23.273  26.067  1.00  0.00     0.010 A 
ATOM     25  C   UNL A   1      35.538  21.412  24.709  1.00  0.00     0.010 A 
ATOM     26  C   UNL A   1      35.818  24.074  25.468  1.00  0.00     0.001 A 
ATOM     27  C   UNL A   1      36.512  22.213  24.108  1.00  0.00     0.001 A 
ATOM     28  C   UNL A   1      36.649  23.545  24.485  1.00  0.00     0.000 A 
ENDBRANCH  18  23
ENDBRANCH  17  18
ENDBRANCH  15  17
ENDBRANCH   8  15
ENDBRANCH   4   7
ENDBRANCH   2   3
ENDBRANCH   1   2
BRANCH   1  29
ATOM     29  C   UNL A   1      32.854  28.251  25.869  1.00  0.00     0.023 C 
BRANCH  29  30
ATOM     30  C   UNL A   1      33.363  28.608  27.261  1.00  0.00     0.116 C 
BRANCH  30  31
ATOM     31  N   UNL A   1      33.396  30.038  27.525  1.00  0.00    -0.352 N 
ATOM     32  C   UNL A   1      34.410  30.823  28.028  1.00  0.00     0.251 C 
ATOM     33  H   UNL A   1      32.563  30.519  27.311  1.00  0.00     0.163 HD
ATOM     34  O   UNL A   1      34.202  32.008  28.256  1.00  0.00    -0.269 OA
BRANCH  32  35
ATOM     35  C   UNL A   1      35.734  30.232  28.328  1.00  0.00     0.039 A 
ATOM     36  C   UNL A   1      36.704  30.210  27.321  1.00  0.00     0.014 A 
ATOM     37  C   UNL A   1      36.029  29.709  29.588  1.00  0.00     0.014 A 
ATOM     38  C   UNL A   1      37.989  29.735  27.602  1.00  0.00     0.010 A 
ATOM     39  C   UNL A   1      37.330  29.317  29.891  1.00  0.00     0.010 A 
ATOM     40  C   UNL A   1      38.324  29.320  28.900  1.00  0.00    -0.014 A 
BRANCH  40  41
ATOM     41  C   UNL A   1      39.704  28.885  29.241  1.00  0.00     0.031 A 
ATOM     42  C   UNL A   1      40.657  29.839  29.911  1.00  0.00     0.074 A 
ATOM     43  C   UNL A   1      40.130  27.660  28.875  1.00  0.00     0.049 A 
ATOM     44  N   UNL A   1      41.911  29.658  30.241  1.00  0.00    -0.248 NA
ATOM     45  C   UNL A   1      40.144  31.184  30.216  1.00  0.00     0.031 C 
ATOM     46  C   UNL A   1      39.331  26.665  28.157  1.00  0.00     0.029 A 
ATOM     47  N   UNL A   1      41.347  27.047  29.045  1.00  0.00    -0.354 N 
ATOM     48  C   UNL A   1      42.343  30.872  30.762  1.00  0.00     0.074 A 
ATOM     49  C   UNL A   1      41.233  31.794  30.655  1.00  0.00     0.031 C 
ATOM     50  C   UNL A   1      40.072  25.560  27.966  1.00  0.00     0.029 A 
ATOM     51  C   UNL A   1      41.405  25.779  28.519  1.00  0.00     0.049 A 
ATOM     52  H   UNL A   1      42.107  27.477  29.500  1.00  0.00     0.167 HD
ATOM     53  C   UNL A   1      43.547  31.190  31.299  1.00  0.00     0.031 A 
ATOM     54  C   UNL A   1      42.415  24.888  28.480  1.00  0.00     0.031 A 
ATOM     55  C   UNL A   1      44.643  30.266  31.419  1.00  0.00     0.049 A 
ATOM     56  C   UNL A   1      43.729  25.238  29.123  1.00  0.00     0.074 A 
ATOM     57  C   UNL A   1      45.873  30.463  32.020  1.00  0.00     0.029 A 
ATOM     58  N   UNL A   1      44.643  28.972  30.919  1.00  0.00    -0.354 N 
ATOM     59  N   UNL A   1      44.089  26.361  29.697  1.00  0.00    -0.248 NA
ATOM     60  C   UNL A   1      44.762  24.195  29.131  1.00  0.00     0.031 C 
ATOM     61  C   UNL A   1      46.637  29.302  31.842  1.00  0.00     0.029 A 
ATOM     62  C   UNL A   1      45.861  28.364  31.178  1.00  0.00     0.049 A 
ATOM     63  H   UNL A   1      43.890  28.547  30.448  1.00  0.00     0.167 HD
ATOM     64  C   UNL A   1      45.385  26.154  30.155  1.00  0.00     0.074 A 
ATOM     65  C   UNL A   1      45.738  24.793  29.802  1.00  0.00     0.031 C 
ATOM     66  C   UNL A   1      46.206  27.013  30.811  1.00  0.00     0.031 A 
BRANCH  53  67
ATOM     67  C   UNL A   1      43.733  32.608  31.777  1.00  0.00    -0.014 A 
ATOM     68  C   UNL A   1      43.448  32.975  33.106  1.00  0.00     0.010 A 
ATOM     69  C   UNL A   1      44.185  33.591  30.879  1.00  0.00     0.010 A 
ATOM     70  C   UNL A   1      43.539  34.310  33.506  1.00  0.00     0.020 A 
ATOM     71  C   UNL A   1      44.309  34.924  31.285  1.00  0.00     0.020 A 
ATOM     72  C   UNL A   1      43.956  35.279  32.589  1.00  0.00     0.054 A 
BRANCH  72  73
ATOM     73  S   UNL A   1      44.038  37.010  33.124  1.00  0.00     0.124 S 
ATOM     74  O   UNL A   1      42.869  37.109  33.995  1.00  0.00    -0.237 OA
ATOM     75  O   UNL A   1      45.331  37.078  33.801  1.00  0.00    -0.237 OA
ATOM     76  O   UNL A   1      43.952  37.764  31.876  1.00  0.00    -0.744 OA
ENDBRANCH  72  73
ENDBRANCH  53  67
BRANCH  54  77
ATOM     77  C   UNL A   1      42.195  23.565  27.835  1.00  0.00    -0.014 A 
ATOM     78  C   UNL A   1      42.726  23.294  26.563  1.00  0.00     0.010 A 
ATOM     79  C   UNL A   1      41.514  22.545  28.525  1.00  0.00     0.010 A 
ATOM     80  C   UNL A   1      42.586  22.024  25.994  1.00  0.00     0.020 A 
ATOM     81  C   UNL A   1      41.393  21.268  27.969  1.00  0.00     0.020 A 
ATOM     82  C   UNL A   1      41.929  21.016  26.705  1.00  0.00     0.054 A 
BRANCH  82  83
ATOM     83  S   UNL A   1      41.854  19.349  25.992  1.00  0.00     0.124 S 
ATOM     84  O   UNL A   1      42.339  18.524  27.095  1.00  0.00    -0.237 OA
ATOM     85  O   UNL A   1      40.436  19.207  25.671  1.00  0.00    -0.237 OA
ATOM     86  O   UNL A   1      42.740  19.432  24.833  1.00  0.00    -0.744 OA
ENDBRANCH  82  83
ENDBRANCH  54  77
BRANCH  66  87
ATOM     87  C   UNL A   1      47.562  26.500  31.215  1.00  0.00    -0.014 A 
ATOM     88  C   UNL A   1      47.786  25.956  32.492  1.00  0.00     0.010 A 
ATOM     89  C   UNL A   1      48.615  26.515  30.282  1.00  0.00     0.010 A 
ATOM     90  C   UNL A   1      49.049  25.468  32.841  1.00  0.00     0.020 A 
ATOM     91  C   UNL A   1      49.871  26.004  30.617  1.00  0.00     0.020 A 
ATOM     92  C   UNL A   1      50.085  25.498  31.901  1.00  0.00     0.054 A 
BRANCH  92  93
ATOM     93  S   UNL A   1      51.706  24.827  32.363  1.00  0.00     0.124 S 
ATOM     94  O   UNL A   1      51.811  25.226  33.764  1.00  0.00    -0.237 OA
ATOM     95  O   UNL A   1      51.540  23.395  32.128  1.00  0.00    -0.237 OA
ATOM     96  O   UNL A   1      52.630  25.498  31.452  1.00  0.00    -0.744 OA
ENDBRANCH  92  93
ENDBRANCH  66  87
ENDBRANCH  40  41
ENDBRANCH  32  35
ENDBRANCH  30  31
ENDBRANCH  29  30
ENDBRANCH   1  29
TORSDOF 19
ENDMDL
MODEL 3
REMARK VINA RESULT:     -10.9      3.377      4.052
REMARK SMILES [NH3+][C@@H](CNc1ccc(C(=O)NCCCCNC(=O)c2ccc(-c3c4nc(c(-c5ccc(S(=O)(=O)[O-])cc5)c5ccc([nH]5)c(-c5ccc(S(=O)(=O)[O-])cc5)c5nc(c(-c6ccc(S(=O)(=O)[O-])cc6)c6ccc3[nH]6)C=C5)C=C4)cc2)c(F)c1F)c1ccccc1
REMARK SMILES IDX 13 1 12 2 11 3 9 4 10 5 8 7 5 8 6 9 81 10 7 11 79 12 82 13
REMARK SMILES IDX 80 14 4 15 3 17 2 18 1 19 83 23 84 24 88 25 85 26 87 27
REMARK SMILES IDX 86 28 14 29 15 30 16 31 17 32 18 34 19 35 20 36 78 37 21 38
REMARK SMILES IDX 77 39 22 40 23 41 24 42 71 43 25 44 76 45 70 46 72 47 26 48
REMARK SMILES IDX 75 49 69 50 68 51 27 53 57 54 38 55 56 56 39 57 42 58 55 59
REMARK SMILES IDX 73 60 40 61 41 62 54 64 74 65 43 66 28 67 29 68 37 69 30 70
REMARK SMILES IDX 36 71 31 72 32 73 33 74 34 75 35 76 58 77 59 78 67 79 60 80
REMARK SMILES IDX 66 81 61 82 62 83 63 84 64 85 65 86 44 87 45 88 53 89 46 90
REMARK SMILES IDX 52 91 47 92 48 93 49 94 50 95 51 96
REMARK H PARENT 11 6 4 16 1 20 1 21 1 22 16 33 72 52 42 63
REMARK Flexibility Score: inf
ROOT
ATOM      1  C   UNL A   1      37.763  22.742  25.631  1.00  0.00     0.023 C 
ENDROOT
BRANCH   1   2
ATOM      2  C   UNL A   1      37.119  21.861  24.566  1.00  0.00     0.116 C 
BRANCH   2   3
ATOM      3  N   UNL A   1      36.038  21.031  25.069  1.00  0.00    -0.352 N 
ATOM      4  C   UNL A   1      34.706  21.313  25.242  1.00  0.00     0.254 C 
ATOM      5  O   UNL A   1      33.968  20.441  25.701  1.00  0.00    -0.269 OA
ATOM      6  H   UNL A   1      36.305  20.119  25.327  1.00  0.00     0.163 HD
BRANCH   4   7
ATOM      7  C   UNL A   1      34.134  22.650  24.982  1.00  0.00     0.078 A 
ATOM      8  C   UNL A   1      33.174  25.289  24.608  1.00  0.00     0.074 A 
ATOM      9  C   UNL A   1      33.778  24.912  25.810  1.00  0.00     0.030 A 
ATOM     10  C   UNL A   1      32.992  24.292  23.636  1.00  0.00     0.182 A 
ATOM     11  C   UNL A   1      34.257  23.610  25.997  1.00  0.00     0.019 A 
ATOM     12  C   UNL A   1      33.442  22.986  23.825  1.00  0.00     0.173 A 
ATOM     13  F   UNL A   1      32.384  24.614  22.480  1.00  0.00    -0.201 F 
ATOM     14  F   UNL A   1      33.187  22.073  22.876  1.00  0.00    -0.203 F 
BRANCH   8  15
ATOM     15  N   UNL A   1      32.755  26.593  24.353  1.00  0.00    -0.376 N 
ATOM     16  H   UNL A   1      33.049  27.037  23.525  1.00  0.00     0.160 HD
BRANCH  15  17
ATOM     17  C   UNL A   1      31.890  27.317  25.286  1.00  0.00     0.183 C 
BRANCH  17  18
ATOM     18  C   UNL A   1      32.034  28.870  25.154  1.00  0.00     0.231 C 
BRANCH  18  19
ATOM     19  N   UNL A   1      32.304  29.263  23.755  1.00  0.00    -0.350 N 
ATOM     20  H   UNL A   1      31.553  28.923  23.155  1.00  0.00     0.345 HD
ATOM     21  H   UNL A   1      33.190  28.859  23.452  1.00  0.00     0.345 HD
ATOM     22  H   UNL A   1      32.356  30.281  23.691  1.00  0.00     0.345 HD
ENDBRANCH  18  19
BRANCH  18  23
ATOM     23  C   UNL A   1      33.030  29.455  26.152  1.00  0.00     0.011 A 
ATOM     24  C   UNL A   1      32.854  30.706  26.767  1.00  0.00     0.010 A 
ATOM     25  C   UNL A   1      34.186  28.722  26.482  1.00  0.00     0.010 A 
ATOM     26  C   UNL A   1      33.805  31.214  27.657  1.00  0.00     0.001 A 
ATOM     27  C   UNL A   1      35.138  29.232  27.369  1.00  0.00     0.001 A 
ATOM     28  C   UNL A   1      34.948  30.480  27.954  1.00  0.00     0.000 A 
ENDBRANCH  18  23
ENDBRANCH  17  18
ENDBRANCH  15  17
ENDBRANCH   8  15
ENDBRANCH   4   7
ENDBRANCH   2   3
ENDBRANCH   1   2
BRANCH   1  29
ATOM     29  C   UNL A   1      39.104  22.270  26.187  1.00  0.00     0.023 C 
BRANCH  29  30
ATOM     30  C   UNL A   1      39.964  23.327  26.872  1.00  0.00     0.116 C 
BRANCH  30  31
ATOM     31  N   UNL A   1      41.109  23.753  26.083  1.00  0.00    -0.352 N 
ATOM     32  C   UNL A   1      41.841  24.919  26.142  1.00  0.00     0.251 C 
ATOM     33  H   UNL A   1      41.406  23.108  25.400  1.00  0.00     0.163 HD
ATOM     34  O   UNL A   1      42.725  25.121  25.320  1.00  0.00    -0.269 OA
BRANCH  32  35
ATOM     35  C   UNL A   1      41.535  25.942  27.169  1.00  0.00     0.039 A 
ATOM     36  C   UNL A   1      40.508  25.691  28.083  1.00  0.00     0.014 A 
ATOM     37  C   UNL A   1      42.255  27.136  27.242  1.00  0.00     0.014 A 
ATOM     38  C   UNL A   1      40.255  26.601  29.114  1.00  0.00     0.010 A 
ATOM     39  C   UNL A   1      42.062  27.998  28.318  1.00  0.00     0.010 A 
ATOM     40  C   UNL A   1      41.056  27.744  29.264  1.00  0.00    -0.014 A 
BRANCH  40  41
ATOM     41  C   UNL A   1      40.856  28.685  30.397  1.00  0.00     0.031 A 
ATOM     42  C   UNL A   1      41.686  28.555  31.647  1.00  0.00     0.074 A 
ATOM     43  C   UNL A   1      39.874  29.606  30.339  1.00  0.00     0.049 A 
ATOM     44  N   UNL A   1      41.624  29.249  32.755  1.00  0.00    -0.248 NA
ATOM     45  C   UNL A   1      42.692  27.481  31.666  1.00  0.00     0.031 C 
ATOM     46  C   UNL A   1      38.951  29.790  29.216  1.00  0.00     0.029 A 
ATOM     47  N   UNL A   1      39.478  30.551  31.252  1.00  0.00    -0.354 N 
ATOM     48  C   UNL A   1      42.558  28.676  33.611  1.00  0.00     0.074 A 
ATOM     49  C   UNL A   1      43.132  27.547  32.912  1.00  0.00     0.031 C 
ATOM     50  C   UNL A   1      38.111  30.800  29.499  1.00  0.00     0.029 A 
ATOM     51  C   UNL A   1      38.413  31.313  30.832  1.00  0.00     0.049 A 
ATOM     52  H   UNL A   1      39.914  30.672  32.126  1.00  0.00     0.167 HD
ATOM     53  C   UNL A   1      42.919  29.062  34.860  1.00  0.00     0.031 A 
ATOM     54  C   UNL A   1      37.749  32.311  31.447  1.00  0.00     0.031 A 
ATOM     55  C   UNL A   1      42.357  30.194  35.546  1.00  0.00     0.049 A 
ATOM     56  C   UNL A   1      38.194  32.759  32.811  1.00  0.00     0.074 A 
ATOM     57  C   UNL A   1      42.712  30.719  36.776  1.00  0.00     0.029 A 
ATOM     58  N   UNL A   1      41.315  30.972  35.063  1.00  0.00    -0.354 N 
ATOM     59  N   UNL A   1      39.144  32.264  33.569  1.00  0.00    -0.248 NA
ATOM     60  C   UNL A   1      37.493  33.910  33.393  1.00  0.00     0.031 C 
ATOM     61  C   UNL A   1      41.850  31.786  37.059  1.00  0.00     0.029 A 
ATOM     62  C   UNL A   1      40.997  31.961  35.981  1.00  0.00     0.049 A 
ATOM     63  H   UNL A   1      40.866  30.842  34.197  1.00  0.00     0.167 HD
ATOM     64  C   UNL A   1      39.170  33.058  34.710  1.00  0.00     0.074 A 
ATOM     65  C   UNL A   1      38.150  34.073  34.534  1.00  0.00     0.031 C 
ATOM     66  C   UNL A   1      39.970  32.957  35.801  1.00  0.00     0.031 A 
BRANCH  53  67
ATOM     67  C   UNL A   1      43.963  28.229  35.560  1.00  0.00    -0.014 A 
ATOM     68  C   UNL A   1      45.337  28.505  35.416  1.00  0.00     0.010 A 
ATOM     69  C   UNL A   1      43.565  27.145  36.363  1.00  0.00     0.010 A 
ATOM     70  C   UNL A   1      46.291  27.668  35.998  1.00  0.00     0.020 A 
ATOM     71  C   UNL A   1      44.518  26.324  36.975  1.00  0.00     0.020 A 
ATOM     72  C   UNL A   1      45.876  26.574  36.764  1.00  0.00     0.054 A 
BRANCH  72  73
ATOM     73  S   UNL A   1      47.134  25.486  37.485  1.00  0.00     0.124 S 
ATOM     74  O   UNL A   1      48.371  26.117  37.033  1.00  0.00    -0.237 OA
ATOM     75  O   UNL A   1      46.866  25.586  38.917  1.00  0.00    -0.237 OA
ATOM     76  O   UNL A   1      46.846  24.182  36.891  1.00  0.00    -0.744 OA
ENDBRANCH  72  73
ENDBRANCH  53  67
BRANCH  54  77
ATOM     77  C   UNL A   1      36.614  32.970  30.746  1.00  0.00    -0.014 A 
ATOM     78  C   UNL A   1      35.301  32.833  31.226  1.00  0.00     0.010 A 
ATOM     79  C   UNL A   1      36.854  33.800  29.634  1.00  0.00     0.010 A 
ATOM     80  C   UNL A   1      34.247  33.519  30.612  1.00  0.00     0.020 A 
ATOM     81  C   UNL A   1      35.806  34.505  29.033  1.00  0.00     0.020 A 
ATOM     82  C   UNL A   1      34.509  34.358  29.526  1.00  0.00     0.054 A 
BRANCH  82  83
ATOM     83  S   UNL A   1      33.144  35.320  28.814  1.00  0.00     0.124 S 
ATOM     84  O   UNL A   1      32.466  34.323  27.992  1.00  0.00    -0.237 OA
ATOM     85  O   UNL A   1      32.416  35.761  30.002  1.00  0.00    -0.237 OA
ATOM     86  O   UNL A   1      33.822  36.385  28.079  1.00  0.00    -0.744 OA
ENDBRANCH  82  83
ENDBRANCH  54  77
BRANCH  66  87
ATOM     87  C   UNL A   1      39.793  33.986  36.886  1.00  0.00    -0.014 A 
ATOM     88  C   UNL A   1      39.043  33.707  38.042  1.00  0.00     0.010 A 
ATOM     89  C   UNL A   1      40.434  35.234  36.769  1.00  0.00     0.010 A 
ATOM     90  C   UNL A   1      38.907  34.670  39.046  1.00  0.00     0.020 A 
ATOM     91  C   UNL A   1      40.323  36.189  37.782  1.00  0.00     0.020 A 
ATOM     92  C   UNL A   1      39.547  35.907  38.908  1.00  0.00     0.054 A 
BRANCH  92  93
ATOM     93  S   UNL A   1      39.385  37.129  40.239  1.00  0.00     0.124 S 
ATOM     94  O   UNL A   1      40.775  37.321  40.645  1.00  0.00    -0.237 OA
ATOM     95  O   UNL A   1      38.766  38.264  39.559  1.00  0.00    -0.237 OA
ATOM     96  O   UNL A   1      38.535  36.460  41.221  1.00  0.00    -0.744 OA
ENDBRANCH  92  93
ENDBRANCH  66  87
ENDBRANCH  40  41
ENDBRANCH  32  35
ENDBRANCH  30  31
ENDBRANCH  29  30
ENDBRANCH   1  29
TORSDOF 19
ENDMDL
