MODEL 1
REMARK VINA RESULT:     -11.9      0.000      0.000
REMARK SMILES Cc1cc(F)ccc1CCNc1ccc(Cl)c(C(=O)NCCCCNC(=O)c2ccc(-c3c4nc(c(-c5ccc(S(=O)(=O)[O-])cc5)c5ccc([nH]5)c(-c5ccc(S(=O)(=O)[O-])cc5)c5nc(c(-c6ccc(S(=O)(=O)[O-])cc6)c6ccc3[nH]6)C=C5)C=C4)cc2)n1
REMARK SMILES IDX 22 1 21 2 20 3 18 4 19 5 17 7 12 8 13 9 88 10 14 11 15 12
REMARK SMILES IDX 16 13 11 14 10 16 9 17 8 18 1 19 2 20 3 21 4 22 7 23 5 24
REMARK SMILES IDX 6 25 23 26 24 27 25 28 26 29 27 31 28 32 29 33 87 34 30 35
REMARK SMILES IDX 86 36 31 37 32 38 33 39 80 40 34 41 85 42 79 43 81 44 35 45
REMARK SMILES IDX 84 46 78 47 77 48 36 50 66 51 47 52 65 53 48 54 51 55 64 56
REMARK SMILES IDX 82 57 49 58 50 59 63 61 83 62 52 63 37 64 38 65 46 66 39 67
REMARK SMILES IDX 45 68 40 69 41 70 42 71 43 72 44 73 67 74 68 75 76 76 69 77
REMARK SMILES IDX 75 78 70 79 71 80 72 81 73 82 74 83 53 84 54 85 62 86 55 87
REMARK SMILES IDX 61 88 56 89 57 90 58 91 59 92 60 93
REMARK H PARENT 20 6 11 15 25 30 81 49 51 60
REMARK Flexibility Score: inf
ROOT
ATOM      1  C   UNL A   1      32.534  29.888  27.137  1.00  0.00     0.023 C 
ENDROOT
BRANCH   1   2
ATOM      2  C   UNL A   1      32.044  30.238  25.736  1.00  0.00     0.116 C 
BRANCH   2   3
ATOM      3  N   UNL A   1      32.848  29.702  24.655  1.00  0.00    -0.351 N 
ATOM      4  C   UNL A   1      32.530  28.767  23.685  1.00  0.00     0.271 C 
ATOM      5  O   UNL A   1      33.375  28.521  22.821  1.00  0.00    -0.267 OA
ATOM      6  H   UNL A   1      33.765  30.059  24.602  1.00  0.00     0.163 HD
BRANCH   4   7
ATOM      7  C   UNL A   1      31.238  28.007  23.682  1.00  0.00     0.149 A 
ATOM      8  C   UNL A   1      30.282  25.907  24.043  1.00  0.00     0.126 A 
ATOM      9  C   UNL A   1      29.018  26.424  23.798  1.00  0.00     0.048 A 
ATOM     10  N   UNL A   1      31.370  26.695  24.070  1.00  0.00    -0.224 NA
ATOM     11  C   UNL A   1      28.889  27.744  23.384  1.00  0.00     0.027 A 
ATOM     12  C   UNL A   1      30.027  28.532  23.243  1.00  0.00     0.072 A 
ATOM     13  Cl  UNL A   1      29.838  30.021  22.398  1.00  0.00    -0.082 Cl
BRANCH   8  14
ATOM     14  N   UNL A   1      30.489  24.550  24.215  1.00  0.00    -0.370 N 
ATOM     15  H   UNL A   1      30.365  23.927  23.463  1.00  0.00     0.162 HD
BRANCH  14  16
ATOM     16  C   UNL A   1      30.894  24.056  25.535  1.00  0.00     0.119 C 
BRANCH  16  17
ATOM     17  C   UNL A   1      31.752  22.780  25.437  1.00  0.00     0.057 C 
BRANCH  17  18
ATOM     18  C   UNL A   1      33.191  23.085  25.066  1.00  0.00    -0.043 A 
ATOM     19  C   UNL A   1      32.831  22.642  22.553  1.00  0.00     0.045 C 
ATOM     20  C   UNL A   1      33.688  22.961  23.749  1.00  0.00    -0.045 A 
ATOM     21  C   UNL A   1      35.053  23.206  23.512  1.00  0.00     0.043 A 
ATOM     22  C   UNL A   1      35.903  23.549  24.558  1.00  0.00     0.123 A 
ATOM     23  C   UNL A   1      34.070  23.459  26.102  1.00  0.00     0.007 A 
ATOM     24  F   UNL A   1      37.203  23.758  24.308  1.00  0.00    -0.207 F 
ATOM     25  C   UNL A   1      35.422  23.683  25.850  1.00  0.00     0.039 A 
ENDBRANCH  17  18
ENDBRANCH  16  17
ENDBRANCH  14  16
ENDBRANCH   8  14
ENDBRANCH   4   7
ENDBRANCH   2   3
ENDBRANCH   1   2
BRANCH   1  26
ATOM     26  C   UNL A   1      33.659  28.857  27.229  1.00  0.00     0.023 C 
BRANCH  26  27
ATOM     27  C   UNL A   1      35.066  29.386  27.496  1.00  0.00     0.116 C 
BRANCH  27  28
ATOM     28  N   UNL A   1      35.179  30.208  28.694  1.00  0.00    -0.352 N 
ATOM     29  C   UNL A   1      36.259  30.404  29.526  1.00  0.00     0.251 C 
ATOM     30  H   UNL A   1      34.361  30.695  28.947  1.00  0.00     0.163 HD
ATOM     31  O   UNL A   1      36.142  31.103  30.530  1.00  0.00    -0.269 OA
BRANCH  29  32
ATOM     32  C   UNL A   1      37.545  29.734  29.237  1.00  0.00     0.039 A 
ATOM     33  C   UNL A   1      38.059  29.788  27.937  1.00  0.00     0.014 A 
ATOM     34  C   UNL A   1      38.268  29.106  30.252  1.00  0.00     0.014 A 
ATOM     35  C   UNL A   1      39.347  29.310  27.681  1.00  0.00     0.010 A 
ATOM     36  C   UNL A   1      39.578  28.698  30.011  1.00  0.00     0.010 A 
ATOM     37  C   UNL A   1      40.140  28.816  28.729  1.00  0.00    -0.014 A 
BRANCH  37  38
ATOM     38  C   UNL A   1      41.564  28.437  28.532  1.00  0.00     0.031 A 
ATOM     39  C   UNL A   1      42.633  29.495  28.567  1.00  0.00     0.074 A 
ATOM     40  C   UNL A   1      41.884  27.167  28.206  1.00  0.00     0.049 A 
ATOM     41  N   UNL A   1      43.897  29.402  28.246  1.00  0.00    -0.248 NA
ATOM     42  C   UNL A   1      42.214  30.842  28.989  1.00  0.00     0.031 C 
ATOM     43  C   UNL A   1      40.942  26.050  28.103  1.00  0.00     0.029 A 
ATOM     44  N   UNL A   1      43.095  26.606  27.878  1.00  0.00    -0.354 N 
ATOM     45  C   UNL A   1      44.416  30.684  28.388  1.00  0.00     0.074 A 
ATOM     46  C   UNL A   1      43.323  31.541  28.793  1.00  0.00     0.031 C 
ATOM     47  C   UNL A   1      41.610  24.939  27.752  1.00  0.00     0.029 A 
ATOM     48  C   UNL A   1      43.018  25.271  27.557  1.00  0.00     0.049 A 
ATOM     49  H   UNL A   1      43.939  27.114  27.872  1.00  0.00     0.167 HD
ATOM     50  C   UNL A   1      45.690  31.108  28.210  1.00  0.00     0.031 A 
ATOM     51  C   UNL A   1      43.967  24.412  27.135  1.00  0.00     0.031 A 
ATOM     52  C   UNL A   1      46.781  30.250  27.836  1.00  0.00     0.049 A 
ATOM     53  C   UNL A   1      45.378  24.902  26.956  1.00  0.00     0.074 A 
ATOM     54  C   UNL A   1      48.119  30.577  27.684  1.00  0.00     0.029 A 
ATOM     55  N   UNL A   1      46.666  28.896  27.564  1.00  0.00    -0.354 N 
ATOM     56  N   UNL A   1      45.857  26.110  27.135  1.00  0.00    -0.248 NA
ATOM     57  C   UNL A   1      46.378  23.915  26.525  1.00  0.00     0.031 C 
ATOM     58  C   UNL A   1      48.806  29.425  27.288  1.00  0.00     0.029 A 
ATOM     59  C   UNL A   1      47.905  28.373  27.238  1.00  0.00     0.049 A 
ATOM     60  H   UNL A   1      45.827  28.382  27.598  1.00  0.00     0.167 HD
ATOM     61  C   UNL A   1      47.219  26.020  26.869  1.00  0.00     0.074 A 
ATOM     62  C   UNL A   1      47.488  24.640  26.519  1.00  0.00     0.031 C 
ATOM     63  C   UNL A   1      48.160  26.993  26.911  1.00  0.00     0.031 A 
BRANCH  50  64
ATOM     64  C   UNL A   1      45.966  32.574  28.413  1.00  0.00    -0.014 A 
ATOM     65  C   UNL A   1      46.333  33.074  29.675  1.00  0.00     0.010 A 
ATOM     66  C   UNL A   1      45.881  33.459  27.323  1.00  0.00     0.010 A 
ATOM     67  C   UNL A   1      46.560  34.440  29.855  1.00  0.00     0.020 A 
ATOM     68  C   UNL A   1      46.134  34.823  27.493  1.00  0.00     0.020 A 
ATOM     69  C   UNL A   1      46.451  35.308  28.764  1.00  0.00     0.054 A 
BRANCH  69  70
ATOM     70  S   UNL A   1      46.758  37.076  29.023  1.00  0.00     0.124 S 
ATOM     71  O   UNL A   1      48.178  37.085  29.371  1.00  0.00    -0.237 OA
ATOM     72  O   UNL A   1      46.427  37.656  27.725  1.00  0.00    -0.237 OA
ATOM     73  O   UNL A   1      45.848  37.429  30.110  1.00  0.00    -0.744 OA
ENDBRANCH  69  70
ENDBRANCH  50  64
BRANCH  51  74
ATOM     74  C   UNL A   1      43.618  22.990  26.866  1.00  0.00    -0.014 A 
ATOM     75  C   UNL A   1      42.860  22.258  27.797  1.00  0.00     0.010 A 
ATOM     76  C   UNL A   1      44.027  22.365  25.674  1.00  0.00     0.010 A 
ATOM     77  C   UNL A   1      42.532  20.922  27.550  1.00  0.00     0.020 A 
ATOM     78  C   UNL A   1      43.680  21.036  25.412  1.00  0.00     0.020 A 
ATOM     79  C   UNL A   1      42.943  20.319  26.357  1.00  0.00     0.054 A 
BRANCH  79  80
ATOM     80  S   UNL A   1      42.459  18.601  26.033  1.00  0.00     0.124 S 
ATOM     81  O   UNL A   1      41.046  18.741  25.698  1.00  0.00    -0.237 OA
ATOM     82  O   UNL A   1      43.338  18.227  24.927  1.00  0.00    -0.237 OA
ATOM     83  O   UNL A   1      42.741  17.924  27.297  1.00  0.00    -0.744 OA
ENDBRANCH  79  80
ENDBRANCH  51  74
BRANCH  63  84
ATOM     84  C   UNL A   1      49.584  26.603  26.626  1.00  0.00    -0.014 A 
ATOM     85  C   UNL A   1      50.425  26.125  27.645  1.00  0.00     0.010 A 
ATOM     86  C   UNL A   1      50.052  26.629  25.300  1.00  0.00     0.010 A 
ATOM     87  C   UNL A   1      51.718  25.688  27.341  1.00  0.00     0.020 A 
ATOM     88  C   UNL A   1      51.336  26.172  24.990  1.00  0.00     0.020 A 
ATOM     89  C   UNL A   1      52.163  25.710  26.015  1.00  0.00     0.054 A 
BRANCH  89  90
ATOM     90  S   UNL A   1      53.815  25.060  25.635  1.00  0.00     0.124 S 
ATOM     91  O   UNL A   1      54.529  25.295  26.886  1.00  0.00    -0.237 OA
ATOM     92  O   UNL A   1      53.545  23.660  25.319  1.00  0.00    -0.237 OA
ATOM     93  O   UNL A   1      54.254  25.874  24.504  1.00  0.00    -0.744 OA
ENDBRANCH  89  90
ENDBRANCH  63  84
ENDBRANCH  37  38
ENDBRANCH  29  32
ENDBRANCH  27  28
ENDBRANCH  26  27
ENDBRANCH   1  26
TORSDOF 18
ENDMDL
MODEL 2
REMARK VINA RESULT:     -11.5      1.108      8.208
REMARK SMILES Cc1cc(F)ccc1CCNc1ccc(Cl)c(C(=O)NCCCCNC(=O)c2ccc(-c3c4nc(c(-c5ccc(S(=O)(=O)[O-])cc5)c5ccc([nH]5)c(-c5ccc(S(=O)(=O)[O-])cc5)c5nc(c(-c6ccc(S(=O)(=O)[O-])cc6)c6ccc3[nH]6)C=C5)C=C4)cc2)n1
REMARK SMILES IDX 22 1 21 2 20 3 18 4 19 5 17 7 12 8 13 9 88 10 14 11 15 12
REMARK SMILES IDX 16 13 11 14 10 16 9 17 8 18 1 19 2 20 3 21 4 22 7 23 5 24
REMARK SMILES IDX 6 25 23 26 24 27 25 28 26 29 27 31 28 32 29 33 87 34 30 35
REMARK SMILES IDX 86 36 31 37 32 38 33 39 80 40 34 41 85 42 79 43 81 44 35 45
REMARK SMILES IDX 84 46 78 47 77 48 36 50 66 51 47 52 65 53 48 54 51 55 64 56
REMARK SMILES IDX 82 57 49 58 50 59 63 61 83 62 52 63 37 64 38 65 46 66 39 67
REMARK SMILES IDX 45 68 40 69 41 70 42 71 43 72 44 73 67 74 68 75 76 76 69 77
REMARK SMILES IDX 75 78 70 79 71 80 72 81 73 82 74 83 53 84 54 85 62 86 55 87
REMARK SMILES IDX 61 88 56 89 57 90 58 91 59 92 60 93
REMARK H PARENT 20 6 11 15 25 30 81 49 51 60
REMARK Flexibility Score: inf
ROOT
ATOM      1  C   UNL A   1      32.997  29.682  27.258  1.00  0.00     0.023 C 
ENDROOT
BRANCH   1   2
ATOM      2  C   UNL A   1      32.306  30.083  25.960  1.00  0.00     0.116 C 
BRANCH   2   3
ATOM      3  N   UNL A   1      33.060  29.800  24.754  1.00  0.00    -0.351 N 
ATOM      4  C   UNL A   1      32.925  28.770  23.839  1.00  0.00     0.271 C 
ATOM      5  O   UNL A   1      33.652  28.783  22.844  1.00  0.00    -0.267 OA
ATOM      6  H   UNL A   1      33.780  30.441  24.553  1.00  0.00     0.163 HD
BRANCH   4   7
ATOM      7  C   UNL A   1      31.983  27.621  24.041  1.00  0.00     0.149 A 
ATOM      8  C   UNL A   1      31.826  25.421  24.807  1.00  0.00     0.126 A 
ATOM      9  C   UNL A   1      30.462  25.414  24.554  1.00  0.00     0.048 A 
ATOM     10  N   UNL A   1      32.567  26.529  24.636  1.00  0.00    -0.224 NA
ATOM     11  C   UNL A   1      29.878  26.512  23.933  1.00  0.00     0.027 A 
ATOM     12  C   UNL A   1      30.666  27.606  23.593  1.00  0.00     0.072 A 
ATOM     13  Cl  UNL A   1      29.968  28.761  22.522  1.00  0.00    -0.082 Cl
BRANCH   8  14
ATOM     14  N   UNL A   1      32.496  24.274  25.193  1.00  0.00    -0.370 N 
ATOM     15  H   UNL A   1      32.053  23.605  25.762  1.00  0.00     0.162 HD
BRANCH  14  16
ATOM     16  C   UNL A   1      33.877  24.072  24.741  1.00  0.00     0.119 C 
BRANCH  16  17
ATOM     17  C   UNL A   1      34.840  23.817  25.916  1.00  0.00     0.057 C 
BRANCH  17  18
ATOM     18  C   UNL A   1      35.790  22.667  25.638  1.00  0.00    -0.043 A 
ATOM     19  C   UNL A   1      37.905  24.054  26.129  1.00  0.00     0.045 C 
ATOM     20  C   UNL A   1      37.196  22.804  25.680  1.00  0.00    -0.045 A 
ATOM     21  C   UNL A   1      37.997  21.698  25.345  1.00  0.00     0.043 A 
ATOM     22  C   UNL A   1      37.416  20.494  24.963  1.00  0.00     0.123 A 
ATOM     23  C   UNL A   1      35.229  21.428  25.271  1.00  0.00     0.007 A 
ATOM     24  F   UNL A   1      38.202  19.460  24.630  1.00  0.00    -0.207 F 
ATOM     25  C   UNL A   1      36.040  20.347  24.927  1.00  0.00     0.039 A 
ENDBRANCH  17  18
ENDBRANCH  16  17
ENDBRANCH  14  16
ENDBRANCH   8  14
ENDBRANCH   4   7
ENDBRANCH   2   3
ENDBRANCH   1   2
BRANCH   1  26
ATOM     26  C   UNL A   1      34.490  29.364  27.168  1.00  0.00     0.023 C 
BRANCH  26  27
ATOM     27  C   UNL A   1      35.449  30.340  27.844  1.00  0.00     0.116 C 
BRANCH  27  28
ATOM     28  N   UNL A   1      35.429  30.289  29.299  1.00  0.00    -0.352 N 
ATOM     29  C   UNL A   1      36.395  29.846  30.177  1.00  0.00     0.251 C 
ATOM     30  H   UNL A   1      34.602  30.619  29.719  1.00  0.00     0.163 HD
ATOM     31  O   UNL A   1      36.169  29.834  31.385  1.00  0.00    -0.269 OA
BRANCH  29  32
ATOM     32  C   UNL A   1      37.686  29.341  29.661  1.00  0.00     0.039 A 
ATOM     33  C   UNL A   1      38.033  29.604  28.331  1.00  0.00     0.014 A 
ATOM     34  C   UNL A   1      38.573  28.661  30.496  1.00  0.00     0.014 A 
ATOM     35  C   UNL A   1      39.314  29.285  27.874  1.00  0.00     0.010 A 
ATOM     36  C   UNL A   1      39.872  28.412  30.060  1.00  0.00     0.010 A 
ATOM     37  C   UNL A   1      40.264  28.740  28.752  1.00  0.00    -0.014 A 
BRANCH  37  38
ATOM     38  C   UNL A   1      41.679  28.524  28.350  1.00  0.00     0.031 A 
ATOM     39  C   UNL A   1      42.136  27.157  27.919  1.00  0.00     0.074 A 
ATOM     40  C   UNL A   1      42.577  29.523  28.484  1.00  0.00     0.049 A 
ATOM     41  N   UNL A   1      43.351  26.722  27.704  1.00  0.00    -0.248 NA
ATOM     42  C   UNL A   1      41.089  26.138  27.740  1.00  0.00     0.031 C 
ATOM     43  C   UNL A   1      42.275  30.888  28.924  1.00  0.00     0.029 A 
ATOM     44  N   UNL A   1      43.936  29.536  28.282  1.00  0.00    -0.354 N 
ATOM     45  C   UNL A   1      43.219  25.372  27.402  1.00  0.00     0.074 A 
ATOM     46  C   UNL A   1      41.810  25.054  27.494  1.00  0.00     0.031 C 
ATOM     47  C   UNL A   1      43.409  31.606  28.945  1.00  0.00     0.029 A 
ATOM     48  C   UNL A   1      44.526  30.746  28.569  1.00  0.00     0.049 A 
ATOM     49  H   UNL A   1      44.440  28.753  27.964  1.00  0.00     0.167 HD
ATOM     50  C   UNL A   1      44.180  24.480  27.066  1.00  0.00     0.031 A 
ATOM     51  C   UNL A   1      45.822  31.118  28.549  1.00  0.00     0.031 A 
ATOM     52  C   UNL A   1      45.576  24.804  26.946  1.00  0.00     0.049 A 
ATOM     53  C   UNL A   1      46.872  30.114  28.161  1.00  0.00     0.074 A 
ATOM     54  C   UNL A   1      46.619  23.981  26.558  1.00  0.00     0.029 A 
ATOM     55  N   UNL A   1      46.123  26.051  27.202  1.00  0.00    -0.354 N 
ATOM     56  N   UNL A   1      46.721  28.851  27.840  1.00  0.00    -0.248 NA
ATOM     57  C   UNL A   1      48.264  30.583  28.127  1.00  0.00     0.031 C 
ATOM     58  C   UNL A   1      47.803  24.724  26.612  1.00  0.00     0.029 A 
ATOM     59  C   UNL A   1      47.489  26.020  26.989  1.00  0.00     0.049 A 
ATOM     60  H   UNL A   1      45.614  26.843  27.493  1.00  0.00     0.167 HD
ATOM     61  C   UNL A   1      47.996  28.384  27.535  1.00  0.00     0.074 A 
ATOM     62  C   UNL A   1      48.904  29.500  27.707  1.00  0.00     0.031 C 
ATOM     63  C   UNL A   1      48.377  27.144  27.146  1.00  0.00     0.031 A 
BRANCH  50  64
ATOM     64  C   UNL A   1      43.748  23.060  26.812  1.00  0.00    -0.014 A 
ATOM     65  C   UNL A   1      42.884  22.396  27.701  1.00  0.00     0.010 A 
ATOM     66  C   UNL A   1      44.192  22.391  25.658  1.00  0.00     0.010 A 
ATOM     67  C   UNL A   1      42.512  21.070  27.466  1.00  0.00     0.020 A 
ATOM     68  C   UNL A   1      43.801  21.073  25.406  1.00  0.00     0.020 A 
ATOM     69  C   UNL A   1      42.980  20.414  26.323  1.00  0.00     0.054 A 
BRANCH  69  70
ATOM     70  S   UNL A   1      42.476  18.696  26.039  1.00  0.00     0.124 S 
ATOM     71  O   UNL A   1      43.374  18.296  24.957  1.00  0.00    -0.237 OA
ATOM     72  O   UNL A   1      42.732  18.065  27.331  1.00  0.00    -0.237 OA
ATOM     73  O   UNL A   1      41.066  18.804  25.672  1.00  0.00    -0.744 OA
ENDBRANCH  69  70
ENDBRANCH  50  64
BRANCH  51  74
ATOM     74  C   UNL A   1      46.199  32.516  28.895  1.00  0.00    -0.014 A 
ATOM     75  C   UNL A   1      46.176  33.520  27.912  1.00  0.00     0.010 A 
ATOM     76  C   UNL A   1      46.569  32.853  30.210  1.00  0.00     0.010 A 
ATOM     77  C   UNL A   1      46.533  34.833  28.232  1.00  0.00     0.020 A 
ATOM     78  C   UNL A   1      46.904  34.171  30.538  1.00  0.00     0.020 A 
ATOM     79  C   UNL A   1      46.893  35.151  29.544  1.00  0.00     0.054 A 
BRANCH  79  80
ATOM     80  S   UNL A   1      47.300  36.873  29.949  1.00  0.00     0.124 S 
ATOM     81  O   UNL A   1      46.930  37.569  28.721  1.00  0.00    -0.237 OA
ATOM     82  O   UNL A   1      46.450  37.136  31.107  1.00  0.00    -0.237 OA
ATOM     83  O   UNL A   1      48.732  36.826  30.236  1.00  0.00    -0.744 OA
ENDBRANCH  79  80
ENDBRANCH  51  74
BRANCH  63  84
ATOM     84  C   UNL A   1      49.830  26.927  26.825  1.00  0.00    -0.014 A 
ATOM     85  C   UNL A   1      50.723  26.434  27.791  1.00  0.00     0.010 A 
ATOM     86  C   UNL A   1      50.282  27.131  25.508  1.00  0.00     0.010 A 
ATOM     87  C   UNL A   1      52.050  26.158  27.446  1.00  0.00     0.020 A 
ATOM     88  C   UNL A   1      51.601  26.836  25.155  1.00  0.00     0.020 A 
ATOM     89  C   UNL A   1      52.479  26.357  26.130  1.00  0.00     0.054 A 
BRANCH  89  90
ATOM     90  S   UNL A   1      54.182  25.913  25.688  1.00  0.00     0.124 S 
ATOM     91  O   UNL A   1      54.903  27.148  25.983  1.00  0.00    -0.237 OA
ATOM     92  O   UNL A   1      54.465  24.792  26.579  1.00  0.00    -0.237 OA
ATOM     93  O   UNL A   1      54.092  25.568  24.271  1.00  0.00    -0.744 OA
ENDBRANCH  89  90
ENDBRANCH  63  84
ENDBRANCH  37  38
ENDBRANCH  29  32
ENDBRANCH  27  28
ENDBRANCH  26  27
ENDBRANCH   1  26
TORSDOF 18
ENDMDL
MODEL 3
REMARK VINA RESULT:     -10.9      6.273     10.601
REMARK SMILES Cc1cc(F)ccc1CCNc1ccc(Cl)c(C(=O)NCCCCNC(=O)c2ccc(-c3c4nc(c(-c5ccc(S(=O)(=O)[O-])cc5)c5ccc([nH]5)c(-c5ccc(S(=O)(=O)[O-])cc5)c5nc(c(-c6ccc(S(=O)(=O)[O-])cc6)c6ccc3[nH]6)C=C5)C=C4)cc2)n1
REMARK SMILES IDX 22 1 21 2 20 3 18 4 19 5 17 7 12 8 13 9 88 10 14 11 15 12
REMARK SMILES IDX 16 13 11 14 10 16 9 17 8 18 1 19 2 20 3 21 4 22 7 23 5 24
REMARK SMILES IDX 6 25 23 26 24 27 25 28 26 29 27 31 28 32 29 33 87 34 30 35
REMARK SMILES IDX 86 36 31 37 32 38 33 39 80 40 34 41 85 42 79 43 81 44 35 45
REMARK SMILES IDX 84 46 78 47 77 48 36 50 66 51 47 52 65 53 48 54 51 55 64 56
REMARK SMILES IDX 82 57 49 58 50 59 63 61 83 62 52 63 37 64 38 65 46 66 39 67
REMARK SMILES IDX 45 68 40 69 41 70 42 71 43 72 44 73 67 74 68 75 76 76 69 77
REMARK SMILES IDX 75 78 70 79 71 80 72 81 73 82 74 83 53 84 54 85 62 86 55 87
REMARK SMILES IDX 61 88 56 89 57 90 58 91 59 92 60 93
REMARK H PARENT 20 6 11 15 25 30 81 49 51 60
REMARK Flexibility Score: inf
ROOT
ATOM      1  C   UNL A   1      33.632  29.223  27.374  1.00  0.00     0.023 C 
ENDROOT
BRANCH   1   2
ATOM      2  C   UNL A   1      33.294  28.174  26.320  1.00  0.00     0.116 C 
BRANCH   2   3
ATOM      3  N   UNL A   1      33.557  28.577  24.952  1.00  0.00    -0.351 N 
ATOM      4  C   UNL A   1      32.769  28.459  23.820  1.00  0.00     0.271 C 
ATOM      5  O   UNL A   1      33.192  28.944  22.769  1.00  0.00    -0.267 OA
ATOM      6  H   UNL A   1      34.434  29.001  24.804  1.00  0.00     0.163 HD
BRANCH   4   7
ATOM      7  C   UNL A   1      31.465  27.718  23.811  1.00  0.00     0.149 A 
ATOM      8  C   UNL A   1      30.476  25.634  24.168  1.00  0.00     0.126 A 
ATOM      9  C   UNL A   1      29.221  26.169  23.916  1.00  0.00     0.048 A 
ATOM     10  N   UNL A   1      31.575  26.405  24.199  1.00  0.00    -0.224 NA
ATOM     11  C   UNL A   1      29.115  27.492  23.501  1.00  0.00     0.027 A 
ATOM     12  C   UNL A   1      30.265  28.261  23.365  1.00  0.00     0.072 A 
ATOM     13  Cl  UNL A   1      30.103  29.753  22.519  1.00  0.00    -0.082 Cl
BRANCH   8  14
ATOM     14  N   UNL A   1      30.661  24.274  24.342  1.00  0.00    -0.370 N 
ATOM     15  H   UNL A   1      30.383  23.835  25.178  1.00  0.00     0.162 HD
BRANCH  14  16
ATOM     16  C   UNL A   1      31.276  23.497  23.260  1.00  0.00     0.119 C 
BRANCH  16  17
ATOM     17  C   UNL A   1      32.785  23.284  23.487  1.00  0.00     0.057 C 
BRANCH  17  18
ATOM     18  C   UNL A   1      33.109  21.851  23.868  1.00  0.00    -0.043 A 
ATOM     19  C   UNL A   1      35.191  22.493  25.243  1.00  0.00     0.045 C 
ATOM     20  C   UNL A   1      34.249  21.496  24.624  1.00  0.00    -0.045 A 
ATOM     21  C   UNL A   1      34.500  20.135  24.875  1.00  0.00     0.043 A 
ATOM     22  C   UNL A   1      33.651  19.154  24.376  1.00  0.00     0.123 A 
ATOM     23  C   UNL A   1      32.252  20.837  23.396  1.00  0.00     0.007 A 
ATOM     24  F   UNL A   1      33.924  17.864  24.613  1.00  0.00    -0.207 F 
ATOM     25  C   UNL A   1      32.527  19.493  23.642  1.00  0.00     0.039 A 
ENDBRANCH  17  18
ENDBRANCH  16  17
ENDBRANCH  14  16
ENDBRANCH   8  14
ENDBRANCH   4   7
ENDBRANCH   2   3
ENDBRANCH   1   2
BRANCH   1  26
ATOM     26  C   UNL A   1      32.918  30.568  27.254  1.00  0.00     0.023 C 
BRANCH  26  27
ATOM     27  C   UNL A   1      33.793  31.819  27.236  1.00  0.00     0.116 C 
BRANCH  27  28
ATOM     28  N   UNL A   1      33.091  33.047  27.583  1.00  0.00    -0.352 N 
ATOM     29  C   UNL A   1      33.360  33.964  28.575  1.00  0.00     0.251 C 
ATOM     30  H   UNL A   1      32.304  33.252  27.026  1.00  0.00     0.163 HD
ATOM     31  O   UNL A   1      32.611  34.923  28.745  1.00  0.00    -0.269 OA
BRANCH  29  32
ATOM     32  C   UNL A   1      34.525  33.768  29.465  1.00  0.00     0.039 A 
ATOM     33  C   UNL A   1      34.357  33.039  30.648  1.00  0.00     0.014 A 
ATOM     34  C   UNL A   1      35.785  34.250  29.110  1.00  0.00     0.014 A 
ATOM     35  C   UNL A   1      35.475  32.698  31.415  1.00  0.00     0.010 A 
ATOM     36  C   UNL A   1      36.903  33.847  29.836  1.00  0.00     0.010 A 
ATOM     37  C   UNL A   1      36.763  33.049  30.984  1.00  0.00    -0.014 A 
BRANCH  37  38
ATOM     38  C   UNL A   1      37.987  32.580  31.687  1.00  0.00     0.031 A 
ATOM     39  C   UNL A   1      38.773  31.424  31.134  1.00  0.00     0.074 A 
ATOM     40  C   UNL A   1      38.325  33.115  32.878  1.00  0.00     0.049 A 
ATOM     41  N   UNL A   1      39.754  30.754  31.682  1.00  0.00    -0.248 NA
ATOM     42  C   UNL A   1      38.379  30.935  29.802  1.00  0.00     0.031 C 
ATOM     43  C   UNL A   1      37.629  34.219  33.546  1.00  0.00     0.029 A 
ATOM     44  N   UNL A   1      39.331  32.785  33.754  1.00  0.00    -0.354 N 
ATOM     45  C   UNL A   1      40.069  29.743  30.782  1.00  0.00     0.074 A 
ATOM     46  C   UNL A   1      39.153  29.868  29.668  1.00  0.00     0.031 C 
ATOM     47  C   UNL A   1      38.236  34.482  34.715  1.00  0.00     0.029 A 
ATOM     48  C   UNL A   1      39.333  33.538  34.906  1.00  0.00     0.049 A 
ATOM     49  H   UNL A   1      39.989  32.075  33.574  1.00  0.00     0.167 HD
ATOM     50  C   UNL A   1      41.040  28.803  30.867  1.00  0.00     0.031 A 
ATOM     51  C   UNL A   1      40.115  33.467  36.001  1.00  0.00     0.031 A 
ATOM     52  C   UNL A   1      41.969  28.699  31.960  1.00  0.00     0.049 A 
ATOM     53  C   UNL A   1      41.196  32.423  36.069  1.00  0.00     0.074 A 
ATOM     54  C   UNL A   1      43.023  27.815  32.111  1.00  0.00     0.029 A 
ATOM     55  N   UNL A   1      41.962  29.511  33.084  1.00  0.00    -0.354 N 
ATOM     56  N   UNL A   1      41.504  31.501  35.188  1.00  0.00    -0.248 NA
ATOM     57  C   UNL A   1      42.038  32.412  37.273  1.00  0.00     0.031 C 
ATOM     58  C   UNL A   1      43.634  28.071  33.343  1.00  0.00     0.029 A 
ATOM     59  C   UNL A   1      42.987  29.143  33.937  1.00  0.00     0.049 A 
ATOM     60  H   UNL A   1      41.322  30.240  33.250  1.00  0.00     0.167 HD
ATOM     61  C   UNL A   1      42.595  30.822  35.719  1.00  0.00     0.074 A 
ATOM     62  C   UNL A   1      42.895  31.440  36.994  1.00  0.00     0.031 C 
ATOM     63  C   UNL A   1      43.285  29.781  35.194  1.00  0.00     0.031 A 
BRANCH  50  64
ATOM     64  C   UNL A   1      41.139  27.807  29.744  1.00  0.00    -0.014 A 
ATOM     65  C   UNL A   1      42.195  27.864  28.815  1.00  0.00     0.010 A 
ATOM     66  C   UNL A   1      40.179  26.786  29.628  1.00  0.00     0.010 A 
ATOM     67  C   UNL A   1      42.259  26.949  27.762  1.00  0.00     0.020 A 
ATOM     68  C   UNL A   1      40.256  25.852  28.591  1.00  0.00     0.020 A 
ATOM     69  C   UNL A   1      41.285  25.953  27.652  1.00  0.00     0.054 A 
BRANCH  69  70
ATOM     70  S   UNL A   1      41.396  24.774  26.279  1.00  0.00     0.124 S 
ATOM     71  O   UNL A   1      42.600  24.022  26.628  1.00  0.00    -0.237 OA
ATOM     72  O   UNL A   1      40.143  24.033  26.385  1.00  0.00    -0.237 OA
ATOM     73  O   UNL A   1      41.514  25.627  25.098  1.00  0.00    -0.744 OA
ENDBRANCH  69  70
ENDBRANCH  50  64
BRANCH  51  74
ATOM     74  C   UNL A   1      39.914  34.426  37.122  1.00  0.00    -0.014 A 
ATOM     75  C   UNL A   1      40.495  35.705  37.073  1.00  0.00     0.010 A 
ATOM     76  C   UNL A   1      39.132  34.072  38.236  1.00  0.00     0.010 A 
ATOM     77  C   UNL A   1      40.312  36.608  38.124  1.00  0.00     0.020 A 
ATOM     78  C   UNL A   1      38.927  34.981  39.279  1.00  0.00     0.020 A 
ATOM     79  C   UNL A   1      39.527  36.240  39.221  1.00  0.00     0.054 A 
BRANCH  79  80
ATOM     80  S   UNL A   1      39.257  37.447  40.549  1.00  0.00     0.124 S 
ATOM     81  O   UNL A   1      38.165  38.252  40.012  1.00  0.00    -0.237 OA
ATOM     82  O   UNL A   1      38.917  36.596  41.687  1.00  0.00    -0.237 OA
ATOM     83  O   UNL A   1      40.546  38.128  40.656  1.00  0.00    -0.744 OA
ENDBRANCH  79  80
ENDBRANCH  51  74
BRANCH  63  84
ATOM     84  C   UNL A   1      44.471  29.268  35.964  1.00  0.00    -0.014 A 
ATOM     85  C   UNL A   1      44.363  28.150  36.808  1.00  0.00     0.010 A 
ATOM     86  C   UNL A   1      45.731  29.861  35.763  1.00  0.00     0.010 A 
ATOM     87  C   UNL A   1      45.496  27.638  37.446  1.00  0.00     0.020 A 
ATOM     88  C   UNL A   1      46.870  29.340  36.383  1.00  0.00     0.020 A 
ATOM     89  C   UNL A   1      46.743  28.234  37.227  1.00  0.00     0.054 A 
BRANCH  89  90
ATOM     90  S   UNL A   1      48.212  27.502  38.001  1.00  0.00     0.124 S 
ATOM     91  O   UNL A   1      48.335  28.291  39.223  1.00  0.00    -0.237 OA
ATOM     92  O   UNL A   1      47.816  26.109  38.190  1.00  0.00    -0.237 OA
ATOM     93  O   UNL A   1      49.266  27.715  37.012  1.00  0.00    -0.744 OA
ENDBRANCH  89  90
ENDBRANCH  63  84
ENDBRANCH  37  38
ENDBRANCH  29  32
ENDBRANCH  27  28
ENDBRANCH  26  27
ENDBRANCH   1  26
TORSDOF 18
ENDMDL
