MODEL 1
REMARK VINA RESULT:     -12.4      0.000      0.000
REMARK SMILES Cc1nn(C)c2nc(C3CC3)c(Cl)c(C(=O)NCCCCNC(=O)c3ccc(-c4c5nc(c(-c6ccc(S(=O)(=O)[O-])cc6)c6ccc([nH]6)c(-c6ccc(S(=O)(=O)[O-])cc6)c6nc(c(-c7ccc(S(=O)(=O)[O-])cc7)c7ccc4[nH]7)C=C6)C=C5)cc3)c12
REMARK SMILES IDX 20 1 19 2 18 3 17 4 15 5 16 6 14 8 1 9 2 10 3 11 85 12 4 13
REMARK SMILES IDX 6 14 5 15 7 16 12 17 8 18 13 19 9 20 10 21 11 22 21 23 22 24
REMARK SMILES IDX 23 25 24 27 25 28 26 29 84 30 27 31 83 32 28 33 29 34 30 35
REMARK SMILES IDX 77 36 31 37 82 38 76 39 78 40 32 41 81 42 75 43 74 44 33 46
REMARK SMILES IDX 63 47 44 48 62 49 45 50 48 51 61 52 79 53 46 54 47 55 60 57
REMARK SMILES IDX 80 58 49 59 34 60 35 61 43 62 36 63 42 64 37 65 38 66 39 67
REMARK SMILES IDX 40 68 41 69 64 70 65 71 73 72 66 73 72 74 67 75 68 76 69 77
REMARK SMILES IDX 70 78 71 79 50 80 51 81 59 82 52 83 58 84 53 85 54 86 55 87
REMARK SMILES IDX 56 88 57 89
REMARK H PARENT 17 7 22 26 78 45 48 56
REMARK Flexibility Score: inf
ROOT
ATOM      1  C   UNL A   1      39.264  21.889  26.018  1.00  0.00     0.023 C 
ENDROOT
BRANCH   1   2
ATOM      2  C   UNL A   1      38.684  23.219  26.530  1.00  0.00     0.023 C 
BRANCH   2   3
ATOM      3  C   UNL A   1      37.383  23.703  25.894  1.00  0.00     0.116 C 
BRANCH   3   4
ATOM      4  N   UNL A   1      37.246  23.439  24.469  1.00  0.00    -0.352 N 
ATOM      5  C   UNL A   1      36.199  22.923  23.729  1.00  0.00     0.253 C 
ATOM      6  O   UNL A   1      36.282  22.986  22.504  1.00  0.00    -0.269 OA
ATOM      7  H   UNL A   1      38.042  23.668  23.937  1.00  0.00     0.163 HD
BRANCH   5   8
ATOM      8  C   UNL A   1      35.032  22.228  24.332  1.00  0.00     0.073 A 
ATOM      9  C   UNL A   1      34.117  25.593  24.376  1.00  0.00     0.069 C 
ATOM     10  C   UNL A   1      33.431  24.335  24.773  1.00  0.00     0.070 A 
ATOM     11  N   UNL A   1      32.209  24.435  25.327  1.00  0.00    -0.176 NA
ATOM     12  C   UNL A   1      33.889  22.977  24.709  1.00  0.00     0.056 A 
ATOM     13  N   UNL A   1      31.888  23.165  25.624  1.00  0.00    -0.250 N 
ATOM     14  C   UNL A   1      32.813  22.256  25.202  1.00  0.00     0.158 A 
ATOM     15  C   UNL A   1      30.702  22.876  26.391  1.00  0.00     0.176 C 
ATOM     16  N   UNL A   1      32.685  20.924  25.271  1.00  0.00    -0.231 NA
ATOM     17  C   UNL A   1      35.011  20.854  24.646  1.00  0.00     0.076 A 
ATOM     18  C   UNL A   1      33.793  20.209  24.949  1.00  0.00     0.065 A 
ATOM     19  Cl  UNL A   1      36.514  20.028  24.920  1.00  0.00    -0.081 Cl
BRANCH  18  20
ATOM     20  C   UNL A   1      33.497  18.712  24.828  1.00  0.00     0.040 C 
ATOM     21  C   UNL A   1      32.747  18.196  23.616  1.00  0.00     0.011 C 
ATOM     22  C   UNL A   1      34.129  17.693  23.925  1.00  0.00     0.011 C 
ENDBRANCH  18  20
ENDBRANCH   5   8
ENDBRANCH   3   4
ENDBRANCH   2   3
ENDBRANCH   1   2
BRANCH   1  23
ATOM     23  C   UNL A   1      40.332  21.206  26.888  1.00  0.00     0.116 C 
BRANCH  23  24
ATOM     24  N   UNL A   1      41.567  20.986  26.155  1.00  0.00    -0.352 N 
ATOM     25  C   UNL A   1      42.568  21.840  25.771  1.00  0.00     0.251 C 
ATOM     26  H   UNL A   1      41.712  20.050  25.884  1.00  0.00     0.163 HD
ATOM     27  O   UNL A   1      43.376  21.434  24.937  1.00  0.00    -0.269 OA
BRANCH  25  28
ATOM     28  C   UNL A   1      42.720  23.212  26.310  1.00  0.00     0.039 A 
ATOM     29  C   UNL A   1      43.473  24.119  25.551  1.00  0.00     0.014 A 
ATOM     30  C   UNL A   1      42.280  23.583  27.585  1.00  0.00     0.014 A 
ATOM     31  C   UNL A   1      43.749  25.395  26.037  1.00  0.00     0.010 A 
ATOM     32  C   UNL A   1      42.552  24.869  28.071  1.00  0.00     0.010 A 
ATOM     33  C   UNL A   1      43.270  25.788  27.291  1.00  0.00    -0.014 A 
BRANCH  33  34
ATOM     34  C   UNL A   1      43.468  27.209  27.653  1.00  0.00     0.031 A 
ATOM     35  C   UNL A   1      42.222  28.038  27.593  1.00  0.00     0.074 A 
ATOM     36  C   UNL A   1      44.366  27.560  28.600  1.00  0.00     0.049 A 
ATOM     37  N   UNL A   1      41.313  27.994  28.521  1.00  0.00    -0.248 NA
ATOM     38  C   UNL A   1      41.794  28.768  26.402  1.00  0.00     0.031 C 
ATOM     39  C   UNL A   1      44.593  26.825  29.852  1.00  0.00     0.029 A 
ATOM     40  N   UNL A   1      45.084  28.725  28.754  1.00  0.00    -0.354 N 
ATOM     41  C   UNL A   1      40.200  28.685  28.063  1.00  0.00     0.074 A 
ATOM     42  C   UNL A   1      40.536  29.119  26.726  1.00  0.00     0.031 C 
ATOM     43  C   UNL A   1      45.267  27.622  30.705  1.00  0.00     0.029 A 
ATOM     44  C   UNL A   1      45.625  28.864  30.026  1.00  0.00     0.049 A 
ATOM     45  H   UNL A   1      45.202  29.390  28.038  1.00  0.00     0.167 HD
ATOM     46  C   UNL A   1      39.124  28.918  28.868  1.00  0.00     0.031 A 
ATOM     47  C   UNL A   1      45.925  30.049  30.621  1.00  0.00     0.031 A 
ATOM     48  C   UNL A   1      39.299  28.564  30.262  1.00  0.00     0.049 A 
ATOM     49  C   UNL A   1      44.600  30.405  31.242  1.00  0.00     0.074 A 
ATOM     50  C   UNL A   1      38.576  28.047  31.316  1.00  0.00     0.029 A 
ATOM     51  N   UNL A   1      40.534  28.848  30.776  1.00  0.00    -0.354 N 
ATOM     52  N   UNL A   1      44.113  29.897  32.345  1.00  0.00    -0.248 NA
ATOM     53  C   UNL A   1      43.613  31.145  30.436  1.00  0.00     0.031 C 
ATOM     54  C   UNL A   1      39.407  28.138  32.486  1.00  0.00     0.029 A 
ATOM     55  C   UNL A   1      40.601  28.750  32.130  1.00  0.00     0.049 A 
ATOM     56  H   UNL A   1      41.304  29.099  30.218  1.00  0.00     0.167 HD
ATOM     57  C   UNL A   1      42.733  29.965  32.190  1.00  0.00     0.074 A 
ATOM     58  C   UNL A   1      42.489  30.888  31.100  1.00  0.00     0.031 C 
ATOM     59  C   UNL A   1      41.867  29.067  32.750  1.00  0.00     0.031 A 
BRANCH  46  60
ATOM     60  C   UNL A   1      37.966  29.784  28.503  1.00  0.00    -0.014 A 
ATOM     61  C   UNL A   1      38.048  31.147  28.856  1.00  0.00     0.010 A 
ATOM     62  C   UNL A   1      36.750  29.289  28.008  1.00  0.00     0.010 A 
ATOM     63  C   UNL A   1      36.941  31.991  28.757  1.00  0.00     0.020 A 
ATOM     64  C   UNL A   1      35.631  30.136  27.902  1.00  0.00     0.020 A 
ATOM     65  C   UNL A   1      35.731  31.477  28.295  1.00  0.00     0.054 A 
BRANCH  65  66
ATOM     66  S   UNL A   1      34.288  32.581  28.274  1.00  0.00     0.124 S 
ATOM     67  O   UNL A   1      34.794  33.744  27.550  1.00  0.00    -0.237 OA
ATOM     68  O   UNL A   1      33.294  31.781  27.564  1.00  0.00    -0.237 OA
ATOM     69  O   UNL A   1      34.004  32.808  29.690  1.00  0.00    -0.744 OA
ENDBRANCH  65  66
ENDBRANCH  46  60
BRANCH  47  70
ATOM     70  C   UNL A   1      46.786  30.978  29.825  1.00  0.00    -0.014 A 
ATOM     71  C   UNL A   1      47.593  30.397  28.817  1.00  0.00     0.010 A 
ATOM     72  C   UNL A   1      46.835  32.372  29.965  1.00  0.00     0.010 A 
ATOM     73  C   UNL A   1      48.274  31.181  27.881  1.00  0.00     0.020 A 
ATOM     74  C   UNL A   1      47.493  33.169  29.014  1.00  0.00     0.020 A 
ATOM     75  C   UNL A   1      48.170  32.567  27.953  1.00  0.00     0.054 A 
BRANCH  75  76
ATOM     76  S   UNL A   1      48.841  33.560  26.592  1.00  0.00     0.124 S 
ATOM     77  O   UNL A   1      47.653  33.821  25.779  1.00  0.00    -0.237 OA
ATOM     78  O   UNL A   1      49.380  34.720  27.304  1.00  0.00    -0.237 OA
ATOM     79  O   UNL A   1      49.837  32.690  25.986  1.00  0.00    -0.744 OA
ENDBRANCH  75  76
ENDBRANCH  47  70
BRANCH  59  80
ATOM     80  C   UNL A   1      42.352  28.291  33.924  1.00  0.00    -0.014 A 
ATOM     81  C   UNL A   1      42.982  27.054  33.715  1.00  0.00     0.010 A 
ATOM     82  C   UNL A   1      42.262  28.805  35.229  1.00  0.00     0.010 A 
ATOM     83  C   UNL A   1      43.527  26.348  34.781  1.00  0.00     0.020 A 
ATOM     84  C   UNL A   1      42.816  28.105  36.304  1.00  0.00     0.020 A 
ATOM     85  C   UNL A   1      43.452  26.883  36.069  1.00  0.00     0.054 A 
BRANCH  85  86
ATOM     86  S   UNL A   1      44.250  25.977  37.415  1.00  0.00     0.124 S 
ATOM     87  O   UNL A   1      43.848  24.598  37.147  1.00  0.00    -0.237 OA
ATOM     88  O   UNL A   1      45.665  26.271  37.197  1.00  0.00    -0.237 OA
ATOM     89  O   UNL A   1      43.677  26.567  38.623  1.00  0.00    -0.744 OA
ENDBRANCH  85  86
ENDBRANCH  59  80
ENDBRANCH  33  34
ENDBRANCH  25  28
ENDBRANCH  23  24
ENDBRANCH   1  23
TORSDOF 15
ENDMDL
MODEL 2
REMARK VINA RESULT:     -12.3      1.556      2.892
REMARK SMILES Cc1nn(C)c2nc(C3CC3)c(Cl)c(C(=O)NCCCCNC(=O)c3ccc(-c4c5nc(c(-c6ccc(S(=O)(=O)[O-])cc6)c6ccc([nH]6)c(-c6ccc(S(=O)(=O)[O-])cc6)c6nc(c(-c7ccc(S(=O)(=O)[O-])cc7)c7ccc4[nH]7)C=C6)C=C5)cc3)c12
REMARK SMILES IDX 20 1 19 2 18 3 17 4 15 5 16 6 14 8 1 9 2 10 3 11 85 12 4 13
REMARK SMILES IDX 6 14 5 15 7 16 12 17 8 18 13 19 9 20 10 21 11 22 21 23 22 24
REMARK SMILES IDX 23 25 24 27 25 28 26 29 84 30 27 31 83 32 28 33 29 34 30 35
REMARK SMILES IDX 77 36 31 37 82 38 76 39 78 40 32 41 81 42 75 43 74 44 33 46
REMARK SMILES IDX 63 47 44 48 62 49 45 50 48 51 61 52 79 53 46 54 47 55 60 57
REMARK SMILES IDX 80 58 49 59 34 60 35 61 43 62 36 63 42 64 37 65 38 66 39 67
REMARK SMILES IDX 40 68 41 69 64 70 65 71 73 72 66 73 72 74 67 75 68 76 69 77
REMARK SMILES IDX 70 78 71 79 50 80 51 81 59 82 52 83 58 84 53 85 54 86 55 87
REMARK SMILES IDX 56 88 57 89
REMARK H PARENT 17 7 22 26 78 45 48 56
REMARK Flexibility Score: inf
ROOT
ATOM      1  C   UNL A   1      37.675  20.875  24.974  1.00  0.00     0.023 C 
ENDROOT
BRANCH   1   2
ATOM      2  C   UNL A   1      36.208  21.338  24.969  1.00  0.00     0.023 C 
BRANCH   2   3
ATOM      3  C   UNL A   1      35.947  22.827  24.747  1.00  0.00     0.116 C 
BRANCH   3   4
ATOM      4  N   UNL A   1      35.253  23.165  23.514  1.00  0.00    -0.352 N 
ATOM      5  C   UNL A   1      34.142  23.950  23.272  1.00  0.00     0.253 C 
ATOM      6  O   UNL A   1      33.879  24.223  22.103  1.00  0.00    -0.269 OA
ATOM      7  H   UNL A   1      35.645  22.760  22.706  1.00  0.00     0.163 HD
BRANCH   5   8
ATOM      8  C   UNL A   1      33.211  24.404  24.338  1.00  0.00     0.073 A 
ATOM      9  C   UNL A   1      32.438  21.028  23.934  1.00  0.00     0.069 C 
ATOM     10  C   UNL A   1      31.947  22.093  24.847  1.00  0.00     0.070 A 
ATOM     11  N   UNL A   1      30.952  21.781  25.696  1.00  0.00    -0.176 NA
ATOM     12  C   UNL A   1      32.337  23.470  24.949  1.00  0.00     0.056 A 
ATOM     13  N   UNL A   1      30.696  22.938  26.328  1.00  0.00    -0.250 N 
ATOM     14  C   UNL A   1      31.545  23.948  25.981  1.00  0.00     0.158 A 
ATOM     15  C   UNL A   1      29.563  23.048  27.214  1.00  0.00     0.176 C 
ATOM     16  N   UNL A   1      31.581  25.165  26.541  1.00  0.00    -0.231 NA
ATOM     17  C   UNL A   1      33.069  25.748  24.739  1.00  0.00     0.076 A 
ATOM     18  C   UNL A   1      32.388  26.069  25.932  1.00  0.00     0.065 A 
ATOM     19  Cl  UNL A   1      33.500  27.010  23.626  1.00  0.00    -0.081 Cl
BRANCH  18  20
ATOM     20  C   UNL A   1      32.549  27.347  26.761  1.00  0.00     0.040 C 
ATOM     21  C   UNL A   1      31.850  28.617  26.316  1.00  0.00     0.011 C 
ATOM     22  C   UNL A   1      31.555  28.019  27.664  1.00  0.00     0.011 C 
ENDBRANCH  18  20
ENDBRANCH   5   8
ENDBRANCH   3   4
ENDBRANCH   2   3
ENDBRANCH   1   2
BRANCH   1  23
ATOM     23  C   UNL A   1      38.667  21.691  25.820  1.00  0.00     0.116 C 
BRANCH  23  24
ATOM     24  N   UNL A   1      39.926  20.990  26.002  1.00  0.00    -0.352 N 
ATOM     25  C   UNL A   1      41.202  21.441  26.219  1.00  0.00     0.251 C 
ATOM     26  H   UNL A   1      39.849  20.008  25.962  1.00  0.00     0.163 HD
ATOM     27  O   UNL A   1      42.123  20.637  26.081  1.00  0.00    -0.269 OA
BRANCH  25  28
ATOM     28  C   UNL A   1      41.518  22.835  26.609  1.00  0.00     0.039 A 
ATOM     29  C   UNL A   1      42.406  23.545  25.787  1.00  0.00     0.014 A 
ATOM     30  C   UNL A   1      41.094  23.403  27.814  1.00  0.00     0.014 A 
ATOM     31  C   UNL A   1      42.833  24.822  26.141  1.00  0.00     0.010 A 
ATOM     32  C   UNL A   1      41.519  24.692  28.167  1.00  0.00     0.010 A 
ATOM     33  C   UNL A   1      42.375  25.416  27.322  1.00  0.00    -0.014 A 
BRANCH  33  34
ATOM     34  C   UNL A   1      42.748  26.832  27.533  1.00  0.00     0.031 A 
ATOM     35  C   UNL A   1      41.594  27.785  27.482  1.00  0.00     0.074 A 
ATOM     36  C   UNL A   1      43.750  27.162  28.377  1.00  0.00     0.049 A 
ATOM     37  N   UNL A   1      40.763  27.923  28.471  1.00  0.00    -0.248 NA
ATOM     38  C   UNL A   1      41.151  28.453  26.260  1.00  0.00     0.031 C 
ATOM     39  C   UNL A   1      43.998  26.517  29.674  1.00  0.00     0.029 A 
ATOM     40  N   UNL A   1      44.596  28.249  28.369  1.00  0.00    -0.354 N 
ATOM     41  C   UNL A   1      39.695  28.691  28.029  1.00  0.00     0.074 A 
ATOM     42  C   UNL A   1      39.966  28.968  26.637  1.00  0.00     0.031 C 
ATOM     43  C   UNL A   1      44.818  27.305  30.399  1.00  0.00     0.029 A 
ATOM     44  C   UNL A   1      45.248  28.436  29.582  1.00  0.00     0.049 A 
ATOM     45  H   UNL A   1      44.724  28.832  27.587  1.00  0.00     0.167 HD
ATOM     46  C   UNL A   1      38.716  29.110  28.881  1.00  0.00     0.031 A 
ATOM     47  C   UNL A   1      45.716  29.628  30.039  1.00  0.00     0.031 A 
ATOM     48  C   UNL A   1      38.964  28.862  30.287  1.00  0.00     0.049 A 
ATOM     49  C   UNL A   1      44.490  30.182  30.715  1.00  0.00     0.074 A 
ATOM     50  C   UNL A   1      38.277  28.522  31.433  1.00  0.00     0.029 A 
ATOM     51  N   UNL A   1      40.259  29.051  30.684  1.00  0.00    -0.354 N 
ATOM     52  N   UNL A   1      44.042  29.828  31.892  1.00  0.00    -0.248 NA
ATOM     53  C   UNL A   1      43.524  30.954  29.913  1.00  0.00     0.031 C 
ATOM     54  C   UNL A   1      39.204  28.621  32.528  1.00  0.00     0.029 A 
ATOM     55  C   UNL A   1      40.423  29.064  32.033  1.00  0.00     0.049 A 
ATOM     56  H   UNL A   1      41.004  29.165  30.052  1.00  0.00     0.167 HD
ATOM     57  C   UNL A   1      42.668  30.035  31.829  1.00  0.00     0.074 A 
ATOM     58  C   UNL A   1      42.436  30.881  30.675  1.00  0.00     0.031 C 
ATOM     59  C   UNL A   1      41.761  29.291  32.531  1.00  0.00     0.031 A 
BRANCH  46  60
ATOM     60  C   UNL A   1      37.629  30.065  28.517  1.00  0.00    -0.014 A 
ATOM     61  C   UNL A   1      37.828  31.421  28.850  1.00  0.00     0.010 A 
ATOM     62  C   UNL A   1      36.370  29.666  28.045  1.00  0.00     0.010 A 
ATOM     63  C   UNL A   1      36.794  32.352  28.752  1.00  0.00     0.020 A 
ATOM     64  C   UNL A   1      35.324  30.602  27.940  1.00  0.00     0.020 A 
ATOM     65  C   UNL A   1      35.540  31.935  28.312  1.00  0.00     0.054 A 
BRANCH  65  66
ATOM     66  S   UNL A   1      34.193  33.155  28.293  1.00  0.00     0.124 S 
ATOM     67  O   UNL A   1      33.985  33.414  29.715  1.00  0.00    -0.237 OA
ATOM     68  O   UNL A   1      34.782  34.255  27.532  1.00  0.00    -0.237 OA
ATOM     69  O   UNL A   1      33.100  32.455  27.623  1.00  0.00    -0.744 OA
ENDBRANCH  65  66
ENDBRANCH  46  60
BRANCH  47  70
ATOM     70  C   UNL A   1      46.603  30.383  29.101  1.00  0.00    -0.014 A 
ATOM     71  C   UNL A   1      47.021  31.672  29.513  1.00  0.00     0.010 A 
ATOM     72  C   UNL A   1      47.085  29.914  27.871  1.00  0.00     0.010 A 
ATOM     73  C   UNL A   1      48.010  32.378  28.822  1.00  0.00     0.020 A 
ATOM     74  C   UNL A   1      48.098  30.602  27.184  1.00  0.00     0.020 A 
ATOM     75  C   UNL A   1      48.584  31.808  27.689  1.00  0.00     0.054 A 
BRANCH  75  76
ATOM     76  S   UNL A   1      50.034  32.610  26.953  1.00  0.00     0.124 S 
ATOM     77  O   UNL A   1      49.465  33.842  26.405  1.00  0.00    -0.237 OA
ATOM     78  O   UNL A   1      50.904  32.786  28.118  1.00  0.00    -0.237 OA
ATOM     79  O   UNL A   1      50.504  31.646  25.971  1.00  0.00    -0.744 OA
ENDBRANCH  75  76
ENDBRANCH  47  70
BRANCH  59  80
ATOM     80  C   UNL A   1      42.254  28.571  33.735  1.00  0.00    -0.014 A 
ATOM     81  C   UNL A   1      42.235  29.222  34.979  1.00  0.00     0.010 A 
ATOM     82  C   UNL A   1      42.665  27.228  33.668  1.00  0.00     0.010 A 
ATOM     83  C   UNL A   1      42.602  28.546  36.138  1.00  0.00     0.020 A 
ATOM     84  C   UNL A   1      43.026  26.541  34.830  1.00  0.00     0.020 A 
ATOM     85  C   UNL A   1      42.984  27.205  36.058  1.00  0.00     0.054 A 
BRANCH  85  86
ATOM     86  S   UNL A   1      43.369  26.338  37.599  1.00  0.00     0.124 S 
ATOM     87  O   UNL A   1      44.201  27.308  38.306  1.00  0.00    -0.237 OA
ATOM     88  O   UNL A   1      42.044  26.111  38.172  1.00  0.00    -0.237 OA
ATOM     89  O   UNL A   1      44.063  25.130  37.156  1.00  0.00    -0.744 OA
ENDBRANCH  85  86
ENDBRANCH  59  80
ENDBRANCH  33  34
ENDBRANCH  25  28
ENDBRANCH  23  24
ENDBRANCH   1  23
TORSDOF 15
ENDMDL
MODEL 3
REMARK VINA RESULT:     -11.9      3.431      9.158
REMARK SMILES Cc1nn(C)c2nc(C3CC3)c(Cl)c(C(=O)NCCCCNC(=O)c3ccc(-c4c5nc(c(-c6ccc(S(=O)(=O)[O-])cc6)c6ccc([nH]6)c(-c6ccc(S(=O)(=O)[O-])cc6)c6nc(c(-c7ccc(S(=O)(=O)[O-])cc7)c7ccc4[nH]7)C=C6)C=C5)cc3)c12
REMARK SMILES IDX 20 1 19 2 18 3 17 4 15 5 16 6 14 8 1 9 2 10 3 11 85 12 4 13
REMARK SMILES IDX 6 14 5 15 7 16 12 17 8 18 13 19 9 20 10 21 11 22 21 23 22 24
REMARK SMILES IDX 23 25 24 27 25 28 26 29 84 30 27 31 83 32 28 33 29 34 30 35
REMARK SMILES IDX 77 36 31 37 82 38 76 39 78 40 32 41 81 42 75 43 74 44 33 46
REMARK SMILES IDX 63 47 44 48 62 49 45 50 48 51 61 52 79 53 46 54 47 55 60 57
REMARK SMILES IDX 80 58 49 59 34 60 35 61 43 62 36 63 42 64 37 65 38 66 39 67
REMARK SMILES IDX 40 68 41 69 64 70 65 71 73 72 66 73 72 74 67 75 68 76 69 77
REMARK SMILES IDX 70 78 71 79 50 80 51 81 59 82 52 83 58 84 53 85 54 86 55 87
REMARK SMILES IDX 56 88 57 89
REMARK H PARENT 17 7 22 26 78 45 48 56
REMARK Flexibility Score: inf
ROOT
ATOM      1  C   UNL A   1      35.152  31.251  27.598  1.00  0.00     0.023 C 
ENDROOT
BRANCH   1   2
ATOM      2  C   UNL A   1      35.443  29.745  27.711  1.00  0.00     0.023 C 
BRANCH   2   3
ATOM      3  C   UNL A   1      34.537  28.799  26.925  1.00  0.00     0.116 C 
BRANCH   3   4
ATOM      4  N   UNL A   1      33.253  28.505  27.543  1.00  0.00    -0.352 N 
ATOM      5  C   UNL A   1      32.050  28.088  27.004  1.00  0.00     0.253 C 
ATOM      6  O   UNL A   1      31.171  27.727  27.783  1.00  0.00    -0.269 OA
ATOM      7  H   UNL A   1      33.237  28.625  28.520  1.00  0.00     0.163 HD
BRANCH   5   8
ATOM      8  C   UNL A   1      31.743  28.137  25.551  1.00  0.00     0.073 A 
ATOM      9  C   UNL A   1      33.444  25.119  25.946  1.00  0.00     0.069 C 
ATOM     10  C   UNL A   1      32.803  25.794  24.788  1.00  0.00     0.070 A 
ATOM     11  N   UNL A   1      32.901  25.202  23.584  1.00  0.00    -0.176 NA
ATOM     12  C   UNL A   1      32.108  27.047  24.721  1.00  0.00     0.056 A 
ATOM     13  N   UNL A   1      32.290  26.062  22.753  1.00  0.00    -0.250 N 
ATOM     14  C   UNL A   1      31.730  27.130  23.390  1.00  0.00     0.158 A 
ATOM     15  C   UNL A   1      32.335  25.852  21.327  1.00  0.00     0.176 C 
ATOM     16  N   UNL A   1      30.970  28.072  22.814  1.00  0.00    -0.231 NA
ATOM     17  C   UNL A   1      31.176  29.254  24.903  1.00  0.00     0.076 A 
ATOM     18  C   UNL A   1      30.655  29.133  23.598  1.00  0.00     0.065 A 
ATOM     19  Cl  UNL A   1      31.367  30.827  25.613  1.00  0.00    -0.081 Cl
BRANCH  18  20
ATOM     20  C   UNL A   1      29.604  30.037  22.946  1.00  0.00     0.040 C 
ATOM     21  C   UNL A   1      28.133  29.776  23.205  1.00  0.00     0.011 C 
ATOM     22  C   UNL A   1      28.748  31.097  23.576  1.00  0.00     0.011 C 
ENDBRANCH  18  20
ENDBRANCH   5   8
ENDBRANCH   3   4
ENDBRANCH   2   3
ENDBRANCH   1   2
BRANCH   1  23
ATOM     23  C   UNL A   1      33.870  31.773  28.268  1.00  0.00     0.116 C 
BRANCH  23  24
ATOM     24  N   UNL A   1      34.060  33.091  28.848  1.00  0.00    -0.352 N 
ATOM     25  C   UNL A   1      34.963  33.566  29.762  1.00  0.00     0.251 C 
ATOM     26  H   UNL A   1      33.422  33.768  28.524  1.00  0.00     0.163 HD
ATOM     27  O   UNL A   1      34.737  34.664  30.270  1.00  0.00    -0.269 OA
BRANCH  25  28
ATOM     28  C   UNL A   1      36.185  32.828  30.161  1.00  0.00     0.039 A 
ATOM     29  C   UNL A   1      36.128  32.090  31.352  1.00  0.00     0.014 A 
ATOM     30  C   UNL A   1      37.406  32.959  29.492  1.00  0.00     0.014 A 
ATOM     31  C   UNL A   1      37.264  31.454  31.847  1.00  0.00     0.010 A 
ATOM     32  C   UNL A   1      38.547  32.314  29.987  1.00  0.00     0.010 A 
ATOM     33  C   UNL A   1      38.477  31.541  31.157  1.00  0.00    -0.014 A 
BRANCH  33  34
ATOM     34  C   UNL A   1      39.584  30.702  31.665  1.00  0.00     0.031 A 
ATOM     35  C   UNL A   1      39.628  29.323  31.081  1.00  0.00     0.074 A 
ATOM     36  C   UNL A   1      40.779  31.251  31.974  1.00  0.00     0.049 A 
ATOM     37  N   UNL A   1      40.083  29.088  29.888  1.00  0.00    -0.248 NA
ATOM     38  C   UNL A   1      38.953  28.172  31.677  1.00  0.00     0.031 C 
ATOM     39  C   UNL A   1      41.443  32.303  31.192  1.00  0.00     0.029 A 
ATOM     40  N   UNL A   1      41.732  30.851  32.885  1.00  0.00    -0.354 N 
ATOM     41  C   UNL A   1      39.774  27.775  29.562  1.00  0.00     0.074 A 
ATOM     42  C   UNL A   1      39.041  27.257  30.694  1.00  0.00     0.031 C 
ATOM     43  C   UNL A   1      42.740  32.359  31.555  1.00  0.00     0.029 A 
ATOM     44  C   UNL A   1      42.970  31.442  32.669  1.00  0.00     0.049 A 
ATOM     45  H   UNL A   1      41.553  30.213  33.613  1.00  0.00     0.167 HD
ATOM     46  C   UNL A   1      40.233  27.197  28.415  1.00  0.00     0.031 A 
ATOM     47  C   UNL A   1      44.164  30.908  33.039  1.00  0.00     0.031 A 
ATOM     48  C   UNL A   1      41.200  27.975  27.667  1.00  0.00     0.049 A 
ATOM     49  C   UNL A   1      44.473  30.036  31.850  1.00  0.00     0.074 A 
ATOM     50  C   UNL A   1      41.554  28.242  26.362  1.00  0.00     0.029 A 
ATOM     51  N   UNL A   1      42.112  28.648  28.434  1.00  0.00    -0.354 N 
ATOM     52  N   UNL A   1      44.937  30.451  30.700  1.00  0.00    -0.248 NA
ATOM     53  C   UNL A   1      43.950  28.659  31.824  1.00  0.00     0.031 C 
ATOM     54  C   UNL A   1      42.768  29.012  26.400  1.00  0.00     0.029 A 
ATOM     55  C   UNL A   1      43.154  29.158  27.725  1.00  0.00     0.049 A 
ATOM     56  H   UNL A   1      42.021  28.754  29.408  1.00  0.00     0.167 HD
ATOM     57  C   UNL A   1      44.459  29.535  29.770  1.00  0.00     0.074 A 
ATOM     58  C   UNL A   1      44.020  28.379  30.525  1.00  0.00     0.031 C 
ATOM     59  C   UNL A   1      44.176  29.856  28.472  1.00  0.00     0.031 A 
BRANCH  46  60
ATOM     60  C   UNL A   1      40.079  25.753  28.074  1.00  0.00    -0.014 A 
ATOM     61  C   UNL A   1      41.163  24.903  28.381  1.00  0.00     0.010 A 
ATOM     62  C   UNL A   1      39.018  25.242  27.313  1.00  0.00     0.010 A 
ATOM     63  C   UNL A   1      41.210  23.590  27.912  1.00  0.00     0.020 A 
ATOM     64  C   UNL A   1      39.058  23.917  26.841  1.00  0.00     0.020 A 
ATOM     65  C   UNL A   1      40.164  23.107  27.130  1.00  0.00     0.054 A 
BRANCH  65  66
ATOM     66  S   UNL A   1      40.309  21.425  26.456  1.00  0.00     0.124 S 
ATOM     67  O   UNL A   1      41.448  21.547  25.551  1.00  0.00    -0.237 OA
ATOM     68  O   UNL A   1      40.543  20.628  27.658  1.00  0.00    -0.237 OA
ATOM     69  O   UNL A   1      39.021  21.200  25.804  1.00  0.00    -0.744 OA
ENDBRANCH  65  66
ENDBRANCH  46  60
BRANCH  47  70
ATOM     70  C   UNL A   1      44.276  30.491  34.471  1.00  0.00    -0.014 A 
ATOM     71  C   UNL A   1      43.693  29.249  34.823  1.00  0.00     0.010 A 
ATOM     72  C   UNL A   1      44.938  31.200  35.483  1.00  0.00     0.010 A 
ATOM     73  C   UNL A   1      43.915  28.664  36.072  1.00  0.00     0.020 A 
ATOM     74  C   UNL A   1      45.189  30.609  36.731  1.00  0.00     0.020 A 
ATOM     75  C   UNL A   1      44.714  29.326  37.000  1.00  0.00     0.054 A 
BRANCH  75  76
ATOM     76  S   UNL A   1      45.202  28.448  38.510  1.00  0.00     0.124 S 
ATOM     77  O   UNL A   1      44.357  27.254  38.465  1.00  0.00    -0.237 OA
ATOM     78  O   UNL A   1      46.628  28.215  38.274  1.00  0.00    -0.237 OA
ATOM     79  O   UNL A   1      44.898  29.392  39.574  1.00  0.00    -0.744 OA
ENDBRANCH  75  76
ENDBRANCH  47  70
BRANCH  59  80
ATOM     80  C   UNL A   1      44.829  31.070  27.911  1.00  0.00    -0.014 A 
ATOM     81  C   UNL A   1      46.145  30.981  27.432  1.00  0.00     0.010 A 
ATOM     82  C   UNL A   1      44.129  32.282  27.778  1.00  0.00     0.010 A 
ATOM     83  C   UNL A   1      46.751  32.072  26.818  1.00  0.00     0.020 A 
ATOM     84  C   UNL A   1      44.729  33.379  27.154  1.00  0.00     0.020 A 
ATOM     85  C   UNL A   1      46.035  33.262  26.672  1.00  0.00     0.054 A 
BRANCH  85  86
ATOM     86  S   UNL A   1      46.826  34.628  25.790  1.00  0.00     0.124 S 
ATOM     87  O   UNL A   1      46.014  34.734  24.580  1.00  0.00    -0.237 OA
ATOM     88  O   UNL A   1      46.691  35.735  26.735  1.00  0.00    -0.237 OA
ATOM     89  O   UNL A   1      48.196  34.162  25.579  1.00  0.00    -0.744 OA
ENDBRANCH  85  86
ENDBRANCH  59  80
ENDBRANCH  33  34
ENDBRANCH  25  28
ENDBRANCH  23  24
ENDBRANCH   1  23
TORSDOF 15
ENDMDL
