MODEL 1
REMARK VINA RESULT:     -11.5      0.000      0.000
REMARK SMILES Cc1ccc(S(=O)(=O)Nc2cc(C(=O)NCCCCNC(=O)c3ccc(-c4c5nc(c(-c6ccc(S(=O)(=O)[O-])cc6)c6ccc([nH]6)c(-c6ccc(S(=O)(=O)[O-])cc6)c6nc(c(-c7ccc(S(=O)(=O)[O-])cc7)c7ccc4[nH]7)C=C6)C=C5)cc3)cnc2N2CCCC2)c(C)c1
REMARK SMILES IDX 17 1 16 2 15 3 13 4 14 5 12 7 10 8 11 9 85 10 84 11 83 12
REMARK SMILES IDX 9 13 6 15 7 16 8 17 5 18 1 19 2 20 3 21 93 22 4 23 91 24
REMARK SMILES IDX 92 25 86 26 87 27 90 28 88 29 89 30 18 31 19 32 20 33 21 34
REMARK SMILES IDX 22 36 23 37 24 38 82 39 25 40 81 41 26 42 27 43 28 44 75 45
REMARK SMILES IDX 29 46 80 47 74 48 76 49 30 50 79 51 73 52 72 53 31 55 61 56
REMARK SMILES IDX 42 57 60 58 43 59 46 60 59 61 77 62 44 63 45 64 58 66 78 67
REMARK SMILES IDX 47 68 32 69 33 70 41 71 34 72 40 73 35 74 36 75 37 76 38 77
REMARK SMILES IDX 39 78 62 79 63 80 71 81 64 82 70 83 65 84 66 85 67 86 68 87
REMARK SMILES IDX 69 88 48 89 49 90 57 91 50 92 56 93 51 94 52 95 53 96 54 97
REMARK SMILES IDX 55 98
REMARK H PARENT 15 6 9 14 20 35 76 54 46 65
REMARK Flexibility Score: inf
ROOT
ATOM      1  C   UNL A   1      31.400  28.286  25.709  1.00  0.00     0.023 C 
ENDROOT
BRANCH   1   2
ATOM      2  C   UNL A   1      30.390  27.336  25.067  1.00  0.00     0.116 C 
BRANCH   2   3
ATOM      3  N   UNL A   1      30.506  27.357  23.620  1.00  0.00    -0.352 N 
ATOM      4  C   UNL A   1      31.353  26.716  22.752  1.00  0.00     0.252 C 
ATOM      5  O   UNL A   1      31.191  26.903  21.547  1.00  0.00    -0.269 OA
ATOM      6  H   UNL A   1      29.851  27.944  23.177  1.00  0.00     0.163 HD
BRANCH   4   7
ATOM      7  C   UNL A   1      32.405  25.764  23.184  1.00  0.00     0.060 A 
ATOM      8  C   UNL A   1      33.468  23.622  23.363  1.00  0.00     0.092 A 
ATOM      9  C   UNL A   1      32.326  24.379  23.121  1.00  0.00     0.046 A 
ATOM     10  C   UNL A   1      34.626  24.240  23.887  1.00  0.00     0.153 A 
ATOM     11  N   UNL A   1      34.675  25.573  24.065  1.00  0.00    -0.236 NA
ATOM     12  C   UNL A   1      33.594  26.302  23.674  1.00  0.00     0.127 A 
BRANCH   8  13
ATOM     13  N   UNL A   1      33.505  22.228  23.087  1.00  0.00    -0.276 N 
ATOM     14  H   UNL A   1      34.350  21.854  22.746  1.00  0.00     0.180 HD
BRANCH  13  15
ATOM     15  S   UNL A   1      32.223  21.177  23.296  1.00  0.00     0.262 S 
ATOM     16  O   UNL A   1      31.659  20.988  21.972  1.00  0.00    -0.201 OA
ATOM     17  O   UNL A   1      31.448  21.763  24.368  1.00  0.00    -0.201 OA
BRANCH  15  18
ATOM     18  C   UNL A   1      32.716  19.544  23.858  1.00  0.00     0.090 A 
ATOM     19  C   UNL A   1      32.656  15.613  25.645  1.00  0.00     0.044 C 
ATOM     20  C   UNL A   1      32.751  16.966  25.002  1.00  0.00    -0.051 A 
ATOM     21  C   UNL A   1      32.603  17.128  23.624  1.00  0.00     0.005 A 
ATOM     22  C   UNL A   1      33.042  18.090  25.779  1.00  0.00     0.008 A 
ATOM     23  C   UNL A   1      32.610  18.407  23.051  1.00  0.00     0.023 A 
ATOM     24  C   UNL A   1      33.043  19.383  25.223  1.00  0.00    -0.030 A 
ATOM     25  C   UNL A   1      33.441  20.511  26.138  1.00  0.00     0.046 C 
ENDBRANCH  15  18
ENDBRANCH  13  15
ENDBRANCH   8  13
BRANCH  10  26
ATOM     26  N   UNL A   1      35.700  23.495  24.293  1.00  0.00    -0.355 N 
ATOM     27  C   UNL A   1      36.732  22.893  23.476  1.00  0.00     0.118 C 
ATOM     28  C   UNL A   1      35.907  23.267  25.713  1.00  0.00     0.118 C 
ATOM     29  C   UNL A   1      37.131  21.697  24.338  1.00  0.00     0.023 C 
ATOM     30  C   UNL A   1      37.070  22.268  25.753  1.00  0.00     0.023 C 
ENDBRANCH  10  26
ENDBRANCH   4   7
ENDBRANCH   2   3
ENDBRANCH   1   2
BRANCH   1  31
ATOM     31  C   UNL A   1      32.281  27.623  26.769  1.00  0.00     0.023 C 
BRANCH  31  32
ATOM     32  C   UNL A   1      33.603  28.337  27.030  1.00  0.00     0.116 C 
BRANCH  32  33
ATOM     33  N   UNL A   1      33.441  29.738  27.389  1.00  0.00    -0.352 N 
ATOM     34  C   UNL A   1      34.356  30.569  27.987  1.00  0.00     0.251 C 
ATOM     35  H   UNL A   1      32.568  30.140  27.175  1.00  0.00     0.163 HD
ATOM     36  O   UNL A   1      34.042  31.707  28.318  1.00  0.00    -0.269 OA
BRANCH  34  37
ATOM     37  C   UNL A   1      35.716  30.060  28.263  1.00  0.00     0.039 A 
ATOM     38  C   UNL A   1      36.679  30.132  27.254  1.00  0.00     0.014 A 
ATOM     39  C   UNL A   1      36.043  29.544  29.520  1.00  0.00     0.014 A 
ATOM     40  C   UNL A   1      37.991  29.737  27.525  1.00  0.00     0.010 A 
ATOM     41  C   UNL A   1      37.363  29.212  29.807  1.00  0.00     0.010 A 
ATOM     42  C   UNL A   1      38.349  29.301  28.812  1.00  0.00    -0.014 A 
BRANCH  42  43
ATOM     43  C   UNL A   1      39.746  28.921  29.132  1.00  0.00     0.031 A 
ATOM     44  C   UNL A   1      40.660  29.911  29.803  1.00  0.00     0.074 A 
ATOM     45  C   UNL A   1      40.211  27.710  28.764  1.00  0.00     0.049 A 
ATOM     46  N   UNL A   1      41.924  29.787  30.113  1.00  0.00    -0.248 NA
ATOM     47  C   UNL A   1      40.084  31.223  30.143  1.00  0.00     0.031 C 
ATOM     48  C   UNL A   1      39.438  26.677  28.069  1.00  0.00     0.029 A 
ATOM     49  N   UNL A   1      41.451  27.144  28.920  1.00  0.00    -0.354 N 
ATOM     50  C   UNL A   1      42.301  31.009  30.657  1.00  0.00     0.074 A 
ATOM     51  C   UNL A   1      41.144  31.874  30.601  1.00  0.00     0.031 C 
ATOM     52  C   UNL A   1      40.214  25.596  27.883  1.00  0.00     0.029 A 
ATOM     53  C   UNL A   1      41.545  25.868  28.417  1.00  0.00     0.049 A 
ATOM     54  H   UNL A   1      42.205  27.609  29.352  1.00  0.00     0.167 HD
ATOM     55  C   UNL A   1      43.501  31.374  31.171  1.00  0.00     0.031 A 
ATOM     56  C   UNL A   1      42.584  25.013  28.392  1.00  0.00     0.031 A 
ATOM     57  C   UNL A   1      44.639  30.501  31.260  1.00  0.00     0.049 A 
ATOM     58  C   UNL A   1      43.895  25.432  28.999  1.00  0.00     0.074 A 
ATOM     59  C   UNL A   1      45.874  30.753  31.832  1.00  0.00     0.029 A 
ATOM     60  N   UNL A   1      44.681  29.204  30.771  1.00  0.00    -0.354 N 
ATOM     61  N   UNL A   1      44.211  26.570  29.571  1.00  0.00    -0.248 NA
ATOM     62  C   UNL A   1      44.984  24.446  28.973  1.00  0.00     0.031 C 
ATOM     63  C   UNL A   1      46.674  29.620  31.659  1.00  0.00     0.029 A 
ATOM     64  C   UNL A   1      45.924  28.648  31.017  1.00  0.00     0.049 A 
ATOM     65  H   UNL A   1      43.937  28.747  30.316  1.00  0.00     0.167 HD
ATOM     66  C   UNL A   1      45.524  26.420  30.005  1.00  0.00     0.074 A 
ATOM     67  C   UNL A   1      45.940  25.083  29.636  1.00  0.00     0.031 C 
ATOM     68  C   UNL A   1      46.314  27.310  30.655  1.00  0.00     0.031 A 
BRANCH  55  69
ATOM     69  C   UNL A   1      43.640  32.782  31.679  1.00  0.00    -0.014 A 
ATOM     70  C   UNL A   1      43.274  33.121  32.995  1.00  0.00     0.010 A 
ATOM     71  C   UNL A   1      44.188  33.773  30.844  1.00  0.00     0.010 A 
ATOM     72  C   UNL A   1      43.419  34.432  33.453  1.00  0.00     0.020 A 
ATOM     73  C   UNL A   1      44.358  35.080  31.307  1.00  0.00     0.020 A 
ATOM     74  C   UNL A   1      43.957  35.405  32.606  1.00  0.00     0.054 A 
BRANCH  74  75
ATOM     75  S   UNL A   1      44.162  37.094  33.234  1.00  0.00     0.124 S 
ATOM     76  O   UNL A   1      45.532  37.060  33.742  1.00  0.00    -0.237 OA
ATOM     77  O   UNL A   1      43.957  37.910  32.040  1.00  0.00    -0.237 OA
ATOM     78  O   UNL A   1      43.122  37.215  34.253  1.00  0.00    -0.744 OA
ENDBRANCH  74  75
ENDBRANCH  55  69
BRANCH  56  79
ATOM     79  C   UNL A   1      42.427  23.657  27.800  1.00  0.00    -0.014 A 
ATOM     80  C   UNL A   1      41.836  22.622  28.547  1.00  0.00     0.010 A 
ATOM     81  C   UNL A   1      42.878  23.388  26.495  1.00  0.00     0.010 A 
ATOM     82  C   UNL A   1      41.729  21.335  28.014  1.00  0.00     0.020 A 
ATOM     83  C   UNL A   1      42.751  22.108  25.949  1.00  0.00     0.020 A 
ATOM     84  C   UNL A   1      42.193  21.084  26.720  1.00  0.00     0.054 A 
BRANCH  84  85
ATOM     85  S   UNL A   1      42.021  19.413  26.034  1.00  0.00     0.124 S 
ATOM     86  O   UNL A   1      40.575  19.303  25.866  1.00  0.00    -0.237 OA
ATOM     87  O   UNL A   1      42.798  19.493  24.800  1.00  0.00    -0.237 OA
ATOM     88  O   UNL A   1      42.599  18.561  27.071  1.00  0.00    -0.744 OA
ENDBRANCH  84  85
ENDBRANCH  56  79
BRANCH  68  89
ATOM     89  C   UNL A   1      47.687  26.848  31.057  1.00  0.00    -0.014 A 
ATOM     90  C   UNL A   1      47.917  26.237  32.301  1.00  0.00     0.010 A 
ATOM     91  C   UNL A   1      48.754  26.991  30.151  1.00  0.00     0.010 A 
ATOM     92  C   UNL A   1      49.201  25.805  32.647  1.00  0.00     0.020 A 
ATOM     93  C   UNL A   1      50.033  26.540  30.484  1.00  0.00     0.020 A 
ATOM     94  C   UNL A   1      50.252  25.964  31.737  1.00  0.00     0.054 A 
BRANCH  94  95
ATOM     95  S   UNL A   1      51.902  25.364  32.191  1.00  0.00     0.124 S 
ATOM     96  O   UNL A   1      52.724  25.886  31.104  1.00  0.00    -0.237 OA
ATOM     97  O   UNL A   1      52.123  25.979  33.498  1.00  0.00    -0.237 OA
ATOM     98  O   UNL A   1      51.746  23.910  32.214  1.00  0.00    -0.744 OA
ENDBRANCH  94  95
ENDBRANCH  68  89
ENDBRANCH  42  43
ENDBRANCH  34  37
ENDBRANCH  32  33
ENDBRANCH  31  32
ENDBRANCH   1  31
TORSDOF 18
ENDMDL
MODEL 2
REMARK VINA RESULT:     -11.4      2.925      3.745
REMARK SMILES Cc1ccc(S(=O)(=O)Nc2cc(C(=O)NCCCCNC(=O)c3ccc(-c4c5nc(c(-c6ccc(S(=O)(=O)[O-])cc6)c6ccc([nH]6)c(-c6ccc(S(=O)(=O)[O-])cc6)c6nc(c(-c7ccc(S(=O)(=O)[O-])cc7)c7ccc4[nH]7)C=C6)C=C5)cc3)cnc2N2CCCC2)c(C)c1
REMARK SMILES IDX 17 1 16 2 15 3 13 4 14 5 12 7 10 8 11 9 85 10 84 11 83 12
REMARK SMILES IDX 9 13 6 15 7 16 8 17 5 18 1 19 2 20 3 21 93 22 4 23 91 24
REMARK SMILES IDX 92 25 86 26 87 27 90 28 88 29 89 30 18 31 19 32 20 33 21 34
REMARK SMILES IDX 22 36 23 37 24 38 82 39 25 40 81 41 26 42 27 43 28 44 75 45
REMARK SMILES IDX 29 46 80 47 74 48 76 49 30 50 79 51 73 52 72 53 31 55 61 56
REMARK SMILES IDX 42 57 60 58 43 59 46 60 59 61 77 62 44 63 45 64 58 66 78 67
REMARK SMILES IDX 47 68 32 69 33 70 41 71 34 72 40 73 35 74 36 75 37 76 38 77
REMARK SMILES IDX 39 78 62 79 63 80 71 81 64 82 70 83 65 84 66 85 67 86 68 87
REMARK SMILES IDX 69 88 48 89 49 90 57 91 50 92 56 93 51 94 52 95 53 96 54 97
REMARK SMILES IDX 55 98
REMARK H PARENT 15 6 9 14 20 35 76 54 46 65
REMARK Flexibility Score: inf
ROOT
ATOM      1  C   UNL A   1      33.735  30.169  26.878  1.00  0.00     0.023 C 
ENDROOT
BRANCH   1   2
ATOM      2  C   UNL A   1      32.284  29.836  27.224  1.00  0.00     0.116 C 
BRANCH   2   3
ATOM      3  N   UNL A   1      31.482  29.704  26.021  1.00  0.00    -0.352 N 
ATOM      4  C   UNL A   1      31.439  28.745  25.041  1.00  0.00     0.252 C 
ATOM      5  O   UNL A   1      30.614  28.883  24.138  1.00  0.00    -0.269 OA
ATOM      6  H   UNL A   1      30.847  30.444  25.882  1.00  0.00     0.163 HD
BRANCH   4   7
ATOM      7  C   UNL A   1      32.284  27.526  25.046  1.00  0.00     0.060 A 
ATOM      8  C   UNL A   1      32.778  25.217  25.466  1.00  0.00     0.092 A 
ATOM      9  C   UNL A   1      32.005  26.345  25.722  1.00  0.00     0.046 A 
ATOM     10  C   UNL A   1      33.965  25.333  24.708  1.00  0.00     0.153 A 
ATOM     11  N   UNL A   1      34.310  26.505  24.143  1.00  0.00    -0.236 NA
ATOM     12  C   UNL A   1      33.451  27.552  24.286  1.00  0.00     0.127 A 
BRANCH   8  13
ATOM     13  N   UNL A   1      32.398  23.934  25.945  1.00  0.00    -0.276 N 
ATOM     14  H   UNL A   1      32.743  23.657  26.825  1.00  0.00     0.180 HD
BRANCH  13  15
ATOM     15  S   UNL A   1      31.412  22.861  25.128  1.00  0.00     0.262 S 
ATOM     16  O   UNL A   1      30.956  23.576  23.950  1.00  0.00    -0.201 OA
ATOM     17  O   UNL A   1      30.480  22.392  26.132  1.00  0.00    -0.201 OA
BRANCH  15  18
ATOM     18  C   UNL A   1      32.276  21.410  24.519  1.00  0.00     0.090 A 
ATOM     19  C   UNL A   1      33.323  17.318  23.618  1.00  0.00     0.044 C 
ATOM     20  C   UNL A   1      33.024  18.763  23.893  1.00  0.00    -0.051 A 
ATOM     21  C   UNL A   1      32.426  19.577  22.930  1.00  0.00     0.005 A 
ATOM     22  C   UNL A   1      33.390  19.332  25.115  1.00  0.00     0.008 A 
ATOM     23  C   UNL A   1      32.075  20.900  23.232  1.00  0.00     0.023 A 
ATOM     24  C   UNL A   1      33.037  20.656  25.440  1.00  0.00    -0.030 A 
ATOM     25  C   UNL A   1      33.547  21.187  26.754  1.00  0.00     0.046 C 
ENDBRANCH  15  18
ENDBRANCH  13  15
ENDBRANCH   8  13
BRANCH  10  26
ATOM     26  N   UNL A   1      34.829  24.279  24.586  1.00  0.00    -0.355 N 
ATOM     27  C   UNL A   1      35.779  23.784  25.558  1.00  0.00     0.118 C 
ATOM     28  C   UNL A   1      34.819  23.494  23.363  1.00  0.00     0.118 C 
ATOM     29  C   UNL A   1      36.846  23.179  24.647  1.00  0.00     0.023 C 
ATOM     30  C   UNL A   1      36.015  22.549  23.531  1.00  0.00     0.023 C 
ENDBRANCH  10  26
ENDBRANCH   4   7
ENDBRANCH   2   3
ENDBRANCH   1   2
BRANCH   1  31
ATOM     31  C   UNL A   1      34.403  31.117  27.875  1.00  0.00     0.023 C 
BRANCH  31  32
ATOM     32  C   UNL A   1      35.547  30.497  28.670  1.00  0.00     0.116 C 
BRANCH  32  33
ATOM     33  N   UNL A   1      35.496  30.805  30.091  1.00  0.00    -0.352 N 
ATOM     34  C   UNL A   1      36.524  30.771  31.001  1.00  0.00     0.251 C 
ATOM     35  H   UNL A   1      34.616  31.072  30.443  1.00  0.00     0.163 HD
ATOM     36  O   UNL A   1      36.307  30.964  32.193  1.00  0.00    -0.269 OA
BRANCH  34  37
ATOM     37  C   UNL A   1      37.889  30.460  30.531  1.00  0.00     0.039 A 
ATOM     38  C   UNL A   1      38.803  29.909  31.433  1.00  0.00     0.014 A 
ATOM     39  C   UNL A   1      38.253  30.681  29.200  1.00  0.00     0.014 A 
ATOM     40  C   UNL A   1      40.068  29.527  30.984  1.00  0.00     0.010 A 
ATOM     41  C   UNL A   1      39.490  30.241  28.741  1.00  0.00     0.010 A 
ATOM     42  C   UNL A   1      40.412  29.664  29.629  1.00  0.00    -0.014 A 
BRANCH  42  43
ATOM     43  C   UNL A   1      41.734  29.223  29.123  1.00  0.00     0.031 A 
ATOM     44  C   UNL A   1      42.872  30.204  29.038  1.00  0.00     0.074 A 
ATOM     45  C   UNL A   1      41.894  27.959  28.682  1.00  0.00     0.049 A 
ATOM     46  N   UNL A   1      44.081  30.026  28.574  1.00  0.00    -0.248 NA
ATOM     47  C   UNL A   1      42.606  31.573  29.509  1.00  0.00     0.031 C 
ATOM     48  C   UNL A   1      40.856  26.924  28.670  1.00  0.00     0.029 A 
ATOM     49  N   UNL A   1      42.992  27.330  28.152  1.00  0.00    -0.354 N 
ATOM     50  C   UNL A   1      44.710  31.261  28.671  1.00  0.00     0.074 A 
ATOM     51  C   UNL A   1      43.738  32.191  29.203  1.00  0.00     0.031 C 
ATOM     52  C   UNL A   1      41.376  25.784  28.185  1.00  0.00     0.029 A 
ATOM     53  C   UNL A   1      42.771  26.013  27.822  1.00  0.00     0.049 A 
ATOM     54  H   UNL A   1      43.859  27.780  28.021  1.00  0.00     0.167 HD
ATOM     55  C   UNL A   1      45.987  31.590  28.360  1.00  0.00     0.031 A 
ATOM     56  C   UNL A   1      43.600  25.095  27.292  1.00  0.00     0.031 A 
ATOM     57  C   UNL A   1      46.962  30.656  27.867  1.00  0.00     0.049 A 
ATOM     58  C   UNL A   1      45.022  25.478  26.986  1.00  0.00     0.074 A 
ATOM     59  C   UNL A   1      48.301  30.875  27.593  1.00  0.00     0.029 A 
ATOM     60  N   UNL A   1      46.707  29.324  27.580  1.00  0.00    -0.354 N 
ATOM     61  N   UNL A   1      45.616  26.636  27.150  1.00  0.00    -0.248 NA
ATOM     62  C   UNL A   1      45.890  24.425  26.439  1.00  0.00     0.031 C 
ATOM     63  C   UNL A   1      48.848  29.683  27.109  1.00  0.00     0.029 A 
ATOM     64  C   UNL A   1      47.860  28.712  27.121  1.00  0.00     0.049 A 
ATOM     65  H   UNL A   1      45.835  28.880  27.687  1.00  0.00     0.167 HD
ATOM     66  C   UNL A   1      46.937  26.439  26.761  1.00  0.00     0.074 A 
ATOM     67  C   UNL A   1      47.056  25.052  26.361  1.00  0.00     0.031 C 
ATOM     68  C   UNL A   1      47.962  27.326  26.742  1.00  0.00     0.031 A 
BRANCH  55  69
ATOM     69  C   UNL A   1      46.401  33.023  28.546  1.00  0.00    -0.014 A 
ATOM     70  C   UNL A   1      46.233  33.969  27.518  1.00  0.00     0.010 A 
ATOM     71  C   UNL A   1      46.925  33.442  29.783  1.00  0.00     0.010 A 
ATOM     72  C   UNL A   1      46.614  35.298  27.711  1.00  0.00     0.020 A 
ATOM     73  C   UNL A   1      47.285  34.777  29.988  1.00  0.00     0.020 A 
ATOM     74  C   UNL A   1      47.142  35.694  28.944  1.00  0.00     0.054 A 
BRANCH  74  75
ATOM     75  S   UNL A   1      47.603  37.432  29.179  1.00  0.00     0.124 S 
ATOM     76  O   UNL A   1      47.757  37.891  27.801  1.00  0.00    -0.237 OA
ATOM     77  O   UNL A   1      46.453  37.976  29.897  1.00  0.00    -0.237 OA
ATOM     78  O   UNL A   1      48.839  37.362  29.954  1.00  0.00    -0.744 OA
ENDBRANCH  74  75
ENDBRANCH  55  69
BRANCH  56  79
ATOM     79  C   UNL A   1      43.122  23.707  27.042  1.00  0.00    -0.014 A 
ATOM     80  C   UNL A   1      43.081  22.774  28.093  1.00  0.00     0.010 A 
ATOM     81  C   UNL A   1      42.721  23.309  25.755  1.00  0.00     0.010 A 
ATOM     82  C   UNL A   1      42.679  21.457  27.855  1.00  0.00     0.020 A 
ATOM     83  C   UNL A   1      42.295  21.999  25.518  1.00  0.00     0.020 A 
ATOM     84  C   UNL A   1      42.294  21.076  26.567  1.00  0.00     0.054 A 
BRANCH  84  85
ATOM     85  S   UNL A   1      41.749  19.368  26.282  1.00  0.00     0.124 S 
ATOM     86  O   UNL A   1      42.082  18.730  27.552  1.00  0.00    -0.237 OA
ATOM     87  O   UNL A   1      40.323  19.530  26.010  1.00  0.00    -0.237 OA
ATOM     88  O   UNL A   1      42.550  18.944  25.136  1.00  0.00    -0.744 OA
ENDBRANCH  84  85
ENDBRANCH  56  79
BRANCH  68  89
ATOM     89  C   UNL A   1      49.312  26.813  26.324  1.00  0.00    -0.014 A 
ATOM     90  C   UNL A   1      49.790  26.996  25.016  1.00  0.00     0.010 A 
ATOM     91  C   UNL A   1      50.130  26.175  27.274  1.00  0.00     0.010 A 
ATOM     92  C   UNL A   1      51.053  26.520  24.655  1.00  0.00     0.020 A 
ATOM     93  C   UNL A   1      51.403  25.718  26.923  1.00  0.00     0.020 A 
ATOM     94  C   UNL A   1      51.850  25.880  25.610  1.00  0.00     0.054 A 
BRANCH  94  95
ATOM     95  S   UNL A   1      53.501  25.302  25.131  1.00  0.00     0.124 S 
ATOM     96  O   UNL A   1      53.393  23.863  25.347  1.00  0.00    -0.237 OA
ATOM     97  O   UNL A   1      53.599  25.723  23.735  1.00  0.00    -0.237 OA
ATOM     98  O   UNL A   1      54.393  26.007  26.051  1.00  0.00    -0.744 OA
ENDBRANCH  94  95
ENDBRANCH  68  89
ENDBRANCH  42  43
ENDBRANCH  34  37
ENDBRANCH  32  33
ENDBRANCH  31  32
ENDBRANCH   1  31
TORSDOF 18
ENDMDL
MODEL 3
REMARK VINA RESULT:     -11.4      3.218      8.618
REMARK SMILES Cc1ccc(S(=O)(=O)Nc2cc(C(=O)NCCCCNC(=O)c3ccc(-c4c5nc(c(-c6ccc(S(=O)(=O)[O-])cc6)c6ccc([nH]6)c(-c6ccc(S(=O)(=O)[O-])cc6)c6nc(c(-c7ccc(S(=O)(=O)[O-])cc7)c7ccc4[nH]7)C=C6)C=C5)cc3)cnc2N2CCCC2)c(C)c1
REMARK SMILES IDX 17 1 16 2 15 3 13 4 14 5 12 7 10 8 11 9 85 10 84 11 83 12
REMARK SMILES IDX 9 13 6 15 7 16 8 17 5 18 1 19 2 20 3 21 93 22 4 23 91 24
REMARK SMILES IDX 92 25 86 26 87 27 90 28 88 29 89 30 18 31 19 32 20 33 21 34
REMARK SMILES IDX 22 36 23 37 24 38 82 39 25 40 81 41 26 42 27 43 28 44 75 45
REMARK SMILES IDX 29 46 80 47 74 48 76 49 30 50 79 51 73 52 72 53 31 55 61 56
REMARK SMILES IDX 42 57 60 58 43 59 46 60 59 61 77 62 44 63 45 64 58 66 78 67
REMARK SMILES IDX 47 68 32 69 33 70 41 71 34 72 40 73 35 74 36 75 37 76 38 77
REMARK SMILES IDX 39 78 62 79 63 80 71 81 64 82 70 83 65 84 66 85 67 86 68 87
REMARK SMILES IDX 69 88 48 89 49 90 57 91 50 92 56 93 51 94 52 95 53 96 54 97
REMARK SMILES IDX 55 98
REMARK H PARENT 15 6 9 14 20 35 76 54 46 65
REMARK Flexibility Score: inf
ROOT
ATOM      1  C   UNL A   1      33.414  30.046  26.684  1.00  0.00     0.023 C 
ENDROOT
BRANCH   1   2
ATOM      2  C   UNL A   1      32.007  29.534  26.993  1.00  0.00     0.116 C 
BRANCH   2   3
ATOM      3  N   UNL A   1      31.241  29.357  25.773  1.00  0.00    -0.352 N 
ATOM      4  C   UNL A   1      31.290  28.412  24.780  1.00  0.00     0.252 C 
ATOM      5  O   UNL A   1      30.474  28.499  23.862  1.00  0.00    -0.269 OA
ATOM      6  H   UNL A   1      30.554  30.049  25.631  1.00  0.00     0.163 HD
BRANCH   4   7
ATOM      7  C   UNL A   1      32.226  27.262  24.787  1.00  0.00     0.060 A 
ATOM      8  C   UNL A   1      32.892  24.995  25.197  1.00  0.00     0.092 A 
ATOM      9  C   UNL A   1      32.032  26.058  25.452  1.00  0.00     0.046 A 
ATOM     10  C   UNL A   1      34.074  25.207  24.452  1.00  0.00     0.153 A 
ATOM     11  N   UNL A   1      34.333  26.405  23.898  1.00  0.00    -0.236 NA
ATOM     12  C   UNL A   1      33.396  27.382  24.039  1.00  0.00     0.127 A 
BRANCH   8  13
ATOM     13  N   UNL A   1      32.607  23.683  25.665  1.00  0.00    -0.276 N 
ATOM     14  H   UNL A   1      33.055  23.387  26.490  1.00  0.00     0.180 HD
BRANCH  13  15
ATOM     15  S   UNL A   1      31.569  22.606  24.920  1.00  0.00     0.262 S 
ATOM     16  O   UNL A   1      31.160  23.254  23.688  1.00  0.00    -0.201 OA
ATOM     17  O   UNL A   1      30.608  22.263  25.946  1.00  0.00    -0.201 OA
BRANCH  15  18
ATOM     18  C   UNL A   1      32.358  21.069  24.429  1.00  0.00     0.090 A 
ATOM     19  C   UNL A   1      33.180  16.873  23.826  1.00  0.00     0.044 C 
ATOM     20  C   UNL A   1      32.961  18.348  23.998  1.00  0.00    -0.051 A 
ATOM     21  C   UNL A   1      32.431  19.128  22.969  1.00  0.00     0.005 A 
ATOM     22  C   UNL A   1      33.336  18.976  25.188  1.00  0.00     0.008 A 
ATOM     23  C   UNL A   1      32.153  20.487  23.174  1.00  0.00     0.023 A 
ATOM     24  C   UNL A   1      33.056  20.337  25.415  1.00  0.00    -0.030 A 
ATOM     25  C   UNL A   1      33.570  20.925  26.703  1.00  0.00     0.046 C 
ENDBRANCH  15  18
ENDBRANCH  13  15
ENDBRANCH   8  13
BRANCH  10  26
ATOM     26  N   UNL A   1      35.017  24.223  24.333  1.00  0.00    -0.355 N 
ATOM     27  C   UNL A   1      35.199  23.284  23.246  1.00  0.00     0.118 C 
ATOM     28  C   UNL A   1      36.013  24.067  25.379  1.00  0.00     0.118 C 
ATOM     29  C   UNL A   1      35.828  22.101  23.981  1.00  0.00     0.023 C 
ATOM     30  C   UNL A   1      36.755  22.784  24.984  1.00  0.00     0.023 C 
ENDBRANCH  10  26
ENDBRANCH   4   7
ENDBRANCH   2   3
ENDBRANCH   1   2
BRANCH   1  31
ATOM     31  C   UNL A   1      34.527  29.123  27.182  1.00  0.00     0.023 C 
BRANCH  31  32
ATOM     32  C   UNL A   1      35.672  29.838  27.893  1.00  0.00     0.116 C 
BRANCH  32  33
ATOM     33  N   UNL A   1      35.539  29.839  29.342  1.00  0.00    -0.352 N 
ATOM     34  C   UNL A   1      36.524  29.653  30.281  1.00  0.00     0.251 C 
ATOM     35  H   UNL A   1      34.632  29.994  29.692  1.00  0.00     0.163 HD
ATOM     36  O   UNL A   1      36.243  29.584  31.473  1.00  0.00    -0.269 OA
BRANCH  34  37
ATOM     37  C   UNL A   1      37.923  29.498  29.833  1.00  0.00     0.039 A 
ATOM     38  C   UNL A   1      38.887  29.097  30.762  1.00  0.00     0.014 A 
ATOM     39  C   UNL A   1      38.273  29.717  28.499  1.00  0.00     0.014 A 
ATOM     40  C   UNL A   1      40.195  28.860  30.337  1.00  0.00     0.010 A 
ATOM     41  C   UNL A   1      39.561  29.420  28.065  1.00  0.00     0.010 A 
ATOM     42  C   UNL A   1      40.536  28.992  28.980  1.00  0.00    -0.014 A 
BRANCH  42  43
ATOM     43  C   UNL A   1      41.910  28.702  28.502  1.00  0.00     0.031 A 
ATOM     44  C   UNL A   1      42.265  27.316  28.034  1.00  0.00     0.074 A 
ATOM     45  C   UNL A   1      42.852  29.665  28.547  1.00  0.00     0.049 A 
ATOM     46  N   UNL A   1      43.420  26.852  27.634  1.00  0.00    -0.248 NA
ATOM     47  C   UNL A   1      41.187  26.313  28.046  1.00  0.00     0.031 C 
ATOM     48  C   UNL A   1      42.644  31.036  29.021  1.00  0.00     0.029 A 
ATOM     49  N   UNL A   1      44.177  29.636  28.193  1.00  0.00    -0.354 N 
ATOM     50  C   UNL A   1      43.216  25.503  27.374  1.00  0.00     0.074 A 
ATOM     51  C   UNL A   1      41.837  25.212  27.697  1.00  0.00     0.031 C 
ATOM     52  C   UNL A   1      43.793  31.722  28.902  1.00  0.00     0.029 A 
ATOM     53  C   UNL A   1      44.825  30.834  28.374  1.00  0.00     0.049 A 
ATOM     54  H   UNL A   1      44.622  28.830  27.842  1.00  0.00     0.167 HD
ATOM     55  C   UNL A   1      44.095  24.590  26.894  1.00  0.00     0.031 A 
ATOM     56  C   UNL A   1      46.105  31.180  28.139  1.00  0.00     0.031 A 
ATOM     57  C   UNL A   1      45.454  24.889  26.537  1.00  0.00     0.049 A 
ATOM     58  C   UNL A   1      47.050  30.155  27.575  1.00  0.00     0.074 A 
ATOM     59  C   UNL A   1      46.400  24.051  25.973  1.00  0.00     0.029 A 
ATOM     60  N   UNL A   1      46.061  26.124  26.703  1.00  0.00    -0.354 N 
ATOM     61  N   UNL A   1      46.819  28.900  27.271  1.00  0.00    -0.248 NA
ATOM     62  C   UNL A   1      48.426  30.598  27.307  1.00  0.00     0.031 C 
ATOM     63  C   UNL A   1      47.590  24.770  25.829  1.00  0.00     0.029 A 
ATOM     64  C   UNL A   1      47.373  26.067  26.264  1.00  0.00     0.049 A 
ATOM     65  H   UNL A   1      45.625  26.923  27.079  1.00  0.00     0.167 HD
ATOM     66  C   UNL A   1      48.010  28.415  26.742  1.00  0.00     0.074 A 
ATOM     67  C   UNL A   1      48.956  29.512  26.761  1.00  0.00     0.031 C 
ATOM     68  C   UNL A   1      48.294  27.174  26.277  1.00  0.00     0.031 A 
BRANCH  55  69
ATOM     69  C   UNL A   1      43.607  23.177  26.726  1.00  0.00    -0.014 A 
ATOM     70  C   UNL A   1      43.578  22.563  25.460  1.00  0.00     0.010 A 
ATOM     71  C   UNL A   1      43.216  22.436  27.856  1.00  0.00     0.010 A 
ATOM     72  C   UNL A   1      43.132  21.247  25.324  1.00  0.00     0.020 A 
ATOM     73  C   UNL A   1      42.792  21.110  27.726  1.00  0.00     0.020 A 
ATOM     74  C   UNL A   1      42.737  20.529  26.457  1.00  0.00     0.054 A 
BRANCH  74  75
ATOM     75  S   UNL A   1      42.189  18.812  26.257  1.00  0.00     0.124 S 
ATOM     76  O   UNL A   1      42.313  18.298  27.619  1.00  0.00    -0.237 OA
ATOM     77  O   UNL A   1      40.821  18.965  25.767  1.00  0.00    -0.237 OA
ATOM     78  O   UNL A   1      43.134  18.256  25.292  1.00  0.00    -0.744 OA
ENDBRANCH  74  75
ENDBRANCH  55  69
BRANCH  56  79
ATOM     79  C   UNL A   1      46.568  32.570  28.402  1.00  0.00    -0.014 A 
ATOM     80  C   UNL A   1      46.482  33.547  27.395  1.00  0.00     0.010 A 
ATOM     81  C   UNL A   1      47.109  32.919  29.652  1.00  0.00     0.010 A 
ATOM     82  C   UNL A   1      46.959  34.841  27.619  1.00  0.00     0.020 A 
ATOM     83  C   UNL A   1      47.566  34.219  29.889  1.00  0.00     0.020 A 
ATOM     84  C   UNL A   1      47.503  35.167  28.864  1.00  0.00     0.054 A 
BRANCH  84  85
ATOM     85  S   UNL A   1      48.093  36.860  29.148  1.00  0.00     0.124 S 
ATOM     86  O   UNL A   1      48.401  37.303  27.791  1.00  0.00    -0.237 OA
ATOM     87  O   UNL A   1      46.940  37.499  29.776  1.00  0.00    -0.237 OA
ATOM     88  O   UNL A   1      49.248  36.674  30.024  1.00  0.00    -0.744 OA
ENDBRANCH  84  85
ENDBRANCH  56  79
BRANCH  68  89
ATOM     89  C   UNL A   1      49.665  26.950  25.702  1.00  0.00    -0.014 A 
ATOM     90  C   UNL A   1      49.967  27.301  24.375  1.00  0.00     0.010 A 
ATOM     91  C   UNL A   1      50.678  26.419  26.522  1.00  0.00     0.010 A 
ATOM     92  C   UNL A   1      51.252  27.094  23.867  1.00  0.00     0.020 A 
ATOM     93  C   UNL A   1      51.969  26.232  26.024  1.00  0.00     0.020 A 
ATOM     94  C   UNL A   1      52.244  26.556  24.694  1.00  0.00     0.054 A 
BRANCH  94  95
ATOM     95  S   UNL A   1      53.914  26.329  24.026  1.00  0.00     0.124 S 
ATOM     96  O   UNL A   1      53.649  26.140  22.603  1.00  0.00    -0.237 OA
ATOM     97  O   UNL A   1      54.578  27.582  24.380  1.00  0.00    -0.237 OA
ATOM     98  O   UNL A   1      54.411  25.149  24.732  1.00  0.00    -0.744 OA
ENDBRANCH  94  95
ENDBRANCH  68  89
ENDBRANCH  42  43
ENDBRANCH  34  37
ENDBRANCH  32  33
ENDBRANCH  31  32
ENDBRANCH   1  31
TORSDOF 18
ENDMDL
