MODEL 1
REMARK VINA RESULT:     -12.3      0.000      0.000
REMARK SMILES Cc1nc(-c2ccc3c(c2)CCN3S(=O)(=O)c2ccc(F)c(C(=O)NCCCCNC(=O)c3ccc(-c4c5nc(c(-c6ccc(S(=O)(=O)[O-])cc6)c6ccc([nH]6)c(-c6ccc(S(=O)(=O)[O-])cc6)c6nc(c(-c7ccc(S(=O)(=O)[O-])cc7)c7ccc4[nH]7)C=C6)C=C5)cc3)c2)cs1
REMARK SMILES IDX 27 1 26 2 25 3 23 4 24 5 22 7 17 8 18 9 93 10 19 11 20 12
REMARK SMILES IDX 21 13 14 14 15 15 16 16 13 17 5 18 6 19 10 20 7 21 9 22 8 23
REMARK SMILES IDX 11 24 12 25 4 26 1 27 2 28 3 29 95 30 94 31 28 32 29 33
REMARK SMILES IDX 30 34 31 35 32 37 33 38 34 39 92 40 35 41 91 42 36 43 37 44
REMARK SMILES IDX 38 45 85 46 39 47 90 48 84 49 86 50 40 51 89 52 83 53 82 54
REMARK SMILES IDX 41 56 71 57 52 58 70 59 53 60 56 61 69 62 87 63 54 64 55 65
REMARK SMILES IDX 68 67 88 68 57 69 42 70 43 71 51 72 44 73 50 74 45 75 46 76
REMARK SMILES IDX 47 77 48 78 49 79 72 80 73 81 81 82 74 83 80 84 75 85 76 86
REMARK SMILES IDX 77 87 78 88 79 89 58 90 59 91 67 92 60 93 66 94 61 95 62 96
REMARK SMILES IDX 63 97 64 98 65 99
REMARK H PARENT 25 6 30 36 86 55 56 66
REMARK Flexibility Score: inf
ROOT
ATOM      1  C   UNL A   1      39.957  21.463  26.197  1.00  0.00     0.023 C 
ENDROOT
BRANCH   1   2
ATOM      2  C   UNL A   1      38.511  21.701  25.793  1.00  0.00     0.116 C 
BRANCH   2   3
ATOM      3  N   UNL A   1      38.013  23.047  26.013  1.00  0.00    -0.352 N 
ATOM      4  C   UNL A   1      36.732  23.559  26.006  1.00  0.00     0.254 C 
ATOM      5  O   UNL A   1      36.587  24.746  26.304  1.00  0.00    -0.269 OA
ATOM      6  H   UNL A   1      38.713  23.713  26.201  1.00  0.00     0.163 HD
BRANCH   4   7
ATOM      7  C   UNL A   1      35.529  22.789  25.582  1.00  0.00     0.076 A 
ATOM      8  C   UNL A   1      33.911  22.277  23.846  1.00  0.00     0.089 A 
ATOM      9  C   UNL A   1      33.408  21.213  24.603  1.00  0.00     0.025 A 
ATOM     10  C   UNL A   1      35.030  23.002  24.279  1.00  0.00     0.039 A 
ATOM     11  C   UNL A   1      33.838  21.065  25.912  1.00  0.00     0.041 A 
ATOM     12  C   UNL A   1      34.813  21.924  26.413  1.00  0.00     0.136 A 
ATOM     13  F   UNL A   1      34.931  21.972  27.747  1.00  0.00    -0.206 F 
BRANCH   8  14
ATOM     14  S   UNL A   1      32.996  22.743  22.401  1.00  0.00     0.264 S 
ATOM     15  O   UNL A   1      32.153  21.609  22.073  1.00  0.00    -0.201 OA
ATOM     16  O   UNL A   1      33.933  23.247  21.415  1.00  0.00    -0.201 OA
BRANCH  14  17
ATOM     17  N   UNL A   1      31.978  24.056  22.847  1.00  0.00    -0.266 N 
ATOM     18  C   UNL A   1      32.747  27.514  25.163  1.00  0.00     0.001 A 
ATOM     19  C   UNL A   1      33.672  27.170  24.167  1.00  0.00     0.012 A 
ATOM     20  C   UNL A   1      31.609  26.716  25.339  1.00  0.00     0.016 A 
ATOM     21  C   UNL A   1      33.482  26.038  23.369  1.00  0.00     0.028 A 
ATOM     22  C   UNL A   1      31.458  25.575  24.545  1.00  0.00    -0.021 A 
ATOM     23  C   UNL A   1      32.422  25.186  23.618  1.00  0.00     0.055 A 
ATOM     24  C   UNL A   1      30.224  24.742  24.402  1.00  0.00     0.060 C 
ATOM     25  C   UNL A   1      30.712  23.580  23.523  1.00  0.00     0.140 C 
BRANCH  18  26
ATOM     26  C   UNL A   1      32.948  28.758  25.891  1.00  0.00     0.081 A 
ATOM     27  C   UNL A   1      35.244  30.753  27.912  1.00  0.00     0.079 C 
ATOM     28  C   UNL A   1      34.111  30.171  27.142  1.00  0.00     0.090 A 
ATOM     29  N   UNL A   1      34.146  29.001  26.543  1.00  0.00    -0.242 NA
ATOM     30  S   UNL A   1      32.628  31.028  26.989  1.00  0.00    -0.127 S 
ATOM     31  C   UNL A   1      31.997  29.746  26.033  1.00  0.00     0.095 A 
ENDBRANCH  18  26
ENDBRANCH  14  17
ENDBRANCH   8  14
ENDBRANCH   4   7
ENDBRANCH   2   3
ENDBRANCH   1   2
BRANCH   1  32
ATOM     32  C   UNL A   1      40.411  22.071  27.513  1.00  0.00     0.023 C 
BRANCH  32  33
ATOM     33  C   UNL A   1      41.517  23.115  27.420  1.00  0.00     0.116 C 
BRANCH  33  34
ATOM     34  N   UNL A   1      41.404  24.000  26.267  1.00  0.00    -0.352 N 
ATOM     35  C   UNL A   1      41.231  25.366  26.229  1.00  0.00     0.251 C 
ATOM     36  H   UNL A   1      41.459  23.558  25.389  1.00  0.00     0.163 HD
ATOM     37  O   UNL A   1      41.069  25.939  25.155  1.00  0.00    -0.269 OA
BRANCH  35  38
ATOM     38  C   UNL A   1      41.202  26.130  27.494  1.00  0.00     0.039 A 
ATOM     39  C   UNL A   1      42.238  27.025  27.772  1.00  0.00     0.014 A 
ATOM     40  C   UNL A   1      40.122  26.009  28.370  1.00  0.00     0.014 A 
ATOM     41  C   UNL A   1      42.140  27.868  28.882  1.00  0.00     0.010 A 
ATOM     42  C   UNL A   1      39.980  26.914  29.415  1.00  0.00     0.010 A 
ATOM     43  C   UNL A   1      40.986  27.855  29.684  1.00  0.00    -0.014 A 
BRANCH  43  44
ATOM     44  C   UNL A   1      40.806  28.816  30.803  1.00  0.00     0.031 A 
ATOM     45  C   UNL A   1      41.658  28.697  32.039  1.00  0.00     0.074 A 
ATOM     46  C   UNL A   1      39.836  29.750  30.739  1.00  0.00     0.049 A 
ATOM     47  N   UNL A   1      41.614  29.402  33.142  1.00  0.00    -0.248 NA
ATOM     48  C   UNL A   1      42.672  27.629  32.049  1.00  0.00     0.031 C 
ATOM     49  C   UNL A   1      38.918  29.944  29.614  1.00  0.00     0.029 A 
ATOM     50  N   UNL A   1      39.459  30.713  31.641  1.00  0.00    -0.354 N 
ATOM     51  C   UNL A   1      42.582  28.855  33.976  1.00  0.00     0.074 A 
ATOM     52  C   UNL A   1      43.149  27.721  33.281  1.00  0.00     0.031 C 
ATOM     53  C   UNL A   1      38.112  30.986  29.877  1.00  0.00     0.029 A 
ATOM     54  C   UNL A   1      38.422  31.504  31.206  1.00  0.00     0.049 A 
ATOM     55  H   UNL A   1      39.890  30.826  32.519  1.00  0.00     0.167 HD
ATOM     56  C   UNL A   1      42.984  29.272  35.200  1.00  0.00     0.031 A 
ATOM     57  C   UNL A   1      37.787  32.529  31.808  1.00  0.00     0.031 A 
ATOM     58  C   UNL A   1      42.417  30.401  35.890  1.00  0.00     0.049 A 
ATOM     59  C   UNL A   1      38.225  32.955  33.184  1.00  0.00     0.074 A 
ATOM     60  C   UNL A   1      42.781  30.933  37.114  1.00  0.00     0.029 A 
ATOM     61  N   UNL A   1      41.362  31.169  35.418  1.00  0.00    -0.354 N 
ATOM     62  N   UNL A   1      39.186  32.465  33.931  1.00  0.00    -0.248 NA
ATOM     63  C   UNL A   1      37.501  34.078  33.792  1.00  0.00     0.031 C 
ATOM     64  C   UNL A   1      41.907  31.984  37.410  1.00  0.00     0.029 A 
ATOM     65  C   UNL A   1      41.044  32.154  36.339  1.00  0.00     0.049 A 
ATOM     66  H   UNL A   1      40.907  31.034  34.556  1.00  0.00     0.167 HD
ATOM     67  C   UNL A   1      39.202  33.242  35.084  1.00  0.00     0.074 A 
ATOM     68  C   UNL A   1      38.165  34.241  34.928  1.00  0.00     0.031 C 
ATOM     69  C   UNL A   1      40.007  33.141  36.172  1.00  0.00     0.031 A 
BRANCH  56  70
ATOM     70  C   UNL A   1      44.087  28.494  35.870  1.00  0.00    -0.014 A 
ATOM     71  C   UNL A   1      45.440  28.830  35.671  1.00  0.00     0.010 A 
ATOM     72  C   UNL A   1      43.771  27.420  36.722  1.00  0.00     0.010 A 
ATOM     73  C   UNL A   1      46.454  28.075  36.265  1.00  0.00     0.020 A 
ATOM     74  C   UNL A   1      44.782  26.684  37.348  1.00  0.00     0.020 A 
ATOM     75  C   UNL A   1      46.118  27.003  37.096  1.00  0.00     0.054 A 
BRANCH  75  76
ATOM     76  S   UNL A   1      47.456  26.043  37.857  1.00  0.00     0.124 S 
ATOM     77  O   UNL A   1      48.137  27.058  38.657  1.00  0.00    -0.237 OA
ATOM     78  O   UNL A   1      46.729  25.029  38.617  1.00  0.00    -0.237 OA
ATOM     79  O   UNL A   1      48.214  25.537  36.716  1.00  0.00    -0.744 OA
ENDBRANCH  75  76
ENDBRANCH  56  70
BRANCH  57  80
ATOM     80  C   UNL A   1      36.686  33.244  31.101  1.00  0.00    -0.014 A 
ATOM     81  C   UNL A   1      36.913  33.833  29.844  1.00  0.00     0.010 A 
ATOM     82  C   UNL A   1      35.403  33.326  31.671  1.00  0.00     0.010 A 
ATOM     83  C   UNL A   1      35.882  34.503  29.179  1.00  0.00     0.020 A 
ATOM     84  C   UNL A   1      34.362  33.969  30.995  1.00  0.00     0.020 A 
ATOM     85  C   UNL A   1      34.611  34.562  29.756  1.00  0.00     0.054 A 
BRANCH  85  86
ATOM     86  S   UNL A   1      33.275  35.388  28.846  1.00  0.00     0.124 S 
ATOM     87  O   UNL A   1      34.010  36.362  28.046  1.00  0.00    -0.237 OA
ATOM     88  O   UNL A   1      32.673  34.283  28.104  1.00  0.00    -0.237 OA
ATOM     89  O   UNL A   1      32.436  35.949  29.903  1.00  0.00    -0.744 OA
ENDBRANCH  85  86
ENDBRANCH  57  80
BRANCH  69  90
ATOM     90  C   UNL A   1      39.827  34.159  37.268  1.00  0.00    -0.014 A 
ATOM     91  C   UNL A   1      39.072  33.873  38.419  1.00  0.00     0.010 A 
ATOM     92  C   UNL A   1      40.474  35.405  37.166  1.00  0.00     0.010 A 
ATOM     93  C   UNL A   1      38.942  34.826  39.433  1.00  0.00     0.020 A 
ATOM     94  C   UNL A   1      40.374  36.348  38.192  1.00  0.00     0.020 A 
ATOM     95  C   UNL A   1      39.596  36.057  39.314  1.00  0.00     0.054 A 
BRANCH  95  96
ATOM     96  S   UNL A   1      39.450  37.257  40.665  1.00  0.00     0.124 S 
ATOM     97  O   UNL A   1      40.849  37.517  40.993  1.00  0.00    -0.237 OA
ATOM     98  O   UNL A   1      38.737  38.365  40.033  1.00  0.00    -0.237 OA
ATOM     99  O   UNL A   1      38.693  36.540  41.688  1.00  0.00    -0.744 OA
ENDBRANCH  95  96
ENDBRANCH  69  90
ENDBRANCH  43  44
ENDBRANCH  35  38
ENDBRANCH  33  34
ENDBRANCH  32  33
ENDBRANCH   1  32
TORSDOF 17
ENDMDL
MODEL 2
REMARK VINA RESULT:     -12.2      6.159     11.998
REMARK SMILES Cc1nc(-c2ccc3c(c2)CCN3S(=O)(=O)c2ccc(F)c(C(=O)NCCCCNC(=O)c3ccc(-c4c5nc(c(-c6ccc(S(=O)(=O)[O-])cc6)c6ccc([nH]6)c(-c6ccc(S(=O)(=O)[O-])cc6)c6nc(c(-c7ccc(S(=O)(=O)[O-])cc7)c7ccc4[nH]7)C=C6)C=C5)cc3)c2)cs1
REMARK SMILES IDX 27 1 26 2 25 3 23 4 24 5 22 7 17 8 18 9 93 10 19 11 20 12
REMARK SMILES IDX 21 13 14 14 15 15 16 16 13 17 5 18 6 19 10 20 7 21 9 22 8 23
REMARK SMILES IDX 11 24 12 25 4 26 1 27 2 28 3 29 95 30 94 31 28 32 29 33
REMARK SMILES IDX 30 34 31 35 32 37 33 38 34 39 92 40 35 41 91 42 36 43 37 44
REMARK SMILES IDX 38 45 85 46 39 47 90 48 84 49 86 50 40 51 89 52 83 53 82 54
REMARK SMILES IDX 41 56 71 57 52 58 70 59 53 60 56 61 69 62 87 63 54 64 55 65
REMARK SMILES IDX 68 67 88 68 57 69 42 70 43 71 51 72 44 73 50 74 45 75 46 76
REMARK SMILES IDX 47 77 48 78 49 79 72 80 73 81 81 82 74 83 80 84 75 85 76 86
REMARK SMILES IDX 77 87 78 88 79 89 58 90 59 91 67 92 60 93 66 94 61 95 62 96
REMARK SMILES IDX 63 97 64 98 65 99
REMARK H PARENT 25 6 30 36 86 55 56 66
REMARK Flexibility Score: inf
ROOT
ATOM      1  C   UNL A   1      35.470  30.093  27.764  1.00  0.00     0.023 C 
ENDROOT
BRANCH   1   2
ATOM      2  C   UNL A   1      34.558  29.459  26.726  1.00  0.00     0.116 C 
BRANCH   2   3
ATOM      3  N   UNL A   1      33.364  30.217  26.397  1.00  0.00    -0.352 N 
ATOM      4  C   UNL A   1      32.327  29.954  25.526  1.00  0.00     0.254 C 
ATOM      5  O   UNL A   1      31.386  30.749  25.497  1.00  0.00    -0.269 OA
ATOM      6  H   UNL A   1      33.278  31.070  26.880  1.00  0.00     0.163 HD
BRANCH   4   7
ATOM      7  C   UNL A   1      32.316  28.816  24.563  1.00  0.00     0.076 A 
ATOM      8  C   UNL A   1      31.537  26.584  24.014  1.00  0.00     0.089 A 
ATOM      9  C   UNL A   1      32.036  26.710  22.713  1.00  0.00     0.025 A 
ATOM     10  C   UNL A   1      31.582  27.662  24.909  1.00  0.00     0.039 A 
ATOM     11  C   UNL A   1      32.830  27.803  22.407  1.00  0.00     0.041 A 
ATOM     12  C   UNL A   1      33.045  28.784  23.373  1.00  0.00     0.136 A 
ATOM     13  F   UNL A   1      34.078  29.610  23.158  1.00  0.00    -0.206 F 
BRANCH   8  14
ATOM     14  S   UNL A   1      30.976  24.977  24.511  1.00  0.00     0.264 S 
ATOM     15  O   UNL A   1      30.349  24.388  23.343  1.00  0.00    -0.201 OA
ATOM     16  O   UNL A   1      30.214  25.123  25.736  1.00  0.00    -0.201 OA
BRANCH  14  17
ATOM     17  N   UNL A   1      32.373  24.049  24.894  1.00  0.00    -0.266 N 
ATOM     18  C   UNL A   1      33.006  19.864  24.955  1.00  0.00     0.001 A 
ATOM     19  C   UNL A   1      32.365  20.417  23.837  1.00  0.00     0.012 A 
ATOM     20  C   UNL A   1      33.423  20.714  25.989  1.00  0.00     0.016 A 
ATOM     21  C   UNL A   1      32.120  21.791  23.755  1.00  0.00     0.028 A 
ATOM     22  C   UNL A   1      33.141  22.079  25.892  1.00  0.00    -0.021 A 
ATOM     23  C   UNL A   1      32.424  22.613  24.823  1.00  0.00     0.055 A 
ATOM     24  C   UNL A   1      33.702  23.172  26.746  1.00  0.00     0.060 C 
ATOM     25  C   UNL A   1      32.926  24.404  26.255  1.00  0.00     0.140 C 
BRANCH  18  26
ATOM     26  C   UNL A   1      33.324  18.444  24.936  1.00  0.00     0.081 A 
ATOM     27  C   UNL A   1      32.202  15.075  25.785  1.00  0.00     0.079 C 
ATOM     28  C   UNL A   1      32.917  16.305  25.348  1.00  0.00     0.090 A 
ATOM     29  N   UNL A   1      32.430  17.521  25.455  1.00  0.00    -0.242 NA
ATOM     30  S   UNL A   1      34.487  16.202  24.654  1.00  0.00    -0.127 S 
ATOM     31  C   UNL A   1      34.504  17.910  24.465  1.00  0.00     0.095 A 
ENDBRANCH  18  26
ENDBRANCH  14  17
ENDBRANCH   8  14
ENDBRANCH   4   7
ENDBRANCH   2   3
ENDBRANCH   1   2
BRANCH   1  32
ATOM     32  C   UNL A   1      35.430  31.607  27.881  1.00  0.00     0.023 C 
BRANCH  32  33
ATOM     33  C   UNL A   1      36.080  32.198  29.125  1.00  0.00     0.116 C 
BRANCH  33  34
ATOM     34  N   UNL A   1      35.843  31.430  30.342  1.00  0.00    -0.352 N 
ATOM     35  C   UNL A   1      36.694  30.586  31.019  1.00  0.00     0.251 C 
ATOM     36  H   UNL A   1      34.947  31.530  30.736  1.00  0.00     0.163 HD
ATOM     37  O   UNL A   1      36.290  29.950  31.990  1.00  0.00    -0.269 OA
BRANCH  35  38
ATOM     38  C   UNL A   1      38.084  30.419  30.545  1.00  0.00     0.039 A 
ATOM     39  C   UNL A   1      39.083  30.095  31.466  1.00  0.00     0.014 A 
ATOM     40  C   UNL A   1      38.385  30.519  29.185  1.00  0.00     0.014 A 
ATOM     41  C   UNL A   1      40.365  29.778  31.008  1.00  0.00     0.010 A 
ATOM     42  C   UNL A   1      39.630  30.108  28.725  1.00  0.00     0.010 A 
ATOM     43  C   UNL A   1      40.635  29.732  29.630  1.00  0.00    -0.014 A 
BRANCH  43  44
ATOM     44  C   UNL A   1      41.956  29.290  29.112  1.00  0.00     0.031 A 
ATOM     45  C   UNL A   1      43.091  30.275  29.011  1.00  0.00     0.074 A 
ATOM     46  C   UNL A   1      42.116  28.027  28.669  1.00  0.00     0.049 A 
ATOM     47  N   UNL A   1      44.297  30.096  28.535  1.00  0.00    -0.248 NA
ATOM     48  C   UNL A   1      42.828  31.645  29.482  1.00  0.00     0.031 C 
ATOM     49  C   UNL A   1      41.084  26.988  28.674  1.00  0.00     0.029 A 
ATOM     50  N   UNL A   1      43.210  27.401  28.126  1.00  0.00    -0.354 N 
ATOM     51  C   UNL A   1      44.928  31.331  28.638  1.00  0.00     0.074 A 
ATOM     52  C   UNL A   1      43.953  32.263  29.157  1.00  0.00     0.031 C 
ATOM     53  C   UNL A   1      41.605  25.846  28.197  1.00  0.00     0.029 A 
ATOM     54  C   UNL A   1      42.992  26.081  27.807  1.00  0.00     0.049 A 
ATOM     55  H   UNL A   1      44.071  27.854  27.978  1.00  0.00     0.167 HD
ATOM     56  C   UNL A   1      46.211  31.656  28.350  1.00  0.00     0.031 A 
ATOM     57  C   UNL A   1      43.812  25.163  27.259  1.00  0.00     0.031 A 
ATOM     58  C   UNL A   1      47.180  30.727  27.833  1.00  0.00     0.049 A 
ATOM     59  C   UNL A   1      45.223  25.555  26.915  1.00  0.00     0.074 A 
ATOM     60  C   UNL A   1      48.516  30.944  27.549  1.00  0.00     0.029 A 
ATOM     61  N   UNL A   1      46.914  29.402  27.515  1.00  0.00    -0.354 N 
ATOM     62  N   UNL A   1      45.821  26.711  27.078  1.00  0.00    -0.248 NA
ATOM     63  C   UNL A   1      46.074  24.515  26.322  1.00  0.00     0.031 C 
ATOM     64  C   UNL A   1      49.043  29.770  27.003  1.00  0.00     0.029 A 
ATOM     65  C   UNL A   1      48.055  28.798  27.013  1.00  0.00     0.049 A 
ATOM     66  H   UNL A   1      46.043  28.958  27.630  1.00  0.00     0.167 HD
ATOM     67  C   UNL A   1      47.127  26.528  26.638  1.00  0.00     0.074 A 
ATOM     68  C   UNL A   1      47.235  25.147  26.215  1.00  0.00     0.031 C 
ATOM     69  C   UNL A   1      48.147  27.421  26.593  1.00  0.00     0.031 A 
BRANCH  56  70
ATOM     70  C   UNL A   1      46.633  33.084  28.587  1.00  0.00    -0.014 A 
ATOM     71  C   UNL A   1      46.987  33.535  29.874  1.00  0.00     0.010 A 
ATOM     72  C   UNL A   1      46.692  33.986  27.510  1.00  0.00     0.010 A 
ATOM     73  C   UNL A   1      47.336  34.871  30.086  1.00  0.00     0.020 A 
ATOM     74  C   UNL A   1      47.075  35.316  27.712  1.00  0.00     0.020 A 
ATOM     75  C   UNL A   1      47.373  35.754  29.004  1.00  0.00     0.054 A 
BRANCH  75  76
ATOM     76  S   UNL A   1      47.835  37.481  29.310  1.00  0.00     0.124 S 
ATOM     77  O   UNL A   1      46.581  38.179  29.042  1.00  0.00    -0.237 OA
ATOM     78  O   UNL A   1      48.253  37.457  30.710  1.00  0.00    -0.237 OA
ATOM     79  O   UNL A   1      48.905  37.731  28.348  1.00  0.00    -0.744 OA
ENDBRANCH  75  76
ENDBRANCH  56  70
BRANCH  57  80
ATOM     80  C   UNL A   1      43.326  23.772  27.028  1.00  0.00    -0.014 A 
ATOM     81  C   UNL A   1      42.951  23.355  25.738  1.00  0.00     0.010 A 
ATOM     82  C   UNL A   1      43.251  22.853  28.090  1.00  0.00     0.010 A 
ATOM     83  C   UNL A   1      42.497  22.051  25.518  1.00  0.00     0.020 A 
ATOM     84  C   UNL A   1      42.826  21.540  27.869  1.00  0.00     0.020 A 
ATOM     85  C   UNL A   1      42.442  21.150  26.585  1.00  0.00     0.054 A 
BRANCH  85  86
ATOM     86  S   UNL A   1      41.903  19.447  26.263  1.00  0.00     0.124 S 
ATOM     87  O   UNL A   1      42.372  18.748  27.454  1.00  0.00    -0.237 OA
ATOM     88  O   UNL A   1      40.454  19.596  26.144  1.00  0.00    -0.237 OA
ATOM     89  O   UNL A   1      42.588  19.100  25.020  1.00  0.00    -0.744 OA
ENDBRANCH  85  86
ENDBRANCH  57  80
BRANCH  69  90
ATOM     90  C   UNL A   1      49.484  26.928  26.105  1.00  0.00    -0.014 A 
ATOM     91  C   UNL A   1      49.884  27.095  24.766  1.00  0.00     0.010 A 
ATOM     92  C   UNL A   1      50.378  26.336  27.017  1.00  0.00     0.010 A 
ATOM     93  C   UNL A   1      51.141  26.651  24.345  1.00  0.00     0.020 A 
ATOM     94  C   UNL A   1      51.647  25.921  26.607  1.00  0.00     0.020 A 
ATOM     95  C   UNL A   1      52.015  26.068  25.269  1.00  0.00     0.054 A 
BRANCH  95  96
ATOM     96  S   UNL A   1      53.657  25.544  24.705  1.00  0.00     0.124 S 
ATOM     97  O   UNL A   1      53.610  24.102  24.931  1.00  0.00    -0.237 OA
ATOM     98  O   UNL A   1      53.662  25.961  23.305  1.00  0.00    -0.237 OA
ATOM     99  O   UNL A   1      54.574  26.282  25.571  1.00  0.00    -0.744 OA
ENDBRANCH  95  96
ENDBRANCH  69  90
ENDBRANCH  43  44
ENDBRANCH  35  38
ENDBRANCH  33  34
ENDBRANCH  32  33
ENDBRANCH   1  32
TORSDOF 17
ENDMDL
MODEL 3
REMARK VINA RESULT:     -11.8      6.237     11.620
REMARK SMILES Cc1nc(-c2ccc3c(c2)CCN3S(=O)(=O)c2ccc(F)c(C(=O)NCCCCNC(=O)c3ccc(-c4c5nc(c(-c6ccc(S(=O)(=O)[O-])cc6)c6ccc([nH]6)c(-c6ccc(S(=O)(=O)[O-])cc6)c6nc(c(-c7ccc(S(=O)(=O)[O-])cc7)c7ccc4[nH]7)C=C6)C=C5)cc3)c2)cs1
REMARK SMILES IDX 27 1 26 2 25 3 23 4 24 5 22 7 17 8 18 9 93 10 19 11 20 12
REMARK SMILES IDX 21 13 14 14 15 15 16 16 13 17 5 18 6 19 10 20 7 21 9 22 8 23
REMARK SMILES IDX 11 24 12 25 4 26 1 27 2 28 3 29 95 30 94 31 28 32 29 33
REMARK SMILES IDX 30 34 31 35 32 37 33 38 34 39 92 40 35 41 91 42 36 43 37 44
REMARK SMILES IDX 38 45 85 46 39 47 90 48 84 49 86 50 40 51 89 52 83 53 82 54
REMARK SMILES IDX 41 56 71 57 52 58 70 59 53 60 56 61 69 62 87 63 54 64 55 65
REMARK SMILES IDX 68 67 88 68 57 69 42 70 43 71 51 72 44 73 50 74 45 75 46 76
REMARK SMILES IDX 47 77 48 78 49 79 72 80 73 81 81 82 74 83 80 84 75 85 76 86
REMARK SMILES IDX 77 87 78 88 79 89 58 90 59 91 67 92 60 93 66 94 61 95 62 96
REMARK SMILES IDX 63 97 64 98 65 99
REMARK H PARENT 25 6 30 36 86 55 56 66
REMARK Flexibility Score: inf
ROOT
ATOM      1  C   UNL A   1      35.183  29.908  27.806  1.00  0.00     0.023 C 
ENDROOT
BRANCH   1   2
ATOM      2  C   UNL A   1      34.128  29.227  26.948  1.00  0.00     0.116 C 
BRANCH   2   3
ATOM      3  N   UNL A   1      33.043  30.079  26.496  1.00  0.00    -0.352 N 
ATOM      4  C   UNL A   1      32.104  29.909  25.500  1.00  0.00     0.254 C 
ATOM      5  O   UNL A   1      31.235  30.774  25.378  1.00  0.00    -0.269 OA
ATOM      6  H   UNL A   1      32.963  30.928  26.986  1.00  0.00     0.163 HD
BRANCH   4   7
ATOM      7  C   UNL A   1      32.125  28.790  24.516  1.00  0.00     0.076 A 
ATOM      8  C   UNL A   1      31.379  26.563  23.906  1.00  0.00     0.089 A 
ATOM      9  C   UNL A   1      31.908  26.718  22.620  1.00  0.00     0.025 A 
ATOM     10  C   UNL A   1      31.393  27.624  24.822  1.00  0.00     0.039 A 
ATOM     11  C   UNL A   1      32.699  27.824  22.354  1.00  0.00     0.041 A 
ATOM     12  C   UNL A   1      32.883  28.788  23.343  1.00  0.00     0.136 A 
ATOM     13  F   UNL A   1      33.914  29.626  23.168  1.00  0.00    -0.206 F 
BRANCH   8  14
ATOM     14  S   UNL A   1      30.821  24.942  24.359  1.00  0.00     0.264 S 
ATOM     15  O   UNL A   1      30.286  24.346  23.149  1.00  0.00    -0.201 OA
ATOM     16  O   UNL A   1      29.976  25.066  25.531  1.00  0.00    -0.201 OA
BRANCH  14  17
ATOM     17  N   UNL A   1      32.209  24.041  24.830  1.00  0.00    -0.266 N 
ATOM     18  C   UNL A   1      32.948  19.873  24.858  1.00  0.00     0.001 A 
ATOM     19  C   UNL A   1      32.379  20.434  23.706  1.00  0.00     0.012 A 
ATOM     20  C   UNL A   1      33.261  20.711  25.938  1.00  0.00     0.016 A 
ATOM     21  C   UNL A   1      32.105  21.803  23.631  1.00  0.00     0.028 A 
ATOM     22  C   UNL A   1      32.950  22.071  25.846  1.00  0.00    -0.021 A 
ATOM     23  C   UNL A   1      32.304  22.609  24.735  1.00  0.00     0.055 A 
ATOM     24  C   UNL A   1      33.415  23.159  26.762  1.00  0.00     0.060 C 
ATOM     25  C   UNL A   1      32.647  24.381  26.236  1.00  0.00     0.140 C 
BRANCH  18  26
ATOM     26  C   UNL A   1      33.304  18.463  24.837  1.00  0.00     0.081 A 
ATOM     27  C   UNL A   1      32.325  15.074  25.780  1.00  0.00     0.079 C 
ATOM     28  C   UNL A   1      32.980  16.318  25.292  1.00  0.00     0.090 A 
ATOM     29  N   UNL A   1      32.466  17.522  25.414  1.00  0.00    -0.242 NA
ATOM     30  S   UNL A   1      34.512  16.250  24.514  1.00  0.00    -0.127 S 
ATOM     31  C   UNL A   1      34.472  17.956  24.307  1.00  0.00     0.095 A 
ENDBRANCH  18  26
ENDBRANCH  14  17
ENDBRANCH   8  14
ENDBRANCH   4   7
ENDBRANCH   2   3
ENDBRANCH   1   2
BRANCH   1  32
ATOM     32  C   UNL A   1      35.033  31.405  28.018  1.00  0.00     0.023 C 
BRANCH  32  33
ATOM     33  C   UNL A   1      35.789  31.990  29.204  1.00  0.00     0.116 C 
BRANCH  33  34
ATOM     34  N   UNL A   1      35.698  31.191  30.420  1.00  0.00    -0.352 N 
ATOM     35  C   UNL A   1      36.653  30.397  31.015  1.00  0.00     0.251 C 
ATOM     36  H   UNL A   1      34.830  31.225  30.883  1.00  0.00     0.163 HD
ATOM     37  O   UNL A   1      36.368  29.721  32.000  1.00  0.00    -0.269 OA
BRANCH  35  38
ATOM     38  C   UNL A   1      38.010  30.331  30.432  1.00  0.00     0.039 A 
ATOM     39  C   UNL A   1      39.118  30.461  31.273  1.00  0.00     0.014 A 
ATOM     40  C   UNL A   1      38.185  30.077  29.071  1.00  0.00     0.014 A 
ATOM     41  C   UNL A   1      40.400  30.241  30.762  1.00  0.00     0.010 A 
ATOM     42  C   UNL A   1      39.450  29.761  28.588  1.00  0.00     0.010 A 
ATOM     43  C   UNL A   1      40.572  29.839  29.427  1.00  0.00    -0.014 A 
BRANCH  43  44
ATOM     44  C   UNL A   1      41.912  29.490  28.888  1.00  0.00     0.031 A 
ATOM     45  C   UNL A   1      42.205  28.077  28.457  1.00  0.00     0.074 A 
ATOM     46  C   UNL A   1      42.885  30.423  28.849  1.00  0.00     0.049 A 
ATOM     47  N   UNL A   1      43.325  27.565  28.015  1.00  0.00    -0.248 NA
ATOM     48  C   UNL A   1      41.102  27.107  28.563  1.00  0.00     0.031 C 
ATOM     49  C   UNL A   1      42.741  31.817  29.274  1.00  0.00     0.029 A 
ATOM     50  N   UNL A   1      44.190  30.339  28.432  1.00  0.00    -0.354 N 
ATOM     51  C   UNL A   1      43.065  26.216  27.803  1.00  0.00     0.074 A 
ATOM     52  C   UNL A   1      41.704  25.976  28.228  1.00  0.00     0.031 C 
ATOM     53  C   UNL A   1      43.898  32.465  29.059  1.00  0.00     0.029 A 
ATOM     54  C   UNL A   1      44.879  31.525  28.526  1.00  0.00     0.049 A 
ATOM     55  H   UNL A   1      44.595  29.507  28.096  1.00  0.00     0.167 HD
ATOM     56  C   UNL A   1      43.875  25.266  27.279  1.00  0.00     0.031 A 
ATOM     57  C   UNL A   1      46.158  31.824  28.224  1.00  0.00     0.031 A 
ATOM     58  C   UNL A   1      45.229  25.507  26.858  1.00  0.00     0.049 A 
ATOM     59  C   UNL A   1      47.052  30.744  27.676  1.00  0.00     0.074 A 
ATOM     60  C   UNL A   1      46.120  24.625  26.274  1.00  0.00     0.029 A 
ATOM     61  N   UNL A   1      45.892  26.720  26.980  1.00  0.00    -0.354 N 
ATOM     62  N   UNL A   1      46.768  29.489  27.423  1.00  0.00    -0.248 NA
ATOM     63  C   UNL A   1      48.435  31.125  27.361  1.00  0.00     0.031 C 
ATOM     64  C   UNL A   1      47.339  25.286  26.099  1.00  0.00     0.029 A 
ATOM     65  C   UNL A   1      47.188  26.602  26.508  1.00  0.00     0.049 A 
ATOM     66  H   UNL A   1      45.498  27.544  27.349  1.00  0.00     0.167 HD
ATOM     67  C   UNL A   1      47.929  28.938  26.890  1.00  0.00     0.074 A 
ATOM     68  C   UNL A   1      48.911  30.001  26.844  1.00  0.00     0.031 C 
ATOM     69  C   UNL A   1      48.158  27.668  26.471  1.00  0.00     0.031 A 
BRANCH  56  70
ATOM     70  C   UNL A   1      43.310  23.875  27.140  1.00  0.00    -0.014 A 
ATOM     71  C   UNL A   1      43.168  23.032  28.259  1.00  0.00     0.010 A 
ATOM     72  C   UNL A   1      42.901  23.406  25.879  1.00  0.00     0.010 A 
ATOM     73  C   UNL A   1      42.682  21.730  28.110  1.00  0.00     0.020 A 
ATOM     74  C   UNL A   1      42.380  22.117  25.730  1.00  0.00     0.020 A 
ATOM     75  C   UNL A   1      42.295  21.280  26.845  1.00  0.00     0.054 A 
BRANCH  75  76
ATOM     76  S   UNL A   1      41.664  19.588  26.683  1.00  0.00     0.124 S 
ATOM     77  O   UNL A   1      40.262  19.752  27.058  1.00  0.00    -0.237 OA
ATOM     78  O   UNL A   1      41.905  19.290  25.273  1.00  0.00    -0.237 OA
ATOM     79  O   UNL A   1      42.475  18.821  27.625  1.00  0.00    -0.744 OA
ENDBRANCH  75  76
ENDBRANCH  56  70
BRANCH  57  80
ATOM     80  C   UNL A   1      46.663  33.215  28.407  1.00  0.00    -0.014 A 
ATOM     81  C   UNL A   1      46.559  34.151  27.362  1.00  0.00     0.010 A 
ATOM     82  C   UNL A   1      47.234  33.615  29.628  1.00  0.00     0.010 A 
ATOM     83  C   UNL A   1      47.031  35.457  27.531  1.00  0.00     0.020 A 
ATOM     84  C   UNL A   1      47.679  34.928  29.811  1.00  0.00     0.020 A 
ATOM     85  C   UNL A   1      47.583  35.839  28.757  1.00  0.00     0.054 A 
BRANCH  85  86
ATOM     86  S   UNL A   1      48.136  37.554  28.969  1.00  0.00     0.124 S 
ATOM     87  O   UNL A   1      49.517  37.378  29.403  1.00  0.00    -0.237 OA
ATOM     88  O   UNL A   1      47.958  38.108  27.629  1.00  0.00    -0.237 OA
ATOM     89  O   UNL A   1      47.224  38.085  29.979  1.00  0.00    -0.744 OA
ENDBRANCH  85  86
ENDBRANCH  57  80
BRANCH  69  90
ATOM     90  C   UNL A   1      49.513  27.361  25.889  1.00  0.00    -0.014 A 
ATOM     91  C   UNL A   1      49.783  27.545  24.520  1.00  0.00     0.010 A 
ATOM     92  C   UNL A   1      50.550  26.935  26.740  1.00  0.00     0.010 A 
ATOM     93  C   UNL A   1      51.057  27.277  24.011  1.00  0.00     0.020 A 
ATOM     94  C   UNL A   1      51.833  26.699  26.240  1.00  0.00     0.020 A 
ATOM     95  C   UNL A   1      52.074  26.858  24.874  1.00  0.00     0.054 A 
BRANCH  95  96
ATOM     96  S   UNL A   1      53.729  26.563  24.195  1.00  0.00     0.124 S 
ATOM     97  O   UNL A   1      54.086  27.883  23.681  1.00  0.00    -0.237 OA
ATOM     98  O   UNL A   1      54.482  26.121  25.367  1.00  0.00    -0.237 OA
ATOM     99  O   UNL A   1      53.511  25.537  23.179  1.00  0.00    -0.744 OA
ENDBRANCH  95  96
ENDBRANCH  69  90
ENDBRANCH  43  44
ENDBRANCH  35  38
ENDBRANCH  33  34
ENDBRANCH  32  33
ENDBRANCH   1  32
TORSDOF 17
ENDMDL
