MODEL 1
REMARK VINA RESULT:     -10.7      0.000      0.000
REMARK SMILES O=C(COc1ccc2c(c1)O/C(=C\c1cccs1)C2=O)NCCCCNC(=O)c1ccc(-c2c3nc(c(-c4ccc(S(=O)(=O)[O-])cc4)c4ccc([nH]4)c(-c4ccc(S(=O)(=O)[O-])cc4)c4nc(c(-c5ccc(S(=O)(=O)[O-])cc5)c5ccc2[nH]5)C=C4)C=C3)cc1
REMARK SMILES IDX 23 1 22 2 21 3 1 4 2 5 3 7 4 8 5 9 6 10 10 11 7 12 9 13 8 14
REMARK SMILES IDX 11 15 19 16 12 17 20 18 13 19 14 20 15 21 18 22 16 23 17 24
REMARK SMILES IDX 24 25 25 26 26 27 27 28 28 30 29 31 30 32 88 33 31 34 87 35
REMARK SMILES IDX 32 36 33 37 34 38 81 39 35 40 86 41 80 42 82 43 36 44 85 45
REMARK SMILES IDX 79 46 78 47 37 49 67 50 48 51 66 52 49 53 52 54 65 55 83 56
REMARK SMILES IDX 50 57 51 58 64 60 84 61 53 62 38 63 39 64 47 65 40 66 46 67
REMARK SMILES IDX 41 68 42 69 43 70 44 71 45 72 68 73 69 74 77 75 70 76 76 77
REMARK SMILES IDX 71 78 72 79 73 80 74 81 75 82 54 83 55 84 63 85 56 86 62 87
REMARK SMILES IDX 57 88 58 89 59 90 60 91 61 92
REMARK H PARENT 21 6 26 29 82 48 52 59
REMARK Flexibility Score: inf
ROOT
ATOM      1  C   UNL A   1      41.162  20.726  26.989  1.00  0.00     0.023 C 
ENDROOT
BRANCH   1   2
ATOM      2  C   UNL A   1      40.898  21.989  26.179  1.00  0.00     0.116 C 
BRANCH   2   3
ATOM      3  N   UNL A   1      39.489  22.271  26.002  1.00  0.00    -0.353 N 
ATOM      4  O   UNL A   1      39.407  24.093  27.407  1.00  0.00    -0.271 OA
ATOM      5  C   UNL A   1      38.882  23.381  26.557  1.00  0.00     0.257 C 
ATOM      6  H   UNL A   1      38.943  21.649  25.468  1.00  0.00     0.163 HD
BRANCH   5   7
ATOM      7  C   UNL A   1      37.491  23.674  25.985  1.00  0.00     0.329 C 
BRANCH   7   8
ATOM      8  O   UNL A   1      36.675  22.518  25.773  1.00  0.00    -0.484 OA
BRANCH   8   9
ATOM      9  C   UNL A   1      35.336  22.761  25.963  1.00  0.00     0.123 A 
ATOM     10  C   UNL A   1      34.554  21.926  26.791  1.00  0.00     0.047 A 
ATOM     11  C   UNL A   1      34.804  23.935  25.421  1.00  0.00     0.094 A 
ATOM     12  C   UNL A   1      33.219  22.223  27.064  1.00  0.00     0.020 A 
ATOM     13  C   UNL A   1      33.482  24.217  25.701  1.00  0.00     0.142 A 
ATOM     14  C   UNL A   1      32.716  23.377  26.508  1.00  0.00     0.069 A 
ATOM     15  O   UNL A   1      32.784  25.319  25.267  1.00  0.00    -0.452 OA
ATOM     16  C   UNL A   1      31.398  23.975  26.643  1.00  0.00     0.232 C 
ATOM     17  C   UNL A   1      31.517  25.216  25.840  1.00  0.00     0.176 C 
ATOM     18  O   UNL A   1      30.443  23.544  27.254  1.00  0.00    -0.285 OA
ATOM     19  C   UNL A   1      30.528  26.111  25.742  1.00  0.00     0.070 C 
BRANCH  19  20
ATOM     20  C   UNL A   1      30.678  27.283  24.955  1.00  0.00     0.031 A 
ATOM     21  C   UNL A   1      31.391  28.436  25.231  1.00  0.00     0.020 A 
ATOM     22  S   UNL A   1      29.913  27.390  23.421  1.00  0.00    -0.144 S 
ATOM     23  C   UNL A   1      31.267  29.421  24.211  1.00  0.00     0.012 A 
ATOM     24  C   UNL A   1      30.468  28.988  23.178  1.00  0.00     0.065 A 
ENDBRANCH  19  20
ENDBRANCH   8   9
ENDBRANCH   7   8
ENDBRANCH   5   7
ENDBRANCH   2   3
ENDBRANCH   1   2
BRANCH   1  25
ATOM     25  C   UNL A   1      41.553  19.502  26.161  1.00  0.00     0.023 C 
BRANCH  25  26
ATOM     26  C   UNL A   1      42.971  18.982  26.380  1.00  0.00     0.116 C 
BRANCH  26  27
ATOM     27  N   UNL A   1      43.720  18.836  25.141  1.00  0.00    -0.352 N 
ATOM     28  C   UNL A   1      44.348  19.795  24.380  1.00  0.00     0.251 C 
ATOM     29  H   UNL A   1      43.787  17.915  24.797  1.00  0.00     0.163 HD
ATOM     30  O   UNL A   1      44.803  19.495  23.279  1.00  0.00    -0.269 OA
BRANCH  28  31
ATOM     31  C   UNL A   1      44.453  21.189  24.869  1.00  0.00     0.039 A 
ATOM     32  C   UNL A   1      45.087  21.429  26.091  1.00  0.00     0.014 A 
ATOM     33  C   UNL A   1      43.934  22.256  24.132  1.00  0.00     0.014 A 
ATOM     34  C   UNL A   1      45.266  22.743  26.535  1.00  0.00     0.010 A 
ATOM     35  C   UNL A   1      44.183  23.567  24.535  1.00  0.00     0.010 A 
ATOM     36  C   UNL A   1      44.854  23.826  25.741  1.00  0.00    -0.014 A 
BRANCH  36  37
ATOM     37  C   UNL A   1      45.130  25.231  26.148  1.00  0.00     0.031 A 
ATOM     38  C   UNL A   1      46.527  25.787  26.075  1.00  0.00     0.074 A 
ATOM     39  C   UNL A   1      44.131  25.991  26.641  1.00  0.00     0.049 A 
ATOM     40  N   UNL A   1      46.965  26.967  26.436  1.00  0.00    -0.248 NA
ATOM     41  C   UNL A   1      47.573  24.895  25.549  1.00  0.00     0.031 C 
ATOM     42  C   UNL A   1      42.739  25.562  26.800  1.00  0.00     0.029 A 
ATOM     43  N   UNL A   1      44.132  27.284  27.105  1.00  0.00    -0.354 N 
ATOM     44  C   UNL A   1      48.334  26.955  26.191  1.00  0.00     0.074 A 
ATOM     45  C   UNL A   1      48.662  25.633  25.706  1.00  0.00     0.031 C 
ATOM     46  C   UNL A   1      42.019  26.579  27.299  1.00  0.00     0.029 A 
ATOM     47  C   UNL A   1      42.901  27.716  27.541  1.00  0.00     0.049 A 
ATOM     48  H   UNL A   1      44.938  27.849  27.123  1.00  0.00     0.167 HD
ATOM     49  C   UNL A   1      49.233  27.958  26.336  1.00  0.00     0.031 A 
ATOM     50  C   UNL A   1      42.521  28.889  28.087  1.00  0.00     0.031 A 
ATOM     51  C   UNL A   1      48.904  29.273  26.822  1.00  0.00     0.049 A 
ATOM     52  C   UNL A   1      43.543  29.980  28.268  1.00  0.00     0.074 A 
ATOM     53  C   UNL A   1      49.736  30.370  26.964  1.00  0.00     0.029 A 
ATOM     54  N   UNL A   1      47.646  29.669  27.254  1.00  0.00    -0.354 N 
ATOM     55  N   UNL A   1      44.821  29.968  27.970  1.00  0.00    -0.248 NA
ATOM     56  C   UNL A   1      43.070  31.244  28.847  1.00  0.00     0.031 C 
ATOM     57  C   UNL A   1      48.997  31.409  27.540  1.00  0.00     0.029 A 
ATOM     58  C   UNL A   1      47.687  30.984  27.688  1.00  0.00     0.049 A 
ATOM     59  H   UNL A   1      46.843  29.099  27.251  1.00  0.00     0.167 HD
ATOM     60  C   UNL A   1      45.297  31.233  28.299  1.00  0.00     0.074 A 
ATOM     61  C   UNL A   1      44.167  31.987  28.801  1.00  0.00     0.031 C 
ATOM     62  C   UNL A   1      46.556  31.725  28.191  1.00  0.00     0.031 A 
BRANCH  49  63
ATOM     63  C   UNL A   1      50.667  27.668  25.971  1.00  0.00    -0.014 A 
ATOM     64  C   UNL A   1      51.151  27.911  24.672  1.00  0.00     0.010 A 
ATOM     65  C   UNL A   1      51.556  27.184  26.948  1.00  0.00     0.010 A 
ATOM     66  C   UNL A   1      52.481  27.631  24.346  1.00  0.00     0.020 A 
ATOM     67  C   UNL A   1      52.895  26.935  26.636  1.00  0.00     0.020 A 
ATOM     68  C   UNL A   1      53.345  27.144  25.330  1.00  0.00     0.054 A 
BRANCH  68  69
ATOM     69  S   UNL A   1      55.069  26.807  24.882  1.00  0.00     0.124 S 
ATOM     70  O   UNL A   1      55.033  25.374  24.598  1.00  0.00    -0.237 OA
ATOM     71  O   UNL A   1      55.272  27.672  23.722  1.00  0.00    -0.237 OA
ATOM     72  O   UNL A   1      55.820  27.185  26.077  1.00  0.00    -0.744 OA
ENDBRANCH  68  69
ENDBRANCH  49  63
BRANCH  50  73
ATOM     73  C   UNL A   1      41.104  29.092  28.500  1.00  0.00    -0.014 A 
ATOM     74  C   UNL A   1      40.723  28.973  29.848  1.00  0.00     0.010 A 
ATOM     75  C   UNL A   1      40.127  29.420  27.541  1.00  0.00     0.010 A 
ATOM     76  C   UNL A   1      39.390  29.160  30.227  1.00  0.00     0.020 A 
ATOM     77  C   UNL A   1      38.800  29.640  27.921  1.00  0.00     0.020 A 
ATOM     78  C   UNL A   1      38.438  29.499  29.261  1.00  0.00     0.054 A 
BRANCH  78  79
ATOM     79  S   UNL A   1      36.726  29.792  29.785  1.00  0.00     0.124 S 
ATOM     80  O   UNL A   1      36.628  28.966  30.983  1.00  0.00    -0.237 OA
ATOM     81  O   UNL A   1      36.709  31.236  30.006  1.00  0.00    -0.237 OA
ATOM     82  O   UNL A   1      35.936  29.335  28.643  1.00  0.00    -0.744 OA
ENDBRANCH  78  79
ENDBRANCH  50  73
BRANCH  62  83
ATOM     83  C   UNL A   1      46.780  33.162  28.588  1.00  0.00    -0.014 A 
ATOM     84  C   UNL A   1      46.610  34.213  27.669  1.00  0.00     0.010 A 
ATOM     85  C   UNL A   1      47.113  33.468  29.921  1.00  0.00     0.010 A 
ATOM     86  C   UNL A   1      46.801  35.540  28.068  1.00  0.00     0.020 A 
ATOM     87  C   UNL A   1      47.272  34.793  30.333  1.00  0.00     0.020 A 
ATOM     88  C   UNL A   1      47.129  35.821  29.398  1.00  0.00     0.054 A 
BRANCH  88  89
ATOM     89  S   UNL A   1      47.328  37.552  29.900  1.00  0.00     0.124 S 
ATOM     90  O   UNL A   1      46.758  37.548  31.245  1.00  0.00    -0.237 OA
ATOM     91  O   UNL A   1      48.776  37.741  29.830  1.00  0.00    -0.237 OA
ATOM     92  O   UNL A   1      46.561  38.293  28.901  1.00  0.00    -0.744 OA
ENDBRANCH  88  89
ENDBRANCH  62  83
ENDBRANCH  36  37
ENDBRANCH  28  31
ENDBRANCH  26  27
ENDBRANCH  25  26
ENDBRANCH   1  25
TORSDOF 17
ENDMDL
MODEL 2
REMARK VINA RESULT:     -10.6      4.999     11.745
REMARK SMILES O=C(COc1ccc2c(c1)O/C(=C\c1cccs1)C2=O)NCCCCNC(=O)c1ccc(-c2c3nc(c(-c4ccc(S(=O)(=O)[O-])cc4)c4ccc([nH]4)c(-c4ccc(S(=O)(=O)[O-])cc4)c4nc(c(-c5ccc(S(=O)(=O)[O-])cc5)c5ccc2[nH]5)C=C4)C=C3)cc1
REMARK SMILES IDX 23 1 22 2 21 3 1 4 2 5 3 7 4 8 5 9 6 10 10 11 7 12 9 13 8 14
REMARK SMILES IDX 11 15 19 16 12 17 20 18 13 19 14 20 15 21 18 22 16 23 17 24
REMARK SMILES IDX 24 25 25 26 26 27 27 28 28 30 29 31 30 32 88 33 31 34 87 35
REMARK SMILES IDX 32 36 33 37 34 38 81 39 35 40 86 41 80 42 82 43 36 44 85 45
REMARK SMILES IDX 79 46 78 47 37 49 67 50 48 51 66 52 49 53 52 54 65 55 83 56
REMARK SMILES IDX 50 57 51 58 64 60 84 61 53 62 38 63 39 64 47 65 40 66 46 67
REMARK SMILES IDX 41 68 42 69 43 70 44 71 45 72 68 73 69 74 77 75 70 76 76 77
REMARK SMILES IDX 71 78 72 79 73 80 74 81 75 82 54 83 55 84 63 85 56 86 62 87
REMARK SMILES IDX 57 88 58 89 59 90 60 91 61 92
REMARK H PARENT 21 6 26 29 82 48 52 59
REMARK Flexibility Score: inf
ROOT
ATOM      1  C   UNL A   1      36.695  33.302  29.284  1.00  0.00     0.023 C 
ENDROOT
BRANCH   1   2
ATOM      2  C   UNL A   1      36.201  33.416  30.720  1.00  0.00     0.116 C 
BRANCH   2   3
ATOM      3  N   UNL A   1      37.233  33.155  31.702  1.00  0.00    -0.353 N 
ATOM      4  O   UNL A   1      35.839  32.308  33.328  1.00  0.00    -0.271 OA
ATOM      5  C   UNL A   1      36.970  32.515  32.898  1.00  0.00     0.257 C 
ATOM      6  H   UNL A   1      38.155  33.446  31.512  1.00  0.00     0.163 HD
BRANCH   5   7
ATOM      7  C   UNL A   1      38.228  32.042  33.634  1.00  0.00     0.329 C 
BRANCH   7   8
ATOM      8  O   UNL A   1      38.730  30.772  33.210  1.00  0.00    -0.484 OA
BRANCH   8   9
ATOM      9  C   UNL A   1      39.819  30.353  33.934  1.00  0.00     0.123 A 
ATOM     10  C   UNL A   1      40.280  31.085  35.050  1.00  0.00     0.047 A 
ATOM     11  C   UNL A   1      40.374  29.110  33.613  1.00  0.00     0.094 A 
ATOM     12  C   UNL A   1      41.324  30.613  35.844  1.00  0.00     0.020 A 
ATOM     13  C   UNL A   1      41.406  28.655  34.409  1.00  0.00     0.142 A 
ATOM     14  C   UNL A   1      41.861  29.394  35.500  1.00  0.00     0.069 A 
ATOM     15  O   UNL A   1      42.074  27.462  34.260  1.00  0.00    -0.452 OA
ATOM     16  C   UNL A   1      42.910  28.625  36.149  1.00  0.00     0.232 C 
ATOM     17  C   UNL A   1      42.982  27.401  35.315  1.00  0.00     0.176 C 
ATOM     18  O   UNL A   1      43.564  28.931  37.123  1.00  0.00    -0.285 OA
ATOM     19  C   UNL A   1      43.795  26.378  35.602  1.00  0.00     0.070 C 
BRANCH  19  20
ATOM     20  C   UNL A   1      43.842  25.227  34.773  1.00  0.00     0.031 A 
ATOM     21  C   UNL A   1      44.217  25.120  33.445  1.00  0.00     0.020 A 
ATOM     22  S   UNL A   1      43.397  23.694  35.406  1.00  0.00    -0.144 S 
ATOM     23  C   UNL A   1      44.089  23.796  32.938  1.00  0.00     0.012 A 
ATOM     24  C   UNL A   1      43.627  22.925  33.897  1.00  0.00     0.065 A 
ENDBRANCH  19  20
ENDBRANCH   8   9
ENDBRANCH   7   8
ENDBRANCH   5   7
ENDBRANCH   2   3
ENDBRANCH   1   2
BRANCH   1  25
ATOM     25  C   UNL A   1      35.616  32.945  28.260  1.00  0.00     0.023 C 
BRANCH  25  26
ATOM     26  C   UNL A   1      34.365  32.278  28.825  1.00  0.00     0.116 C 
BRANCH  26  27
ATOM     27  N   UNL A   1      33.920  31.143  28.033  1.00  0.00    -0.352 N 
ATOM     28  C   UNL A   1      34.629  30.047  27.597  1.00  0.00     0.251 C 
ATOM     29  H   UNL A   1      32.971  31.162  27.768  1.00  0.00     0.163 HD
ATOM     30  O   UNL A   1      34.112  29.264  26.804  1.00  0.00    -0.269 OA
BRANCH  28  31
ATOM     31  C   UNL A   1      36.019  29.825  28.058  1.00  0.00     0.039 A 
ATOM     32  C   UNL A   1      36.233  29.364  29.359  1.00  0.00     0.014 A 
ATOM     33  C   UNL A   1      37.108  30.064  27.216  1.00  0.00     0.014 A 
ATOM     34  C   UNL A   1      37.531  29.073  29.789  1.00  0.00     0.010 A 
ATOM     35  C   UNL A   1      38.391  29.698  27.617  1.00  0.00     0.010 A 
ATOM     36  C   UNL A   1      38.618  29.196  28.908  1.00  0.00    -0.014 A 
BRANCH  36  37
ATOM     37  C   UNL A   1      39.992  28.792  29.315  1.00  0.00     0.031 A 
ATOM     38  C   UNL A   1      40.889  29.758  30.042  1.00  0.00     0.074 A 
ATOM     39  C   UNL A   1      40.456  27.571  28.977  1.00  0.00     0.049 A 
ATOM     40  N   UNL A   1      42.130  29.602  30.426  1.00  0.00    -0.248 NA
ATOM     41  C   UNL A   1      40.325  31.081  30.358  1.00  0.00     0.031 C 
ATOM     42  C   UNL A   1      39.704  26.553  28.240  1.00  0.00     0.029 A 
ATOM     43  N   UNL A   1      41.676  26.980  29.204  1.00  0.00    -0.354 N 
ATOM     44  C   UNL A   1      42.499  30.804  31.019  1.00  0.00     0.074 A 
ATOM     45  C   UNL A   1      41.370  31.699  30.891  1.00  0.00     0.031 C 
ATOM     46  C   UNL A   1      40.467  25.458  28.099  1.00  0.00     0.029 A 
ATOM     47  C   UNL A   1      41.777  25.708  28.690  1.00  0.00     0.049 A 
ATOM     48  H   UNL A   1      42.408  27.426  29.688  1.00  0.00     0.167 HD
ATOM     49  C   UNL A   1      43.662  31.129  31.634  1.00  0.00     0.031 A 
ATOM     50  C   UNL A   1      42.810  24.841  28.682  1.00  0.00     0.031 A 
ATOM     51  C   UNL A   1      44.786  30.238  31.757  1.00  0.00     0.049 A 
ATOM     52  C   UNL A   1      44.104  25.235  29.343  1.00  0.00     0.074 A 
ATOM     53  C   UNL A   1      45.992  30.460  32.398  1.00  0.00     0.029 A 
ATOM     54  N   UNL A   1      44.849  28.959  31.223  1.00  0.00    -0.354 N 
ATOM     55  N   UNL A   1      44.409  26.355  29.954  1.00  0.00    -0.248 NA
ATOM     56  C   UNL A   1      45.188  24.243  29.324  1.00  0.00     0.031 C 
ATOM     57  C   UNL A   1      46.807  29.341  32.198  1.00  0.00     0.029 A 
ATOM     58  C   UNL A   1      46.082  28.392  31.496  1.00  0.00     0.049 A 
ATOM     59  H   UNL A   1      44.122  28.520  30.724  1.00  0.00     0.167 HD
ATOM     60  C   UNL A   1      45.711  26.191  30.417  1.00  0.00     0.074 A 
ATOM     61  C   UNL A   1      46.126  24.858  30.031  1.00  0.00     0.031 C 
ATOM     62  C   UNL A   1      46.488  27.064  31.103  1.00  0.00     0.031 A 
BRANCH  49  63
ATOM     63  C   UNL A   1      43.781  32.517  32.213  1.00  0.00    -0.014 A 
ATOM     64  C   UNL A   1      44.151  33.612  31.409  1.00  0.00     0.010 A 
ATOM     65  C   UNL A   1      43.482  32.739  33.570  1.00  0.00     0.010 A 
ATOM     66  C   UNL A   1      44.264  34.891  31.961  1.00  0.00     0.020 A 
ATOM     67  C   UNL A   1      43.561  34.022  34.118  1.00  0.00     0.020 A 
ATOM     68  C   UNL A   1      43.970  35.088  33.313  1.00  0.00     0.054 A 
BRANCH  68  69
ATOM     69  S   UNL A   1      44.108  36.762  33.996  1.00  0.00     0.124 S 
ATOM     70  O   UNL A   1      42.756  37.279  33.803  1.00  0.00    -0.237 OA
ATOM     71  O   UNL A   1      44.493  36.510  35.382  1.00  0.00    -0.237 OA
ATOM     72  O   UNL A   1      45.137  37.390  33.170  1.00  0.00    -0.744 OA
ENDBRANCH  68  69
ENDBRANCH  49  63
BRANCH  50  73
ATOM     73  C   UNL A   1      42.659  23.512  28.027  1.00  0.00    -0.014 A 
ATOM     74  C   UNL A   1      41.967  22.468  28.666  1.00  0.00     0.010 A 
ATOM     75  C   UNL A   1      43.199  23.288  26.746  1.00  0.00     0.010 A 
ATOM     76  C   UNL A   1      41.832  21.222  28.046  1.00  0.00     0.020 A 
ATOM     77  C   UNL A   1      43.038  22.054  26.110  1.00  0.00     0.020 A 
ATOM     78  C   UNL A   1      42.364  21.025  26.768  1.00  0.00     0.054 A 
BRANCH  78  79
ATOM     79  S   UNL A   1      42.129  19.417  25.962  1.00  0.00     0.124 S 
ATOM     80  O   UNL A   1      40.688  19.397  25.736  1.00  0.00    -0.237 OA
ATOM     81  O   UNL A   1      42.957  19.543  24.764  1.00  0.00    -0.237 OA
ATOM     82  O   UNL A   1      42.622  18.462  26.953  1.00  0.00    -0.744 OA
ENDBRANCH  78  79
ENDBRANCH  50  73
BRANCH  62  83
ATOM     83  C   UNL A   1      47.861  26.599  31.518  1.00  0.00    -0.014 A 
ATOM     84  C   UNL A   1      48.083  25.982  32.762  1.00  0.00     0.010 A 
ATOM     85  C   UNL A   1      48.938  26.734  30.621  1.00  0.00     0.010 A 
ATOM     86  C   UNL A   1      49.361  25.538  33.114  1.00  0.00     0.020 A 
ATOM     87  C   UNL A   1      50.210  26.262  30.955  1.00  0.00     0.020 A 
ATOM     88  C   UNL A   1      50.416  25.680  32.207  1.00  0.00     0.054 A 
BRANCH  88  89
ATOM     89  S   UNL A   1      52.054  25.055  32.671  1.00  0.00     0.124 S 
ATOM     90  O   UNL A   1      51.982  23.660  32.245  1.00  0.00    -0.237 OA
ATOM     91  O   UNL A   1      52.952  25.906  31.892  1.00  0.00    -0.237 OA
ATOM     92  O   UNL A   1      52.109  25.264  34.116  1.00  0.00    -0.744 OA
ENDBRANCH  88  89
ENDBRANCH  62  83
ENDBRANCH  36  37
ENDBRANCH  28  31
ENDBRANCH  26  27
ENDBRANCH  25  26
ENDBRANCH   1  25
TORSDOF 17
ENDMDL
MODEL 3
REMARK VINA RESULT:     -10.6      2.959      9.765
REMARK SMILES O=C(COc1ccc2c(c1)O/C(=C\c1cccs1)C2=O)NCCCCNC(=O)c1ccc(-c2c3nc(c(-c4ccc(S(=O)(=O)[O-])cc4)c4ccc([nH]4)c(-c4ccc(S(=O)(=O)[O-])cc4)c4nc(c(-c5ccc(S(=O)(=O)[O-])cc5)c5ccc2[nH]5)C=C4)C=C3)cc1
REMARK SMILES IDX 23 1 22 2 21 3 1 4 2 5 3 7 4 8 5 9 6 10 10 11 7 12 9 13 8 14
REMARK SMILES IDX 11 15 19 16 12 17 20 18 13 19 14 20 15 21 18 22 16 23 17 24
REMARK SMILES IDX 24 25 25 26 26 27 27 28 28 30 29 31 30 32 88 33 31 34 87 35
REMARK SMILES IDX 32 36 33 37 34 38 81 39 35 40 86 41 80 42 82 43 36 44 85 45
REMARK SMILES IDX 79 46 78 47 37 49 67 50 48 51 66 52 49 53 52 54 65 55 83 56
REMARK SMILES IDX 50 57 51 58 64 60 84 61 53 62 38 63 39 64 47 65 40 66 46 67
REMARK SMILES IDX 41 68 42 69 43 70 44 71 45 72 68 73 69 74 77 75 70 76 76 77
REMARK SMILES IDX 71 78 72 79 73 80 74 81 75 82 54 83 55 84 63 85 56 86 62 87
REMARK SMILES IDX 57 88 58 89 59 90 60 91 61 92
REMARK H PARENT 21 6 26 29 82 48 52 59
REMARK Flexibility Score: inf
ROOT
ATOM      1  C   UNL A   1      34.826  33.646  31.307  1.00  0.00     0.023 C 
ENDROOT
BRANCH   1   2
ATOM      2  C   UNL A   1      34.379  34.017  29.899  1.00  0.00     0.116 C 
BRANCH   2   3
ATOM      3  N   UNL A   1      34.325  32.885  28.998  1.00  0.00    -0.353 N 
ATOM      4  O   UNL A   1      36.452  33.122  28.149  1.00  0.00    -0.271 OA
ATOM      5  C   UNL A   1      35.422  32.467  28.270  1.00  0.00     0.257 C 
ATOM      6  H   UNL A   1      33.475  32.396  28.901  1.00  0.00     0.163 HD
BRANCH   5   7
ATOM      7  C   UNL A   1      35.255  31.076  27.648  1.00  0.00     0.329 C 
BRANCH   7   8
ATOM      8  O   UNL A   1      34.175  30.306  28.182  1.00  0.00    -0.484 OA
BRANCH   8   9
ATOM      9  C   UNL A   1      33.228  29.979  27.243  1.00  0.00     0.123 A 
ATOM     10  C   UNL A   1      32.313  30.942  26.763  1.00  0.00     0.047 A 
ATOM     11  C   UNL A   1      33.284  28.701  26.679  1.00  0.00     0.094 A 
ATOM     12  C   UNL A   1      31.415  30.641  25.741  1.00  0.00     0.020 A 
ATOM     13  C   UNL A   1      32.389  28.416  25.667  1.00  0.00     0.142 A 
ATOM     14  C   UNL A   1      31.482  29.372  25.212  1.00  0.00     0.069 A 
ATOM     15  O   UNL A   1      32.292  27.225  24.988  1.00  0.00    -0.452 OA
ATOM     16  C   UNL A   1      30.724  28.779  24.123  1.00  0.00     0.232 C 
ATOM     17  C   UNL A   1      31.303  27.417  24.025  1.00  0.00     0.176 C 
ATOM     18  O   UNL A   1      29.832  29.283  23.474  1.00  0.00    -0.285 OA
ATOM     19  C   UNL A   1      30.926  26.536  23.090  1.00  0.00     0.070 C 
BRANCH  19  20
ATOM     20  C   UNL A   1      31.497  25.239  23.036  1.00  0.00     0.031 A 
ATOM     21  C   UNL A   1      30.915  24.015  23.318  1.00  0.00     0.020 A 
ATOM     22  S   UNL A   1      33.135  25.041  22.559  1.00  0.00    -0.144 S 
ATOM     23  C   UNL A   1      31.825  22.927  23.194  1.00  0.00     0.012 A 
ATOM     24  C   UNL A   1      33.077  23.351  22.810  1.00  0.00     0.065 A 
ENDBRANCH  19  20
ENDBRANCH   8   9
ENDBRANCH   7   8
ENDBRANCH   5   7
ENDBRANCH   2   3
ENDBRANCH   1   2
BRANCH   1  25
ATOM     25  C   UNL A   1      36.283  33.982  31.628  1.00  0.00     0.023 C 
BRANCH  25  26
ATOM     26  C   UNL A   1      37.236  32.792  31.697  1.00  0.00     0.116 C 
BRANCH  26  27
ATOM     27  N   UNL A   1      36.545  31.512  31.693  1.00  0.00    -0.352 N 
ATOM     28  C   UNL A   1      36.935  30.309  31.150  1.00  0.00     0.251 C 
ATOM     29  H   UNL A   1      35.670  31.504  32.145  1.00  0.00     0.163 HD
ATOM     30  O   UNL A   1      36.143  29.371  31.116  1.00  0.00    -0.269 OA
BRANCH  28  31
ATOM     31  C   UNL A   1      38.294  30.151  30.581  1.00  0.00     0.039 A 
ATOM     32  C   UNL A   1      39.353  29.848  31.440  1.00  0.00     0.014 A 
ATOM     33  C   UNL A   1      38.527  30.295  29.211  1.00  0.00     0.014 A 
ATOM     34  C   UNL A   1      40.629  29.617  30.915  1.00  0.00     0.010 A 
ATOM     35  C   UNL A   1      39.779  29.987  28.682  1.00  0.00     0.010 A 
ATOM     36  C   UNL A   1      40.845  29.642  29.528  1.00  0.00    -0.014 A 
BRANCH  36  37
ATOM     37  C   UNL A   1      42.171  29.297  28.946  1.00  0.00     0.031 A 
ATOM     38  C   UNL A   1      42.448  27.901  28.453  1.00  0.00     0.074 A 
ATOM     39  C   UNL A   1      43.148  30.225  28.914  1.00  0.00     0.049 A 
ATOM     40  N   UNL A   1      43.557  27.403  27.967  1.00  0.00    -0.248 NA
ATOM     41  C   UNL A   1      41.344  26.932  28.539  1.00  0.00     0.031 C 
ATOM     42  C   UNL A   1      43.023  31.604  29.393  1.00  0.00     0.029 A 
ATOM     43  N   UNL A   1      44.444  30.150  28.463  1.00  0.00    -0.354 N 
ATOM     44  C   UNL A   1      43.288  26.066  27.699  1.00  0.00     0.074 A 
ATOM     45  C   UNL A   1      41.931  25.816  28.131  1.00  0.00     0.031 C 
ATOM     46  C   UNL A   1      44.182  32.249  29.188  1.00  0.00     0.029 A 
ATOM     47  C   UNL A   1      45.149  31.323  28.608  1.00  0.00     0.049 A 
ATOM     48  H   UNL A   1      44.831  29.333  28.074  1.00  0.00     0.167 HD
ATOM     49  C   UNL A   1      44.089  25.135  27.126  1.00  0.00     0.031 A 
ATOM     50  C   UNL A   1      46.432  31.620  28.320  1.00  0.00     0.031 A 
ATOM     51  C   UNL A   1      45.441  25.385  26.700  1.00  0.00     0.049 A 
ATOM     52  C   UNL A   1      47.313  30.561  27.713  1.00  0.00     0.074 A 
ATOM     53  C   UNL A   1      46.318  24.518  26.071  1.00  0.00     0.029 A 
ATOM     54  N   UNL A   1      46.117  26.585  26.865  1.00  0.00    -0.354 N 
ATOM     55  N   UNL A   1      47.018  29.319  27.409  1.00  0.00    -0.248 NA
ATOM     56  C   UNL A   1      48.695  30.948  27.400  1.00  0.00     0.031 C 
ATOM     57  C   UNL A   1      47.544  25.174  25.913  1.00  0.00     0.029 A 
ATOM     58  C   UNL A   1      47.408  26.473  26.375  1.00  0.00     0.049 A 
ATOM     59  H   UNL A   1      45.734  27.397  27.270  1.00  0.00     0.167 HD
ATOM     60  C   UNL A   1      48.170  28.785  26.842  1.00  0.00     0.074 A 
ATOM     61  C   UNL A   1      49.159  29.844  26.829  1.00  0.00     0.031 C 
ATOM     62  C   UNL A   1      48.387  27.532  26.372  1.00  0.00     0.031 A 
BRANCH  49  63
ATOM     63  C   UNL A   1      43.523  23.750  26.936  1.00  0.00    -0.014 A 
ATOM     64  C   UNL A   1      43.269  22.910  28.037  1.00  0.00     0.010 A 
ATOM     65  C   UNL A   1      43.201  23.294  25.644  1.00  0.00     0.010 A 
ATOM     66  C   UNL A   1      42.751  21.626  27.845  1.00  0.00     0.020 A 
ATOM     67  C   UNL A   1      42.650  22.024  25.451  1.00  0.00     0.020 A 
ATOM     68  C   UNL A   1      42.446  21.191  26.553  1.00  0.00     0.054 A 
BRANCH  68  69
ATOM     69  S   UNL A   1      41.758  19.527  26.337  1.00  0.00     0.124 S 
ATOM     70  O   UNL A   1      42.199  18.858  27.559  1.00  0.00    -0.237 OA
ATOM     71  O   UNL A   1      40.323  19.784  26.246  1.00  0.00    -0.237 OA
ATOM     72  O   UNL A   1      42.382  19.048  25.106  1.00  0.00    -0.744 OA
ENDBRANCH  68  69
ENDBRANCH  49  63
BRANCH  50  73
ATOM     73  C   UNL A   1      46.958  32.985  28.601  1.00  0.00    -0.014 A 
ATOM     74  C   UNL A   1      47.584  33.277  29.826  1.00  0.00     0.010 A 
ATOM     75  C   UNL A   1      46.846  34.001  27.633  1.00  0.00     0.010 A 
ATOM     76  C   UNL A   1      48.071  34.563  30.085  1.00  0.00     0.020 A 
ATOM     77  C   UNL A   1      47.362  35.278  27.876  1.00  0.00     0.020 A 
ATOM     78  C   UNL A   1      47.962  35.553  29.105  1.00  0.00     0.054 A 
BRANCH  78  79
ATOM     79  S   UNL A   1      48.652  37.197  29.442  1.00  0.00     0.124 S 
ATOM     80  O   UNL A   1      48.578  37.266  30.897  1.00  0.00    -0.237 OA
ATOM     81  O   UNL A   1      49.996  37.094  28.879  1.00  0.00    -0.237 OA
ATOM     82  O   UNL A   1      47.752  38.099  28.725  1.00  0.00    -0.744 OA
ENDBRANCH  78  79
ENDBRANCH  50  73
BRANCH  62  83
ATOM     83  C   UNL A   1      49.736  27.238  25.765  1.00  0.00    -0.014 A 
ATOM     84  C   UNL A   1      50.024  27.556  24.425  1.00  0.00     0.010 A 
ATOM     85  C   UNL A   1      50.750  26.684  26.569  1.00  0.00     0.010 A 
ATOM     86  C   UNL A   1      51.290  27.295  23.893  1.00  0.00     0.020 A 
ATOM     87  C   UNL A   1      52.026  26.452  26.050  1.00  0.00     0.020 A 
ATOM     88  C   UNL A   1      52.283  26.747  24.710  1.00  0.00     0.054 A 
BRANCH  88  89
ATOM     89  S   UNL A   1      53.930  26.459  24.006  1.00  0.00     0.124 S 
ATOM     90  O   UNL A   1      53.617  26.148  22.614  1.00  0.00    -0.237 OA
ATOM     91  O   UNL A   1      54.601  27.738  24.230  1.00  0.00    -0.237 OA
ATOM     92  O   UNL A   1      54.454  25.343  24.791  1.00  0.00    -0.744 OA
ENDBRANCH  88  89
ENDBRANCH  62  83
ENDBRANCH  36  37
ENDBRANCH  28  31
ENDBRANCH  26  27
ENDBRANCH  25  26
ENDBRANCH   1  25
TORSDOF 17
ENDMDL
