MODEL 1
REMARK VINA RESULT:     -13.1      0.000      0.000
REMARK SMILES Cc1ccccc1OCC(=O)N1C[C@@H](O)C[C@H]1C(=O)NCCCCNC(=O)c1ccc(-c2c3nc(c(-c4ccc(S(=O)(=O)[O-])cc4)c4ccc([nH]4)c(-c4ccc(S(=O)(=O)[O-])cc4)c4nc(c(-c5ccc(S(=O)(=O)[O-])cc5)c5ccc2[nH]5)C=C4)C=C3)cc1
REMARK SMILES IDX 22 1 21 2 20 3 18 4 19 5 17 7 12 8 13 9 14 10 16 11 10 12
REMARK SMILES IDX 11 13 9 14 8 15 7 16 1 17 2 18 3 19 4 20 6 21 5 22 15 23
REMARK SMILES IDX 23 25 24 26 25 27 26 28 27 30 28 31 29 32 87 33 30 34 86 35
REMARK SMILES IDX 31 36 32 37 33 38 80 39 34 40 85 41 79 42 81 43 35 44 84 45
REMARK SMILES IDX 78 46 77 47 36 49 66 50 47 51 65 52 48 53 51 54 64 55 82 56
REMARK SMILES IDX 49 57 50 58 63 60 83 61 52 62 37 63 38 64 46 65 39 66 45 67
REMARK SMILES IDX 40 68 41 69 42 70 43 71 44 72 67 73 68 74 76 75 69 76 75 77
REMARK SMILES IDX 70 78 71 79 72 80 73 81 74 82 53 83 54 84 62 85 55 86 61 87
REMARK SMILES IDX 56 88 57 89 58 90 59 91 60 92
REMARK H PARENT 20 6 15 24 25 29 81 48 51 59
REMARK Flexibility Score: inf
ROOT
ATOM      1  C   UNL A   1      32.649  29.716  25.307  1.00  0.00     0.023 C 
ENDROOT
BRANCH   1   2
ATOM      2  C   UNL A   1      31.172  29.472  25.005  1.00  0.00     0.116 C 
BRANCH   2   3
ATOM      3  N   UNL A   1      30.815  29.714  23.618  1.00  0.00    -0.354 N 
ATOM      4  C   UNL A   1      30.409  28.881  22.620  1.00  0.00     0.242 C 
ATOM      5  O   UNL A   1      29.951  29.415  21.603  1.00  0.00    -0.273 OA
ATOM      6  H   UNL A   1      30.880  30.659  23.348  1.00  0.00     0.163 HD
BRANCH   4   7
ATOM      7  C   UNL A   1      30.370  27.346  22.766  1.00  0.00     0.177 C 
ATOM      8  N   UNL A   1      31.579  26.731  23.317  1.00  0.00    -0.325 N 
ATOM      9  C   UNL A   1      31.294  25.956  24.509  1.00  0.00     0.152 C 
ATOM     10  C   UNL A   1      29.785  25.717  24.465  1.00  0.00     0.136 C 
ATOM     11  C   UNL A   1      29.214  26.877  23.653  1.00  0.00     0.069 C 
BRANCH   8  12
ATOM     12  C   UNL A   1      32.732  26.679  22.559  1.00  0.00     0.261 C 
ATOM     13  O   UNL A   1      33.500  27.643  22.487  1.00  0.00    -0.271 OA
BRANCH  12  14
ATOM     14  C   UNL A   1      32.995  25.437  21.696  1.00  0.00     0.329 C 
BRANCH  14  15
ATOM     15  O   UNL A   1      34.035  24.559  22.038  1.00  0.00    -0.484 OA
BRANCH  15  16
ATOM     16  C   UNL A   1      33.859  23.425  22.772  1.00  0.00     0.122 A 
ATOM     17  C   UNL A   1      35.928  23.393  24.337  1.00  0.00     0.048 C 
ATOM     18  C   UNL A   1      34.646  22.845  23.779  1.00  0.00    -0.009 A 
ATOM     19  C   UNL A   1      34.167  21.668  24.403  1.00  0.00     0.007 A 
ATOM     20  C   UNL A   1      32.950  21.085  24.053  1.00  0.00     0.001 A 
ATOM     21  C   UNL A   1      32.647  22.805  22.413  1.00  0.00     0.047 A 
ATOM     22  C   UNL A   1      32.187  21.655  23.050  1.00  0.00     0.004 A 
ENDBRANCH  15  16
ENDBRANCH  14  15
ENDBRANCH  12  14
ENDBRANCH   8  12
BRANCH  10  23
ATOM     23  O   UNL A   1      29.204  25.647  25.757  1.00  0.00    -0.391 OA
ATOM     24  H   UNL A   1      29.531  24.857  26.215  1.00  0.00     0.211 HD
ENDBRANCH  10  23
ENDBRANCH   4   7
ENDBRANCH   2   3
ENDBRANCH   1   2
BRANCH   1  25
ATOM     25  C   UNL A   1      32.951  30.240  26.712  1.00  0.00     0.023 C 
BRANCH  25  26
ATOM     26  C   UNL A   1      34.388  30.012  27.161  1.00  0.00     0.116 C 
BRANCH  26  27
ATOM     27  N   UNL A   1      35.098  31.219  27.553  1.00  0.00    -0.352 N 
ATOM     28  C   UNL A   1      36.365  31.306  28.107  1.00  0.00     0.251 C 
ATOM     29  H   UNL A   1      34.625  32.071  27.408  1.00  0.00     0.163 HD
ATOM     30  O   UNL A   1      36.796  32.353  28.566  1.00  0.00    -0.269 OA
BRANCH  28  31
ATOM     31  C   UNL A   1      37.215  30.095  28.057  1.00  0.00     0.039 A 
ATOM     32  C   UNL A   1      37.287  29.301  29.206  1.00  0.00     0.014 A 
ATOM     33  C   UNL A   1      38.099  29.898  26.999  1.00  0.00     0.014 A 
ATOM     34  C   UNL A   1      38.366  28.432  29.371  1.00  0.00     0.010 A 
ATOM     35  C   UNL A   1      39.217  29.108  27.206  1.00  0.00     0.010 A 
ATOM     36  C   UNL A   1      39.381  28.416  28.414  1.00  0.00    -0.014 A 
BRANCH  36  37
ATOM     37  C   UNL A   1      40.693  27.808  28.638  1.00  0.00     0.031 A 
ATOM     38  C   UNL A   1      40.928  26.371  28.340  1.00  0.00     0.074 A 
ATOM     39  C   UNL A   1      41.733  28.558  29.075  1.00  0.00     0.049 A 
ATOM     40  N   UNL A   1      41.900  25.673  28.834  1.00  0.00    -0.248 NA
ATOM     41  C   UNL A   1      40.012  25.574  27.526  1.00  0.00     0.031 C 
ATOM     42  C   UNL A   1      43.147  28.193  29.020  1.00  0.00     0.029 A 
ATOM     43  N   UNL A   1      41.715  29.707  29.871  1.00  0.00    -0.354 N 
ATOM     44  C   UNL A   1      41.918  24.463  28.178  1.00  0.00     0.074 A 
ATOM     45  C   UNL A   1      40.651  24.400  27.491  1.00  0.00     0.031 C 
ATOM     46  C   UNL A   1      43.803  28.874  29.970  1.00  0.00     0.029 A 
ATOM     47  C   UNL A   1      42.811  29.599  30.744  1.00  0.00     0.049 A 
ATOM     48  H   UNL A   1      41.065  30.446  29.827  1.00  0.00     0.167 HD
ATOM     49  C   UNL A   1      43.059  23.715  28.165  1.00  0.00     0.031 A 
ATOM     50  C   UNL A   1      42.734  29.619  32.106  1.00  0.00     0.031 A 
ATOM     51  C   UNL A   1      44.053  24.215  29.115  1.00  0.00     0.049 A 
ATOM     52  C   UNL A   1      43.367  28.418  32.769  1.00  0.00     0.074 A 
ATOM     53  C   UNL A   1      45.246  24.903  28.973  1.00  0.00     0.029 A 
ATOM     54  N   UNL A   1      43.757  24.214  30.474  1.00  0.00    -0.354 N 
ATOM     55  N   UNL A   1      43.740  27.348  32.124  1.00  0.00    -0.248 NA
ATOM     56  C   UNL A   1      43.565  28.293  34.212  1.00  0.00     0.031 C 
ATOM     57  C   UNL A   1      45.623  25.391  30.252  1.00  0.00     0.029 A 
ATOM     58  C   UNL A   1      44.678  24.969  31.172  1.00  0.00     0.049 A 
ATOM     59  H   UNL A   1      42.996  23.740  30.881  1.00  0.00     0.167 HD
ATOM     60  C   UNL A   1      44.167  26.400  33.015  1.00  0.00     0.074 A 
ATOM     61  C   UNL A   1      44.068  27.050  34.309  1.00  0.00     0.031 C 
ATOM     62  C   UNL A   1      44.536  25.151  32.611  1.00  0.00     0.031 A 
BRANCH  49  63
ATOM     63  C   UNL A   1      43.387  22.663  27.115  1.00  0.00    -0.014 A 
ATOM     64  C   UNL A   1      42.598  21.494  27.027  1.00  0.00     0.010 A 
ATOM     65  C   UNL A   1      44.514  22.696  26.272  1.00  0.00     0.010 A 
ATOM     66  C   UNL A   1      42.950  20.410  26.201  1.00  0.00     0.020 A 
ATOM     67  C   UNL A   1      44.871  21.632  25.431  1.00  0.00     0.020 A 
ATOM     68  C   UNL A   1      44.099  20.480  25.419  1.00  0.00     0.054 A 
BRANCH  68  69
ATOM     69  S   UNL A   1      44.600  19.059  24.414  1.00  0.00     0.124 S 
ATOM     70  O   UNL A   1      43.614  18.050  24.789  1.00  0.00    -0.237 OA
ATOM     71  O   UNL A   1      44.491  19.576  23.053  1.00  0.00    -0.237 OA
ATOM     72  O   UNL A   1      45.966  18.783  24.861  1.00  0.00    -0.744 OA
ENDBRANCH  68  69
ENDBRANCH  49  63
BRANCH  50  73
ATOM     73  C   UNL A   1      41.579  30.375  32.654  1.00  0.00    -0.014 A 
ATOM     74  C   UNL A   1      40.396  29.651  32.903  1.00  0.00     0.010 A 
ATOM     75  C   UNL A   1      41.782  31.608  33.300  1.00  0.00     0.010 A 
ATOM     76  C   UNL A   1      39.523  30.055  33.914  1.00  0.00     0.020 A 
ATOM     77  C   UNL A   1      40.904  32.015  34.314  1.00  0.00     0.020 A 
ATOM     78  C   UNL A   1      39.825  31.196  34.657  1.00  0.00     0.054 A 
BRANCH  78  79
ATOM     79  S   UNL A   1      38.918  31.455  36.211  1.00  0.00     0.124 S 
ATOM     80  O   UNL A   1      37.899  32.425  35.823  1.00  0.00    -0.237 OA
ATOM     81  O   UNL A   1      38.430  30.104  36.489  1.00  0.00    -0.237 OA
ATOM     82  O   UNL A   1      39.946  31.948  37.121  1.00  0.00    -0.744 OA
ENDBRANCH  78  79
ENDBRANCH  50  73
BRANCH  62  83
ATOM     83  C   UNL A   1      44.852  23.992  33.523  1.00  0.00    -0.014 A 
ATOM     84  C   UNL A   1      43.984  22.912  33.751  1.00  0.00     0.010 A 
ATOM     85  C   UNL A   1      46.144  23.910  34.094  1.00  0.00     0.010 A 
ATOM     86  C   UNL A   1      44.362  21.831  34.563  1.00  0.00     0.020 A 
ATOM     87  C   UNL A   1      46.545  22.819  34.871  1.00  0.00     0.020 A 
ATOM     88  C   UNL A   1      45.639  21.794  35.123  1.00  0.00     0.054 A 
BRANCH  88  89
ATOM     89  S   UNL A   1      46.153  20.369  36.116  1.00  0.00     0.124 S 
ATOM     90  O   UNL A   1      45.335  19.299  35.550  1.00  0.00    -0.237 OA
ATOM     91  O   UNL A   1      47.585  20.271  35.843  1.00  0.00    -0.237 OA
ATOM     92  O   UNL A   1      45.813  20.767  37.480  1.00  0.00    -0.744 OA
ENDBRANCH  88  89
ENDBRANCH  62  83
ENDBRANCH  36  37
ENDBRANCH  28  31
ENDBRANCH  26  27
ENDBRANCH  25  26
ENDBRANCH   1  25
TORSDOF 19
ENDMDL
MODEL 2
REMARK VINA RESULT:     -13.1      4.911     11.337
REMARK SMILES Cc1ccccc1OCC(=O)N1C[C@@H](O)C[C@H]1C(=O)NCCCCNC(=O)c1ccc(-c2c3nc(c(-c4ccc(S(=O)(=O)[O-])cc4)c4ccc([nH]4)c(-c4ccc(S(=O)(=O)[O-])cc4)c4nc(c(-c5ccc(S(=O)(=O)[O-])cc5)c5ccc2[nH]5)C=C4)C=C3)cc1
REMARK SMILES IDX 22 1 21 2 20 3 18 4 19 5 17 7 12 8 13 9 14 10 16 11 10 12
REMARK SMILES IDX 11 13 9 14 8 15 7 16 1 17 2 18 3 19 4 20 6 21 5 22 15 23
REMARK SMILES IDX 23 25 24 26 25 27 26 28 27 30 28 31 29 32 87 33 30 34 86 35
REMARK SMILES IDX 31 36 32 37 33 38 80 39 34 40 85 41 79 42 81 43 35 44 84 45
REMARK SMILES IDX 78 46 77 47 36 49 66 50 47 51 65 52 48 53 51 54 64 55 82 56
REMARK SMILES IDX 49 57 50 58 63 60 83 61 52 62 37 63 38 64 46 65 39 66 45 67
REMARK SMILES IDX 40 68 41 69 42 70 43 71 44 72 67 73 68 74 76 75 69 76 75 77
REMARK SMILES IDX 70 78 71 79 72 80 73 81 74 82 53 83 54 84 62 85 55 86 61 87
REMARK SMILES IDX 56 88 57 89 58 90 59 91 60 92
REMARK H PARENT 20 6 15 24 25 29 81 48 51 59
REMARK Flexibility Score: inf
ROOT
ATOM      1  C   UNL A   1      36.271  21.430  25.747  1.00  0.00     0.023 C 
ENDROOT
BRANCH   1   2
ATOM      2  C   UNL A   1      35.657  20.395  24.806  1.00  0.00     0.116 C 
BRANCH   2   3
ATOM      3  N   UNL A   1      34.386  19.867  25.274  1.00  0.00    -0.354 N 
ATOM      4  C   UNL A   1      33.196  20.465  25.557  1.00  0.00     0.242 C 
ATOM      5  O   UNL A   1      32.222  19.720  25.712  1.00  0.00    -0.273 OA
ATOM      6  H   UNL A   1      34.386  18.892  25.413  1.00  0.00     0.163 HD
BRANCH   4   7
ATOM      7  C   UNL A   1      32.999  21.996  25.548  1.00  0.00     0.177 C 
ATOM      8  N   UNL A   1      32.200  22.525  24.441  1.00  0.00    -0.325 N 
ATOM      9  C   UNL A   1      31.056  23.279  24.916  1.00  0.00     0.152 C 
ATOM     10  C   UNL A   1      31.383  23.605  26.372  1.00  0.00     0.136 C 
ATOM     11  C   UNL A   1      32.335  22.502  26.830  1.00  0.00     0.069 C 
BRANCH   8  12
ATOM     12  C   UNL A   1      32.717  22.533  23.160  1.00  0.00     0.261 C 
ATOM     13  O   UNL A   1      32.145  21.957  22.230  1.00  0.00    -0.271 OA
BRANCH  12  14
ATOM     14  C   UNL A   1      34.093  23.173  22.923  1.00  0.00     0.329 C 
BRANCH  14  15
ATOM     15  O   UNL A   1      34.191  24.559  22.724  1.00  0.00    -0.484 OA
BRANCH  15  16
ATOM     16  C   UNL A   1      33.601  25.483  23.532  1.00  0.00     0.122 A 
ATOM     17  C   UNL A   1      31.626  26.365  22.099  1.00  0.00     0.048 C 
ATOM     18  C   UNL A   1      32.492  26.319  23.325  1.00  0.00    -0.009 A 
ATOM     19  C   UNL A   1      32.079  27.155  24.391  1.00  0.00     0.007 A 
ATOM     20  C   UNL A   1      32.732  27.162  25.623  1.00  0.00     0.001 A 
ATOM     21  C   UNL A   1      34.264  25.527  24.774  1.00  0.00     0.047 A 
ATOM     22  C   UNL A   1      33.832  26.346  25.815  1.00  0.00     0.004 A 
ENDBRANCH  15  16
ENDBRANCH  14  15
ENDBRANCH  12  14
ENDBRANCH   8  12
BRANCH  10  23
ATOM     23  O   UNL A   1      30.227  23.669  27.191  1.00  0.00    -0.391 OA
ATOM     24  H   UNL A   1      29.436  23.700  26.631  1.00  0.00     0.211 HD
ENDBRANCH  10  23
ENDBRANCH   4   7
ENDBRANCH   2   3
ENDBRANCH   1   2
BRANCH   1  25
ATOM     25  C   UNL A   1      37.507  22.151  25.208  1.00  0.00     0.023 C 
BRANCH  25  26
ATOM     26  C   UNL A   1      38.054  23.222  26.142  1.00  0.00     0.116 C 
BRANCH  26  27
ATOM     27  N   UNL A   1      39.297  22.866  26.807  1.00  0.00    -0.352 N 
ATOM     28  C   UNL A   1      40.181  23.719  27.449  1.00  0.00     0.251 C 
ATOM     29  H   UNL A   1      39.538  21.911  26.802  1.00  0.00     0.163 HD
ATOM     30  O   UNL A   1      41.283  23.344  27.818  1.00  0.00    -0.269 OA
BRANCH  28  31
ATOM     31  C   UNL A   1      39.711  25.093  27.740  1.00  0.00     0.039 A 
ATOM     32  C   UNL A   1      40.175  26.128  26.922  1.00  0.00     0.014 A 
ATOM     33  C   UNL A   1      39.042  25.371  28.930  1.00  0.00     0.014 A 
ATOM     34  C   UNL A   1      40.131  27.441  27.389  1.00  0.00     0.010 A 
ATOM     35  C   UNL A   1      39.087  26.661  29.432  1.00  0.00     0.010 A 
ATOM     36  C   UNL A   1      39.680  27.690  28.687  1.00  0.00    -0.014 A 
BRANCH  36  37
ATOM     37  C   UNL A   1      39.897  28.955  29.389  1.00  0.00     0.031 A 
ATOM     38  C   UNL A   1      38.897  30.051  29.311  1.00  0.00     0.074 A 
ATOM     39  C   UNL A   1      40.992  29.130  30.166  1.00  0.00     0.049 A 
ATOM     40  N   UNL A   1      39.154  31.293  29.572  1.00  0.00    -0.248 NA
ATOM     41  C   UNL A   1      37.533  29.843  28.828  1.00  0.00     0.031 C 
ATOM     42  C   UNL A   1      41.180  30.169  31.177  1.00  0.00     0.029 A 
ATOM     43  N   UNL A   1      42.259  28.550  30.045  1.00  0.00    -0.354 N 
ATOM     44  C   UNL A   1      37.955  31.969  29.597  1.00  0.00     0.074 A 
ATOM     45  C   UNL A   1      37.012  31.062  28.990  1.00  0.00     0.031 C 
ATOM     46  C   UNL A   1      42.494  30.369  31.348  1.00  0.00     0.029 A 
ATOM     47  C   UNL A   1      43.186  29.557  30.363  1.00  0.00     0.049 A 
ATOM     48  H   UNL A   1      42.460  27.620  29.789  1.00  0.00     0.167 HD
ATOM     49  C   UNL A   1      37.861  33.158  30.260  1.00  0.00     0.031 A 
ATOM     50  C   UNL A   1      44.183  29.994  29.541  1.00  0.00     0.031 A 
ATOM     51  C   UNL A   1      39.173  33.681  30.638  1.00  0.00     0.049 A 
ATOM     52  C   UNL A   1      44.160  31.486  29.297  1.00  0.00     0.074 A 
ATOM     53  C   UNL A   1      39.851  33.778  31.841  1.00  0.00     0.029 A 
ATOM     54  N   UNL A   1      40.086  34.012  29.643  1.00  0.00    -0.354 N 
ATOM     55  N   UNL A   1      43.164  32.258  29.630  1.00  0.00    -0.248 NA
ATOM     56  C   UNL A   1      45.217  32.214  28.598  1.00  0.00     0.031 C 
ATOM     57  C   UNL A   1      41.207  34.087  31.555  1.00  0.00     0.029 A 
ATOM     58  C   UNL A   1      41.341  34.212  30.183  1.00  0.00     0.049 A 
ATOM     59  H   UNL A   1      39.868  34.091  28.686  1.00  0.00     0.167 HD
ATOM     60  C   UNL A   1      43.396  33.528  29.174  1.00  0.00     0.074 A 
ATOM     61  C   UNL A   1      44.709  33.458  28.560  1.00  0.00     0.031 C 
ATOM     62  C   UNL A   1      42.471  34.521  29.315  1.00  0.00     0.031 A 
BRANCH  49  63
ATOM     63  C   UNL A   1      36.561  33.745  30.792  1.00  0.00    -0.014 A 
ATOM     64  C   UNL A   1      35.463  33.919  29.920  1.00  0.00     0.010 A 
ATOM     65  C   UNL A   1      36.385  34.255  32.093  1.00  0.00     0.010 A 
ATOM     66  C   UNL A   1      34.300  34.613  30.303  1.00  0.00     0.020 A 
ATOM     67  C   UNL A   1      35.227  34.934  32.498  1.00  0.00     0.020 A 
ATOM     68  C   UNL A   1      34.197  35.132  31.591  1.00  0.00     0.054 A 
BRANCH  68  69
ATOM     69  S   UNL A   1      32.737  36.093  32.067  1.00  0.00     0.124 S 
ATOM     70  O   UNL A   1      31.794  35.050  32.459  1.00  0.00    -0.237 OA
ATOM     71  O   UNL A   1      33.244  36.929  33.150  1.00  0.00    -0.237 OA
ATOM     72  O   UNL A   1      32.384  36.815  30.844  1.00  0.00    -0.744 OA
ENDBRANCH  68  69
ENDBRANCH  49  63
BRANCH  50  73
ATOM     73  C   UNL A   1      44.675  28.987  28.568  1.00  0.00    -0.014 A 
ATOM     74  C   UNL A   1      44.078  28.981  27.291  1.00  0.00     0.010 A 
ATOM     75  C   UNL A   1      45.937  28.392  28.741  1.00  0.00     0.010 A 
ATOM     76  C   UNL A   1      44.804  28.559  26.176  1.00  0.00     0.020 A 
ATOM     77  C   UNL A   1      46.666  27.966  27.623  1.00  0.00     0.020 A 
ATOM     78  C   UNL A   1      46.118  28.122  26.346  1.00  0.00     0.054 A 
BRANCH  78  79
ATOM     79  S   UNL A   1      47.160  27.986  24.863  1.00  0.00     0.124 S 
ATOM     80  O   UNL A   1      46.606  29.019  23.994  1.00  0.00    -0.237 OA
ATOM     81  O   UNL A   1      48.485  28.267  25.414  1.00  0.00    -0.237 OA
ATOM     82  O   UNL A   1      46.943  26.611  24.427  1.00  0.00    -0.744 OA
ENDBRANCH  78  79
ENDBRANCH  50  73
BRANCH  62  83
ATOM     83  C   UNL A   1      42.558  35.895  28.698  1.00  0.00    -0.014 A 
ATOM     84  C   UNL A   1      41.878  36.277  27.531  1.00  0.00     0.010 A 
ATOM     85  C   UNL A   1      43.263  36.906  29.392  1.00  0.00     0.010 A 
ATOM     86  C   UNL A   1      41.950  37.590  27.041  1.00  0.00     0.020 A 
ATOM     87  C   UNL A   1      43.308  38.227  28.935  1.00  0.00     0.020 A 
ATOM     88  C   UNL A   1      42.670  38.557  27.744  1.00  0.00     0.054 A 
BRANCH  88  89
ATOM     89  S   UNL A   1      42.709  40.268  27.151  1.00  0.00     0.124 S 
ATOM     90  O   UNL A   1      41.369  40.422  26.591  1.00  0.00    -0.237 OA
ATOM     91  O   UNL A   1      42.969  41.036  28.366  1.00  0.00    -0.237 OA
ATOM     92  O   UNL A   1      43.800  40.264  26.180  1.00  0.00    -0.744 OA
ENDBRANCH  88  89
ENDBRANCH  62  83
ENDBRANCH  36  37
ENDBRANCH  28  31
ENDBRANCH  26  27
ENDBRANCH  25  26
ENDBRANCH   1  25
TORSDOF 19
ENDMDL
MODEL 3
REMARK VINA RESULT:     -12.8      1.241      3.088
REMARK SMILES Cc1ccccc1OCC(=O)N1C[C@@H](O)C[C@H]1C(=O)NCCCCNC(=O)c1ccc(-c2c3nc(c(-c4ccc(S(=O)(=O)[O-])cc4)c4ccc([nH]4)c(-c4ccc(S(=O)(=O)[O-])cc4)c4nc(c(-c5ccc(S(=O)(=O)[O-])cc5)c5ccc2[nH]5)C=C4)C=C3)cc1
REMARK SMILES IDX 22 1 21 2 20 3 18 4 19 5 17 7 12 8 13 9 14 10 16 11 10 12
REMARK SMILES IDX 11 13 9 14 8 15 7 16 1 17 2 18 3 19 4 20 6 21 5 22 15 23
REMARK SMILES IDX 23 25 24 26 25 27 26 28 27 30 28 31 29 32 87 33 30 34 86 35
REMARK SMILES IDX 31 36 32 37 33 38 80 39 34 40 85 41 79 42 81 43 35 44 84 45
REMARK SMILES IDX 78 46 77 47 36 49 66 50 47 51 65 52 48 53 51 54 64 55 82 56
REMARK SMILES IDX 49 57 50 58 63 60 83 61 52 62 37 63 38 64 46 65 39 66 45 67
REMARK SMILES IDX 40 68 41 69 42 70 43 71 44 72 67 73 68 74 76 75 69 76 75 77
REMARK SMILES IDX 70 78 71 79 72 80 73 81 74 82 53 83 54 84 62 85 55 86 61 87
REMARK SMILES IDX 56 88 57 89 58 90 59 91 60 92
REMARK H PARENT 20 6 15 24 25 29 81 48 51 59
REMARK Flexibility Score: inf
ROOT
ATOM      1  C   UNL A   1      33.370  27.652  26.794  1.00  0.00     0.023 C 
ENDROOT
BRANCH   1   2
ATOM      2  C   UNL A   1      32.112  27.457  25.950  1.00  0.00     0.116 C 
BRANCH   2   3
ATOM      3  N   UNL A   1      31.221  26.431  26.464  1.00  0.00    -0.354 N 
ATOM      4  C   UNL A   1      31.188  25.080  26.295  1.00  0.00     0.242 C 
ATOM      5  O   UNL A   1      30.446  24.443  27.052  1.00  0.00    -0.273 OA
ATOM      6  H   UNL A   1      30.504  26.779  27.043  1.00  0.00     0.163 HD
BRANCH   4   7
ATOM      7  C   UNL A   1      32.122  24.329  25.323  1.00  0.00     0.177 C 
ATOM      8  N   UNL A   1      32.419  25.023  24.068  1.00  0.00    -0.325 N 
ATOM      9  C   UNL A   1      33.845  25.207  23.880  1.00  0.00     0.152 C 
ATOM     10  C   UNL A   1      34.495  24.211  24.840  1.00  0.00     0.136 C 
ATOM     11  C   UNL A   1      33.475  23.999  25.956  1.00  0.00     0.069 C 
BRANCH   8  12
ATOM     12  C   UNL A   1      31.438  25.155  23.105  1.00  0.00     0.261 C 
ATOM     13  O   UNL A   1      30.623  24.255  22.887  1.00  0.00    -0.271 OA
BRANCH  12  14
ATOM     14  C   UNL A   1      31.443  26.404  22.211  1.00  0.00     0.329 C 
BRANCH  14  15
ATOM     15  O   UNL A   1      31.190  27.665  22.775  1.00  0.00    -0.484 OA
BRANCH  15  16
ATOM     16  C   UNL A   1      29.991  28.305  22.691  1.00  0.00     0.122 A 
ATOM     17  C   UNL A   1      28.359  26.690  23.897  1.00  0.00     0.048 C 
ATOM     18  C   UNL A   1      28.714  27.938  23.141  1.00  0.00    -0.009 A 
ATOM     19  C   UNL A   1      27.651  28.853  22.947  1.00  0.00     0.007 A 
ATOM     20  C   UNL A   1      27.840  30.092  22.336  1.00  0.00     0.001 A 
ATOM     21  C   UNL A   1      30.156  29.549  22.050  1.00  0.00     0.047 A 
ATOM     22  C   UNL A   1      29.099  30.441  21.882  1.00  0.00     0.004 A 
ENDBRANCH  15  16
ENDBRANCH  14  15
ENDBRANCH  12  14
ENDBRANCH   8  12
BRANCH  10  23
ATOM     23  O   UNL A   1      35.737  24.671  25.347  1.00  0.00    -0.391 OA
ATOM     24  H   UNL A   1      35.643  25.588  25.646  1.00  0.00     0.211 HD
ENDBRANCH  10  23
ENDBRANCH   4   7
ENDBRANCH   2   3
ENDBRANCH   1   2
BRANCH   1  25
ATOM     25  C   UNL A   1      33.535  29.044  27.407  1.00  0.00     0.023 C 
BRANCH  25  26
ATOM     26  C   UNL A   1      34.466  29.958  26.623  1.00  0.00     0.116 C 
BRANCH  26  27
ATOM     27  N   UNL A   1      34.997  31.077  27.384  1.00  0.00    -0.352 N 
ATOM     28  C   UNL A   1      36.127  31.088  28.186  1.00  0.00     0.251 C 
ATOM     29  H   UNL A   1      34.497  31.923  27.323  1.00  0.00     0.163 HD
ATOM     30  O   UNL A   1      36.384  32.027  28.923  1.00  0.00    -0.269 OA
BRANCH  28  31
ATOM     31  C   UNL A   1      37.060  29.944  28.063  1.00  0.00     0.039 A 
ATOM     32  C   UNL A   1      37.126  29.039  29.126  1.00  0.00     0.014 A 
ATOM     33  C   UNL A   1      38.011  29.918  27.045  1.00  0.00     0.014 A 
ATOM     34  C   UNL A   1      38.252  28.227  29.266  1.00  0.00     0.010 A 
ATOM     35  C   UNL A   1      39.168  29.182  27.236  1.00  0.00     0.010 A 
ATOM     36  C   UNL A   1      39.316  28.377  28.374  1.00  0.00    -0.014 A 
BRANCH  36  37
ATOM     37  C   UNL A   1      40.652  27.832  28.613  1.00  0.00     0.031 A 
ATOM     38  C   UNL A   1      40.967  26.416  28.291  1.00  0.00     0.074 A 
ATOM     39  C   UNL A   1      41.643  28.625  29.086  1.00  0.00     0.049 A 
ATOM     40  N   UNL A   1      41.963  25.758  28.791  1.00  0.00    -0.248 NA
ATOM     41  C   UNL A   1      40.109  25.590  27.443  1.00  0.00     0.031 C 
ATOM     42  C   UNL A   1      43.075  28.335  29.053  1.00  0.00     0.029 A 
ATOM     43  N   UNL A   1      41.551  29.755  29.904  1.00  0.00    -0.354 N 
ATOM     44  C   UNL A   1      42.057  24.565  28.111  1.00  0.00     0.074 A 
ATOM     45  C   UNL A   1      40.809  24.452  27.398  1.00  0.00     0.031 C 
ATOM     46  C   UNL A   1      43.676  29.028  30.030  1.00  0.00     0.029 A 
ATOM     47  C   UNL A   1      42.633  29.685  30.798  1.00  0.00     0.049 A 
ATOM     48  H   UNL A   1      40.864  30.460  29.862  1.00  0.00     0.167 HD
ATOM     49  C   UNL A   1      43.235  23.877  28.107  1.00  0.00     0.031 A 
ATOM     50  C   UNL A   1      42.528  29.672  32.158  1.00  0.00     0.031 A 
ATOM     51  C   UNL A   1      44.183  24.408  29.086  1.00  0.00     0.049 A 
ATOM     52  C   UNL A   1      43.210  28.491  32.809  1.00  0.00     0.074 A 
ATOM     53  C   UNL A   1      45.342  25.159  28.983  1.00  0.00     0.029 A 
ATOM     54  N   UNL A   1      43.862  24.362  30.439  1.00  0.00    -0.354 N 
ATOM     55  N   UNL A   1      43.650  27.456  32.151  1.00  0.00    -0.248 NA
ATOM     56  C   UNL A   1      43.386  28.346  34.254  1.00  0.00     0.031 C 
ATOM     57  C   UNL A   1      45.668  25.638  30.279  1.00  0.00     0.029 A 
ATOM     58  C   UNL A   1      44.729  25.149  31.171  1.00  0.00     0.049 A 
ATOM     59  H   UNL A   1      43.118  23.842  30.821  1.00  0.00     0.167 HD
ATOM     60  C   UNL A   1      44.108  26.513  33.031  1.00  0.00     0.074 A 
ATOM     61  C   UNL A   1      43.951  27.129  34.336  1.00  0.00     0.031 C 
ATOM     62  C   UNL A   1      44.549  25.293  32.610  1.00  0.00     0.031 A 
BRANCH  49  63
ATOM     63  C   UNL A   1      43.638  22.866  27.043  1.00  0.00    -0.014 A 
ATOM     64  C   UNL A   1      42.766  21.799  26.727  1.00  0.00     0.010 A 
ATOM     65  C   UNL A   1      44.892  22.829  26.405  1.00  0.00     0.010 A 
ATOM     66  C   UNL A   1      43.149  20.738  25.885  1.00  0.00     0.020 A 
ATOM     67  C   UNL A   1      45.285  21.789  25.551  1.00  0.00     0.020 A 
ATOM     68  C   UNL A   1      44.419  20.732  25.314  1.00  0.00     0.054 A 
BRANCH  68  69
ATOM     69  S   UNL A   1      44.947  19.333  24.293  1.00  0.00     0.124 S 
ATOM     70  O   UNL A   1      44.473  19.719  22.967  1.00  0.00    -0.237 OA
ATOM     71  O   UNL A   1      46.396  19.335  24.473  1.00  0.00    -0.237 OA
ATOM     72  O   UNL A   1      44.254  18.190  24.887  1.00  0.00    -0.744 OA
ENDBRANCH  68  69
ENDBRANCH  49  63
BRANCH  50  73
ATOM     73  C   UNL A   1      41.326  30.356  32.697  1.00  0.00    -0.014 A 
ATOM     74  C   UNL A   1      40.248  29.542  33.098  1.00  0.00     0.010 A 
ATOM     75  C   UNL A   1      41.421  31.668  33.195  1.00  0.00     0.010 A 
ATOM     76  C   UNL A   1      39.390  29.960  34.115  1.00  0.00     0.020 A 
ATOM     77  C   UNL A   1      40.557  32.090  34.215  1.00  0.00     0.020 A 
ATOM     78  C   UNL A   1      39.598  31.204  34.713  1.00  0.00     0.054 A 
BRANCH  78  79
ATOM     79  S   UNL A   1      38.751  31.536  36.286  1.00  0.00     0.124 S 
ATOM     80  O   UNL A   1      37.784  32.562  35.912  1.00  0.00    -0.237 OA
ATOM     81  O   UNL A   1      38.190  30.221  36.595  1.00  0.00    -0.237 OA
ATOM     82  O   UNL A   1      39.832  31.975  37.161  1.00  0.00    -0.744 OA
ENDBRANCH  78  79
ENDBRANCH  50  73
BRANCH  62  83
ATOM     83  C   UNL A   1      44.907  24.132  33.505  1.00  0.00    -0.014 A 
ATOM     84  C   UNL A   1      44.002  23.134  33.896  1.00  0.00     0.010 A 
ATOM     85  C   UNL A   1      46.260  23.957  33.881  1.00  0.00     0.010 A 
ATOM     86  C   UNL A   1      44.411  22.044  34.680  1.00  0.00     0.020 A 
ATOM     87  C   UNL A   1      46.686  22.854  34.627  1.00  0.00     0.020 A 
ATOM     88  C   UNL A   1      45.751  21.914  35.046  1.00  0.00     0.054 A 
BRANCH  88  89
ATOM     89  S   UNL A   1      46.294  20.473  36.000  1.00  0.00     0.124 S 
ATOM     90  O   UNL A   1      45.771  19.368  35.201  1.00  0.00    -0.237 OA
ATOM     91  O   UNL A   1      47.749  20.606  36.005  1.00  0.00    -0.237 OA
ATOM     92  O   UNL A   1      45.655  20.668  37.299  1.00  0.00    -0.744 OA
ENDBRANCH  88  89
ENDBRANCH  62  83
ENDBRANCH  36  37
ENDBRANCH  28  31
ENDBRANCH  26  27
ENDBRANCH  25  26
ENDBRANCH   1  25
TORSDOF 19
ENDMDL
