MODEL 1
REMARK VINA RESULT:     -10.9      0.000      0.000
REMARK SMILES O=C(NCCCCNC(=O)[C@@H]1CCC[C@@H](C(=O)N2CCN3C(=O)NC[C@@H]3C2)C1)c1ccc(-c2c3nc(c(-c4ccc(S(=O)(=O)[O-])cc4)c4ccc([nH]4)c(-c4ccc(S(=O)(=O)[O-])cc4)c4nc(c(-c5ccc(S(=O)(=O)[O-])cc5)c5ccc2[nH]5)C=C4)C=C3)cc1
REMARK SMILES IDX 5 1 4 2 3 3 1 4 2 5 29 7 30 8 88 9 31 10 87 11 32 12 33 13
REMARK SMILES IDX 34 14 81 15 35 16 86 17 80 18 82 19 36 20 85 21 79 22 78 23
REMARK SMILES IDX 37 25 67 26 48 27 66 28 49 29 52 30 65 31 83 32 50 33 51 34
REMARK SMILES IDX 64 36 84 37 53 38 38 39 39 40 47 41 40 42 46 43 41 44 42 45
REMARK SMILES IDX 43 46 44 47 45 48 68 49 69 50 77 51 70 52 76 53 71 54 72 55
REMARK SMILES IDX 73 56 74 57 75 58 54 59 55 60 63 61 56 62 62 63 57 64 58 65
REMARK SMILES IDX 59 66 60 67 61 68 6 69 7 70 8 71 9 72 10 74 11 75 12 76
REMARK SMILES IDX 28 77 13 78 15 79 14 80 16 81 17 82 18 83 19 84 27 85 20 86
REMARK SMILES IDX 26 87 21 88 25 89 22 90 24 91 23 92
REMARK H PARENT 3 6 82 24 52 35 8 73 24 93
REMARK Flexibility Score: inf
ROOT
ATOM      1  C   UNL A   1      33.909  28.466  25.719  1.00  0.00     0.023 C 
ENDROOT
BRANCH   1   2
ATOM      2  C   UNL A   1      33.842  28.571  27.233  1.00  0.00     0.116 C 
BRANCH   2   3
ATOM      3  N   UNL A   1      33.664  29.934  27.726  1.00  0.00    -0.352 N 
ATOM      4  O   UNL A   1      34.320  31.811  28.823  1.00  0.00    -0.269 OA
ATOM      5  C   UNL A   1      34.606  30.712  28.365  1.00  0.00     0.251 C 
ATOM      6  H   UNL A   1      32.778  30.340  27.586  1.00  0.00     0.163 HD
BRANCH   5   7
ATOM      7  C   UNL A   1      35.961  30.147  28.506  1.00  0.00     0.039 A 
ATOM      8  C   UNL A   1      36.369  29.711  29.765  1.00  0.00     0.014 A 
ATOM      9  C   UNL A   1      36.861  30.222  27.443  1.00  0.00     0.014 A 
ATOM     10  C   UNL A   1      37.720  29.547  30.011  1.00  0.00     0.010 A 
ATOM     11  C   UNL A   1      38.205  29.911  27.665  1.00  0.00     0.010 A 
ATOM     12  C   UNL A   1      38.653  29.607  28.959  1.00  0.00    -0.014 A 
BRANCH  12  13
ATOM     13  C   UNL A   1      40.063  29.250  29.260  1.00  0.00     0.031 A 
ATOM     14  C   UNL A   1      40.643  27.908  28.906  1.00  0.00     0.074 A 
ATOM     15  C   UNL A   1      40.840  30.207  29.807  1.00  0.00     0.049 A 
ATOM     16  N   UNL A   1      41.875  27.489  29.056  1.00  0.00    -0.248 NA
ATOM     17  C   UNL A   1      39.739  26.906  28.320  1.00  0.00     0.031 C 
ATOM     18  C   UNL A   1      40.374  31.541  30.206  1.00  0.00     0.029 A 
ATOM     19  N   UNL A   1      42.180  30.233  30.080  1.00  0.00    -0.354 N 
ATOM     20  C   UNL A   1      41.894  26.177  28.597  1.00  0.00     0.074 A 
ATOM     21  C   UNL A   1      40.541  25.856  28.192  1.00  0.00     0.031 C 
ATOM     22  C   UNL A   1      41.423  32.278  30.592  1.00  0.00     0.029 A 
ATOM     23  C   UNL A   1      42.613  31.442  30.570  1.00  0.00     0.049 A 
ATOM     24  H   UNL A   1      42.776  29.462  29.940  1.00  0.00     0.167 HD
ATOM     25  C   UNL A   1      42.946  25.324  28.515  1.00  0.00     0.031 A 
ATOM     26  C   UNL A   1      43.828  31.837  30.991  1.00  0.00     0.031 A 
ATOM     27  C   UNL A   1      44.286  25.654  28.933  1.00  0.00     0.049 A 
ATOM     28  C   UNL A   1      44.961  30.859  30.923  1.00  0.00     0.074 A 
ATOM     29  C   UNL A   1      45.422  24.862  28.888  1.00  0.00     0.029 A 
ATOM     30  N   UNL A   1      44.676  26.873  29.472  1.00  0.00    -0.354 N 
ATOM     31  N   UNL A   1      44.957  29.628  30.470  1.00  0.00    -0.248 NA
ATOM     32  C   UNL A   1      46.260  31.322  31.420  1.00  0.00     0.031 C 
ATOM     33  C   UNL A   1      46.482  25.581  29.452  1.00  0.00     0.029 A 
ATOM     34  C   UNL A   1      46.027  26.846  29.781  1.00  0.00     0.049 A 
ATOM     35  H   UNL A   1      44.079  27.644  29.612  1.00  0.00     0.167 HD
ATOM     36  C   UNL A   1      46.261  29.172  30.618  1.00  0.00     0.074 A 
ATOM     37  C   UNL A   1      47.028  30.274  31.163  1.00  0.00     0.031 C 
ATOM     38  C   UNL A   1      46.773  27.948  30.337  1.00  0.00     0.031 A 
BRANCH  25  39
ATOM     39  C   UNL A   1      42.694  23.941  27.965  1.00  0.00    -0.014 A 
ATOM     40  C   UNL A   1      42.384  22.866  28.817  1.00  0.00     0.010 A 
ATOM     41  C   UNL A   1      42.689  23.728  26.573  1.00  0.00     0.010 A 
ATOM     42  C   UNL A   1      42.101  21.601  28.291  1.00  0.00     0.020 A 
ATOM     43  C   UNL A   1      42.379  22.473  26.041  1.00  0.00     0.020 A 
ATOM     44  C   UNL A   1      42.098  21.413  26.905  1.00  0.00     0.054 A 
BRANCH  44  45
ATOM     45  S   UNL A   1      41.688  19.770  26.252  1.00  0.00     0.124 S 
ATOM     46  O   UNL A   1      42.021  18.905  27.381  1.00  0.00    -0.237 OA
ATOM     47  O   UNL A   1      40.264  19.893  25.953  1.00  0.00    -0.237 OA
ATOM     48  O   UNL A   1      42.558  19.631  25.086  1.00  0.00    -0.744 OA
ENDBRANCH  44  45
ENDBRANCH  25  39
BRANCH  26  49
ATOM     49  C   UNL A   1      44.006  33.199  31.563  1.00  0.00    -0.014 A 
ATOM     50  C   UNL A   1      44.330  34.295  30.746  1.00  0.00     0.010 A 
ATOM     51  C   UNL A   1      43.833  33.403  32.946  1.00  0.00     0.010 A 
ATOM     52  C   UNL A   1      44.511  35.562  31.307  1.00  0.00     0.020 A 
ATOM     53  C   UNL A   1      43.972  34.674  33.504  1.00  0.00     0.020 A 
ATOM     54  C   UNL A   1      44.331  35.742  32.683  1.00  0.00     0.054 A 
BRANCH  54  55
ATOM     55  S   UNL A   1      44.549  37.399  33.386  1.00  0.00     0.124 S 
ATOM     56  O   UNL A   1      44.956  37.094  34.754  1.00  0.00    -0.237 OA
ATOM     57  O   UNL A   1      45.583  37.973  32.528  1.00  0.00    -0.237 OA
ATOM     58  O   UNL A   1      43.227  38.005  33.246  1.00  0.00    -0.744 OA
ENDBRANCH  54  55
ENDBRANCH  26  49
BRANCH  38  59
ATOM     59  C   UNL A   1      48.245  27.757  30.593  1.00  0.00    -0.014 A 
ATOM     60  C   UNL A   1      49.204  28.065  29.611  1.00  0.00     0.010 A 
ATOM     61  C   UNL A   1      48.674  27.262  31.838  1.00  0.00     0.010 A 
ATOM     62  C   UNL A   1      50.559  27.828  29.850  1.00  0.00     0.020 A 
ATOM     63  C   UNL A   1      50.031  27.059  32.093  1.00  0.00     0.020 A 
ATOM     64  C   UNL A   1      50.964  27.322  31.088  1.00  0.00     0.054 A 
BRANCH  64  65
ATOM     65  S   UNL A   1      52.730  27.032  31.375  1.00  0.00     0.124 S 
ATOM     66  O   UNL A   1      52.734  26.505  32.737  1.00  0.00    -0.237 OA
ATOM     67  O   UNL A   1      53.070  26.072  30.328  1.00  0.00    -0.237 OA
ATOM     68  O   UNL A   1      53.329  28.356  31.219  1.00  0.00    -0.744 OA
ENDBRANCH  64  65
ENDBRANCH  38  59
ENDBRANCH  12  13
ENDBRANCH   5   7
ENDBRANCH   2   3
ENDBRANCH   1   2
BRANCH   1  69
ATOM     69  C   UNL A   1      32.964  29.411  24.982  1.00  0.00     0.023 C 
BRANCH  69  70
ATOM     70  C   UNL A   1      31.484  29.102  25.214  1.00  0.00     0.116 C 
BRANCH  70  71
ATOM     71  N   UNL A   1      30.777  28.923  23.967  1.00  0.00    -0.356 N 
ATOM     72  C   UNL A   1      30.785  27.936  23.043  1.00  0.00     0.223 C 
ATOM     73  H   UNL A   1      30.171  29.667  23.746  1.00  0.00     0.163 HD
ATOM     74  O   UNL A   1      30.040  28.090  22.068  1.00  0.00    -0.275 OA
BRANCH  72  75
ATOM     75  C   UNL A   1      31.614  26.657  23.142  1.00  0.00     0.079 C 
ATOM     76  C   UNL A   1      32.680  26.584  22.051  1.00  0.00     0.013 C 
ATOM     77  C   UNL A   1      30.899  25.311  23.300  1.00  0.00     0.027 C 
ATOM     78  C   UNL A   1      33.647  25.428  22.326  1.00  0.00     0.002 C 
ATOM     79  C   UNL A   1      31.838  24.159  23.642  1.00  0.00     0.079 C 
ATOM     80  C   UNL A   1      32.924  24.093  22.540  1.00  0.00     0.013 C 
BRANCH  79  81
ATOM     81  C   UNL A   1      32.508  24.113  25.021  1.00  0.00     0.225 C 
ATOM     82  O   UNL A   1      32.079  24.841  25.925  1.00  0.00    -0.275 OA
BRANCH  81  83
ATOM     83  N   UNL A   1      33.442  23.143  25.305  1.00  0.00    -0.339 N 
ATOM     84  C   UNL A   1      33.229  21.682  25.214  1.00  0.00     0.141 C 
ATOM     85  C   UNL A   1      34.783  23.611  25.640  1.00  0.00     0.146 C 
ATOM     86  C   UNL A   1      34.466  20.813  24.866  1.00  0.00     0.143 C 
ATOM     87  C   UNL A   1      35.809  22.949  24.751  1.00  0.00     0.125 C 
ATOM     88  N   UNL A   1      35.732  21.512  24.896  1.00  0.00    -0.317 N 
ATOM     89  C   UNL A   1      37.252  23.254  25.133  1.00  0.00     0.144 C 
ATOM     90  C   UNL A   1      36.992  20.940  24.922  1.00  0.00     0.317 C 
ATOM     91  N   UNL A   1      37.909  21.982  24.981  1.00  0.00    -0.336 N 
ATOM     92  O   UNL A   1      37.272  19.760  24.911  1.00  0.00    -0.249 OA
ATOM     93  H   UNL A   1      38.885  21.865  24.925  1.00  0.00     0.165 HD
ENDBRANCH  81  83
ENDBRANCH  79  81
ENDBRANCH  72  75
ENDBRANCH  70  71
ENDBRANCH  69  70
ENDBRANCH   1  69
TORSDOF 16
ENDMDL
MODEL 2
REMARK VINA RESULT:     -10.8      2.834      8.715
REMARK SMILES O=C(NCCCCNC(=O)[C@@H]1CCC[C@@H](C(=O)N2CCN3C(=O)NC[C@@H]3C2)C1)c1ccc(-c2c3nc(c(-c4ccc(S(=O)(=O)[O-])cc4)c4ccc([nH]4)c(-c4ccc(S(=O)(=O)[O-])cc4)c4nc(c(-c5ccc(S(=O)(=O)[O-])cc5)c5ccc2[nH]5)C=C4)C=C3)cc1
REMARK SMILES IDX 5 1 4 2 3 3 1 4 2 5 29 7 30 8 88 9 31 10 87 11 32 12 33 13
REMARK SMILES IDX 34 14 81 15 35 16 86 17 80 18 82 19 36 20 85 21 79 22 78 23
REMARK SMILES IDX 37 25 67 26 48 27 66 28 49 29 52 30 65 31 83 32 50 33 51 34
REMARK SMILES IDX 64 36 84 37 53 38 38 39 39 40 47 41 40 42 46 43 41 44 42 45
REMARK SMILES IDX 43 46 44 47 45 48 68 49 69 50 77 51 70 52 76 53 71 54 72 55
REMARK SMILES IDX 73 56 74 57 75 58 54 59 55 60 63 61 56 62 62 63 57 64 58 65
REMARK SMILES IDX 59 66 60 67 61 68 6 69 7 70 8 71 9 72 10 74 11 75 12 76
REMARK SMILES IDX 28 77 13 78 15 79 14 80 16 81 17 82 18 83 19 84 27 85 20 86
REMARK SMILES IDX 26 87 21 88 25 89 22 90 24 91 23 92
REMARK H PARENT 3 6 82 24 52 35 8 73 24 93
REMARK Flexibility Score: inf
ROOT
ATOM      1  C   UNL A   1      34.102  29.115  27.118  1.00  0.00     0.023 C 
ENDROOT
BRANCH   1   2
ATOM      2  C   UNL A   1      35.389  29.713  27.660  1.00  0.00     0.116 C 
BRANCH   2   3
ATOM      3  N   UNL A   1      35.371  29.954  29.100  1.00  0.00    -0.352 N 
ATOM      4  O   UNL A   1      36.244  29.874  31.196  1.00  0.00    -0.269 OA
ATOM      5  C   UNL A   1      36.399  29.726  29.990  1.00  0.00     0.251 C 
ATOM      6  H   UNL A   1      34.537  30.319  29.474  1.00  0.00     0.163 HD
BRANCH   5   7
ATOM      7  C   UNL A   1      37.681  29.259  29.430  1.00  0.00     0.039 A 
ATOM      8  C   UNL A   1      38.609  28.680  30.294  1.00  0.00     0.014 A 
ATOM      9  C   UNL A   1      38.015  29.558  28.109  1.00  0.00     0.014 A 
ATOM     10  C   UNL A   1      39.930  28.592  29.895  1.00  0.00     0.010 A 
ATOM     11  C   UNL A   1      39.321  29.328  27.668  1.00  0.00     0.010 A 
ATOM     12  C   UNL A   1      40.299  28.879  28.568  1.00  0.00    -0.014 A 
BRANCH  12  13
ATOM     13  C   UNL A   1      41.700  28.597  28.160  1.00  0.00     0.031 A 
ATOM     14  C   UNL A   1      42.764  29.660  28.162  1.00  0.00     0.074 A 
ATOM     15  C   UNL A   1      42.009  27.322  27.849  1.00  0.00     0.049 A 
ATOM     16  N   UNL A   1      44.039  29.535  27.889  1.00  0.00    -0.248 NA
ATOM     17  C   UNL A   1      42.359  31.032  28.503  1.00  0.00     0.031 C 
ATOM     18  C   UNL A   1      41.048  26.212  27.798  1.00  0.00     0.029 A 
ATOM     19  N   UNL A   1      43.208  26.729  27.562  1.00  0.00    -0.354 N 
ATOM     20  C   UNL A   1      44.586  30.807  28.012  1.00  0.00     0.074 A 
ATOM     21  C   UNL A   1      43.497  31.699  28.353  1.00  0.00     0.031 C 
ATOM     22  C   UNL A   1      41.706  25.067  27.584  1.00  0.00     0.029 A 
ATOM     23  C   UNL A   1      43.113  25.370  27.375  1.00  0.00     0.049 A 
ATOM     24  H   UNL A   1      44.055  27.226  27.497  1.00  0.00     0.167 HD
ATOM     25  C   UNL A   1      45.878  31.192  27.861  1.00  0.00     0.031 A 
ATOM     26  C   UNL A   1      44.046  24.461  27.039  1.00  0.00     0.031 A 
ATOM     27  C   UNL A   1      46.950  30.294  27.509  1.00  0.00     0.049 A 
ATOM     28  C   UNL A   1      45.457  24.924  26.842  1.00  0.00     0.074 A 
ATOM     29  C   UNL A   1      48.294  30.584  27.335  1.00  0.00     0.029 A 
ATOM     30  N   UNL A   1      46.807  28.932  27.277  1.00  0.00    -0.354 N 
ATOM     31  N   UNL A   1      45.953  26.131  26.980  1.00  0.00    -0.248 NA
ATOM     32  C   UNL A   1      46.434  23.905  26.448  1.00  0.00     0.031 C 
ATOM     33  C   UNL A   1      48.949  29.411  26.943  1.00  0.00     0.029 A 
ATOM     34  C   UNL A   1      48.031  28.375  26.943  1.00  0.00     0.049 A 
ATOM     35  H   UNL A   1      45.959  28.436  27.342  1.00  0.00     0.167 HD
ATOM     36  C   UNL A   1      47.307  26.013  26.698  1.00  0.00     0.074 A 
ATOM     37  C   UNL A   1      47.555  24.612  26.424  1.00  0.00     0.031 C 
ATOM     38  C   UNL A   1      48.258  26.979  26.659  1.00  0.00     0.031 A 
BRANCH  25  39
ATOM     39  C   UNL A   1      46.210  32.651  28.060  1.00  0.00    -0.014 A 
ATOM     40  C   UNL A   1      46.156  33.561  26.989  1.00  0.00     0.010 A 
ATOM     41  C   UNL A   1      46.504  33.135  29.349  1.00  0.00     0.010 A 
ATOM     42  C   UNL A   1      46.415  34.920  27.197  1.00  0.00     0.020 A 
ATOM     43  C   UNL A   1      46.735  34.496  29.568  1.00  0.00     0.020 A 
ATOM     44  C   UNL A   1      46.701  35.380  28.486  1.00  0.00     0.054 A 
BRANCH  44  45
ATOM     45  S   UNL A   1      46.993  37.154  28.731  1.00  0.00     0.124 S 
ATOM     46  O   UNL A   1      46.136  37.744  27.706  1.00  0.00    -0.237 OA
ATOM     47  O   UNL A   1      46.557  37.361  30.110  1.00  0.00    -0.237 OA
ATOM     48  O   UNL A   1      48.428  37.306  28.505  1.00  0.00    -0.744 OA
ENDBRANCH  44  45
ENDBRANCH  25  39
BRANCH  26  49
ATOM     49  C   UNL A   1      43.650  23.045  26.815  1.00  0.00    -0.014 A 
ATOM     50  C   UNL A   1      42.808  22.374  27.716  1.00  0.00     0.010 A 
ATOM     51  C   UNL A   1      44.114  22.362  25.674  1.00  0.00     0.010 A 
ATOM     52  C   UNL A   1      42.465  21.036  27.497  1.00  0.00     0.020 A 
ATOM     53  C   UNL A   1      43.740  21.041  25.429  1.00  0.00     0.020 A 
ATOM     54  C   UNL A   1      42.934  20.379  26.354  1.00  0.00     0.054 A 
BRANCH  54  55
ATOM     55  S   UNL A   1      42.458  18.652  26.077  1.00  0.00     0.124 S 
ATOM     56  O   UNL A   1      41.042  18.780  25.749  1.00  0.00    -0.237 OA
ATOM     57  O   UNL A   1      43.333  18.256  24.977  1.00  0.00    -0.237 OA
ATOM     58  O   UNL A   1      42.748  18.009  27.357  1.00  0.00    -0.744 OA
ENDBRANCH  54  55
ENDBRANCH  26  49
BRANCH  38  59
ATOM     59  C   UNL A   1      49.660  26.535  26.334  1.00  0.00    -0.014 A 
ATOM     60  C   UNL A   1      50.172  26.630  25.027  1.00  0.00     0.010 A 
ATOM     61  C   UNL A   1      50.477  26.015  27.354  1.00  0.00     0.010 A 
ATOM     62  C   UNL A   1      51.455  26.160  24.737  1.00  0.00     0.020 A 
ATOM     63  C   UNL A   1      51.773  25.578  27.074  1.00  0.00     0.020 A 
ATOM     64  C   UNL A   1      52.245  25.633  25.761  1.00  0.00     0.054 A 
BRANCH  64  65
ATOM     65  S   UNL A   1      53.911  25.039  25.359  1.00  0.00     0.124 S 
ATOM     66  O   UNL A   1      53.659  23.645  25.008  1.00  0.00    -0.237 OA
ATOM     67  O   UNL A   1      54.299  25.907  24.250  1.00  0.00    -0.237 OA
ATOM     68  O   UNL A   1      54.660  25.245  26.597  1.00  0.00    -0.744 OA
ENDBRANCH  64  65
ENDBRANCH  38  59
ENDBRANCH  12  13
ENDBRANCH   5   7
ENDBRANCH   2   3
ENDBRANCH   1   2
BRANCH   1  69
ATOM     69  C   UNL A   1      32.912  30.072  27.130  1.00  0.00     0.023 C 
BRANCH  69  70
ATOM     70  C   UNL A   1      32.182  30.158  25.789  1.00  0.00     0.116 C 
BRANCH  70  71
ATOM     71  N   UNL A   1      32.993  29.646  24.708  1.00  0.00    -0.356 N 
ATOM     72  C   UNL A   1      32.882  28.555  23.917  1.00  0.00     0.223 C 
ATOM     73  H   UNL A   1      33.782  30.200  24.509  1.00  0.00     0.163 HD
ATOM     74  O   UNL A   1      33.761  28.405  23.061  1.00  0.00    -0.275 OA
BRANCH  72  75
ATOM     75  C   UNL A   1      31.745  27.537  23.993  1.00  0.00     0.079 C 
ATOM     76  C   UNL A   1      30.390  28.173  23.688  1.00  0.00     0.013 C 
ATOM     77  C   UNL A   1      31.653  26.607  25.207  1.00  0.00     0.027 C 
ATOM     78  C   UNL A   1      29.319  27.091  23.525  1.00  0.00     0.002 C 
ATOM     79  C   UNL A   1      30.638  25.481  25.036  1.00  0.00     0.079 C 
ATOM     80  C   UNL A   1      29.267  26.128  24.717  1.00  0.00     0.013 C 
BRANCH  79  81
ATOM     81  C   UNL A   1      30.918  24.357  24.030  1.00  0.00     0.225 C 
ATOM     82  O   UNL A   1      30.289  24.328  22.966  1.00  0.00    -0.275 OA
BRANCH  81  83
ATOM     83  N   UNL A   1      31.984  23.507  24.222  1.00  0.00    -0.339 N 
ATOM     84  C   UNL A   1      33.170  23.393  23.346  1.00  0.00     0.141 C 
ATOM     85  C   UNL A   1      31.971  22.716  25.449  1.00  0.00     0.146 C 
ATOM     86  C   UNL A   1      34.505  22.984  24.021  1.00  0.00     0.143 C 
ATOM     87  C   UNL A   1      33.257  22.914  26.216  1.00  0.00     0.125 C 
ATOM     88  N   UNL A   1      34.385  22.539  25.393  1.00  0.00    -0.317 N 
ATOM     89  C   UNL A   1      33.403  22.006  27.430  1.00  0.00     0.144 C 
ATOM     90  C   UNL A   1      35.336  21.850  26.125  1.00  0.00     0.317 C 
ATOM     91  N   UNL A   1      34.783  21.600  27.375  1.00  0.00    -0.336 N 
ATOM     92  O   UNL A   1      36.442  21.505  25.766  1.00  0.00    -0.249 OA
ATOM     93  H   UNL A   1      35.274  21.198  28.127  1.00  0.00     0.165 HD
ENDBRANCH  81  83
ENDBRANCH  79  81
ENDBRANCH  72  75
ENDBRANCH  70  71
ENDBRANCH  69  70
ENDBRANCH   1  69
TORSDOF 16
ENDMDL
MODEL 3
REMARK VINA RESULT:     -10.8      0.532      8.153
REMARK SMILES O=C(NCCCCNC(=O)[C@@H]1CCC[C@@H](C(=O)N2CCN3C(=O)NC[C@@H]3C2)C1)c1ccc(-c2c3nc(c(-c4ccc(S(=O)(=O)[O-])cc4)c4ccc([nH]4)c(-c4ccc(S(=O)(=O)[O-])cc4)c4nc(c(-c5ccc(S(=O)(=O)[O-])cc5)c5ccc2[nH]5)C=C4)C=C3)cc1
REMARK SMILES IDX 5 1 4 2 3 3 1 4 2 5 29 7 30 8 88 9 31 10 87 11 32 12 33 13
REMARK SMILES IDX 34 14 81 15 35 16 86 17 80 18 82 19 36 20 85 21 79 22 78 23
REMARK SMILES IDX 37 25 67 26 48 27 66 28 49 29 52 30 65 31 83 32 50 33 51 34
REMARK SMILES IDX 64 36 84 37 53 38 38 39 39 40 47 41 40 42 46 43 41 44 42 45
REMARK SMILES IDX 43 46 44 47 45 48 68 49 69 50 77 51 70 52 76 53 71 54 72 55
REMARK SMILES IDX 73 56 74 57 75 58 54 59 55 60 63 61 56 62 62 63 57 64 58 65
REMARK SMILES IDX 59 66 60 67 61 68 6 69 7 70 8 71 9 72 10 74 11 75 12 76
REMARK SMILES IDX 28 77 13 78 15 79 14 80 16 81 17 82 18 83 19 84 27 85 20 86
REMARK SMILES IDX 26 87 21 88 25 89 22 90 24 91 23 92
REMARK H PARENT 3 6 82 24 52 35 8 73 24 93
REMARK Flexibility Score: inf
ROOT
ATOM      1  C   UNL A   1      33.991  28.183  25.649  1.00  0.00     0.023 C 
ENDROOT
BRANCH   1   2
ATOM      2  C   UNL A   1      33.771  28.293  27.148  1.00  0.00     0.116 C 
BRANCH   2   3
ATOM      3  N   UNL A   1      33.536  29.656  27.615  1.00  0.00    -0.352 N 
ATOM      4  O   UNL A   1      34.122  31.588  28.656  1.00  0.00    -0.269 OA
ATOM      5  C   UNL A   1      34.452  30.494  28.215  1.00  0.00     0.251 C 
ATOM      6  H   UNL A   1      32.629  30.014  27.487  1.00  0.00     0.163 HD
BRANCH   5   7
ATOM      7  C   UNL A   1      35.836  30.000  28.338  1.00  0.00     0.039 A 
ATOM      8  C   UNL A   1      36.279  29.572  29.588  1.00  0.00     0.014 A 
ATOM      9  C   UNL A   1      36.721  30.133  27.267  1.00  0.00     0.014 A 
ATOM     10  C   UNL A   1      37.639  29.477  29.820  1.00  0.00     0.010 A 
ATOM     11  C   UNL A   1      38.082  29.891  27.473  1.00  0.00     0.010 A 
ATOM     12  C   UNL A   1      38.557  29.597  28.760  1.00  0.00    -0.014 A 
BRANCH  12  13
ATOM     13  C   UNL A   1      39.987  29.312  29.044  1.00  0.00     0.031 A 
ATOM     14  C   UNL A   1      40.885  30.310  29.720  1.00  0.00     0.074 A 
ATOM     15  C   UNL A   1      40.445  28.081  28.734  1.00  0.00     0.049 A 
ATOM     16  N   UNL A   1      42.135  30.166  30.083  1.00  0.00    -0.248 NA
ATOM     17  C   UNL A   1      40.325  31.637  30.024  1.00  0.00     0.031 C 
ATOM     18  C   UNL A   1      39.662  27.038  28.060  1.00  0.00     0.029 A 
ATOM     19  N   UNL A   1      41.649  27.480  28.979  1.00  0.00    -0.354 N 
ATOM     20  C   UNL A   1      42.516  31.380  30.644  1.00  0.00     0.074 A 
ATOM     21  C   UNL A   1      41.373  32.263  30.545  1.00  0.00     0.031 C 
ATOM     22  C   UNL A   1      40.374  25.906  28.022  1.00  0.00     0.029 A 
ATOM     23  C   UNL A   1      41.696  26.168  28.568  1.00  0.00     0.049 A 
ATOM     24  H   UNL A   1      42.407  27.940  29.407  1.00  0.00     0.167 HD
ATOM     25  C   UNL A   1      43.708  31.719  31.197  1.00  0.00     0.031 A 
ATOM     26  C   UNL A   1      42.701  25.274  28.594  1.00  0.00     0.031 A 
ATOM     27  C   UNL A   1      44.842  30.832  31.278  1.00  0.00     0.049 A 
ATOM     28  C   UNL A   1      44.016  25.693  29.176  1.00  0.00     0.074 A 
ATOM     29  C   UNL A   1      46.091  31.080  31.822  1.00  0.00     0.029 A 
ATOM     30  N   UNL A   1      44.868  29.527  30.805  1.00  0.00    -0.354 N 
ATOM     31  N   UNL A   1      44.347  26.842  29.716  1.00  0.00    -0.248 NA
ATOM     32  C   UNL A   1      45.091  24.697  29.156  1.00  0.00     0.031 C 
ATOM     33  C   UNL A   1      46.889  29.946  31.625  1.00  0.00     0.029 A 
ATOM     34  C   UNL A   1      46.116  28.966  31.026  1.00  0.00     0.049 A 
ATOM     35  H   UNL A   1      44.110  29.067  30.376  1.00  0.00     0.167 HD
ATOM     36  C   UNL A   1      45.671  26.702  30.110  1.00  0.00     0.074 A 
ATOM     37  C   UNL A   1      46.062  25.345  29.784  1.00  0.00     0.031 C 
ATOM     38  C   UNL A   1      46.493  27.617  30.682  1.00  0.00     0.031 A 
BRANCH  25  39
ATOM     39  C   UNL A   1      43.859  33.117  31.748  1.00  0.00    -0.014 A 
ATOM     40  C   UNL A   1      44.297  34.176  30.932  1.00  0.00     0.010 A 
ATOM     41  C   UNL A   1      43.484  33.393  33.077  1.00  0.00     0.010 A 
ATOM     42  C   UNL A   1      44.382  35.476  31.442  1.00  0.00     0.020 A 
ATOM     43  C   UNL A   1      43.540  34.695  33.582  1.00  0.00     0.020 A 
ATOM     44  C   UNL A   1      44.001  35.728  32.763  1.00  0.00     0.054 A 
BRANCH  44  45
ATOM     45  S   UNL A   1      44.086  37.432  33.382  1.00  0.00     0.124 S 
ATOM     46  O   UNL A   1      42.901  37.503  34.232  1.00  0.00    -0.237 OA
ATOM     47  O   UNL A   1      45.367  37.453  34.084  1.00  0.00    -0.237 OA
ATOM     48  O   UNL A   1      44.030  38.246  32.170  1.00  0.00    -0.744 OA
ENDBRANCH  44  45
ENDBRANCH  25  39
BRANCH  26  49
ATOM     49  C   UNL A   1      42.505  23.926  27.997  1.00  0.00    -0.014 A 
ATOM     50  C   UNL A   1      42.003  22.859  28.760  1.00  0.00     0.010 A 
ATOM     51  C   UNL A   1      42.813  23.712  26.639  1.00  0.00     0.010 A 
ATOM     52  C   UNL A   1      41.846  21.594  28.183  1.00  0.00     0.020 A 
ATOM     53  C   UNL A   1      42.618  22.463  26.050  1.00  0.00     0.020 A 
ATOM     54  C   UNL A   1      42.155  21.406  26.832  1.00  0.00     0.054 A 
BRANCH  54  55
ATOM     55  S   UNL A   1      41.921  19.764  26.100  1.00  0.00     0.124 S 
ATOM     56  O   UNL A   1      42.876  19.788  24.997  1.00  0.00    -0.237 OA
ATOM     57  O   UNL A   1      42.253  18.874  27.209  1.00  0.00    -0.237 OA
ATOM     58  O   UNL A   1      40.513  19.762  25.709  1.00  0.00    -0.744 OA
ENDBRANCH  54  55
ENDBRANCH  26  49
BRANCH  38  59
ATOM     59  C   UNL A   1      47.889  27.158  31.013  1.00  0.00    -0.014 A 
ATOM     60  C   UNL A   1      48.188  26.565  32.253  1.00  0.00     0.010 A 
ATOM     61  C   UNL A   1      48.916  27.323  30.067  1.00  0.00     0.010 A 
ATOM     62  C   UNL A   1      49.500  26.198  32.561  1.00  0.00     0.020 A 
ATOM     63  C   UNL A   1      50.221  26.923  30.358  1.00  0.00     0.020 A 
ATOM     64  C   UNL A   1      50.509  26.383  31.613  1.00  0.00     0.054 A 
BRANCH  64  65
ATOM     65  S   UNL A   1      52.202  25.889  32.034  1.00  0.00     0.124 S 
ATOM     66  O   UNL A   1      52.929  26.224  30.813  1.00  0.00    -0.237 OA
ATOM     67  O   UNL A   1      52.500  26.728  33.193  1.00  0.00    -0.237 OA
ATOM     68  O   UNL A   1      52.085  24.461  32.319  1.00  0.00    -0.744 OA
ENDBRANCH  64  65
ENDBRANCH  38  59
ENDBRANCH  12  13
ENDBRANCH   5   7
ENDBRANCH   2   3
ENDBRANCH   1   2
BRANCH   1  69
ATOM     69  C   UNL A   1      33.140  29.140  24.818  1.00  0.00     0.023 C 
BRANCH  69  70
ATOM     70  C   UNL A   1      31.635  28.940  25.005  1.00  0.00     0.116 C 
BRANCH  70  71
ATOM     71  N   UNL A   1      30.963  28.752  23.740  1.00  0.00    -0.356 N 
ATOM     72  C   UNL A   1      30.967  27.740  22.843  1.00  0.00     0.223 C 
ATOM     73  H   UNL A   1      30.392  29.510  23.479  1.00  0.00     0.163 HD
ATOM     74  O   UNL A   1      30.260  27.893  21.840  1.00  0.00    -0.275 OA
BRANCH  72  75
ATOM     75  C   UNL A   1      31.746  26.436  23.004  1.00  0.00     0.079 C 
ATOM     76  C   UNL A   1      32.823  26.281  21.932  1.00  0.00     0.013 C 
ATOM     77  C   UNL A   1      30.978  25.125  23.203  1.00  0.00     0.027 C 
ATOM     78  C   UNL A   1      33.741  25.102  22.266  1.00  0.00     0.002 C 
ATOM     79  C   UNL A   1      31.869  23.953  23.603  1.00  0.00     0.079 C 
ATOM     80  C   UNL A   1      32.966  23.804  22.520  1.00  0.00     0.013 C 
BRANCH  79  81
ATOM     81  C   UNL A   1      32.518  23.937  24.993  1.00  0.00     0.225 C 
ATOM     82  O   UNL A   1      32.057  24.661  25.883  1.00  0.00    -0.275 OA
BRANCH  81  83
ATOM     83  N   UNL A   1      33.472  22.994  25.300  1.00  0.00    -0.339 N 
ATOM     84  C   UNL A   1      33.282  21.527  25.273  1.00  0.00     0.141 C 
ATOM     85  C   UNL A   1      34.811  23.496  25.592  1.00  0.00     0.146 C 
ATOM     86  C   UNL A   1      34.526  20.664  24.939  1.00  0.00     0.143 C 
ATOM     87  C   UNL A   1      35.833  22.813  24.713  1.00  0.00     0.125 C 
ATOM     88  N   UNL A   1      35.781  21.382  24.918  1.00  0.00    -0.317 N 
ATOM     89  C   UNL A   1      37.276  23.155  25.057  1.00  0.00     0.144 C 
ATOM     90  C   UNL A   1      37.050  20.831  24.945  1.00  0.00     0.317 C 
ATOM     91  N   UNL A   1      37.952  21.889  24.945  1.00  0.00    -0.336 N 
ATOM     92  O   UNL A   1      37.349  19.656  24.978  1.00  0.00    -0.249 OA
ATOM     93  H   UNL A   1      38.928  21.785  24.877  1.00  0.00     0.165 HD
ENDBRANCH  81  83
ENDBRANCH  79  81
ENDBRANCH  72  75
ENDBRANCH  70  71
ENDBRANCH  69  70
ENDBRANCH   1  69
TORSDOF 16
ENDMDL
