MODEL 1
REMARK VINA RESULT:     -11.5      0.000      0.000
REMARK SMILES CC(C)c1cc(C2CC[NH+](Cc3c[nH]nc3C(=O)NCCCCNC(=O)c3ccc(-c4c5nc(c(-c6ccc(S(=O)(=O)[O-])cc6)c6ccc([nH]6)c(-c6ccc(S(=O)(=O)[O-])cc6)c6nc(c(-c7ccc(S(=O)(=O)[O-])cc7)c7ccc4[nH]7)C=C6)C=C5)cc3)CC2)n[nH]1
REMARK SMILES IDX 21 1 20 2 19 3 17 4 18 5 16 7 12 8 13 9 14 10 15 11 11 13
REMARK SMILES IDX 10 14 7 15 8 16 88 17 9 18 87 19 6 21 4 22 5 23 90 24 89 25
REMARK SMILES IDX 2 27 1 28 3 29 22 30 23 31 24 32 25 33 26 35 27 36 28 37
REMARK SMILES IDX 86 38 29 39 85 40 30 41 31 42 32 43 79 44 33 45 84 46 78 47
REMARK SMILES IDX 80 48 34 49 83 50 77 51 76 52 35 54 65 55 46 56 64 57 47 58
REMARK SMILES IDX 50 59 63 60 81 61 48 62 49 63 62 65 82 66 51 67 36 68 37 69
REMARK SMILES IDX 45 70 38 71 44 72 39 73 40 74 41 75 42 76 43 77 66 78 67 79
REMARK SMILES IDX 75 80 68 81 74 82 69 83 70 84 71 85 72 86 73 87 52 88 53 89
REMARK SMILES IDX 61 90 54 91 60 92 55 93 56 94 57 95 58 96 59 97
REMARK H PARENT 19 6 14 12 10 20 90 26 24 34 80 53 50 64
REMARK Flexibility Score: inf
ROOT
ATOM      1  C   UNL A   1      32.164  29.173  25.156  1.00  0.00     0.023 C 
ENDROOT
BRANCH   1   2
ATOM      2  C   UNL A   1      31.066  30.163  24.793  1.00  0.00     0.116 C 
BRANCH   2   3
ATOM      3  N   UNL A   1      30.652  30.101  23.428  1.00  0.00    -0.351 N 
ATOM      4  C   UNL A   1      29.870  29.217  22.729  1.00  0.00     0.272 C 
ATOM      5  O   UNL A   1      29.752  29.545  21.538  1.00  0.00    -0.267 OA
ATOM      6  H   UNL A   1      30.999  30.841  22.878  1.00  0.00     0.163 HD
BRANCH   4   7
ATOM      7  C   UNL A   1      29.192  27.978  23.247  1.00  0.00     0.158 A 
ATOM      8  C   UNL A   1      29.556  26.668  23.788  1.00  0.00     0.057 A 
ATOM      9  C   UNL A   1      28.340  26.101  24.152  1.00  0.00     0.115 A 
ATOM     10  N   UNL A   1      27.371  26.962  23.787  1.00  0.00    -0.284 N 
ATOM     11  N   UNL A   1      27.836  28.071  23.239  1.00  0.00    -0.170 NA
ATOM     12  H   UNL A   1      26.411  26.783  23.915  1.00  0.00     0.189 HD
BRANCH   8  13
ATOM     13  C   UNL A   1      30.846  25.939  24.054  1.00  0.00     0.303 C 
BRANCH  13  14
ATOM     14  N   UNL A   1      30.700  24.665  24.807  1.00  0.00    -0.331 N 
ATOM     15  C   UNL A   1      31.690  22.209  26.170  1.00  0.00     0.051 C 
ATOM     16  C   UNL A   1      31.067  22.175  24.774  1.00  0.00     0.071 C 
ATOM     17  C   UNL A   1      31.051  23.355  26.949  1.00  0.00     0.071 C 
ATOM     18  C   UNL A   1      31.178  23.512  24.039  1.00  0.00     0.263 C 
ATOM     19  C   UNL A   1      31.129  24.691  26.210  1.00  0.00     0.263 C 
ATOM     20  H   UNL A   1      29.693  24.542  24.914  1.00  0.00     0.348 HD
BRANCH  15  21
ATOM     21  C   UNL A   1      33.199  22.268  26.169  1.00  0.00     0.066 A 
ATOM     22  C   UNL A   1      35.339  22.671  25.691  1.00  0.00     0.038 A 
ATOM     23  C   UNL A   1      34.066  22.819  25.200  1.00  0.00     0.049 A 
ATOM     24  N   UNL A   1      35.180  22.043  26.895  1.00  0.00    -0.282 N 
ATOM     25  N   UNL A   1      33.899  21.773  27.200  1.00  0.00    -0.180 NA
ATOM     26  H   UNL A   1      35.934  21.810  27.483  1.00  0.00     0.190 HD
BRANCH  22  27
ATOM     27  C   UNL A   1      36.641  23.084  25.085  1.00  0.00     0.031 C 
ATOM     28  C   UNL A   1      37.503  23.904  26.040  1.00  0.00     0.014 C 
ATOM     29  C   UNL A   1      37.394  21.866  24.552  1.00  0.00     0.014 C 
ENDBRANCH  22  27
ENDBRANCH  15  21
ENDBRANCH  13  14
ENDBRANCH   8  13
ENDBRANCH   4   7
ENDBRANCH   2   3
ENDBRANCH   1   2
BRANCH   1  30
ATOM     30  C   UNL A   1      32.102  28.633  26.572  1.00  0.00     0.023 C 
BRANCH  30  31
ATOM     31  C   UNL A   1      33.330  28.925  27.426  1.00  0.00     0.116 C 
BRANCH  31  32
ATOM     32  N   UNL A   1      33.541  30.339  27.726  1.00  0.00    -0.352 N 
ATOM     33  C   UNL A   1      34.694  30.975  28.143  1.00  0.00     0.251 C 
ATOM     34  H   UNL A   1      32.752  30.918  27.618  1.00  0.00     0.163 HD
ATOM     35  O   UNL A   1      34.699  32.166  28.392  1.00  0.00    -0.269 OA
BRANCH  33  36
ATOM     36  C   UNL A   1      35.908  30.153  28.337  1.00  0.00     0.039 A 
ATOM     37  C   UNL A   1      36.870  30.127  27.328  1.00  0.00     0.014 A 
ATOM     38  C   UNL A   1      36.147  29.547  29.571  1.00  0.00     0.014 A 
ATOM     39  C   UNL A   1      38.131  29.596  27.604  1.00  0.00     0.010 A 
ATOM     40  C   UNL A   1      37.432  29.119  29.875  1.00  0.00     0.010 A 
ATOM     41  C   UNL A   1      38.443  29.154  28.901  1.00  0.00    -0.014 A 
BRANCH  41  42
ATOM     42  C   UNL A   1      39.823  28.753  29.277  1.00  0.00     0.031 A 
ATOM     43  C   UNL A   1      40.716  29.728  29.995  1.00  0.00     0.074 A 
ATOM     44  C   UNL A   1      40.306  27.556  28.884  1.00  0.00     0.049 A 
ATOM     45  N   UNL A   1      41.982  29.612  30.305  1.00  0.00    -0.248 NA
ATOM     46  C   UNL A   1      40.122  31.020  30.376  1.00  0.00     0.031 C 
ATOM     47  C   UNL A   1      39.569  26.547  28.117  1.00  0.00     0.029 A 
ATOM     48  N   UNL A   1      41.541  26.986  29.069  1.00  0.00    -0.354 N 
ATOM     49  C   UNL A   1      42.341  30.826  30.878  1.00  0.00     0.074 A 
ATOM     50  C   UNL A   1      41.177  31.680  30.828  1.00  0.00     0.031 C 
ATOM     51  C   UNL A   1      40.353  25.471  27.932  1.00  0.00     0.029 A 
ATOM     52  C   UNL A   1      41.658  25.725  28.531  1.00  0.00     0.049 A 
ATOM     53  H   UNL A   1      42.276  27.438  29.544  1.00  0.00     0.167 HD
ATOM     54  C   UNL A   1      43.526  31.190  31.419  1.00  0.00     0.031 A 
ATOM     55  C   UNL A   1      42.698  24.870  28.521  1.00  0.00     0.031 A 
ATOM     56  C   UNL A   1      44.666  30.322  31.519  1.00  0.00     0.049 A 
ATOM     57  C   UNL A   1      43.985  25.274  29.186  1.00  0.00     0.074 A 
ATOM     58  C   UNL A   1      45.886  30.569  32.123  1.00  0.00     0.029 A 
ATOM     59  N   UNL A   1      44.722  29.033  31.013  1.00  0.00    -0.354 N 
ATOM     60  N   UNL A   1      44.284  26.405  29.780  1.00  0.00    -0.248 NA
ATOM     61  C   UNL A   1      45.071  24.283  29.188  1.00  0.00     0.031 C 
ATOM     62  C   UNL A   1      46.690  29.436  31.962  1.00  0.00     0.029 A 
ATOM     63  C   UNL A   1      45.957  28.471  31.289  1.00  0.00     0.049 A 
ATOM     64  H   UNL A   1      43.991  28.582  30.530  1.00  0.00     0.167 HD
ATOM     65  C   UNL A   1      45.583  26.251  30.250  1.00  0.00     0.074 A 
ATOM     66  C   UNL A   1      46.008  24.917  29.882  1.00  0.00     0.031 C 
ATOM     67  C   UNL A   1      46.355  27.137  30.924  1.00  0.00     0.031 A 
BRANCH  54  68
ATOM     68  C   UNL A   1      43.637  32.588  31.963  1.00  0.00    -0.014 A 
ATOM     69  C   UNL A   1      44.007  33.660  31.131  1.00  0.00     0.010 A 
ATOM     70  C   UNL A   1      43.345  32.839  33.315  1.00  0.00     0.010 A 
ATOM     71  C   UNL A   1      44.127  34.950  31.650  1.00  0.00     0.020 A 
ATOM     72  C   UNL A   1      43.438  34.134  33.834  1.00  0.00     0.020 A 
ATOM     73  C   UNL A   1      43.848  35.178  33.000  1.00  0.00     0.054 A 
BRANCH  73  74
ATOM     74  S   UNL A   1      43.991  36.867  33.647  1.00  0.00     0.124 S 
ATOM     75  O   UNL A   1      44.918  36.682  34.761  1.00  0.00    -0.237 OA
ATOM     76  O   UNL A   1      44.522  37.606  32.505  1.00  0.00    -0.237 OA
ATOM     77  O   UNL A   1      42.622  37.209  34.025  1.00  0.00    -0.744 OA
ENDBRANCH  73  74
ENDBRANCH  54  68
BRANCH  55  78
ATOM     78  C   UNL A   1      42.560  23.529  27.890  1.00  0.00    -0.014 A 
ATOM     79  C   UNL A   1      41.988  22.466  28.609  1.00  0.00     0.010 A 
ATOM     80  C   UNL A   1      42.998  23.309  26.572  1.00  0.00     0.010 A 
ATOM     81  C   UNL A   1      41.876  21.197  28.032  1.00  0.00     0.020 A 
ATOM     82  C   UNL A   1      42.867  22.046  25.983  1.00  0.00     0.020 A 
ATOM     83  C   UNL A   1      42.320  20.995  26.722  1.00  0.00     0.054 A 
BRANCH  83  84
ATOM     84  S   UNL A   1      42.131  19.352  25.974  1.00  0.00     0.124 S 
ATOM     85  O   UNL A   1      42.653  18.481  27.022  1.00  0.00    -0.237 OA
ATOM     86  O   UNL A   1      40.691  19.272  25.742  1.00  0.00    -0.237 OA
ATOM     87  O   UNL A   1      42.944  19.436  24.763  1.00  0.00    -0.744 OA
ENDBRANCH  83  84
ENDBRANCH  55  78
BRANCH  67  88
ATOM     88  C   UNL A   1      47.725  26.681  31.342  1.00  0.00    -0.014 A 
ATOM     89  C   UNL A   1      47.949  26.133  32.615  1.00  0.00     0.010 A 
ATOM     90  C   UNL A   1      48.786  26.746  30.421  1.00  0.00     0.010 A 
ATOM     91  C   UNL A   1      49.220  25.677  32.972  1.00  0.00     0.020 A 
ATOM     92  C   UNL A   1      50.053  26.272  30.766  1.00  0.00     0.020 A 
ATOM     93  C   UNL A   1      50.265  25.751  32.044  1.00  0.00     0.054 A 
BRANCH  93  94
ATOM     94  S   UNL A   1      51.896  25.106  32.508  1.00  0.00     0.124 S 
ATOM     95  O   UNL A   1      51.948  25.412  33.934  1.00  0.00    -0.237 OA
ATOM     96  O   UNL A   1      51.790  23.688  32.174  1.00  0.00    -0.237 OA
ATOM     97  O   UNL A   1      52.819  25.869  31.672  1.00  0.00    -0.744 OA
ENDBRANCH  93  94
ENDBRANCH  67  88
ENDBRANCH  41  42
ENDBRANCH  33  36
ENDBRANCH  31  32
ENDBRANCH  30  31
ENDBRANCH   1  30
TORSDOF 18
ENDMDL
MODEL 2
REMARK VINA RESULT:     -11.3      4.160     10.245
REMARK SMILES CC(C)c1cc(C2CC[NH+](Cc3c[nH]nc3C(=O)NCCCCNC(=O)c3ccc(-c4c5nc(c(-c6ccc(S(=O)(=O)[O-])cc6)c6ccc([nH]6)c(-c6ccc(S(=O)(=O)[O-])cc6)c6nc(c(-c7ccc(S(=O)(=O)[O-])cc7)c7ccc4[nH]7)C=C6)C=C5)cc3)CC2)n[nH]1
REMARK SMILES IDX 21 1 20 2 19 3 17 4 18 5 16 7 12 8 13 9 14 10 15 11 11 13
REMARK SMILES IDX 10 14 7 15 8 16 88 17 9 18 87 19 6 21 4 22 5 23 90 24 89 25
REMARK SMILES IDX 2 27 1 28 3 29 22 30 23 31 24 32 25 33 26 35 27 36 28 37
REMARK SMILES IDX 86 38 29 39 85 40 30 41 31 42 32 43 79 44 33 45 84 46 78 47
REMARK SMILES IDX 80 48 34 49 83 50 77 51 76 52 35 54 65 55 46 56 64 57 47 58
REMARK SMILES IDX 50 59 63 60 81 61 48 62 49 63 62 65 82 66 51 67 36 68 37 69
REMARK SMILES IDX 45 70 38 71 44 72 39 73 40 74 41 75 42 76 43 77 66 78 67 79
REMARK SMILES IDX 75 80 68 81 74 82 69 83 70 84 71 85 72 86 73 87 52 88 53 89
REMARK SMILES IDX 61 90 54 91 60 92 55 93 56 94 57 95 58 96 59 97
REMARK H PARENT 19 6 14 12 10 20 90 26 24 34 80 53 50 64
REMARK Flexibility Score: inf
ROOT
ATOM      1  C   UNL A   1      36.726  22.228  25.695  1.00  0.00     0.023 C 
ENDROOT
BRANCH   1   2
ATOM      2  C   UNL A   1      35.280  22.566  25.359  1.00  0.00     0.116 C 
BRANCH   2   3
ATOM      3  N   UNL A   1      34.922  23.922  25.628  1.00  0.00    -0.351 N 
ATOM      4  C   UNL A   1      33.728  24.533  25.917  1.00  0.00     0.272 C 
ATOM      5  O   UNL A   1      33.863  25.753  26.096  1.00  0.00    -0.267 OA
ATOM      6  H   UNL A   1      35.685  24.544  25.599  1.00  0.00     0.163 HD
BRANCH   4   7
ATOM      7  C   UNL A   1      32.371  23.894  26.030  1.00  0.00     0.158 A 
ATOM      8  C   UNL A   1      31.248  23.531  25.163  1.00  0.00     0.057 A 
ATOM      9  C   UNL A   1      30.370  22.860  26.007  1.00  0.00     0.115 A 
ATOM     10  N   UNL A   1      30.896  22.899  27.246  1.00  0.00    -0.284 N 
ATOM     11  N   UNL A   1      32.066  23.512  27.298  1.00  0.00    -0.170 NA
ATOM     12  H   UNL A   1      30.454  22.510  28.035  1.00  0.00     0.189 HD
BRANCH   8  13
ATOM     13  C   UNL A   1      30.936  23.674  23.697  1.00  0.00     0.303 C 
BRANCH  13  14
ATOM     14  N   UNL A   1      30.668  25.065  23.247  1.00  0.00    -0.331 N 
ATOM     15  C   UNL A   1      30.762  28.034  23.461  1.00  0.00     0.051 C 
ATOM     16  C   UNL A   1      29.498  27.232  23.771  1.00  0.00     0.071 C 
ATOM     17  C   UNL A   1      31.553  27.282  22.394  1.00  0.00     0.071 C 
ATOM     18  C   UNL A   1      29.794  25.786  24.177  1.00  0.00     0.263 C 
ATOM     19  C   UNL A   1      31.829  25.828  22.776  1.00  0.00     0.263 C 
ATOM     20  H   UNL A   1      30.140  24.959  22.381  1.00  0.00     0.348 HD
BRANCH  15  21
ATOM     21  C   UNL A   1      31.589  28.374  24.677  1.00  0.00     0.066 A 
ATOM     22  C   UNL A   1      33.041  29.267  26.114  1.00  0.00     0.038 A 
ATOM     23  C   UNL A   1      32.669  29.277  24.793  1.00  0.00     0.049 A 
ATOM     24  N   UNL A   1      32.196  28.372  26.711  1.00  0.00    -0.282 N 
ATOM     25  N   UNL A   1      31.320  27.807  25.861  1.00  0.00    -0.180 NA
ATOM     26  H   UNL A   1      32.226  28.163  27.671  1.00  0.00     0.190 HD
BRANCH  22  27
ATOM     27  C   UNL A   1      34.120  30.040  26.799  1.00  0.00     0.031 C 
ATOM     28  C   UNL A   1      33.580  31.192  27.641  1.00  0.00     0.014 C 
ATOM     29  C   UNL A   1      35.005  29.108  27.625  1.00  0.00     0.014 C 
ENDBRANCH  22  27
ENDBRANCH  15  21
ENDBRANCH  13  14
ENDBRANCH   8  13
ENDBRANCH   4   7
ENDBRANCH   2   3
ENDBRANCH   1   2
BRANCH   1  30
ATOM     30  C   UNL A   1      37.743  23.282  25.300  1.00  0.00     0.023 C 
BRANCH  30  31
ATOM     31  C   UNL A   1      38.572  23.840  26.449  1.00  0.00     0.116 C 
BRANCH  31  32
ATOM     32  N   UNL A   1      40.017  23.759  26.254  1.00  0.00    -0.352 N 
ATOM     33  C   UNL A   1      41.005  24.604  26.722  1.00  0.00     0.251 C 
ATOM     34  H   UNL A   1      40.330  22.998  25.713  1.00  0.00     0.163 HD
ATOM     35  O   UNL A   1      42.174  24.421  26.437  1.00  0.00    -0.269 OA
BRANCH  33  36
ATOM     36  C   UNL A   1      40.593  25.773  27.527  1.00  0.00     0.039 A 
ATOM     37  C   UNL A   1      39.623  25.602  28.515  1.00  0.00     0.014 A 
ATOM     38  C   UNL A   1      41.279  26.981  27.400  1.00  0.00     0.014 A 
ATOM     39  C   UNL A   1      39.429  26.609  29.461  1.00  0.00     0.010 A 
ATOM     40  C   UNL A   1      41.161  27.934  28.402  1.00  0.00     0.010 A 
ATOM     41  C   UNL A   1      40.247  27.751  29.453  1.00  0.00    -0.014 A 
BRANCH  41  42
ATOM     42  C   UNL A   1      40.193  28.756  30.546  1.00  0.00     0.031 A 
ATOM     43  C   UNL A   1      41.085  28.603  31.749  1.00  0.00     0.074 A 
ATOM     44  C   UNL A   1      39.275  29.743  30.507  1.00  0.00     0.049 A 
ATOM     45  N   UNL A   1      41.106  29.302  32.854  1.00  0.00    -0.248 NA
ATOM     46  C   UNL A   1      42.051  27.491  31.725  1.00  0.00     0.031 C 
ATOM     47  C   UNL A   1      38.298  29.961  29.435  1.00  0.00     0.029 A 
ATOM     48  N   UNL A   1      39.005  30.749  31.402  1.00  0.00    -0.354 N 
ATOM     49  C   UNL A   1      42.053  28.692  33.667  1.00  0.00     0.074 A 
ATOM     50  C   UNL A   1      42.549  27.539  32.951  1.00  0.00     0.031 C 
ATOM     51  C   UNL A   1      37.566  31.052  29.717  1.00  0.00     0.029 A 
ATOM     52  C   UNL A   1      37.990  31.590  31.005  1.00  0.00     0.049 A 
ATOM     53  H   UNL A   1      39.492  30.859  32.251  1.00  0.00     0.167 HD
ATOM     54  C   UNL A   1      42.490  29.070  34.891  1.00  0.00     0.031 A 
ATOM     55  C   UNL A   1      37.461  32.671  31.608  1.00  0.00     0.031 A 
ATOM     56  C   UNL A   1      42.038  30.247  35.579  1.00  0.00     0.049 A 
ATOM     57  C   UNL A   1      38.008  33.108  32.939  1.00  0.00     0.074 A 
ATOM     58  C   UNL A   1      42.479  30.761  36.785  1.00  0.00     0.029 A 
ATOM     59  N   UNL A   1      41.052  31.103  35.113  1.00  0.00    -0.354 N 
ATOM     60  N   UNL A   1      38.951  32.553  33.663  1.00  0.00    -0.248 NA
ATOM     61  C   UNL A   1      37.429  34.323  33.529  1.00  0.00     0.031 C 
ATOM     62  C   UNL A   1      41.740  31.916  37.061  1.00  0.00     0.029 A 
ATOM     63  C   UNL A   1      40.867  32.140  36.009  1.00  0.00     0.049 A 
ATOM     64  H   UNL A   1      40.557  30.989  34.269  1.00  0.00     0.167 HD
ATOM     65  C   UNL A   1      39.095  33.365  34.781  1.00  0.00     0.074 A 
ATOM     66  C   UNL A   1      38.153  34.455  34.633  1.00  0.00     0.031 C 
ATOM     67  C   UNL A   1      39.932  33.221  35.837  1.00  0.00     0.031 A 
BRANCH  54  68
ATOM     68  C   UNL A   1      43.527  28.204  35.551  1.00  0.00    -0.014 A 
ATOM     69  C   UNL A   1      43.151  27.148  36.402  1.00  0.00     0.010 A 
ATOM     70  C   UNL A   1      44.892  28.431  35.302  1.00  0.00     0.010 A 
ATOM     71  C   UNL A   1      44.122  26.364  37.027  1.00  0.00     0.020 A 
ATOM     72  C   UNL A   1      45.867  27.631  35.904  1.00  0.00     0.020 A 
ATOM     73  C   UNL A   1      45.474  26.614  36.779  1.00  0.00     0.054 A 
BRANCH  73  74
ATOM     74  S   UNL A   1      46.717  25.568  37.587  1.00  0.00     0.124 S 
ATOM     75  O   UNL A   1      47.492  25.088  36.446  1.00  0.00    -0.237 OA
ATOM     76  O   UNL A   1      47.409  26.508  38.465  1.00  0.00    -0.237 OA
ATOM     77  O   UNL A   1      45.921  24.553  38.272  1.00  0.00    -0.744 OA
ENDBRANCH  73  74
ENDBRANCH  54  68
BRANCH  55  78
ATOM     78  C   UNL A   1      36.374  33.442  30.946  1.00  0.00    -0.014 A 
ATOM     79  C   UNL A   1      35.101  33.516  31.537  1.00  0.00     0.010 A 
ATOM     80  C   UNL A   1      36.604  34.103  29.727  1.00  0.00     0.010 A 
ATOM     81  C   UNL A   1      34.067  34.218  30.910  1.00  0.00     0.020 A 
ATOM     82  C   UNL A   1      35.578  34.826  29.107  1.00  0.00     0.020 A 
ATOM     83  C   UNL A   1      34.312  34.867  29.696  1.00  0.00     0.054 A 
BRANCH  83  84
ATOM     84  S   UNL A   1      32.971  35.807  28.915  1.00  0.00     0.124 S 
ATOM     85  O   UNL A   1      32.326  34.788  28.093  1.00  0.00    -0.237 OA
ATOM     86  O   UNL A   1      32.199  36.274  30.064  1.00  0.00    -0.237 OA
ATOM     87  O   UNL A   1      33.674  36.856  28.181  1.00  0.00    -0.744 OA
ENDBRANCH  83  84
ENDBRANCH  55  78
BRANCH  67  88
ATOM     88  C   UNL A   1      39.895  34.285  36.898  1.00  0.00    -0.014 A 
ATOM     89  C   UNL A   1      40.610  35.484  36.746  1.00  0.00     0.010 A 
ATOM     90  C   UNL A   1      39.080  34.104  38.031  1.00  0.00     0.010 A 
ATOM     91  C   UNL A   1      40.531  36.478  37.724  1.00  0.00     0.020 A 
ATOM     92  C   UNL A   1      38.983  35.104  39.000  1.00  0.00     0.020 A 
ATOM     93  C   UNL A   1      39.719  36.281  38.846  1.00  0.00     0.054 A 
BRANCH  93  94
ATOM     94  S   UNL A   1      39.589  37.606  40.078  1.00  0.00     0.124 S 
ATOM     95  O   UNL A   1      40.935  38.172  40.057  1.00  0.00    -0.237 OA
ATOM     96  O   UNL A   1      38.540  38.460  39.527  1.00  0.00    -0.237 OA
ATOM     97  O   UNL A   1      39.228  36.901  41.306  1.00  0.00    -0.744 OA
ENDBRANCH  93  94
ENDBRANCH  67  88
ENDBRANCH  41  42
ENDBRANCH  33  36
ENDBRANCH  31  32
ENDBRANCH  30  31
ENDBRANCH   1  30
TORSDOF 18
ENDMDL
MODEL 3
REMARK VINA RESULT:     -11.0      3.623      8.535
REMARK SMILES CC(C)c1cc(C2CC[NH+](Cc3c[nH]nc3C(=O)NCCCCNC(=O)c3ccc(-c4c5nc(c(-c6ccc(S(=O)(=O)[O-])cc6)c6ccc([nH]6)c(-c6ccc(S(=O)(=O)[O-])cc6)c6nc(c(-c7ccc(S(=O)(=O)[O-])cc7)c7ccc4[nH]7)C=C6)C=C5)cc3)CC2)n[nH]1
REMARK SMILES IDX 21 1 20 2 19 3 17 4 18 5 16 7 12 8 13 9 14 10 15 11 11 13
REMARK SMILES IDX 10 14 7 15 8 16 88 17 9 18 87 19 6 21 4 22 5 23 90 24 89 25
REMARK SMILES IDX 2 27 1 28 3 29 22 30 23 31 24 32 25 33 26 35 27 36 28 37
REMARK SMILES IDX 86 38 29 39 85 40 30 41 31 42 32 43 79 44 33 45 84 46 78 47
REMARK SMILES IDX 80 48 34 49 83 50 77 51 76 52 35 54 65 55 46 56 64 57 47 58
REMARK SMILES IDX 50 59 63 60 81 61 48 62 49 63 62 65 82 66 51 67 36 68 37 69
REMARK SMILES IDX 45 70 38 71 44 72 39 73 40 74 41 75 42 76 43 77 66 78 67 79
REMARK SMILES IDX 75 80 68 81 74 82 69 83 70 84 71 85 72 86 73 87 52 88 53 89
REMARK SMILES IDX 61 90 54 91 60 92 55 93 56 94 57 95 58 96 59 97
REMARK H PARENT 19 6 14 12 10 20 90 26 24 34 80 53 50 64
REMARK Flexibility Score: inf
ROOT
ATOM      1  C   UNL A   1      37.450  20.915  24.634  1.00  0.00     0.023 C 
ENDROOT
BRANCH   1   2
ATOM      2  C   UNL A   1      36.166  20.166  24.960  1.00  0.00     0.116 C 
BRANCH   2   3
ATOM      3  N   UNL A   1      35.265  20.892  25.797  1.00  0.00    -0.351 N 
ATOM      4  C   UNL A   1      34.005  21.396  25.598  1.00  0.00     0.272 C 
ATOM      5  O   UNL A   1      33.566  21.962  26.611  1.00  0.00    -0.267 OA
ATOM      6  H   UNL A   1      35.620  21.066  26.699  1.00  0.00     0.163 HD
BRANCH   4   7
ATOM      7  C   UNL A   1      33.172  21.323  24.347  1.00  0.00     0.158 A 
ATOM      8  C   UNL A   1      32.626  22.226  23.333  1.00  0.00     0.057 A 
ATOM      9  C   UNL A   1      32.035  21.376  22.404  1.00  0.00     0.115 A 
ATOM     10  N   UNL A   1      32.160  20.120  22.873  1.00  0.00    -0.284 N 
ATOM     11  N   UNL A   1      32.812  20.053  24.021  1.00  0.00    -0.170 NA
ATOM     12  H   UNL A   1      31.802  19.329  22.408  1.00  0.00     0.189 HD
BRANCH   8  13
ATOM     13  C   UNL A   1      32.641  23.714  23.102  1.00  0.00     0.303 C 
BRANCH  13  14
ATOM     14  N   UNL A   1      32.841  24.534  24.325  1.00  0.00    -0.331 N 
ATOM     15  C   UNL A   1      32.684  27.016  25.964  1.00  0.00     0.051 C 
ATOM     16  C   UNL A   1      33.987  26.543  25.319  1.00  0.00     0.071 C 
ATOM     17  C   UNL A   1      31.841  25.786  26.290  1.00  0.00     0.071 C 
ATOM     18  C   UNL A   1      33.758  25.654  24.094  1.00  0.00     0.263 C 
ATOM     19  C   UNL A   1      31.630  24.874  25.080  1.00  0.00     0.263 C 
ATOM     20  H   UNL A   1      33.310  23.909  24.981  1.00  0.00     0.348 HD
BRANCH  15  21
ATOM     21  C   UNL A   1      31.935  28.046  25.155  1.00  0.00     0.066 A 
ATOM     22  C   UNL A   1      30.449  29.134  23.898  1.00  0.00     0.038 A 
ATOM     23  C   UNL A   1      30.754  27.892  24.395  1.00  0.00     0.049 A 
ATOM     24  N   UNL A   1      31.443  29.952  24.361  1.00  0.00    -0.282 N 
ATOM     25  N   UNL A   1      32.362  29.316  25.109  1.00  0.00    -0.180 NA
ATOM     26  H   UNL A   1      31.481  30.915  24.165  1.00  0.00     0.190 HD
BRANCH  22  27
ATOM     27  C   UNL A   1      29.302  29.555  23.038  1.00  0.00     0.031 C 
ATOM     28  C   UNL A   1      28.137  28.571  23.084  1.00  0.00     0.014 C 
ATOM     29  C   UNL A   1      28.856  30.972  23.394  1.00  0.00     0.014 C 
ENDBRANCH  22  27
ENDBRANCH  15  21
ENDBRANCH  13  14
ENDBRANCH   8  13
ENDBRANCH   4   7
ENDBRANCH   2   3
ENDBRANCH   1   2
BRANCH   1  30
ATOM     30  C   UNL A   1      37.836  21.994  25.628  1.00  0.00     0.023 C 
BRANCH  30  31
ATOM     31  C   UNL A   1      39.139  21.743  26.378  1.00  0.00     0.116 C 
BRANCH  31  32
ATOM     32  N   UNL A   1      39.747  20.439  26.122  1.00  0.00    -0.352 N 
ATOM     33  C   UNL A   1      41.084  20.093  26.113  1.00  0.00     0.251 C 
ATOM     34  H   UNL A   1      39.118  19.708  25.929  1.00  0.00     0.163 HD
ATOM     35  O   UNL A   1      41.437  18.961  25.841  1.00  0.00    -0.269 OA
BRANCH  33  36
ATOM     36  C   UNL A   1      42.078  21.154  26.382  1.00  0.00     0.039 A 
ATOM     37  C   UNL A   1      42.534  21.934  25.319  1.00  0.00     0.014 A 
ATOM     38  C   UNL A   1      42.427  21.463  27.697  1.00  0.00     0.014 A 
ATOM     39  C   UNL A   1      43.243  23.105  25.589  1.00  0.00     0.010 A 
ATOM     40  C   UNL A   1      43.037  22.680  27.966  1.00  0.00     0.010 A 
ATOM     41  C   UNL A   1      43.436  23.523  26.916  1.00  0.00    -0.014 A 
BRANCH  41  42
ATOM     42  C   UNL A   1      44.024  24.849  27.238  1.00  0.00     0.031 A 
ATOM     43  C   UNL A   1      43.139  25.957  27.742  1.00  0.00     0.074 A 
ATOM     44  C   UNL A   1      45.327  25.087  26.981  1.00  0.00     0.049 A 
ATOM     45  N   UNL A   1      43.437  27.211  27.967  1.00  0.00    -0.248 NA
ATOM     46  C   UNL A   1      41.725  25.625  27.982  1.00  0.00     0.031 C 
ATOM     47  C   UNL A   1      46.278  24.121  26.422  1.00  0.00     0.029 A 
ATOM     48  N   UNL A   1      46.078  26.224  27.150  1.00  0.00    -0.354 N 
ATOM     49  C   UNL A   1      42.243  27.820  28.334  1.00  0.00     0.074 A 
ATOM     50  C   UNL A   1      41.210  26.814  28.255  1.00  0.00     0.031 C 
ATOM     51  C   UNL A   1      47.490  24.695  26.331  1.00  0.00     0.029 A 
ATOM     52  C   UNL A   1      47.397  26.078  26.786  1.00  0.00     0.049 A 
ATOM     53  H   UNL A   1      45.707  27.067  27.499  1.00  0.00     0.167 HD
ATOM     54  C   UNL A   1      42.029  29.098  28.727  1.00  0.00     0.031 A 
ATOM     55  C   UNL A   1      48.417  26.957  26.816  1.00  0.00     0.031 A 
ATOM     56  C   UNL A   1      43.065  30.083  28.859  1.00  0.00     0.049 A 
ATOM     57  C   UNL A   1      48.166  28.352  27.317  1.00  0.00     0.074 A 
ATOM     58  C   UNL A   1      42.963  31.381  29.328  1.00  0.00     0.029 A 
ATOM     59  N   UNL A   1      44.398  29.876  28.538  1.00  0.00    -0.354 N 
ATOM     60  N   UNL A   1      47.041  28.891  27.722  1.00  0.00    -0.248 NA
ATOM     61  C   UNL A   1      49.324  29.255  27.376  1.00  0.00     0.031 C 
ATOM     62  C   UNL A   1      44.232  31.967  29.266  1.00  0.00     0.029 A 
ATOM     63  C   UNL A   1      45.129  31.022  28.794  1.00  0.00     0.049 A 
ATOM     64  H   UNL A   1      44.769  29.036  28.180  1.00  0.00     0.167 HD
ATOM     65  C   UNL A   1      47.361  30.187  28.108  1.00  0.00     0.074 A 
ATOM     66  C   UNL A   1      48.785  30.348  27.899  1.00  0.00     0.031 C 
ATOM     67  C   UNL A   1      46.547  31.158  28.590  1.00  0.00     0.031 A 
BRANCH  54  68
ATOM     68  C   UNL A   1      40.616  29.490  29.059  1.00  0.00    -0.014 A 
ATOM     69  C   UNL A   1      39.618  29.505  28.068  1.00  0.00     0.010 A 
ATOM     70  C   UNL A   1      40.274  29.826  30.381  1.00  0.00     0.010 A 
ATOM     71  C   UNL A   1      38.314  29.891  28.382  1.00  0.00     0.020 A 
ATOM     72  C   UNL A   1      38.964  30.187  30.706  1.00  0.00     0.020 A 
ATOM     73  C   UNL A   1      37.997  30.236  29.699  1.00  0.00     0.054 A 
BRANCH  73  74
ATOM     74  S   UNL A   1      36.290  30.714  30.086  1.00  0.00     0.124 S 
ATOM     75  O   UNL A   1      35.576  30.269  28.892  1.00  0.00    -0.237 OA
ATOM     76  O   UNL A   1      36.011  29.957  31.304  1.00  0.00    -0.237 OA
ATOM     77  O   UNL A   1      36.369  32.162  30.262  1.00  0.00    -0.744 OA
ENDBRANCH  73  74
ENDBRANCH  54  68
BRANCH  55  78
ATOM     78  C   UNL A   1      49.780  26.538  26.392  1.00  0.00    -0.014 A 
ATOM     79  C   UNL A   1      50.199  26.736  25.065  1.00  0.00     0.010 A 
ATOM     80  C   UNL A   1      50.665  25.942  27.309  1.00  0.00     0.010 A 
ATOM     81  C   UNL A   1      51.470  26.323  24.653  1.00  0.00     0.020 A 
ATOM     82  C   UNL A   1      51.945  25.548  26.906  1.00  0.00     0.020 A 
ATOM     83  C   UNL A   1      52.334  25.728  25.576  1.00  0.00     0.054 A 
BRANCH  83  84
ATOM     84  S   UNL A   1      53.995  25.235  25.035  1.00  0.00     0.124 S 
ATOM     85  O   UNL A   1      54.132  25.964  23.778  1.00  0.00    -0.237 OA
ATOM     86  O   UNL A   1      54.839  25.701  26.132  1.00  0.00    -0.237 OA
ATOM     87  O   UNL A   1      53.894  23.783  24.912  1.00  0.00    -0.744 OA
ENDBRANCH  83  84
ENDBRANCH  55  78
BRANCH  67  88
ATOM     88  C   UNL A   1      47.182  32.468  28.962  1.00  0.00    -0.014 A 
ATOM     89  C   UNL A   1      47.751  32.663  30.230  1.00  0.00     0.010 A 
ATOM     90  C   UNL A   1      47.263  33.494  28.002  1.00  0.00     0.010 A 
ATOM     91  C   UNL A   1      48.373  33.874  30.544  1.00  0.00     0.020 A 
ATOM     92  C   UNL A   1      47.901  34.698  28.305  1.00  0.00     0.020 A 
ATOM     93  C   UNL A   1      48.442  34.885  29.579  1.00  0.00     0.054 A 
BRANCH  93  94
ATOM     94  S   UNL A   1      49.299  36.431  29.988  1.00  0.00     0.124 S 
ATOM     95  O   UNL A   1      48.381  37.435  29.459  1.00  0.00    -0.237 OA
ATOM     96  O   UNL A   1      49.394  36.372  31.445  1.00  0.00    -0.237 OA
ATOM     97  O   UNL A   1      50.573  36.316  29.283  1.00  0.00    -0.744 OA
ENDBRANCH  93  94
ENDBRANCH  67  88
ENDBRANCH  41  42
ENDBRANCH  33  36
ENDBRANCH  31  32
ENDBRANCH  30  31
ENDBRANCH   1  30
TORSDOF 18
ENDMDL
