MODEL 1
REMARK VINA RESULT:     -12.2      0.000      0.000
REMARK SMILES C[C@@]12CC[C@@H]3c4ccc(O)cc4/C(=N\OCC(=O)NCCCCNC(=O)c4ccc(-c5c6nc(c(-c7ccc(S(=O)(=O)[O-])cc7)c7ccc([nH]7)c(-c7ccc(S(=O)(=O)[O-])cc7)c7nc(c(-c8ccc(S(=O)(=O)[O-])cc8)c8ccc5[nH]8)C=C7)C=C6)cc4)C[C@H]3[C@@H]1C[C@H](O)[C@@H]2O
REMARK SMILES IDX 21 1 20 2 19 3 17 4 18 5 16 7 15 8 14 9 1 10 2 11 3 12 89 13
REMARK SMILES IDX 93 14 4 15 88 16 90 17 91 18 5 19 87 20 6 21 13 22 7 23
REMARK SMILES IDX 12 24 8 25 11 26 9 27 94 28 92 30 10 32 22 34 23 35 24 36
REMARK SMILES IDX 25 37 26 39 27 40 28 41 86 42 29 43 85 44 30 45 31 46 32 47
REMARK SMILES IDX 79 48 33 49 84 50 78 51 80 52 34 53 83 54 77 55 76 56 35 58
REMARK SMILES IDX 65 59 46 60 64 61 47 62 50 63 63 64 81 65 48 66 49 67 62 69
REMARK SMILES IDX 82 70 51 71 36 72 37 73 45 74 38 75 44 76 39 77 40 78 41 79
REMARK SMILES IDX 42 80 43 81 66 82 67 83 75 84 68 85 74 86 69 87 70 88 71 89
REMARK SMILES IDX 72 90 73 91 52 92 53 93 61 94 54 95 60 96 55 97 56 98 57 99
REMARK SMILES IDX 58 100 59 101
REMARK H PARENT 19 6 94 29 92 31 10 33 24 38 80 57 50 68
REMARK Flexibility Score: inf
ROOT
ATOM      1  C   UNL A   1      35.789  33.063  28.328  1.00  0.00     0.023 C 
ENDROOT
BRANCH   1   2
ATOM      2  C   UNL A   1      34.681  32.073  27.977  1.00  0.00     0.116 C 
BRANCH   2   3
ATOM      3  N   UNL A   1      33.449  32.743  27.608  1.00  0.00    -0.353 N 
ATOM      4  C   UNL A   1      32.315  32.241  27.039  1.00  0.00     0.260 C 
ATOM      5  O   UNL A   1      31.393  33.031  26.812  1.00  0.00    -0.271 OA
ATOM      6  H   UNL A   1      33.427  33.708  27.800  1.00  0.00     0.163 HD
BRANCH   4   7
ATOM      7  C   UNL A   1      32.125  30.738  26.830  1.00  0.00     0.363 C 
BRANCH   7   8
ATOM      8  O   UNL A   1      32.654  30.131  25.676  1.00  0.00    -0.385 OA
BRANCH   8   9
ATOM      9  N   UNL A   1      33.620  29.152  25.969  1.00  0.00    -0.090 NA
ATOM     10  C   UNL A   1      33.651  21.834  26.392  1.00  0.00     0.014 C 
ATOM     11  C   UNL A   1      33.316  22.926  25.340  1.00  0.00    -0.001 C 
ATOM     12  C   UNL A   1      31.803  23.148  25.419  1.00  0.00     0.010 C 
ATOM     13  C   UNL A   1      34.136  24.218  25.607  1.00  0.00     0.004 C 
ATOM     14  C   UNL A   1      33.846  22.471  23.963  1.00  0.00     0.149 C 
ATOM     15  C   UNL A   1      31.287  24.347  24.655  1.00  0.00     0.009 C 
ATOM     16  C   UNL A   1      33.558  25.520  24.968  1.00  0.00     0.006 C 
ATOM     17  C   UNL A   1      35.540  23.881  25.025  1.00  0.00     0.039 C 
ATOM     18  C   UNL A   1      35.364  22.673  24.086  1.00  0.00     0.144 C 
ATOM     19  C   UNL A   1      32.010  25.637  25.040  1.00  0.00     0.024 C 
ATOM     20  C   UNL A   1      34.175  26.797  25.609  1.00  0.00     0.065 C 
ATOM     21  C   UNL A   1      31.591  26.818  24.168  1.00  0.00    -0.035 A 
ATOM     22  C   UNL A   1      33.420  28.078  25.247  1.00  0.00     0.088 C 
ATOM     23  C   UNL A   1      30.447  26.824  23.356  1.00  0.00     0.008 A 
ATOM     24  C   UNL A   1      32.391  27.969  24.176  1.00  0.00     0.006 A 
ATOM     25  C   UNL A   1      30.163  27.909  22.524  1.00  0.00     0.046 A 
ATOM     26  C   UNL A   1      32.156  29.024  23.283  1.00  0.00     0.056 A 
ATOM     27  C   UNL A   1      31.033  28.988  22.473  1.00  0.00     0.116 A 
BRANCH  14  28
ATOM     28  O   UNL A   1      33.362  23.263  22.877  1.00  0.00    -0.390 OA
ATOM     29  H   UNL A   1      32.809  22.714  22.299  1.00  0.00     0.211 HD
ENDBRANCH  14  28
BRANCH  18  30
ATOM     30  O   UNL A   1      35.929  22.934  22.803  1.00  0.00    -0.390 OA
ATOM     31  H   UNL A   1      36.842  23.241  22.908  1.00  0.00     0.211 HD
ENDBRANCH  18  30
BRANCH  27  32
ATOM     32  O   UNL A   1      30.729  30.016  21.631  1.00  0.00    -0.508 OA
ATOM     33  H   UNL A   1      29.853  30.120  21.315  1.00  0.00     0.293 HD
ENDBRANCH  27  32
ENDBRANCH   8   9
ENDBRANCH   7   8
ENDBRANCH   4   7
ENDBRANCH   2   3
ENDBRANCH   1   2
BRANCH   1  34
ATOM     34  C   UNL A   1      35.700  33.696  29.715  1.00  0.00     0.023 C 
BRANCH  34  35
ATOM     35  C   UNL A   1      36.497  32.990  30.799  1.00  0.00     0.116 C 
BRANCH  35  36
ATOM     36  N   UNL A   1      36.003  31.652  31.100  1.00  0.00    -0.352 N 
ATOM     37  C   UNL A   1      36.638  30.442  30.923  1.00  0.00     0.251 C 
ATOM     38  H   UNL A   1      35.096  31.607  31.478  1.00  0.00     0.163 HD
ATOM     39  O   UNL A   1      36.040  29.389  31.121  1.00  0.00    -0.269 OA
BRANCH  37  40
ATOM     40  C   UNL A   1      38.035  30.429  30.436  1.00  0.00     0.039 A 
ATOM     41  C   UNL A   1      38.301  30.376  29.066  1.00  0.00     0.014 A 
ATOM     42  C   UNL A   1      39.079  30.366  31.362  1.00  0.00     0.014 A 
ATOM     43  C   UNL A   1      39.580  30.048  28.632  1.00  0.00     0.010 A 
ATOM     44  C   UNL A   1      40.382  30.132  30.914  1.00  0.00     0.010 A 
ATOM     45  C   UNL A   1      40.633  29.907  29.552  1.00  0.00    -0.014 A 
BRANCH  45  46
ATOM     46  C   UNL A   1      41.980  29.501  29.074  1.00  0.00     0.031 A 
ATOM     47  C   UNL A   1      42.239  28.093  28.601  1.00  0.00     0.074 A 
ATOM     48  C   UNL A   1      42.964  30.420  29.013  1.00  0.00     0.049 A 
ATOM     49  N   UNL A   1      43.353  27.564  28.166  1.00  0.00    -0.248 NA
ATOM     50  C   UNL A   1      41.100  27.159  28.615  1.00  0.00     0.031 C 
ATOM     51  C   UNL A   1      42.820  31.825  29.395  1.00  0.00     0.029 A 
ATOM     52  N   UNL A   1      44.263  30.321  28.585  1.00  0.00    -0.354 N 
ATOM     53  C   UNL A   1      43.057  26.239  27.867  1.00  0.00     0.074 A 
ATOM     54  C   UNL A   1      41.666  26.032  28.204  1.00  0.00     0.031 C 
ATOM     55  C   UNL A   1      43.963  32.470  29.129  1.00  0.00     0.029 A 
ATOM     56  C   UNL A   1      44.950  31.510  28.639  1.00  0.00     0.049 A 
ATOM     57  H   UNL A   1      44.666  29.479  28.270  1.00  0.00     0.167 HD
ATOM     58  C   UNL A   1      43.868  25.287  27.345  1.00  0.00     0.031 A 
ATOM     59  C   UNL A   1      46.233  31.804  28.351  1.00  0.00     0.031 A 
ATOM     60  C   UNL A   1      45.251  25.506  27.009  1.00  0.00     0.049 A 
ATOM     61  C   UNL A   1      47.143  30.716  27.866  1.00  0.00     0.074 A 
ATOM     62  C   UNL A   1      46.154  24.605  26.472  1.00  0.00     0.029 A 
ATOM     63  N   UNL A   1      45.933  26.705  27.175  1.00  0.00    -0.354 N 
ATOM     64  N   UNL A   1      46.850  29.464  27.607  1.00  0.00    -0.248 NA
ATOM     65  C   UNL A   1      48.552  31.065  27.647  1.00  0.00     0.031 C 
ATOM     66  C   UNL A   1      47.396  25.236  26.379  1.00  0.00     0.029 A 
ATOM     67  C   UNL A   1      47.254  26.554  26.786  1.00  0.00     0.049 A 
ATOM     68  H   UNL A   1      45.535  27.537  27.518  1.00  0.00     0.167 HD
ATOM     69  C   UNL A   1      48.037  28.875  27.192  1.00  0.00     0.074 A 
ATOM     70  C   UNL A   1      49.049  29.911  27.217  1.00  0.00     0.031 C 
ATOM     71  C   UNL A   1      48.260  27.588  26.828  1.00  0.00     0.031 A 
BRANCH  58  72
ATOM     72  C   UNL A   1      43.295  23.912  27.111  1.00  0.00    -0.014 A 
ATOM     73  C   UNL A   1      43.342  22.950  28.137  1.00  0.00     0.010 A 
ATOM     74  C   UNL A   1      42.788  23.538  25.853  1.00  0.00     0.010 A 
ATOM     75  C   UNL A   1      42.907  21.641  27.910  1.00  0.00     0.020 A 
ATOM     76  C   UNL A   1      42.325  22.238  25.629  1.00  0.00     0.020 A 
ATOM     77  C   UNL A   1      42.402  21.293  26.654  1.00  0.00     0.054 A 
BRANCH  77  78
ATOM     78  S   UNL A   1      41.819  19.596  26.382  1.00  0.00     0.124 S 
ATOM     79  O   UNL A   1      42.237  18.923  27.607  1.00  0.00    -0.237 OA
ATOM     80  O   UNL A   1      40.378  19.774  26.217  1.00  0.00    -0.237 OA
ATOM     81  O   UNL A   1      42.525  19.185  25.169  1.00  0.00    -0.744 OA
ENDBRANCH  77  78
ENDBRANCH  58  72
BRANCH  59  82
ATOM     82  C   UNL A   1      46.690  33.212  28.520  1.00  0.00    -0.014 A 
ATOM     83  C   UNL A   1      47.103  33.675  29.785  1.00  0.00     0.010 A 
ATOM     84  C   UNL A   1      46.552  34.128  27.465  1.00  0.00     0.010 A 
ATOM     85  C   UNL A   1      47.275  35.041  30.017  1.00  0.00     0.020 A 
ATOM     86  C   UNL A   1      46.755  35.495  27.686  1.00  0.00     0.020 A 
ATOM     87  C   UNL A   1      47.073  35.945  28.971  1.00  0.00     0.054 A 
BRANCH  87  88
ATOM     88  S   UNL A   1      47.175  37.721  29.326  1.00  0.00     0.124 S 
ATOM     89  O   UNL A   1      46.475  38.294  28.179  1.00  0.00    -0.237 OA
ATOM     90  O   UNL A   1      46.480  37.831  30.606  1.00  0.00    -0.237 OA
ATOM     91  O   UNL A   1      48.611  37.979  29.375  1.00  0.00    -0.744 OA
ENDBRANCH  87  88
ENDBRANCH  59  82
BRANCH  71  92
ATOM     92  C   UNL A   1      49.659  27.187  26.443  1.00  0.00    -0.014 A 
ATOM     93  C   UNL A   1      50.035  27.178  25.087  1.00  0.00     0.010 A 
ATOM     94  C   UNL A   1      50.534  26.649  27.402  1.00  0.00     0.010 A 
ATOM     95  C   UNL A   1      51.235  26.582  24.689  1.00  0.00     0.020 A 
ATOM     96  C   UNL A   1      51.748  26.077  27.010  1.00  0.00     0.020 A 
ATOM     97  C   UNL A   1      52.074  26.017  25.653  1.00  0.00     0.054 A 
BRANCH  97  98
ATOM     98  S   UNL A   1      53.582  25.169  25.107  1.00  0.00     0.124 S 
ATOM     99  O   UNL A   1      53.732  25.660  23.740  1.00  0.00    -0.237 OA
ATOM    100  O   UNL A   1      54.580  25.645  26.061  1.00  0.00    -0.237 OA
ATOM    101  O   UNL A   1      53.243  23.753  25.227  1.00  0.00    -0.744 OA
ENDBRANCH  97  98
ENDBRANCH  71  92
ENDBRANCH  45  46
ENDBRANCH  37  40
ENDBRANCH  35  36
ENDBRANCH  34  35
ENDBRANCH   1  34
TORSDOF 19
ENDMDL
MODEL 2
REMARK VINA RESULT:     -12.0      0.681      7.834
REMARK SMILES C[C@@]12CC[C@@H]3c4ccc(O)cc4/C(=N\OCC(=O)NCCCCNC(=O)c4ccc(-c5c6nc(c(-c7ccc(S(=O)(=O)[O-])cc7)c7ccc([nH]7)c(-c7ccc(S(=O)(=O)[O-])cc7)c7nc(c(-c8ccc(S(=O)(=O)[O-])cc8)c8ccc5[nH]8)C=C7)C=C6)cc4)C[C@H]3[C@@H]1C[C@H](O)[C@@H]2O
REMARK SMILES IDX 21 1 20 2 19 3 17 4 18 5 16 7 15 8 14 9 1 10 2 11 3 12 89 13
REMARK SMILES IDX 93 14 4 15 88 16 90 17 91 18 5 19 87 20 6 21 13 22 7 23
REMARK SMILES IDX 12 24 8 25 11 26 9 27 94 28 92 30 10 32 22 34 23 35 24 36
REMARK SMILES IDX 25 37 26 39 27 40 28 41 86 42 29 43 85 44 30 45 31 46 32 47
REMARK SMILES IDX 79 48 33 49 84 50 78 51 80 52 34 53 83 54 77 55 76 56 35 58
REMARK SMILES IDX 65 59 46 60 64 61 47 62 50 63 63 64 81 65 48 66 49 67 62 69
REMARK SMILES IDX 82 70 51 71 36 72 37 73 45 74 38 75 44 76 39 77 40 78 41 79
REMARK SMILES IDX 42 80 43 81 66 82 67 83 75 84 68 85 74 86 69 87 70 88 71 89
REMARK SMILES IDX 72 90 73 91 52 92 53 93 61 94 54 95 60 96 55 97 56 98 57 99
REMARK SMILES IDX 58 100 59 101
REMARK H PARENT 19 6 94 29 92 31 10 33 24 38 80 57 50 68
REMARK Flexibility Score: inf
ROOT
ATOM      1  C   UNL A   1      34.793  33.716  29.240  1.00  0.00     0.023 C 
ENDROOT
BRANCH   1   2
ATOM      2  C   UNL A   1      34.319  32.700  28.202  1.00  0.00     0.116 C 
BRANCH   2   3
ATOM      3  N   UNL A   1      33.068  33.097  27.587  1.00  0.00    -0.353 N 
ATOM      4  C   UNL A   1      32.139  32.343  26.929  1.00  0.00     0.260 C 
ATOM      5  O   UNL A   1      31.145  32.926  26.482  1.00  0.00    -0.271 OA
ATOM      6  H   UNL A   1      32.855  34.055  27.655  1.00  0.00     0.163 HD
BRANCH   4   7
ATOM      7  C   UNL A   1      32.237  30.818  26.880  1.00  0.00     0.363 C 
BRANCH   7   8
ATOM      8  O   UNL A   1      32.844  30.204  25.768  1.00  0.00    -0.385 OA
BRANCH   8   9
ATOM      9  N   UNL A   1      33.749  29.191  26.133  1.00  0.00    -0.090 NA
ATOM     10  C   UNL A   1      33.325  21.941  27.125  1.00  0.00     0.014 C 
ATOM     11  C   UNL A   1      33.049  22.967  25.994  1.00  0.00    -0.001 C 
ATOM     12  C   UNL A   1      31.554  23.289  26.063  1.00  0.00     0.010 C 
ATOM     13  C   UNL A   1      33.952  24.221  26.154  1.00  0.00     0.004 C 
ATOM     14  C   UNL A   1      33.536  22.373  24.654  1.00  0.00     0.149 C 
ATOM     15  C   UNL A   1      31.107  24.455  25.210  1.00  0.00     0.009 C 
ATOM     16  C   UNL A   1      33.450  25.504  25.419  1.00  0.00     0.006 C 
ATOM     17  C   UNL A   1      35.326  23.752  25.594  1.00  0.00     0.039 C 
ATOM     18  C   UNL A   1      35.065  22.488  24.752  1.00  0.00     0.144 C 
ATOM     19  C   UNL A   1      31.913  25.723  25.489  1.00  0.00     0.024 C 
ATOM     20  C   UNL A   1      34.152  26.785  25.955  1.00  0.00     0.065 C 
ATOM     21  C   UNL A   1      31.561  26.857  24.530  1.00  0.00    -0.035 A 
ATOM     22  C   UNL A   1      33.475  28.079  25.498  1.00  0.00     0.088 C 
ATOM     23  C   UNL A   1      30.411  26.872  23.725  1.00  0.00     0.008 A 
ATOM     24  C   UNL A   1      32.431  27.952  24.443  1.00  0.00     0.006 A 
ATOM     25  C   UNL A   1      30.187  27.906  22.812  1.00  0.00     0.046 A 
ATOM     26  C   UNL A   1      32.254  28.948  23.472  1.00  0.00     0.056 A 
ATOM     27  C   UNL A   1      31.122  28.920  22.673  1.00  0.00     0.116 A 
BRANCH  14  28
ATOM     28  O   UNL A   1      33.092  23.107  23.511  1.00  0.00    -0.390 OA
ATOM     29  H   UNL A   1      32.137  22.983  23.399  1.00  0.00     0.211 HD
ENDBRANCH  14  28
BRANCH  18  30
ATOM     30  O   UNL A   1      35.632  22.613  23.450  1.00  0.00    -0.390 OA
ATOM     31  H   UNL A   1      35.095  23.221  22.920  1.00  0.00     0.211 HD
ENDBRANCH  18  30
BRANCH  27  32
ATOM     32  O   UNL A   1      30.875  29.897  21.755  1.00  0.00    -0.508 OA
ATOM     33  H   UNL A   1      30.029  29.964  21.359  1.00  0.00     0.293 HD
ENDBRANCH  27  32
ENDBRANCH   8   9
ENDBRANCH   7   8
ENDBRANCH   4   7
ENDBRANCH   2   3
ENDBRANCH   1   2
BRANCH   1  34
ATOM     34  C   UNL A   1      36.287  33.697  29.556  1.00  0.00     0.023 C 
BRANCH  34  35
ATOM     35  C   UNL A   1      36.659  33.045  30.878  1.00  0.00     0.116 C 
BRANCH  35  36
ATOM     36  N   UNL A   1      36.057  31.731  31.063  1.00  0.00    -0.352 N 
ATOM     37  C   UNL A   1      36.593  30.492  30.786  1.00  0.00     0.251 C 
ATOM     38  H   UNL A   1      35.145  31.729  31.435  1.00  0.00     0.163 HD
ATOM     39  O   UNL A   1      35.910  29.478  30.894  1.00  0.00    -0.269 OA
BRANCH  37  40
ATOM     40  C   UNL A   1      37.988  30.407  30.303  1.00  0.00     0.039 A 
ATOM     41  C   UNL A   1      38.261  30.447  28.934  1.00  0.00     0.014 A 
ATOM     42  C   UNL A   1      39.016  30.181  31.222  1.00  0.00     0.014 A 
ATOM     43  C   UNL A   1      39.512  30.055  28.475  1.00  0.00     0.010 A 
ATOM     44  C   UNL A   1      40.299  29.880  30.758  1.00  0.00     0.010 A 
ATOM     45  C   UNL A   1      40.543  29.751  29.381  1.00  0.00    -0.014 A 
BRANCH  45  46
ATOM     46  C   UNL A   1      41.857  29.277  28.874  1.00  0.00     0.031 A 
ATOM     47  C   UNL A   1      43.060  30.185  28.886  1.00  0.00     0.074 A 
ATOM     48  C   UNL A   1      41.981  28.004  28.450  1.00  0.00     0.049 A 
ATOM     49  N   UNL A   1      44.276  29.942  28.470  1.00  0.00    -0.248 NA
ATOM     50  C   UNL A   1      42.877  31.537  29.439  1.00  0.00     0.031 C 
ATOM     51  C   UNL A   1      40.900  27.018  28.438  1.00  0.00     0.029 A 
ATOM     52  N   UNL A   1      43.068  27.316  27.976  1.00  0.00    -0.354 N 
ATOM     53  C   UNL A   1      44.998  31.108  28.697  1.00  0.00     0.074 A 
ATOM     54  C   UNL A   1      44.076  32.072  29.255  1.00  0.00     0.031 C 
ATOM     55  C   UNL A   1      41.390  25.837  28.038  1.00  0.00     0.029 A 
ATOM     56  C   UNL A   1      42.797  26.000  27.682  1.00  0.00     0.049 A 
ATOM     57  H   UNL A   1      43.956  27.723  27.857  1.00  0.00     0.167 HD
ATOM     58  C   UNL A   1      46.314  31.347  28.475  1.00  0.00     0.031 A 
ATOM     59  C   UNL A   1      43.578  25.031  27.164  1.00  0.00     0.031 A 
ATOM     60  C   UNL A   1      47.223  30.376  27.923  1.00  0.00     0.049 A 
ATOM     61  C   UNL A   1      45.007  25.342  26.833  1.00  0.00     0.074 A 
ATOM     62  C   UNL A   1      48.575  30.522  27.663  1.00  0.00     0.029 A 
ATOM     63  N   UNL A   1      46.881  29.085  27.546  1.00  0.00    -0.354 N 
ATOM     64  N   UNL A   1      45.668  26.455  27.038  1.00  0.00    -0.248 NA
ATOM     65  C   UNL A   1      45.794  24.280  26.192  1.00  0.00     0.031 C 
ATOM     66  C   UNL A   1      49.033  29.346  27.066  1.00  0.00     0.029 A 
ATOM     67  C   UNL A   1      47.987  28.437  27.021  1.00  0.00     0.049 A 
ATOM     68  H   UNL A   1      45.984  28.689  27.639  1.00  0.00     0.167 HD
ATOM     69  C   UNL A   1      46.950  26.230  26.553  1.00  0.00     0.074 A 
ATOM     70  C   UNL A   1      46.978  24.868  26.061  1.00  0.00     0.031 C 
ATOM     71  C   UNL A   1      48.003  27.083  26.519  1.00  0.00     0.031 A 
BRANCH  58  72
ATOM     72  C   UNL A   1      46.858  32.711  28.814  1.00  0.00    -0.014 A 
ATOM     73  C   UNL A   1      46.689  33.777  27.910  1.00  0.00     0.010 A 
ATOM     74  C   UNL A   1      47.613  32.925  29.982  1.00  0.00     0.010 A 
ATOM     75  C   UNL A   1      47.271  35.023  28.158  1.00  0.00     0.020 A 
ATOM     76  C   UNL A   1      48.172  34.179  30.249  1.00  0.00     0.020 A 
ATOM     77  C   UNL A   1      48.012  35.216  29.327  1.00  0.00     0.054 A 
BRANCH  77  78
ATOM     78  S   UNL A   1      48.740  36.847  29.648  1.00  0.00     0.124 S 
ATOM     79  O   UNL A   1      48.138  37.667  28.602  1.00  0.00    -0.237 OA
ATOM     80  O   UNL A   1      48.299  37.134  31.011  1.00  0.00    -0.237 OA
ATOM     81  O   UNL A   1      50.177  36.611  29.508  1.00  0.00    -0.744 OA
ENDBRANCH  77  78
ENDBRANCH  58  72
BRANCH  59  82
ATOM     82  C   UNL A   1      42.983  23.683  26.951  1.00  0.00    -0.014 A 
ATOM     83  C   UNL A   1      42.915  22.763  28.017  1.00  0.00     0.010 A 
ATOM     84  C   UNL A   1      42.643  23.259  25.657  1.00  0.00     0.010 A 
ATOM     85  C   UNL A   1      42.613  21.422  27.775  1.00  0.00     0.020 A 
ATOM     86  C   UNL A   1      42.308  21.922  25.416  1.00  0.00     0.020 A 
ATOM     87  C   UNL A   1      42.338  21.005  26.471  1.00  0.00     0.054 A 
BRANCH  87  88
ATOM     88  S   UNL A   1      42.075  19.236  26.161  1.00  0.00     0.124 S 
ATOM     89  O   UNL A   1      42.506  18.646  27.426  1.00  0.00    -0.237 OA
ATOM     90  O   UNL A   1      40.642  19.169  25.890  1.00  0.00    -0.237 OA
ATOM     91  O   UNL A   1      42.938  18.958  25.016  1.00  0.00    -0.744 OA
ENDBRANCH  87  88
ENDBRANCH  59  82
BRANCH  71  92
ATOM     92  C   UNL A   1      49.293  26.604  25.908  1.00  0.00    -0.014 A 
ATOM     93  C   UNL A   1      50.233  25.923  26.705  1.00  0.00     0.010 A 
ATOM     94  C   UNL A   1      49.646  26.985  24.603  1.00  0.00     0.010 A 
ATOM     95  C   UNL A   1      51.525  25.687  26.229  1.00  0.00     0.020 A 
ATOM     96  C   UNL A   1      50.930  26.725  24.113  1.00  0.00     0.020 A 
ATOM     97  C   UNL A   1      51.870  26.108  24.942  1.00  0.00     0.054 A 
BRANCH  97  98
ATOM     98  S   UNL A   1      53.578  25.873  24.377  1.00  0.00     0.124 S 
ATOM     99  O   UNL A   1      53.444  26.007  22.930  1.00  0.00    -0.237 OA
ATOM    100  O   UNL A   1      54.290  26.959  25.048  1.00  0.00    -0.237 OA
ATOM    101  O   UNL A   1      53.916  24.532  24.852  1.00  0.00    -0.744 OA
ENDBRANCH  97  98
ENDBRANCH  71  92
ENDBRANCH  45  46
ENDBRANCH  37  40
ENDBRANCH  35  36
ENDBRANCH  34  35
ENDBRANCH   1  34
TORSDOF 19
ENDMDL
MODEL 3
REMARK VINA RESULT:     -11.5      3.041      9.634
REMARK SMILES C[C@@]12CC[C@@H]3c4ccc(O)cc4/C(=N\OCC(=O)NCCCCNC(=O)c4ccc(-c5c6nc(c(-c7ccc(S(=O)(=O)[O-])cc7)c7ccc([nH]7)c(-c7ccc(S(=O)(=O)[O-])cc7)c7nc(c(-c8ccc(S(=O)(=O)[O-])cc8)c8ccc5[nH]8)C=C7)C=C6)cc4)C[C@H]3[C@@H]1C[C@H](O)[C@@H]2O
REMARK SMILES IDX 21 1 20 2 19 3 17 4 18 5 16 7 15 8 14 9 1 10 2 11 3 12 89 13
REMARK SMILES IDX 93 14 4 15 88 16 90 17 91 18 5 19 87 20 6 21 13 22 7 23
REMARK SMILES IDX 12 24 8 25 11 26 9 27 94 28 92 30 10 32 22 34 23 35 24 36
REMARK SMILES IDX 25 37 26 39 27 40 28 41 86 42 29 43 85 44 30 45 31 46 32 47
REMARK SMILES IDX 79 48 33 49 84 50 78 51 80 52 34 53 83 54 77 55 76 56 35 58
REMARK SMILES IDX 65 59 46 60 64 61 47 62 50 63 63 64 81 65 48 66 49 67 62 69
REMARK SMILES IDX 82 70 51 71 36 72 37 73 45 74 38 75 44 76 39 77 40 78 41 79
REMARK SMILES IDX 42 80 43 81 66 82 67 83 75 84 68 85 74 86 69 87 70 88 71 89
REMARK SMILES IDX 72 90 73 91 52 92 53 93 61 94 54 95 60 96 55 97 56 98 57 99
REMARK SMILES IDX 58 100 59 101
REMARK H PARENT 19 6 94 29 92 31 10 33 24 38 80 57 50 68
REMARK Flexibility Score: inf
ROOT
ATOM      1  C   UNL A   1      40.412  21.422  26.067  1.00  0.00     0.023 C 
ENDROOT
BRANCH   1   2
ATOM      2  C   UNL A   1      39.004  21.911  26.400  1.00  0.00     0.116 C 
BRANCH   2   3
ATOM      3  N   UNL A   1      38.304  22.394  25.225  1.00  0.00    -0.353 N 
ATOM      4  C   UNL A   1      37.398  21.760  24.424  1.00  0.00     0.260 C 
ATOM      5  O   UNL A   1      36.945  22.393  23.465  1.00  0.00    -0.271 OA
ATOM      6  H   UNL A   1      38.513  23.319  24.967  1.00  0.00     0.163 HD
BRANCH   4   7
ATOM      7  C   UNL A   1      36.843  20.381  24.782  1.00  0.00     0.363 C 
BRANCH   7   8
ATOM      8  O   UNL A   1      35.603  20.290  25.444  1.00  0.00    -0.385 OA
BRANCH   8   9
ATOM      9  N   UNL A   1      35.243  21.485  26.093  1.00  0.00    -0.090 NA
ATOM     10  C   UNL A   1      32.075  27.769  24.046  1.00  0.00     0.014 C 
ATOM     11  C   UNL A   1      31.742  26.253  24.031  1.00  0.00    -0.001 C 
ATOM     12  C   UNL A   1      32.139  25.741  22.644  1.00  0.00     0.010 C 
ATOM     13  C   UNL A   1      32.475  25.517  25.186  1.00  0.00     0.004 C 
ATOM     14  C   UNL A   1      30.256  26.066  24.404  1.00  0.00     0.149 C 
ATOM     15  C   UNL A   1      32.132  24.237  22.487  1.00  0.00     0.009 C 
ATOM     16  C   UNL A   1      32.636  23.975  24.999  1.00  0.00     0.006 C 
ATOM     17  C   UNL A   1      31.605  25.845  26.434  1.00  0.00     0.039 C 
ATOM     18  C   UNL A   1      30.237  26.329  25.918  1.00  0.00     0.144 C 
ATOM     19  C   UNL A   1      32.981  23.537  23.548  1.00  0.00     0.024 C 
ATOM     20  C   UNL A   1      33.715  23.390  25.955  1.00  0.00     0.065 C 
ATOM     21  C   UNL A   1      32.859  22.018  23.478  1.00  0.00    -0.035 A 
ATOM     22  C   UNL A   1      34.131  21.962  25.593  1.00  0.00     0.088 C 
ATOM     23  C   UNL A   1      32.327  21.325  22.380  1.00  0.00     0.008 A 
ATOM     24  C   UNL A   1      33.303  21.262  24.572  1.00  0.00     0.006 A 
ATOM     25  C   UNL A   1      32.174  19.936  22.412  1.00  0.00     0.046 A 
ATOM     26  C   UNL A   1      33.076  19.881  24.643  1.00  0.00     0.056 A 
ATOM     27  C   UNL A   1      32.522  19.229  23.553  1.00  0.00     0.116 A 
BRANCH  14  28
ATOM     28  O   UNL A   1      29.770  24.744  24.162  1.00  0.00    -0.390 OA
ATOM     29  H   UNL A   1      30.411  24.259  23.620  1.00  0.00     0.211 HD
ENDBRANCH  14  28
BRANCH  18  30
ATOM     30  O   UNL A   1      29.172  25.604  26.529  1.00  0.00    -0.390 OA
ATOM     31  H   UNL A   1      28.398  26.180  26.618  1.00  0.00     0.211 HD
ENDBRANCH  18  30
BRANCH  27  32
ATOM     32  O   UNL A   1      32.336  17.878  23.550  1.00  0.00    -0.508 OA
ATOM     33  H   UNL A   1      33.071  17.304  23.638  1.00  0.00     0.293 HD
ENDBRANCH  27  32
ENDBRANCH   8   9
ENDBRANCH   7   8
ENDBRANCH   4   7
ENDBRANCH   2   3
ENDBRANCH   1   2
BRANCH   1  34
ATOM     34  C   UNL A   1      40.768  20.026  26.572  1.00  0.00     0.023 C 
BRANCH  34  35
ATOM     35  C   UNL A   1      42.249  19.785  26.812  1.00  0.00     0.116 C 
BRANCH  35  36
ATOM     36  N   UNL A   1      42.907  19.091  25.712  1.00  0.00    -0.352 N 
ATOM     37  C   UNL A   1      43.858  19.571  24.839  1.00  0.00     0.251 C 
ATOM     38  H   UNL A   1      42.635  18.155  25.575  1.00  0.00     0.163 HD
ATOM     39  O   UNL A   1      44.233  18.891  23.889  1.00  0.00    -0.269 OA
BRANCH  37  40
ATOM     40  C   UNL A   1      44.380  20.942  25.031  1.00  0.00     0.039 A 
ATOM     41  C   UNL A   1      45.342  21.197  26.011  1.00  0.00     0.014 A 
ATOM     42  C   UNL A   1      43.825  21.992  24.295  1.00  0.00     0.014 A 
ATOM     43  C   UNL A   1      45.591  22.508  26.398  1.00  0.00     0.010 A 
ATOM     44  C   UNL A   1      44.153  23.310  24.623  1.00  0.00     0.010 A 
ATOM     45  C   UNL A   1      44.987  23.581  25.719  1.00  0.00    -0.014 A 
BRANCH  45  46
ATOM     46  C   UNL A   1      45.221  24.973  26.183  1.00  0.00     0.031 A 
ATOM     47  C   UNL A   1      46.575  25.618  26.033  1.00  0.00     0.074 A 
ATOM     48  C   UNL A   1      44.194  25.680  26.692  1.00  0.00     0.049 A 
ATOM     49  N   UNL A   1      46.959  26.815  26.394  1.00  0.00    -0.248 NA
ATOM     50  C   UNL A   1      47.634  24.820  25.392  1.00  0.00     0.031 C 
ATOM     51  C   UNL A   1      42.826  25.180  26.840  1.00  0.00     0.029 A 
ATOM     52  N   UNL A   1      44.129  26.971  27.152  1.00  0.00    -0.354 N 
ATOM     53  C   UNL A   1      48.300  26.911  26.038  1.00  0.00     0.074 A 
ATOM     54  C   UNL A   1      48.675  25.638  25.465  1.00  0.00     0.031 C 
ATOM     55  C   UNL A   1      42.047  26.168  27.298  1.00  0.00     0.029 A 
ATOM     56  C   UNL A   1      42.871  27.346  27.558  1.00  0.00     0.049 A 
ATOM     57  H   UNL A   1      44.909  27.571  27.187  1.00  0.00     0.167 HD
ATOM     58  C   UNL A   1      49.136  27.970  26.165  1.00  0.00     0.031 A 
ATOM     59  C   UNL A   1      42.423  28.496  28.100  1.00  0.00     0.031 A 
ATOM     60  C   UNL A   1      48.749  29.235  26.734  1.00  0.00     0.049 A 
ATOM     61  C   UNL A   1      43.385  29.624  28.323  1.00  0.00     0.074 A 
ATOM     62  C   UNL A   1      49.524  30.369  26.903  1.00  0.00     0.029 A 
ATOM     63  N   UNL A   1      47.486  29.537  27.225  1.00  0.00    -0.354 N 
ATOM     64  N   UNL A   1      44.653  29.689  27.997  1.00  0.00    -0.248 NA
ATOM     65  C   UNL A   1      42.869  30.824  28.993  1.00  0.00     0.031 C 
ATOM     66  C   UNL A   1      48.751  31.331  27.558  1.00  0.00     0.029 A 
ATOM     67  C   UNL A   1      47.471  30.826  27.731  1.00  0.00     0.049 A 
ATOM     68  H   UNL A   1      46.715  28.924  27.215  1.00  0.00     0.167 HD
ATOM     69  C   UNL A   1      45.089  30.938  28.421  1.00  0.00     0.074 A 
ATOM     70  C   UNL A   1      43.945  31.603  29.011  1.00  0.00     0.031 C 
ATOM     71  C   UNL A   1      46.330  31.476  28.331  1.00  0.00     0.031 A 
BRANCH  58  72
ATOM     72  C   UNL A   1      50.560  27.814  25.695  1.00  0.00    -0.014 A 
ATOM     73  C   UNL A   1      51.541  27.329  26.580  1.00  0.00     0.010 A 
ATOM     74  C   UNL A   1      50.951  28.228  24.408  1.00  0.00     0.010 A 
ATOM     75  C   UNL A   1      52.883  27.270  26.196  1.00  0.00     0.020 A 
ATOM     76  C   UNL A   1      52.289  28.144  24.009  1.00  0.00     0.020 A 
ATOM     77  C   UNL A   1      53.249  27.680  24.912  1.00  0.00     0.054 A 
BRANCH  77  78
ATOM     78  S   UNL A   1      54.993  27.575  24.419  1.00  0.00     0.124 S 
ATOM     79  O   UNL A   1      55.666  28.279  25.505  1.00  0.00    -0.237 OA
ATOM     80  O   UNL A   1      55.224  26.133  24.360  1.00  0.00    -0.237 OA
ATOM     81  O   UNL A   1      55.022  28.251  23.122  1.00  0.00    -0.744 OA
ENDBRANCH  77  78
ENDBRANCH  58  72
BRANCH  59  82
ATOM     82  C   UNL A   1      40.978  28.597  28.446  1.00  0.00    -0.014 A 
ATOM     83  C   UNL A   1      40.041  28.987  27.469  1.00  0.00     0.010 A 
ATOM     84  C   UNL A   1      40.563  28.471  29.782  1.00  0.00     0.010 A 
ATOM     85  C   UNL A   1      38.742  29.343  27.836  1.00  0.00     0.020 A 
ATOM     86  C   UNL A   1      39.253  28.796  30.148  1.00  0.00     0.020 A 
ATOM     87  C   UNL A   1      38.365  29.271  29.179  1.00  0.00     0.054 A 
BRANCH  87  88
ATOM     88  S   UNL A   1      36.715  29.861  29.651  1.00  0.00     0.124 S 
ATOM     89  O   UNL A   1      35.914  29.456  28.499  1.00  0.00    -0.237 OA
ATOM     90  O   UNL A   1      36.456  29.128  30.887  1.00  0.00    -0.237 OA
ATOM     91  O   UNL A   1      36.899  31.301  29.809  1.00  0.00    -0.744 OA
ENDBRANCH  87  88
ENDBRANCH  59  82
BRANCH  71  92
ATOM     92  C   UNL A   1      46.556  32.852  28.899  1.00  0.00    -0.014 A 
ATOM     93  C   UNL A   1      46.421  33.981  28.070  1.00  0.00     0.010 A 
ATOM     94  C   UNL A   1      47.076  33.009  30.195  1.00  0.00     0.010 A 
ATOM     95  C   UNL A   1      46.859  35.235  28.505  1.00  0.00     0.020 A 
ATOM     96  C   UNL A   1      47.489  34.267  30.644  1.00  0.00     0.020 A 
ATOM     97  C   UNL A   1      47.409  35.365  29.783  1.00  0.00     0.054 A 
BRANCH  97  98
ATOM     98  S   UNL A   1      48.055  36.982  30.294  1.00  0.00     0.124 S 
ATOM     99  O   UNL A   1      46.963  37.503  31.110  1.00  0.00    -0.237 OA
ATOM    100  O   UNL A   1      49.271  36.626  31.020  1.00  0.00    -0.237 OA
ATOM    101  O   UNL A   1      48.276  37.679  29.028  1.00  0.00    -0.744 OA
ENDBRANCH  97  98
ENDBRANCH  71  92
ENDBRANCH  45  46
ENDBRANCH  37  40
ENDBRANCH  35  36
ENDBRANCH  34  35
ENDBRANCH   1  34
TORSDOF 19
ENDMDL
