MODEL 1
REMARK VINA RESULT:      -8.4      0.000      0.000
REMARK SMILES CC[NH2+]C[C@@H](C)C(=O)N1CCO[C@@H](CC(=O)NCCCCNC(=O)c2ccc(-c3c4nc(c(-c5ccc(S(=O)(=O)[O-])cc5)c5ccc([nH]5)c(-c5ccc(S(=O)(=O)[O-])cc5)c5nc(c(-c6ccc(S(=O)(=O)[O-])cc6)c6ccc3[nH]6)C=C5)C=C4)cc2)C1
REMARK SMILES IDX 18 1 17 2 15 3 16 4 14 6 13 7 9 8 10 9 85 10 11 11 12 12
REMARK SMILES IDX 7 13 8 14 5 15 6 16 4 17 3 18 2 21 1 22 19 23 20 24 21 25
REMARK SMILES IDX 22 26 23 27 24 29 25 30 26 31 84 32 27 33 83 34 28 35 29 36
REMARK SMILES IDX 30 37 77 38 31 39 82 40 76 41 78 42 32 43 81 44 75 45 74 46
REMARK SMILES IDX 33 48 63 49 44 50 62 51 45 52 48 53 61 54 79 55 46 56 47 57
REMARK SMILES IDX 60 59 80 60 49 61 34 62 35 63 43 64 36 65 42 66 37 67 38 68
REMARK SMILES IDX 39 69 40 70 41 71 64 72 65 73 73 74 66 75 72 76 67 77 68 78
REMARK SMILES IDX 69 79 70 80 71 81 50 82 51 83 59 84 52 85 58 86 53 87 54 88
REMARK SMILES IDX 55 89 56 90 57 91
REMARK H PARENT 17 5 3 19 3 20 22 28 78 47 48 58
REMARK Flexibility Score: inf
ROOT
ATOM      1  C   UNL A   1      34.729  32.746  32.682  1.00  0.00     0.116 C 
ENDROOT
BRANCH   1   2
ATOM      2  N   UNL A   1      34.579  34.194  32.738  1.00  0.00    -0.356 N 
ATOM      3  C   UNL A   1      35.508  35.182  32.889  1.00  0.00     0.222 C 
ATOM      4  O   UNL A   1      35.115  36.343  33.010  1.00  0.00    -0.275 OA
ATOM      5  H   UNL A   1      33.651  34.513  32.655  1.00  0.00     0.163 HD
BRANCH   3   6
ATOM      6  C   UNL A   1      36.988  34.865  32.936  1.00  0.00     0.133 C 
BRANCH   6   7
ATOM      7  C   UNL A   1      37.438  34.332  34.301  1.00  0.00     0.147 C 
ATOM      8  N   UNL A   1      38.612  32.345  35.315  1.00  0.00    -0.337 N 
ATOM      9  C   UNL A   1      39.681  33.242  35.731  1.00  0.00     0.148 C 
ATOM     10  C   UNL A   1      37.870  32.866  34.184  1.00  0.00     0.152 C 
ATOM     11  C   UNL A   1      39.117  34.644  35.961  1.00  0.00     0.182 C 
ATOM     12  O   UNL A   1      38.538  35.156  34.749  1.00  0.00    -0.374 OA
BRANCH   8  13
ATOM     13  C   UNL A   1      38.883  30.981  35.238  1.00  0.00     0.231 C 
ATOM     14  O   UNL A   1      38.695  30.223  36.188  1.00  0.00    -0.274 OA
BRANCH  13  15
ATOM     15  C   UNL A   1      39.482  30.492  33.923  1.00  0.00     0.130 C 
ATOM     16  C   UNL A   1      38.517  29.556  33.195  1.00  0.00     0.024 C 
BRANCH  15  17
ATOM     17  C   UNL A   1      40.864  29.878  34.181  1.00  0.00     0.273 C 
BRANCH  17  18
ATOM     18  N   UNL A   1      40.914  28.736  35.099  1.00  0.00    -0.346 N 
ATOM     19  H   UNL A   1      41.214  29.070  36.015  1.00  0.00     0.346 HD
ATOM     20  H   UNL A   1      39.979  28.329  35.126  1.00  0.00     0.346 HD
BRANCH  18  21
ATOM     21  C   UNL A   1      41.833  27.688  34.663  1.00  0.00     0.257 C 
ATOM     22  C   UNL A   1      42.417  28.082  33.314  1.00  0.00     0.071 C 
ENDBRANCH  18  21
ENDBRANCH  17  18
ENDBRANCH  15  17
ENDBRANCH  13  15
ENDBRANCH   8  13
ENDBRANCH   6   7
ENDBRANCH   3   6
ENDBRANCH   1   2
BRANCH   1  23
ATOM     23  C   UNL A   1      34.634  32.228  31.243  1.00  0.00     0.023 C 
BRANCH  23  24
ATOM     24  C   UNL A   1      35.834  32.518  30.360  1.00  0.00     0.023 C 
BRANCH  24  25
ATOM     25  C   UNL A   1      35.477  32.911  28.939  1.00  0.00     0.116 C 
BRANCH  25  26
ATOM     26  N   UNL A   1      34.494  32.033  28.316  1.00  0.00    -0.352 N 
ATOM     27  C   UNL A   1      34.643  30.718  27.926  1.00  0.00     0.251 C 
ATOM     28  H   UNL A   1      33.609  32.430  28.151  1.00  0.00     0.163 HD
ATOM     29  O   UNL A   1      33.740  30.127  27.357  1.00  0.00    -0.269 OA
BRANCH  27  30
ATOM     30  C   UNL A   1      35.946  30.060  28.161  1.00  0.00     0.039 A 
ATOM     31  C   UNL A   1      36.960  30.216  27.215  1.00  0.00     0.014 A 
ATOM     32  C   UNL A   1      36.190  29.397  29.364  1.00  0.00     0.014 A 
ATOM     33  C   UNL A   1      38.252  29.785  27.522  1.00  0.00     0.010 A 
ATOM     34  C   UNL A   1      37.493  29.074  29.710  1.00  0.00     0.010 A 
ATOM     35  C   UNL A   1      38.538  29.261  28.792  1.00  0.00    -0.014 A 
BRANCH  35  36
ATOM     36  C   UNL A   1      39.917  28.883  29.189  1.00  0.00     0.031 A 
ATOM     37  C   UNL A   1      40.780  29.882  29.912  1.00  0.00     0.074 A 
ATOM     38  C   UNL A   1      40.423  27.687  28.824  1.00  0.00     0.049 A 
ATOM     39  N   UNL A   1      42.041  29.796  30.246  1.00  0.00    -0.248 NA
ATOM     40  C   UNL A   1      40.154  31.168  30.264  1.00  0.00     0.031 C 
ATOM     41  C   UNL A   1      39.709  26.655  28.066  1.00  0.00     0.029 A 
ATOM     42  N   UNL A   1      41.663  27.141  29.034  1.00  0.00    -0.354 N 
ATOM     43  C   UNL A   1      42.365  31.024  30.810  1.00  0.00     0.074 A 
ATOM     44  C   UNL A   1      41.188  31.857  30.721  1.00  0.00     0.031 C 
ATOM     45  C   UNL A   1      40.512  25.589  27.909  1.00  0.00     0.029 A 
ATOM     46  C   UNL A   1      41.806  25.874  28.517  1.00  0.00     0.049 A 
ATOM     47  H   UNL A   1      42.385  27.610  29.513  1.00  0.00     0.167 HD
ATOM     48  C   UNL A   1      43.529  31.417  31.377  1.00  0.00     0.031 A 
ATOM     49  C   UNL A   1      42.862  25.038  28.532  1.00  0.00     0.031 A 
ATOM     50  C   UNL A   1      44.682  30.569  31.505  1.00  0.00     0.049 A 
ATOM     51  C   UNL A   1      44.130  25.475  29.210  1.00  0.00     0.074 A 
ATOM     52  C   UNL A   1      45.887  30.842  32.128  1.00  0.00     0.029 A 
ATOM     53  N   UNL A   1      44.767  29.276  31.012  1.00  0.00    -0.354 N 
ATOM     54  N   UNL A   1      44.398  26.620  29.792  1.00  0.00    -0.248 NA
ATOM     55  C   UNL A   1      45.233  24.504  29.248  1.00  0.00     0.031 C 
ATOM     56  C   UNL A   1      46.714  29.722  31.982  1.00  0.00     0.029 A 
ATOM     57  C   UNL A   1      46.007  28.739  31.310  1.00  0.00     0.049 A 
ATOM     58  H   UNL A   1      44.052  28.809  30.523  1.00  0.00     0.167 HD
ATOM     59  C   UNL A   1      45.691  26.498  30.288  1.00  0.00     0.074 A 
ATOM     60  C   UNL A   1      46.146  25.165  29.947  1.00  0.00     0.031 C 
ATOM     61  C   UNL A   1      46.435  27.407  30.967  1.00  0.00     0.031 A 
BRANCH  48  62
ATOM     62  C   UNL A   1      43.600  32.824  31.905  1.00  0.00    -0.014 A 
ATOM     63  C   UNL A   1      43.134  33.138  33.195  1.00  0.00     0.010 A 
ATOM     64  C   UNL A   1      44.141  33.846  31.105  1.00  0.00     0.010 A 
ATOM     65  C   UNL A   1      43.158  34.457  33.656  1.00  0.00     0.020 A 
ATOM     66  C   UNL A   1      44.194  35.162  31.573  1.00  0.00     0.020 A 
ATOM     67  C   UNL A   1      43.682  35.462  32.838  1.00  0.00     0.054 A 
BRANCH  67  68
ATOM     68  S   UNL A   1      43.706  37.166  33.460  1.00  0.00     0.124 S 
ATOM     69  O   UNL A   1      44.912  37.165  34.285  1.00  0.00    -0.237 OA
ATOM     70  O   UNL A   1      43.787  37.955  32.234  1.00  0.00    -0.237 OA
ATOM     71  O   UNL A   1      42.449  37.285  34.193  1.00  0.00    -0.744 OA
ENDBRANCH  67  68
ENDBRANCH  48  62
BRANCH  49  72
ATOM     72  C   UNL A   1      42.748  23.687  27.915  1.00  0.00    -0.014 A 
ATOM     73  C   UNL A   1      42.027  22.671  28.567  1.00  0.00     0.010 A 
ATOM     74  C   UNL A   1      43.337  23.416  26.668  1.00  0.00     0.010 A 
ATOM     75  C   UNL A   1      41.909  21.403  27.988  1.00  0.00     0.020 A 
ATOM     76  C   UNL A   1      43.201  22.156  26.075  1.00  0.00     0.020 A 
ATOM     77  C   UNL A   1      42.495  21.154  26.745  1.00  0.00     0.054 A 
BRANCH  77  78
ATOM     78  S   UNL A   1      42.276  19.521  25.983  1.00  0.00     0.124 S 
ATOM     79  O   UNL A   1      40.833  19.477  25.773  1.00  0.00    -0.237 OA
ATOM     80  O   UNL A   1      43.090  19.623  24.775  1.00  0.00    -0.237 OA
ATOM     81  O   UNL A   1      42.791  18.602  26.996  1.00  0.00    -0.744 OA
ENDBRANCH  77  78
ENDBRANCH  49  72
BRANCH  61  82
ATOM     82  C   UNL A   1      47.803  26.981  31.419  1.00  0.00    -0.014 A 
ATOM     83  C   UNL A   1      48.909  27.053  30.556  1.00  0.00     0.010 A 
ATOM     84  C   UNL A   1      47.993  26.568  32.750  1.00  0.00     0.010 A 
ATOM     85  C   UNL A   1      50.182  26.697  31.010  1.00  0.00     0.020 A 
ATOM     86  C   UNL A   1      49.267  26.233  33.215  1.00  0.00     0.020 A 
ATOM     87  C   UNL A   1      50.351  26.289  32.337  1.00  0.00     0.054 A 
BRANCH  87  88
ATOM     88  S   UNL A   1      52.020  25.883  32.920  1.00  0.00     0.124 S 
ATOM     89  O   UNL A   1      52.699  27.171  32.819  1.00  0.00    -0.237 OA
ATOM     90  O   UNL A   1      51.779  25.403  34.279  1.00  0.00    -0.237 OA
ATOM     91  O   UNL A   1      52.476  24.861  31.978  1.00  0.00    -0.744 OA
ENDBRANCH  87  88
ENDBRANCH  61  82
ENDBRANCH  35  36
ENDBRANCH  27  30
ENDBRANCH  25  26
ENDBRANCH  24  25
ENDBRANCH  23  24
ENDBRANCH   1  23
TORSDOF 20
ENDMDL
MODEL 2
REMARK VINA RESULT:      -8.4      4.590     12.163
REMARK SMILES CC[NH2+]C[C@@H](C)C(=O)N1CCO[C@@H](CC(=O)NCCCCNC(=O)c2ccc(-c3c4nc(c(-c5ccc(S(=O)(=O)[O-])cc5)c5ccc([nH]5)c(-c5ccc(S(=O)(=O)[O-])cc5)c5nc(c(-c6ccc(S(=O)(=O)[O-])cc6)c6ccc3[nH]6)C=C5)C=C4)cc2)C1
REMARK SMILES IDX 18 1 17 2 15 3 16 4 14 6 13 7 9 8 10 9 85 10 11 11 12 12
REMARK SMILES IDX 7 13 8 14 5 15 6 16 4 17 3 18 2 21 1 22 19 23 20 24 21 25
REMARK SMILES IDX 22 26 23 27 24 29 25 30 26 31 84 32 27 33 83 34 28 35 29 36
REMARK SMILES IDX 30 37 77 38 31 39 82 40 76 41 78 42 32 43 81 44 75 45 74 46
REMARK SMILES IDX 33 48 63 49 44 50 62 51 45 52 48 53 61 54 79 55 46 56 47 57
REMARK SMILES IDX 60 59 80 60 49 61 34 62 35 63 43 64 36 65 42 66 37 67 38 68
REMARK SMILES IDX 39 69 40 70 41 71 64 72 65 73 73 74 66 75 72 76 67 77 68 78
REMARK SMILES IDX 69 79 70 80 71 81 50 82 51 83 59 84 52 85 58 86 53 87 54 88
REMARK SMILES IDX 55 89 56 90 57 91
REMARK H PARENT 17 5 3 19 3 20 22 28 78 47 48 58
REMARK Flexibility Score: inf
ROOT
ATOM      1  C   UNL A   1      38.197  21.896  25.953  1.00  0.00     0.116 C 
ENDROOT
BRANCH   1   2
ATOM      2  N   UNL A   1      37.840  22.449  24.654  1.00  0.00    -0.356 N 
ATOM      3  C   UNL A   1      36.676  22.377  23.944  1.00  0.00     0.222 C 
ATOM      4  O   UNL A   1      36.654  22.849  22.806  1.00  0.00    -0.275 OA
ATOM      5  H   UNL A   1      38.557  22.960  24.214  1.00  0.00     0.163 HD
BRANCH   3   6
ATOM      6  C   UNL A   1      35.446  21.710  24.520  1.00  0.00     0.133 C 
BRANCH   6   7
ATOM      7  C   UNL A   1      34.649  22.634  25.447  1.00  0.00     0.147 C 
ATOM      8  N   UNL A   1      32.405  23.775  25.584  1.00  0.00    -0.337 N 
ATOM      9  C   UNL A   1      32.111  22.963  26.756  1.00  0.00     0.148 C 
ATOM     10  C   UNL A   1      33.401  23.161  24.729  1.00  0.00     0.152 C 
ATOM     11  C   UNL A   1      33.410  22.613  27.481  1.00  0.00     0.182 C 
ATOM     12  O   UNL A   1      34.281  21.866  26.616  1.00  0.00    -0.374 OA
BRANCH   8  13
ATOM     13  C   UNL A   1      31.343  24.355  24.894  1.00  0.00     0.231 C 
ATOM     14  O   UNL A   1      30.773  23.779  23.969  1.00  0.00    -0.274 OA
BRANCH  13  15
ATOM     15  C   UNL A   1      30.965  25.772  25.318  1.00  0.00     0.130 C 
ATOM     16  C   UNL A   1      29.587  26.156  24.778  1.00  0.00     0.024 C 
BRANCH  15  17
ATOM     17  C   UNL A   1      32.081  26.745  24.917  1.00  0.00     0.273 C 
BRANCH  17  18
ATOM     18  N   UNL A   1      32.752  26.485  23.640  1.00  0.00    -0.346 N 
ATOM     19  H   UNL A   1      33.302  25.631  23.731  1.00  0.00     0.346 HD
ATOM     20  H   UNL A   1      32.025  26.400  22.928  1.00  0.00     0.346 HD
BRANCH  18  21
ATOM     21  C   UNL A   1      33.640  27.569  23.226  1.00  0.00     0.257 C 
ATOM     22  C   UNL A   1      33.168  28.861  23.876  1.00  0.00     0.071 C 
ENDBRANCH  18  21
ENDBRANCH  17  18
ENDBRANCH  15  17
ENDBRANCH  13  15
ENDBRANCH   8  13
ENDBRANCH   6   7
ENDBRANCH   3   6
ENDBRANCH   1   2
BRANCH   1  23
ATOM     23  C   UNL A   1      39.605  21.292  25.938  1.00  0.00     0.023 C 
BRANCH  23  24
ATOM     24  C   UNL A   1      40.491  21.662  27.114  1.00  0.00     0.023 C 
BRANCH  24  25
ATOM     25  C   UNL A   1      40.529  23.148  27.417  1.00  0.00     0.116 C 
BRANCH  25  26
ATOM     26  N   UNL A   1      40.857  23.975  26.263  1.00  0.00    -0.352 N 
ATOM     27  C   UNL A   1      41.138  25.326  26.226  1.00  0.00     0.251 C 
ATOM     28  H   UNL A   1      40.881  23.510  25.395  1.00  0.00     0.163 HD
ATOM     29  O   UNL A   1      41.337  25.897  25.166  1.00  0.00    -0.269 OA
BRANCH  27  30
ATOM     30  C   UNL A   1      41.132  26.077  27.499  1.00  0.00     0.039 A 
ATOM     31  C   UNL A   1      42.222  26.894  27.805  1.00  0.00     0.014 A 
ATOM     32  C   UNL A   1      40.003  26.060  28.319  1.00  0.00     0.014 A 
ATOM     33  C   UNL A   1      42.137  27.768  28.890  1.00  0.00     0.010 A 
ATOM     34  C   UNL A   1      39.878  27.007  29.325  1.00  0.00     0.010 A 
ATOM     35  C   UNL A   1      40.944  27.869  29.624  1.00  0.00    -0.014 A 
BRANCH  35  36
ATOM     36  C   UNL A   1      40.782  28.855  30.721  1.00  0.00     0.031 A 
ATOM     37  C   UNL A   1      41.650  28.750  31.946  1.00  0.00     0.074 A 
ATOM     38  C   UNL A   1      39.802  29.779  30.660  1.00  0.00     0.049 A 
ATOM     39  N   UNL A   1      41.596  29.434  33.058  1.00  0.00    -0.248 NA
ATOM     40  C   UNL A   1      42.689  27.706  31.935  1.00  0.00     0.031 C 
ATOM     41  C   UNL A   1      38.852  29.944  29.555  1.00  0.00     0.029 A 
ATOM     42  N   UNL A   1      39.436  30.752  31.556  1.00  0.00    -0.354 N 
ATOM     43  C   UNL A   1      42.562  28.879  33.888  1.00  0.00     0.074 A 
ATOM     44  C   UNL A   1      43.148  27.767  33.175  1.00  0.00     0.031 C 
ATOM     45  C   UNL A   1      38.038  30.979  29.824  1.00  0.00     0.029 A 
ATOM     46  C   UNL A   1      38.380  31.525  31.133  1.00  0.00     0.049 A 
ATOM     47  H   UNL A   1      39.887  30.885  32.420  1.00  0.00     0.167 HD
ATOM     48  C   UNL A   1      42.948  29.274  35.123  1.00  0.00     0.031 A 
ATOM     49  C   UNL A   1      37.758  32.559  31.733  1.00  0.00     0.031 A 
ATOM     50  C   UNL A   1      42.395  30.409  35.809  1.00  0.00     0.049 A 
ATOM     51  C   UNL A   1      38.235  33.013  33.084  1.00  0.00     0.074 A 
ATOM     52  C   UNL A   1      42.765  30.941  37.031  1.00  0.00     0.029 A 
ATOM     53  N   UNL A   1      41.362  31.196  35.323  1.00  0.00    -0.354 N 
ATOM     54  N   UNL A   1      39.192  32.513  33.828  1.00  0.00    -0.248 NA
ATOM     55  C   UNL A   1      37.560  34.180  33.669  1.00  0.00     0.031 C 
ATOM     56  C   UNL A   1      41.931  32.032  37.299  1.00  0.00     0.029 A 
ATOM     57  C   UNL A   1      41.075  32.206  36.224  1.00  0.00     0.049 A 
ATOM     58  H   UNL A   1      40.901  31.057  34.465  1.00  0.00     0.167 HD
ATOM     59  C   UNL A   1      39.253  33.319  34.959  1.00  0.00     0.074 A 
ATOM     60  C   UNL A   1      38.242  34.345  34.795  1.00  0.00     0.031 C 
ATOM     61  C   UNL A   1      40.071  33.221  36.036  1.00  0.00     0.031 A 
BRANCH  48  62
ATOM     62  C   UNL A   1      44.027  28.471  35.800  1.00  0.00    -0.014 A 
ATOM     63  C   UNL A   1      43.705  27.383  36.632  1.00  0.00     0.010 A 
ATOM     64  C   UNL A   1      45.378  28.804  35.599  1.00  0.00     0.010 A 
ATOM     65  C   UNL A   1      44.711  26.676  37.295  1.00  0.00     0.020 A 
ATOM     66  C   UNL A   1      46.390  28.080  36.237  1.00  0.00     0.020 A 
ATOM     67  C   UNL A   1      46.048  27.034  37.098  1.00  0.00     0.054 A 
BRANCH  67  68
ATOM     68  S   UNL A   1      47.337  26.098  37.965  1.00  0.00     0.124 S 
ATOM     69  O   UNL A   1      46.544  25.194  38.794  1.00  0.00    -0.237 OA
ATOM     70  O   UNL A   1      48.068  25.467  36.870  1.00  0.00    -0.237 OA
ATOM     71  O   UNL A   1      48.078  27.124  38.695  1.00  0.00    -0.744 OA
ENDBRANCH  67  68
ENDBRANCH  48  62
BRANCH  49  72
ATOM     72  C   UNL A   1      36.640  33.257  31.039  1.00  0.00    -0.014 A 
ATOM     73  C   UNL A   1      36.872  33.936  29.830  1.00  0.00     0.010 A 
ATOM     74  C   UNL A   1      35.338  33.228  31.568  1.00  0.00     0.010 A 
ATOM     75  C   UNL A   1      35.824  34.585  29.169  1.00  0.00     0.020 A 
ATOM     76  C   UNL A   1      34.283  33.856  30.898  1.00  0.00     0.020 A 
ATOM     77  C   UNL A   1      34.536  34.540  29.706  1.00  0.00     0.054 A 
BRANCH  77  78
ATOM     78  S   UNL A   1      33.179  35.336  28.800  1.00  0.00     0.124 S 
ATOM     79  O   UNL A   1      32.562  34.201  28.122  1.00  0.00    -0.237 OA
ATOM     80  O   UNL A   1      32.392  35.938  29.872  1.00  0.00    -0.237 OA
ATOM     81  O   UNL A   1      33.865  36.289  27.930  1.00  0.00    -0.744 OA
ENDBRANCH  77  78
ENDBRANCH  49  72
BRANCH  61  82
ATOM     82  C   UNL A   1      39.936  34.269  37.105  1.00  0.00    -0.014 A 
ATOM     83  C   UNL A   1      40.659  35.472  37.037  1.00  0.00     0.010 A 
ATOM     84  C   UNL A   1      39.021  34.072  38.154  1.00  0.00     0.010 A 
ATOM     85  C   UNL A   1      40.485  36.453  38.016  1.00  0.00     0.020 A 
ATOM     86  C   UNL A   1      38.827  35.060  39.121  1.00  0.00     0.020 A 
ATOM     87  C   UNL A   1      39.570  36.240  39.052  1.00  0.00     0.054 A 
BRANCH  87  88
ATOM     88  S   UNL A   1      39.321  37.550  40.282  1.00  0.00     0.124 S 
ATOM     89  O   UNL A   1      40.638  38.177  40.328  1.00  0.00    -0.237 OA
ATOM     90  O   UNL A   1      38.260  38.356  39.684  1.00  0.00    -0.237 OA
ATOM     91  O   UNL A   1      38.934  36.821  41.489  1.00  0.00    -0.744 OA
ENDBRANCH  87  88
ENDBRANCH  61  82
ENDBRANCH  35  36
ENDBRANCH  27  30
ENDBRANCH  25  26
ENDBRANCH  24  25
ENDBRANCH  23  24
ENDBRANCH   1  23
TORSDOF 20
ENDMDL
MODEL 3
REMARK VINA RESULT:      -8.1      4.631     11.390
REMARK SMILES CC[NH2+]C[C@@H](C)C(=O)N1CCO[C@@H](CC(=O)NCCCCNC(=O)c2ccc(-c3c4nc(c(-c5ccc(S(=O)(=O)[O-])cc5)c5ccc([nH]5)c(-c5ccc(S(=O)(=O)[O-])cc5)c5nc(c(-c6ccc(S(=O)(=O)[O-])cc6)c6ccc3[nH]6)C=C5)C=C4)cc2)C1
REMARK SMILES IDX 18 1 17 2 15 3 16 4 14 6 13 7 9 8 10 9 85 10 11 11 12 12
REMARK SMILES IDX 7 13 8 14 5 15 6 16 4 17 3 18 2 21 1 22 19 23 20 24 21 25
REMARK SMILES IDX 22 26 23 27 24 29 25 30 26 31 84 32 27 33 83 34 28 35 29 36
REMARK SMILES IDX 30 37 77 38 31 39 82 40 76 41 78 42 32 43 81 44 75 45 74 46
REMARK SMILES IDX 33 48 63 49 44 50 62 51 45 52 48 53 61 54 79 55 46 56 47 57
REMARK SMILES IDX 60 59 80 60 49 61 34 62 35 63 43 64 36 65 42 66 37 67 38 68
REMARK SMILES IDX 39 69 40 70 41 71 64 72 65 73 73 74 66 75 72 76 67 77 68 78
REMARK SMILES IDX 69 79 70 80 71 81 50 82 51 83 59 84 52 85 58 86 53 87 54 88
REMARK SMILES IDX 55 89 56 90 57 91
REMARK H PARENT 17 5 3 19 3 20 22 28 78 47 48 58
REMARK Flexibility Score: inf
ROOT
ATOM      1  C   UNL A   1      34.842  21.486  26.235  1.00  0.00     0.116 C 
ENDROOT
BRANCH   1   2
ATOM      2  N   UNL A   1      33.998  20.465  25.630  1.00  0.00    -0.356 N 
ATOM      3  C   UNL A   1      32.668  20.475  25.322  1.00  0.00     0.222 C 
ATOM      4  O   UNL A   1      32.155  19.436  24.904  1.00  0.00    -0.275 OA
ATOM      5  H   UNL A   1      34.463  19.626  25.407  1.00  0.00     0.163 HD
BRANCH   3   6
ATOM      6  C   UNL A   1      31.829  21.721  25.514  1.00  0.00     0.133 C 
BRANCH   6   7
ATOM      7  C   UNL A   1      31.942  22.699  24.339  1.00  0.00     0.147 C 
ATOM      8  N   UNL A   1      32.995  24.915  23.758  1.00  0.00    -0.337 N 
ATOM      9  C   UNL A   1      33.810  24.221  22.772  1.00  0.00     0.148 C 
ATOM     10  C   UNL A   1      32.539  24.030  24.812  1.00  0.00     0.152 C 
ATOM     11  C   UNL A   1      33.064  22.990  22.259  1.00  0.00     0.182 C 
ATOM     12  O   UNL A   1      32.787  22.085  23.340  1.00  0.00    -0.374 OA
BRANCH   8  13
ATOM     13  C   UNL A   1      33.416  26.165  24.207  1.00  0.00     0.231 C 
ATOM     14  O   UNL A   1      34.089  26.299  25.228  1.00  0.00    -0.274 OA
BRANCH  13  15
ATOM     15  C   UNL A   1      32.944  27.363  23.389  1.00  0.00     0.130 C 
ATOM     16  C   UNL A   1      34.025  28.443  23.324  1.00  0.00     0.024 C 
BRANCH  15  17
ATOM     17  C   UNL A   1      31.601  27.863  23.934  1.00  0.00     0.273 C 
BRANCH  17  18
ATOM     18  N   UNL A   1      31.419  27.808  25.387  1.00  0.00    -0.346 N 
ATOM     19  H   UNL A   1      30.440  27.599  25.583  1.00  0.00     0.346 HD
ATOM     20  H   UNL A   1      32.044  27.084  25.743  1.00  0.00     0.346 HD
BRANCH  18  21
ATOM     21  C   UNL A   1      31.772  29.056  26.058  1.00  0.00     0.257 C 
ATOM     22  C   UNL A   1      32.665  28.735  27.247  1.00  0.00     0.071 C 
ENDBRANCH  18  21
ENDBRANCH  17  18
ENDBRANCH  15  17
ENDBRANCH  13  15
ENDBRANCH   8  13
ENDBRANCH   6   7
ENDBRANCH   3   6
ENDBRANCH   1   2
BRANCH   1  23
ATOM     23  C   UNL A   1      35.872  22.025  25.237  1.00  0.00     0.023 C 
BRANCH  23  24
ATOM     24  C   UNL A   1      36.218  23.497  25.381  1.00  0.00     0.023 C 
BRANCH  24  25
ATOM     25  C   UNL A   1      37.508  23.759  26.134  1.00  0.00     0.116 C 
BRANCH  25  26
ATOM     26  N   UNL A   1      38.267  22.553  26.438  1.00  0.00    -0.352 N 
ATOM     27  C   UNL A   1      39.576  22.446  26.861  1.00  0.00     0.251 C 
ATOM     28  H   UNL A   1      37.783  21.703  26.328  1.00  0.00     0.163 HD
ATOM     29  O   UNL A   1      40.097  21.355  27.020  1.00  0.00    -0.269 OA
BRANCH  27  30
ATOM     30  C   UNL A   1      40.352  23.689  27.060  1.00  0.00     0.039 A 
ATOM     31  C   UNL A   1      40.224  24.720  26.128  1.00  0.00     0.014 A 
ATOM     32  C   UNL A   1      41.102  23.869  28.223  1.00  0.00     0.014 A 
ATOM     33  C   UNL A   1      40.777  25.970  26.412  1.00  0.00     0.010 A 
ATOM     34  C   UNL A   1      41.552  25.139  28.553  1.00  0.00     0.010 A 
ATOM     35  C   UNL A   1      41.398  26.203  27.650  1.00  0.00    -0.014 A 
BRANCH  35  36
ATOM     36  C   UNL A   1      41.910  27.543  28.028  1.00  0.00     0.031 A 
ATOM     37  C   UNL A   1      43.387  27.822  27.944  1.00  0.00     0.074 A 
ATOM     38  C   UNL A   1      41.071  28.471  28.530  1.00  0.00     0.049 A 
ATOM     39  N   UNL A   1      44.051  28.879  28.331  1.00  0.00    -0.248 NA
ATOM     40  C   UNL A   1      44.235  26.750  27.394  1.00  0.00     0.031 C 
ATOM     41  C   UNL A   1      39.627  28.302  28.721  1.00  0.00     0.029 A 
ATOM     42  N   UNL A   1      41.314  29.744  28.981  1.00  0.00    -0.354 N 
ATOM     43  C   UNL A   1      45.390  28.584  28.107  1.00  0.00     0.074 A 
ATOM     44  C   UNL A   1      45.450  27.231  27.606  1.00  0.00     0.031 C 
ATOM     45  C   UNL A   1      39.111  29.440  29.215  1.00  0.00     0.029 A 
ATOM     46  C   UNL A   1      40.187  30.404  29.413  1.00  0.00     0.049 A 
ATOM     47  H   UNL A   1      42.212  30.149  28.993  1.00  0.00     0.167 HD
ATOM     48  C   UNL A   1      46.474  29.377  28.276  1.00  0.00     0.031 A 
ATOM     49  C   UNL A   1      40.039  31.647  29.911  1.00  0.00     0.031 A 
ATOM     50  C   UNL A   1      46.405  30.739  28.730  1.00  0.00     0.049 A 
ATOM     51  C   UNL A   1      41.249  32.529  30.045  1.00  0.00     0.074 A 
ATOM     52  C   UNL A   1      47.433  31.654  28.867  1.00  0.00     0.029 A 
ATOM     53  N   UNL A   1      45.238  31.385  29.109  1.00  0.00    -0.354 N 
ATOM     54  N   UNL A   1      42.502  32.252  29.770  1.00  0.00    -0.248 NA
ATOM     55  C   UNL A   1      41.025  33.893  30.541  1.00  0.00     0.031 C 
ATOM     56  C   UNL A   1      46.891  32.846  29.359  1.00  0.00     0.029 A 
ATOM     57  C   UNL A   1      45.520  32.685  29.486  1.00  0.00     0.049 A 
ATOM     58  H   UNL A   1      44.342  30.978  29.109  1.00  0.00     0.167 HD
ATOM     59  C   UNL A   1      43.213  33.417  30.035  1.00  0.00     0.074 A 
ATOM     60  C   UNL A   1      42.249  34.403  30.482  1.00  0.00     0.031 C 
ATOM     61  C   UNL A   1      44.543  33.651  29.919  1.00  0.00     0.031 A 
BRANCH  48  62
ATOM     62  C   UNL A   1      47.820  28.784  27.958  1.00  0.00    -0.014 A 
ATOM     63  C   UNL A   1      48.566  28.110  28.944  1.00  0.00     0.010 A 
ATOM     64  C   UNL A   1      48.346  28.896  26.660  1.00  0.00     0.010 A 
ATOM     65  C   UNL A   1      49.836  27.608  28.652  1.00  0.00     0.020 A 
ATOM     66  C   UNL A   1      49.604  28.368  26.354  1.00  0.00     0.020 A 
ATOM     67  C   UNL A   1      50.350  27.747  27.359  1.00  0.00     0.054 A 
BRANCH  67  68
ATOM     68  S   UNL A   1      51.999  27.082  27.002  1.00  0.00     0.124 S 
ATOM     69  O   UNL A   1      52.837  27.852  27.918  1.00  0.00    -0.237 OA
ATOM     70  O   UNL A   1      51.852  25.665  27.327  1.00  0.00    -0.237 OA
ATOM     71  O   UNL A   1      52.192  27.376  25.584  1.00  0.00    -0.744 OA
ENDBRANCH  67  68
ENDBRANCH  48  62
BRANCH  49  72
ATOM     72  C   UNL A   1      38.685  32.141  30.284  1.00  0.00    -0.014 A 
ATOM     73  C   UNL A   1      38.226  32.019  31.607  1.00  0.00     0.010 A 
ATOM     74  C   UNL A   1      37.858  32.755  29.327  1.00  0.00     0.010 A 
ATOM     75  C   UNL A   1      36.959  32.490  31.965  1.00  0.00     0.020 A 
ATOM     76  C   UNL A   1      36.599  33.248  29.687  1.00  0.00     0.020 A 
ATOM     77  C   UNL A   1      36.153  33.103  31.003  1.00  0.00     0.054 A 
BRANCH  77  78
ATOM     78  S   UNL A   1      34.538  33.763  31.502  1.00  0.00     0.124 S 
ATOM     79  O   UNL A   1      34.028  32.697  32.359  1.00  0.00    -0.237 OA
ATOM     80  O   UNL A   1      34.898  35.004  32.182  1.00  0.00    -0.237 OA
ATOM     81  O   UNL A   1      33.835  33.939  30.233  1.00  0.00    -0.744 OA
ENDBRANCH  77  78
ENDBRANCH  49  72
BRANCH  61  82
ATOM     82  C   UNL A   1      45.033  35.035  30.242  1.00  0.00    -0.014 A 
ATOM     83  C   UNL A   1      45.479  35.364  31.533  1.00  0.00     0.010 A 
ATOM     84  C   UNL A   1      45.112  35.996  29.218  1.00  0.00     0.010 A 
ATOM     85  C   UNL A   1      45.974  36.643  31.801  1.00  0.00     0.020 A 
ATOM     86  C   UNL A   1      45.628  37.267  29.477  1.00  0.00     0.020 A 
ATOM     87  C   UNL A   1      46.045  37.586  30.770  1.00  0.00     0.054 A 
BRANCH  87  88
ATOM     88  S   UNL A   1      46.742  39.222  31.129  1.00  0.00     0.124 S 
ATOM     89  O   UNL A   1      46.561  39.914  29.856  1.00  0.00    -0.237 OA
ATOM     90  O   UNL A   1      45.903  39.696  32.227  1.00  0.00    -0.237 OA
ATOM     91  O   UNL A   1      48.128  38.935  31.493  1.00  0.00    -0.744 OA
ENDBRANCH  87  88
ENDBRANCH  61  82
ENDBRANCH  35  36
ENDBRANCH  27  30
ENDBRANCH  25  26
ENDBRANCH  24  25
ENDBRANCH  23  24
ENDBRANCH   1  23
TORSDOF 20
ENDMDL
