MODEL 1
REMARK VINA RESULT:     -10.9      0.000      0.000
REMARK SMILES CC(C)C[C@H](C)NS(=O)(=O)c1cc(C(=O)NCCCCNC(=O)c2ccc(-c3c4nc(c(-c5ccc(S(=O)(=O)[O-])cc5)c5ccc([nH]5)c(-c5ccc(S(=O)(=O)[O-])cc5)c5nc(c(-c6ccc(S(=O)(=O)[O-])cc6)c6ccc3[nH]6)C=C5)C=C4)cc2)ccc1Cl
REMARK SMILES IDX 17 1 16 2 14 3 15 4 13 6 11 7 12 8 86 9 85 10 87 11 84 12
REMARK SMILES IDX 8 13 9 14 10 15 7 16 5 18 6 19 4 20 2 21 1 22 3 23 18 24
REMARK SMILES IDX 19 25 20 26 21 27 22 28 23 30 24 31 25 32 83 33 26 34 82 35
REMARK SMILES IDX 27 36 28 37 29 38 76 39 30 40 81 41 75 42 77 43 31 44 80 45
REMARK SMILES IDX 74 46 73 47 32 49 62 50 43 51 61 52 44 53 47 54 60 55 78 56
REMARK SMILES IDX 45 57 46 58 59 60 79 61 48 62 33 63 34 64 42 65 35 66 41 67
REMARK SMILES IDX 36 68 37 69 38 70 39 71 40 72 63 73 64 74 72 75 65 76 71 77
REMARK SMILES IDX 66 78 67 79 68 80 69 81 70 82 49 83 50 84 58 85 51 86 57 87
REMARK SMILES IDX 52 88 53 89 54 90 55 91 56 92
REMARK H PARENT 16 5 7 17 21 29 77 48 47 59
REMARK Flexibility Score: inf
ROOT
ATOM      1  C   UNL A   1      30.837  30.129  24.985  1.00  0.00     0.116 C 
ENDROOT
BRANCH   1   2
ATOM      2  N   UNL A   1      30.420  30.218  23.600  1.00  0.00    -0.352 N 
ATOM      3  C   UNL A   1      30.122  29.265  22.663  1.00  0.00     0.251 C 
ATOM      4  O   UNL A   1      29.711  29.651  21.568  1.00  0.00    -0.269 OA
ATOM      5  H   UNL A   1      30.334  31.142  23.270  1.00  0.00     0.163 HD
BRANCH   3   6
ATOM      6  C   UNL A   1      30.250  27.796  22.894  1.00  0.00     0.041 A 
ATOM      7  C   UNL A   1      31.690  25.824  22.657  1.00  0.00     0.101 A 
ATOM      8  C   UNL A   1      31.400  27.175  22.382  1.00  0.00     0.037 A 
ATOM      9  C   UNL A   1      30.773  25.048  23.360  1.00  0.00     0.061 A 
ATOM     10  C   UNL A   1      29.625  25.664  23.873  1.00  0.00     0.023 A 
ATOM     11  Cl  UNL A   1      30.970  23.368  23.684  1.00  0.00    -0.083 Cl
ATOM     12  C   UNL A   1      29.388  27.032  23.679  1.00  0.00     0.015 A 
BRANCH   7  13
ATOM     13  S   UNL A   1      33.298  25.229  22.220  1.00  0.00     0.242 S 
ATOM     14  O   UNL A   1      34.068  26.345  21.709  1.00  0.00    -0.207 OA
ATOM     15  O   UNL A   1      33.147  24.042  21.414  1.00  0.00    -0.207 OA
BRANCH  13  16
ATOM     16  N   UNL A   1      34.024  24.761  23.661  1.00  0.00    -0.208 NA
ATOM     17  H   UNL A   1      34.432  25.611  24.050  1.00  0.00     0.141 HD
BRANCH  16  18
ATOM     18  C   UNL A   1      35.071  23.735  23.781  1.00  0.00     0.067 C 
ATOM     19  C   UNL A   1      35.864  24.088  25.052  1.00  0.00     0.025 C 
BRANCH  18  20
ATOM     20  C   UNL A   1      34.540  22.301  23.935  1.00  0.00     0.022 C 
BRANCH  20  21
ATOM     21  C   UNL A   1      34.823  21.574  25.259  1.00  0.00    -0.016 C 
ATOM     22  C   UNL A   1      33.558  21.116  25.982  1.00  0.00     0.007 C 
ATOM     23  C   UNL A   1      35.716  20.356  25.003  1.00  0.00     0.007 C 
ENDBRANCH  20  21
ENDBRANCH  18  20
ENDBRANCH  16  18
ENDBRANCH  13  16
ENDBRANCH   7  13
ENDBRANCH   3   6
ENDBRANCH   1   2
BRANCH   1  24
ATOM     24  C   UNL A   1      32.150  29.354  25.111  1.00  0.00     0.023 C 
BRANCH  24  25
ATOM     25  C   UNL A   1      32.320  28.612  26.442  1.00  0.00     0.023 C 
BRANCH  25  26
ATOM     26  C   UNL A   1      33.593  28.943  27.221  1.00  0.00     0.116 C 
BRANCH  26  27
ATOM     27  N   UNL A   1      33.568  30.261  27.840  1.00  0.00    -0.352 N 
ATOM     28  C   UNL A   1      34.563  30.909  28.533  1.00  0.00     0.251 C 
ATOM     29  H   UNL A   1      32.721  30.757  27.750  1.00  0.00     0.163 HD
ATOM     30  O   UNL A   1      34.337  31.988  29.071  1.00  0.00    -0.269 OA
BRANCH  28  31
ATOM     31  C   UNL A   1      35.890  30.272  28.662  1.00  0.00     0.039 A 
ATOM     32  C   UNL A   1      36.699  30.170  27.527  1.00  0.00     0.014 A 
ATOM     33  C   UNL A   1      36.355  29.835  29.905  1.00  0.00     0.014 A 
ATOM     34  C   UNL A   1      38.014  29.722  27.657  1.00  0.00     0.010 A 
ATOM     35  C   UNL A   1      37.685  29.442  30.042  1.00  0.00     0.010 A 
ATOM     36  C   UNL A   1      38.533  29.409  28.924  1.00  0.00    -0.014 A 
BRANCH  36  37
ATOM     37  C   UNL A   1      39.979  29.129  29.116  1.00  0.00     0.031 A 
ATOM     38  C   UNL A   1      40.916  30.211  29.571  1.00  0.00     0.074 A 
ATOM     39  C   UNL A   1      40.459  27.912  28.785  1.00  0.00     0.049 A 
ATOM     40  N   UNL A   1      42.217  30.170  29.703  1.00  0.00    -0.248 NA
ATOM     41  C   UNL A   1      40.317  31.515  29.898  1.00  0.00     0.031 C 
ATOM     42  C   UNL A   1      39.656  26.790  28.292  1.00  0.00     0.029 A 
ATOM     43  N   UNL A   1      41.741  27.421  28.798  1.00  0.00    -0.354 N 
ATOM     44  C   UNL A   1      42.596  31.440  30.117  1.00  0.00     0.074 A 
ATOM     45  C   UNL A   1      41.391  32.241  30.176  1.00  0.00     0.031 C 
ATOM     46  C   UNL A   1      40.461  25.740  28.066  1.00  0.00     0.029 A 
ATOM     47  C   UNL A   1      41.839  26.123  28.353  1.00  0.00     0.049 A 
ATOM     48  H   UNL A   1      42.517  27.948  29.098  1.00  0.00     0.167 HD
ATOM     49  C   UNL A   1      43.833  31.893  30.433  1.00  0.00     0.031 A 
ATOM     50  C   UNL A   1      42.916  25.334  28.176  1.00  0.00     0.031 A 
ATOM     51  C   UNL A   1      45.028  31.094  30.371  1.00  0.00     0.049 A 
ATOM     52  C   UNL A   1      44.280  25.872  28.500  1.00  0.00     0.074 A 
ATOM     53  C   UNL A   1      46.318  31.446  30.730  1.00  0.00     0.029 A 
ATOM     54  N   UNL A   1      45.086  29.787  29.911  1.00  0.00    -0.354 N 
ATOM     55  N   UNL A   1      44.609  27.055  28.962  1.00  0.00    -0.248 NA
ATOM     56  C   UNL A   1      45.419  24.969  28.281  1.00  0.00     0.031 C 
ATOM     57  C   UNL A   1      47.163  30.372  30.435  1.00  0.00     0.029 A 
ATOM     58  C   UNL A   1      46.393  29.331  29.943  1.00  0.00     0.049 A 
ATOM     59  H   UNL A   1      44.311  29.261  29.606  1.00  0.00     0.167 HD
ATOM     60  C   UNL A   1      45.993  27.034  29.099  1.00  0.00     0.074 A 
ATOM     61  C   UNL A   1      46.434  25.715  28.694  1.00  0.00     0.031 C 
ATOM     62  C   UNL A   1      46.821  28.020  29.521  1.00  0.00     0.031 A 
BRANCH  49  63
ATOM     63  C   UNL A   1      43.957  33.331  30.864  1.00  0.00    -0.014 A 
ATOM     64  C   UNL A   1      44.090  34.362  29.917  1.00  0.00     0.010 A 
ATOM     65  C   UNL A   1      43.896  33.660  32.230  1.00  0.00     0.010 A 
ATOM     66  C   UNL A   1      44.200  35.692  30.329  1.00  0.00     0.020 A 
ATOM     67  C   UNL A   1      43.980  34.992  32.646  1.00  0.00     0.020 A 
ATOM     68  C   UNL A   1      44.148  35.998  31.692  1.00  0.00     0.054 A 
BRANCH  68  69
ATOM     69  S   UNL A   1      44.274  37.736  32.198  1.00  0.00     0.124 S 
ATOM     70  O   UNL A   1      43.709  38.427  31.042  1.00  0.00    -0.237 OA
ATOM     71  O   UNL A   1      43.463  37.777  33.411  1.00  0.00    -0.237 OA
ATOM     72  O   UNL A   1      45.707  37.935  32.403  1.00  0.00    -0.744 OA
ENDBRANCH  68  69
ENDBRANCH  49  63
BRANCH  50  73
ATOM     73  C   UNL A   1      42.742  23.949  27.659  1.00  0.00    -0.014 A 
ATOM     74  C   UNL A   1      42.854  23.684  26.283  1.00  0.00     0.010 A 
ATOM     75  C   UNL A   1      42.481  22.886  28.542  1.00  0.00     0.010 A 
ATOM     76  C   UNL A   1      42.698  22.382  25.799  1.00  0.00     0.020 A 
ATOM     77  C   UNL A   1      42.351  21.580  28.065  1.00  0.00     0.020 A 
ATOM     78  C   UNL A   1      42.450  21.338  26.694  1.00  0.00     0.054 A 
BRANCH  78  79
ATOM     79  S   UNL A   1      42.313  19.646  26.050  1.00  0.00     0.124 S 
ATOM     80  O   UNL A   1      42.703  18.848  27.208  1.00  0.00    -0.237 OA
ATOM     81  O   UNL A   1      40.904  19.566  25.670  1.00  0.00    -0.237 OA
ATOM     82  O   UNL A   1      43.252  19.631  24.930  1.00  0.00    -0.744 OA
ENDBRANCH  78  79
ENDBRANCH  50  73
BRANCH  62  83
ATOM     83  C   UNL A   1      48.293  27.711  29.569  1.00  0.00    -0.014 A 
ATOM     84  C   UNL A   1      48.831  26.914  30.596  1.00  0.00     0.010 A 
ATOM     85  C   UNL A   1      49.139  28.176  28.546  1.00  0.00     0.010 A 
ATOM     86  C   UNL A   1      50.194  26.611  30.614  1.00  0.00     0.020 A 
ATOM     87  C   UNL A   1      50.499  27.852  28.546  1.00  0.00     0.020 A 
ATOM     88  C   UNL A   1      51.020  27.081  29.587  1.00  0.00     0.054 A 
BRANCH  88  89
ATOM     89  S   UNL A   1      52.777  26.631  29.606  1.00  0.00     0.124 S 
ATOM     90  O   UNL A   1      52.895  25.817  28.400  1.00  0.00    -0.237 OA
ATOM     91  O   UNL A   1      53.442  27.931  29.555  1.00  0.00    -0.237 OA
ATOM     92  O   UNL A   1      52.935  25.906  30.866  1.00  0.00    -0.744 OA
ENDBRANCH  88  89
ENDBRANCH  62  83
ENDBRANCH  36  37
ENDBRANCH  28  31
ENDBRANCH  26  27
ENDBRANCH  25  26
ENDBRANCH  24  25
ENDBRANCH   1  24
TORSDOF 19
ENDMDL
MODEL 2
REMARK VINA RESULT:     -10.7      1.803      8.393
REMARK SMILES CC(C)C[C@H](C)NS(=O)(=O)c1cc(C(=O)NCCCCNC(=O)c2ccc(-c3c4nc(c(-c5ccc(S(=O)(=O)[O-])cc5)c5ccc([nH]5)c(-c5ccc(S(=O)(=O)[O-])cc5)c5nc(c(-c6ccc(S(=O)(=O)[O-])cc6)c6ccc3[nH]6)C=C5)C=C4)cc2)ccc1Cl
REMARK SMILES IDX 17 1 16 2 14 3 15 4 13 6 11 7 12 8 86 9 85 10 87 11 84 12
REMARK SMILES IDX 8 13 9 14 10 15 7 16 5 18 6 19 4 20 2 21 1 22 3 23 18 24
REMARK SMILES IDX 19 25 20 26 21 27 22 28 23 30 24 31 25 32 83 33 26 34 82 35
REMARK SMILES IDX 27 36 28 37 29 38 76 39 30 40 81 41 75 42 77 43 31 44 80 45
REMARK SMILES IDX 74 46 73 47 32 49 62 50 43 51 61 52 44 53 47 54 60 55 78 56
REMARK SMILES IDX 45 57 46 58 59 60 79 61 48 62 33 63 34 64 42 65 35 66 41 67
REMARK SMILES IDX 36 68 37 69 38 70 39 71 40 72 63 73 64 74 72 75 65 76 71 77
REMARK SMILES IDX 66 78 67 79 68 80 69 81 70 82 49 83 50 84 58 85 51 86 57 87
REMARK SMILES IDX 52 88 53 89 54 90 55 91 56 92
REMARK H PARENT 16 5 7 17 21 29 77 48 47 59
REMARK Flexibility Score: inf
ROOT
ATOM      1  C   UNL A   1      32.390  28.631  23.790  1.00  0.00     0.116 C 
ENDROOT
BRANCH   1   2
ATOM      2  N   UNL A   1      33.156  27.843  22.845  1.00  0.00    -0.352 N 
ATOM      3  C   UNL A   1      33.201  26.499  22.587  1.00  0.00     0.251 C 
ATOM      4  O   UNL A   1      33.906  26.122  21.650  1.00  0.00    -0.269 OA
ATOM      5  H   UNL A   1      33.761  28.378  22.281  1.00  0.00     0.163 HD
BRANCH   3   6
ATOM      6  C   UNL A   1      32.438  25.474  23.357  1.00  0.00     0.041 A 
ATOM      7  C   UNL A   1      32.516  23.835  25.181  1.00  0.00     0.101 A 
ATOM      8  C   UNL A   1      33.160  24.730  24.305  1.00  0.00     0.037 A 
ATOM      9  C   UNL A   1      31.154  23.590  25.044  1.00  0.00     0.061 A 
ATOM     10  C   UNL A   1      30.430  24.329  24.099  1.00  0.00     0.023 A 
ATOM     11  Cl  UNL A   1      30.271  22.456  25.992  1.00  0.00    -0.083 Cl
ATOM     12  C   UNL A   1      31.058  25.291  23.296  1.00  0.00     0.015 A 
BRANCH   7  13
ATOM     13  S   UNL A   1      33.466  23.181  26.523  1.00  0.00     0.242 S 
ATOM     14  O   UNL A   1      32.731  23.413  27.751  1.00  0.00    -0.207 OA
ATOM     15  O   UNL A   1      34.821  23.662  26.406  1.00  0.00    -0.207 OA
BRANCH  13  16
ATOM     16  N   UNL A   1      33.508  21.518  26.292  1.00  0.00    -0.208 NA
ATOM     17  H   UNL A   1      34.342  21.195  26.783  1.00  0.00     0.141 HD
BRANCH  16  18
ATOM     18  C   UNL A   1      33.542  20.851  24.982  1.00  0.00     0.067 C 
ATOM     19  C   UNL A   1      34.952  20.246  24.853  1.00  0.00     0.025 C 
BRANCH  18  20
ATOM     20  C   UNL A   1      32.521  19.714  24.821  1.00  0.00     0.022 C 
BRANCH  20  21
ATOM     21  C   UNL A   1      33.033  18.364  24.296  1.00  0.00    -0.016 C 
ATOM     22  C   UNL A   1      32.606  17.177  25.158  1.00  0.00     0.007 C 
ATOM     23  C   UNL A   1      32.537  18.140  22.864  1.00  0.00     0.007 C 
ENDBRANCH  20  21
ENDBRANCH  18  20
ENDBRANCH  16  18
ENDBRANCH  13  16
ENDBRANCH   7  13
ENDBRANCH   3   6
ENDBRANCH   1   2
BRANCH   1  24
ATOM     24  C   UNL A   1      33.292  29.194  24.890  1.00  0.00     0.023 C 
BRANCH  24  25
ATOM     25  C   UNL A   1      33.832  28.142  25.865  1.00  0.00     0.023 C 
BRANCH  25  26
ATOM     26  C   UNL A   1      33.558  28.413  27.344  1.00  0.00     0.116 C 
BRANCH  26  27
ATOM     27  N   UNL A   1      33.567  29.828  27.686  1.00  0.00    -0.352 N 
ATOM     28  C   UNL A   1      34.601  30.594  28.171  1.00  0.00     0.251 C 
ATOM     29  H   UNL A   1      32.713  30.303  27.552  1.00  0.00     0.163 HD
ATOM     30  O   UNL A   1      34.405  31.760  28.495  1.00  0.00    -0.269 OA
BRANCH  28  31
ATOM     31  C   UNL A   1      35.936  29.984  28.341  1.00  0.00     0.039 A 
ATOM     32  C   UNL A   1      36.820  29.991  27.258  1.00  0.00     0.014 A 
ATOM     33  C   UNL A   1      36.334  29.466  29.576  1.00  0.00     0.014 A 
ATOM     34  C   UNL A   1      38.138  29.569  27.442  1.00  0.00     0.010 A 
ATOM     35  C   UNL A   1      37.663  29.099  29.772  1.00  0.00     0.010 A 
ATOM     36  C   UNL A   1      38.583  29.174  28.715  1.00  0.00    -0.014 A 
BRANCH  36  37
ATOM     37  C   UNL A   1      40.021  28.919  28.982  1.00  0.00     0.031 A 
ATOM     38  C   UNL A   1      40.639  27.591  28.649  1.00  0.00     0.074 A 
ATOM     39  C   UNL A   1      40.746  29.863  29.616  1.00  0.00     0.049 A 
ATOM     40  N   UNL A   1      41.851  27.164  28.896  1.00  0.00    -0.248 NA
ATOM     41  C   UNL A   1      39.778  26.608  27.972  1.00  0.00     0.031 C 
ATOM     42  C   UNL A   1      40.248  31.178  30.030  1.00  0.00     0.029 A 
ATOM     43  N   UNL A   1      42.053  29.857  30.039  1.00  0.00    -0.354 N 
ATOM     44  C   UNL A   1      41.899  25.861  28.416  1.00  0.00     0.074 A 
ATOM     45  C   UNL A   1      40.581  25.555  27.899  1.00  0.00     0.031 C 
ATOM     46  C   UNL A   1      41.240  31.855  30.630  1.00  0.00     0.029 A 
ATOM     47  C   UNL A   1      42.428  31.011  30.687  1.00  0.00     0.049 A 
ATOM     48  H   UNL A   1      42.663  29.098  29.893  1.00  0.00     0.167 HD
ATOM     49  C   UNL A   1      42.947  25.004  28.396  1.00  0.00     0.031 A 
ATOM     50  C   UNL A   1      43.591  31.348  31.278  1.00  0.00     0.031 A 
ATOM     51  C   UNL A   1      44.254  25.313  28.912  1.00  0.00     0.049 A 
ATOM     52  C   UNL A   1      44.727  30.366  31.271  1.00  0.00     0.074 A 
ATOM     53  C   UNL A   1      45.398  24.533  28.880  1.00  0.00     0.029 A 
ATOM     54  N   UNL A   1      44.594  26.489  29.564  1.00  0.00    -0.354 N 
ATOM     55  N   UNL A   1      44.774  29.165  30.746  1.00  0.00    -0.248 NA
ATOM     56  C   UNL A   1      45.969  30.784  31.937  1.00  0.00     0.031 C 
ATOM     57  C   UNL A   1      46.412  25.214  29.561  1.00  0.00     0.029 A 
ATOM     58  C   UNL A   1      45.916  26.441  29.970  1.00  0.00     0.049 A 
ATOM     59  H   UNL A   1      43.982  27.246  29.715  1.00  0.00     0.167 HD
ATOM     60  C   UNL A   1      46.054  28.689  31.008  1.00  0.00     0.074 A 
ATOM     61  C   UNL A   1      46.755  29.740  31.717  1.00  0.00     0.031 C 
ATOM     62  C   UNL A   1      46.597  27.489  30.691  1.00  0.00     0.031 A 
BRANCH  49  63
ATOM     63  C   UNL A   1      42.718  23.639  27.802  1.00  0.00    -0.014 A 
ATOM     64  C   UNL A   1      43.082  23.357  26.473  1.00  0.00     0.010 A 
ATOM     65  C   UNL A   1      42.173  22.614  28.595  1.00  0.00     0.010 A 
ATOM     66  C   UNL A   1      42.869  22.086  25.935  1.00  0.00     0.020 A 
ATOM     67  C   UNL A   1      41.981  21.332  28.069  1.00  0.00     0.020 A 
ATOM     68  C   UNL A   1      42.315  21.082  26.736  1.00  0.00     0.054 A 
BRANCH  68  69
ATOM     69  S   UNL A   1      42.067  19.435  26.017  1.00  0.00     0.124 S 
ATOM     70  O   UNL A   1      40.625  19.423  25.785  1.00  0.00    -0.237 OA
ATOM     71  O   UNL A   1      42.896  19.482  24.816  1.00  0.00    -0.237 OA
ATOM     72  O   UNL A   1      42.536  18.526  27.060  1.00  0.00    -0.744 OA
ENDBRANCH  68  69
ENDBRANCH  49  63
BRANCH  50  73
ATOM     73  C   UNL A   1      43.731  32.678  31.930  1.00  0.00    -0.014 A 
ATOM     74  C   UNL A   1      44.218  33.779  31.205  1.00  0.00     0.010 A 
ATOM     75  C   UNL A   1      43.363  32.853  33.277  1.00  0.00     0.010 A 
ATOM     76  C   UNL A   1      44.343  35.029  31.817  1.00  0.00     0.020 A 
ATOM     77  C   UNL A   1      43.461  34.108  33.884  1.00  0.00     0.020 A 
ATOM     78  C   UNL A   1      43.962  35.186  33.152  1.00  0.00     0.054 A 
BRANCH  78  79
ATOM     79  S   UNL A   1      44.074  36.832  33.908  1.00  0.00     0.124 S 
ATOM     80  O   UNL A   1      42.681  37.266  33.899  1.00  0.00    -0.237 OA
ATOM     81  O   UNL A   1      44.638  36.539  35.224  1.00  0.00    -0.237 OA
ATOM     82  O   UNL A   1      44.965  37.561  33.007  1.00  0.00    -0.744 OA
ENDBRANCH  78  79
ENDBRANCH  50  73
BRANCH  62  83
ATOM     83  C   UNL A   1      48.023  27.245  31.106  1.00  0.00    -0.014 A 
ATOM     84  C   UNL A   1      48.326  26.720  32.374  1.00  0.00     0.010 A 
ATOM     85  C   UNL A   1      49.068  27.494  30.198  1.00  0.00     0.010 A 
ATOM     86  C   UNL A   1      49.652  26.472  32.738  1.00  0.00     0.020 A 
ATOM     87  C   UNL A   1      50.394  27.223  30.548  1.00  0.00     0.020 A 
ATOM     88  C   UNL A   1      50.678  26.724  31.821  1.00  0.00     0.054 A 
BRANCH  88  89
ATOM     89  S   UNL A   1      52.387  26.346  32.299  1.00  0.00     0.124 S 
ATOM     90  O   UNL A   1      53.100  26.518  31.037  1.00  0.00    -0.237 OA
ATOM     91  O   UNL A   1      52.664  27.354  33.320  1.00  0.00    -0.237 OA
ATOM     92  O   UNL A   1      52.313  24.973  32.791  1.00  0.00    -0.744 OA
ENDBRANCH  88  89
ENDBRANCH  62  83
ENDBRANCH  36  37
ENDBRANCH  28  31
ENDBRANCH  26  27
ENDBRANCH  25  26
ENDBRANCH  24  25
ENDBRANCH   1  24
TORSDOF 19
ENDMDL
MODEL 3
REMARK VINA RESULT:     -10.7      1.919      2.634
REMARK SMILES CC(C)C[C@H](C)NS(=O)(=O)c1cc(C(=O)NCCCCNC(=O)c2ccc(-c3c4nc(c(-c5ccc(S(=O)(=O)[O-])cc5)c5ccc([nH]5)c(-c5ccc(S(=O)(=O)[O-])cc5)c5nc(c(-c6ccc(S(=O)(=O)[O-])cc6)c6ccc3[nH]6)C=C5)C=C4)cc2)ccc1Cl
REMARK SMILES IDX 17 1 16 2 14 3 15 4 13 6 11 7 12 8 86 9 85 10 87 11 84 12
REMARK SMILES IDX 8 13 9 14 10 15 7 16 5 18 6 19 4 20 2 21 1 22 3 23 18 24
REMARK SMILES IDX 19 25 20 26 21 27 22 28 23 30 24 31 25 32 83 33 26 34 82 35
REMARK SMILES IDX 27 36 28 37 29 38 76 39 30 40 81 41 75 42 77 43 31 44 80 45
REMARK SMILES IDX 74 46 73 47 32 49 62 50 43 51 61 52 44 53 47 54 60 55 78 56
REMARK SMILES IDX 45 57 46 58 59 60 79 61 48 62 33 63 34 64 42 65 35 66 41 67
REMARK SMILES IDX 36 68 37 69 38 70 39 71 40 72 63 73 64 74 72 75 65 76 71 77
REMARK SMILES IDX 66 78 67 79 68 80 69 81 70 82 49 83 50 84 58 85 51 86 57 87
REMARK SMILES IDX 52 88 53 89 54 90 55 91 56 92
REMARK H PARENT 16 5 7 17 21 29 77 48 47 59
REMARK Flexibility Score: inf
ROOT
ATOM      1  C   UNL A   1      31.626  28.808  25.066  1.00  0.00     0.116 C 
ENDROOT
BRANCH   1   2
ATOM      2  N   UNL A   1      31.395  28.012  23.876  1.00  0.00    -0.352 N 
ATOM      3  C   UNL A   1      31.777  26.746  23.525  1.00  0.00     0.251 C 
ATOM      4  O   UNL A   1      31.355  26.298  22.458  1.00  0.00    -0.269 OA
ATOM      5  H   UNL A   1      30.861  28.472  23.189  1.00  0.00     0.163 HD
BRANCH   3   6
ATOM      6  C   UNL A   1      32.655  25.875  24.361  1.00  0.00     0.041 A 
ATOM      7  C   UNL A   1      32.733  24.098  26.050  1.00  0.00     0.101 A 
ATOM      8  C   UNL A   1      32.017  25.055  25.305  1.00  0.00     0.037 A 
ATOM      9  C   UNL A   1      34.117  24.026  25.937  1.00  0.00     0.061 A 
ATOM     10  C   UNL A   1      34.758  24.842  24.996  1.00  0.00     0.023 A 
ATOM     11  Cl  UNL A   1      35.112  22.962  26.856  1.00  0.00    -0.083 Cl
ATOM     12  C   UNL A   1      34.030  25.725  24.187  1.00  0.00     0.015 A 
BRANCH   7  13
ATOM     13  S   UNL A   1      31.795  22.922  26.983  1.00  0.00     0.242 S 
ATOM     14  O   UNL A   1      30.458  23.452  27.161  1.00  0.00    -0.207 OA
ATOM     15  O   UNL A   1      32.564  22.533  28.140  1.00  0.00    -0.207 OA
BRANCH  13  16
ATOM     16  N   UNL A   1      31.650  21.565  26.003  1.00  0.00    -0.208 NA
ATOM     17  H   UNL A   1      31.354  20.811  26.623  1.00  0.00     0.141 HD
BRANCH  16  18
ATOM     18  C   UNL A   1      32.734  20.999  25.186  1.00  0.00     0.067 C 
ATOM     19  C   UNL A   1      33.289  19.809  25.989  1.00  0.00     0.025 C 
BRANCH  18  20
ATOM     20  C   UNL A   1      32.286  20.476  23.812  1.00  0.00     0.022 C 
BRANCH  20  21
ATOM     21  C   UNL A   1      31.958  21.513  22.726  1.00  0.00    -0.016 C 
ATOM     22  C   UNL A   1      33.014  22.608  22.596  1.00  0.00     0.007 C 
ATOM     23  C   UNL A   1      31.799  20.816  21.371  1.00  0.00     0.007 C 
ENDBRANCH  20  21
ENDBRANCH  18  20
ENDBRANCH  16  18
ENDBRANCH  13  16
ENDBRANCH   7  13
ENDBRANCH   3   6
ENDBRANCH   1   2
BRANCH   1  24
ATOM     24  C   UNL A   1      31.152  28.068  26.318  1.00  0.00     0.023 C 
BRANCH  24  25
ATOM     25  C   UNL A   1      32.081  28.214  27.528  1.00  0.00     0.023 C 
BRANCH  25  26
ATOM     26  C   UNL A   1      33.462  28.795  27.231  1.00  0.00     0.116 C 
BRANCH  26  27
ATOM     27  N   UNL A   1      33.563  30.222  27.507  1.00  0.00    -0.352 N 
ATOM     28  C   UNL A   1      34.626  30.930  28.018  1.00  0.00     0.251 C 
ATOM     29  H   UNL A   1      32.759  30.752  27.300  1.00  0.00     0.163 HD
ATOM     30  O   UNL A   1      34.504  32.123  28.275  1.00  0.00    -0.269 OA
BRANCH  28  31
ATOM     31  C   UNL A   1      35.897  30.231  28.296  1.00  0.00     0.039 A 
ATOM     32  C   UNL A   1      36.887  30.221  27.310  1.00  0.00     0.014 A 
ATOM     33  C   UNL A   1      36.131  29.642  29.541  1.00  0.00     0.014 A 
ATOM     34  C   UNL A   1      38.151  29.709  27.609  1.00  0.00     0.010 A 
ATOM     35  C   UNL A   1      37.408  29.184  29.856  1.00  0.00     0.010 A 
ATOM     36  C   UNL A   1      38.436  29.239  28.902  1.00  0.00    -0.014 A 
BRANCH  36  37
ATOM     37  C   UNL A   1      39.821  28.883  29.303  1.00  0.00     0.031 A 
ATOM     38  C   UNL A   1      40.712  29.894  29.967  1.00  0.00     0.074 A 
ATOM     39  C   UNL A   1      40.303  27.666  28.978  1.00  0.00     0.049 A 
ATOM     40  N   UNL A   1      41.972  29.785  30.301  1.00  0.00    -0.248 NA
ATOM     41  C   UNL A   1      40.116  31.204  30.275  1.00  0.00     0.031 C 
ATOM     42  C   UNL A   1      39.550  26.611  28.294  1.00  0.00     0.029 A 
ATOM     43  N   UNL A   1      41.548  27.116  29.163  1.00  0.00    -0.354 N 
ATOM     44  C   UNL A   1      42.326  31.012  30.848  1.00  0.00     0.074 A 
ATOM     45  C   UNL A   1      41.158  31.863  30.764  1.00  0.00     0.031 C 
ATOM     46  C   UNL A   1      40.341  25.538  28.134  1.00  0.00     0.029 A 
ATOM     47  C   UNL A   1      41.668  25.841  28.659  1.00  0.00     0.049 A 
ATOM     48  H   UNL A   1      42.285  27.588  29.614  1.00  0.00     0.167 HD
ATOM     49  C   UNL A   1      43.512  31.389  31.383  1.00  0.00     0.031 A 
ATOM     50  C   UNL A   1      42.730  25.014  28.607  1.00  0.00     0.031 A 
ATOM     51  C   UNL A   1      44.671  30.540  31.462  1.00  0.00     0.049 A 
ATOM     52  C   UNL A   1      44.043  25.470  29.176  1.00  0.00     0.074 A 
ATOM     53  C   UNL A   1      45.898  30.813  32.043  1.00  0.00     0.029 A 
ATOM     54  N   UNL A   1      44.755  29.260  30.937  1.00  0.00    -0.354 N 
ATOM     55  N   UNL A   1      44.337  26.609  29.757  1.00  0.00    -0.248 NA
ATOM     56  C   UNL A   1      45.168  24.529  29.085  1.00  0.00     0.031 C 
ATOM     57  C   UNL A   1      46.740  29.718  31.819  1.00  0.00     0.029 A 
ATOM     58  C   UNL A   1      46.022  28.743  31.148  1.00  0.00     0.049 A 
ATOM     59  H   UNL A   1      44.020  28.788  30.481  1.00  0.00     0.167 HD
ATOM     60  C   UNL A   1      45.678  26.517  30.110  1.00  0.00     0.074 A 
ATOM     61  C   UNL A   1      46.131  25.203  29.699  1.00  0.00     0.031 C 
ATOM     62  C   UNL A   1      46.464  27.439  30.718  1.00  0.00     0.031 A 
BRANCH  49  63
ATOM     63  C   UNL A   1      43.617  32.794  31.917  1.00  0.00    -0.014 A 
ATOM     64  C   UNL A   1      43.407  33.067  33.280  1.00  0.00     0.010 A 
ATOM     65  C   UNL A   1      43.975  33.845  31.055  1.00  0.00     0.010 A 
ATOM     66  C   UNL A   1      43.513  34.373  33.765  1.00  0.00     0.020 A 
ATOM     67  C   UNL A   1      44.106  35.151  31.540  1.00  0.00     0.020 A 
ATOM     68  C   UNL A   1      43.858  35.408  32.890  1.00  0.00     0.054 A 
BRANCH  68  69
ATOM     69  S   UNL A   1      44.006  37.091  33.550  1.00  0.00     0.124 S 
ATOM     70  O   UNL A   1      42.656  37.338  34.050  1.00  0.00    -0.237 OA
ATOM     71  O   UNL A   1      45.037  36.944  34.574  1.00  0.00    -0.237 OA
ATOM     72  O   UNL A   1      44.395  37.887  32.388  1.00  0.00    -0.744 OA
ENDBRANCH  68  69
ENDBRANCH  49  63
BRANCH  50  73
ATOM     73  C   UNL A   1      42.591  23.670  27.984  1.00  0.00    -0.014 A 
ATOM     74  C   UNL A   1      41.943  22.630  28.672  1.00  0.00     0.010 A 
ATOM     75  C   UNL A   1      43.092  23.428  26.692  1.00  0.00     0.010 A 
ATOM     76  C   UNL A   1      41.807  21.369  28.083  1.00  0.00     0.020 A 
ATOM     77  C   UNL A   1      42.934  22.178  26.089  1.00  0.00     0.020 A 
ATOM     78  C   UNL A   1      42.302  21.152  26.794  1.00  0.00     0.054 A 
BRANCH  78  79
ATOM     79  S   UNL A   1      42.059  19.526  26.025  1.00  0.00     0.124 S 
ATOM     80  O   UNL A   1      40.618  19.510  25.798  1.00  0.00    -0.237 OA
ATOM     81  O   UNL A   1      42.889  19.617  24.825  1.00  0.00    -0.237 OA
ATOM     82  O   UNL A   1      42.546  18.593  27.039  1.00  0.00    -0.744 OA
ENDBRANCH  78  79
ENDBRANCH  50  73
BRANCH  62  83
ATOM     83  C   UNL A   1      47.896  27.060  30.980  1.00  0.00    -0.014 A 
ATOM     84  C   UNL A   1      48.283  26.503  32.212  1.00  0.00     0.010 A 
ATOM     85  C   UNL A   1      48.857  27.211  29.963  1.00  0.00     0.010 A 
ATOM     86  C   UNL A   1      49.610  26.129  32.432  1.00  0.00     0.020 A 
ATOM     87  C   UNL A   1      50.180  26.814  30.171  1.00  0.00     0.020 A 
ATOM     88  C   UNL A   1      50.551  26.285  31.410  1.00  0.00     0.054 A 
BRANCH  88  89
ATOM     89  S   UNL A   1      52.258  25.745  31.704  1.00  0.00     0.124 S 
ATOM     90  O   UNL A   1      52.077  24.335  32.035  1.00  0.00    -0.237 OA
ATOM     91  O   UNL A   1      52.904  26.012  30.420  1.00  0.00    -0.237 OA
ATOM     92  O   UNL A   1      52.704  26.594  32.807  1.00  0.00    -0.744 OA
ENDBRANCH  88  89
ENDBRANCH  62  83
ENDBRANCH  36  37
ENDBRANCH  28  31
ENDBRANCH  26  27
ENDBRANCH  25  26
ENDBRANCH  24  25
ENDBRANCH   1  24
TORSDOF 19
ENDMDL
