MODEL 1
REMARK VINA RESULT:     -11.8      0.000      0.000
REMARK SMILES Cc1ccc(-c2cc(C(=O)NCCCCNC(=O)c3ccc(-c4c5nc(c(-c6ccc(S(=O)(=O)[O-])cc6)c6ccc([nH]6)c(-c6ccc(S(=O)(=O)[O-])cc6)c6nc(c(-c7ccc(S(=O)(=O)[O-])cc7)c7ccc4[nH]7)C=C6)C=C5)cc3)c3cc(C)ccc3n2)c(C)c1
REMARK SMILES IDX 14 1 13 2 12 3 11 4 9 5 10 6 8 8 6 9 7 10 86 11 85 12 79 13
REMARK SMILES IDX 84 14 80 15 83 16 81 17 82 18 5 19 1 20 2 21 3 22 89 23 4 24
REMARK SMILES IDX 87 25 88 26 15 27 16 28 17 29 18 31 19 32 20 33 78 34 21 35
REMARK SMILES IDX 77 36 22 37 23 38 24 39 71 40 25 41 76 42 70 43 72 44 26 45
REMARK SMILES IDX 75 46 69 47 68 48 27 50 57 51 38 52 56 53 39 54 42 55 55 56
REMARK SMILES IDX 73 57 40 58 41 59 54 61 74 62 43 63 28 64 29 65 37 66 30 67
REMARK SMILES IDX 36 68 31 69 32 70 33 71 34 72 35 73 58 74 59 75 67 76 60 77
REMARK SMILES IDX 66 78 61 79 62 80 63 81 64 82 65 83 44 84 45 85 53 86 46 87
REMARK SMILES IDX 52 88 47 89 48 90 49 91 50 92 51 93
REMARK H PARENT 11 7 16 30 72 49 42 60
REMARK Flexibility Score: inf
ROOT
ATOM      1  C   UNL A   1      32.624  28.619  25.420  1.00  0.00     0.023 C 
ENDROOT
BRANCH   1   2
ATOM      2  C   UNL A   1      32.620  29.034  23.950  1.00  0.00     0.023 C 
BRANCH   2   3
ATOM      3  C   UNL A   1      33.858  28.692  23.137  1.00  0.00     0.116 C 
BRANCH   3   4
ATOM      4  N   UNL A   1      33.684  27.809  21.997  1.00  0.00    -0.352 N 
ATOM      5  C   UNL A   1      33.380  26.459  21.953  1.00  0.00     0.252 C 
ATOM      6  O   UNL A   1      33.208  25.934  20.853  1.00  0.00    -0.269 OA
ATOM      7  H   UNL A   1      33.799  28.238  21.117  1.00  0.00     0.163 HD
BRANCH   5   8
ATOM      8  C   UNL A   1      33.362  25.585  23.168  1.00  0.00     0.051 A 
ATOM      9  C   UNL A   1      34.678  24.308  24.709  1.00  0.00     0.072 A 
ATOM     10  C   UNL A   1      34.590  25.006  23.516  1.00  0.00     0.043 A 
ATOM     11  N   UNL A   1      33.661  24.282  25.602  1.00  0.00    -0.248 NA
ATOM     12  C   UNL A   1      32.478  24.808  25.254  1.00  0.00     0.072 A 
ATOM     13  C   UNL A   1      32.235  25.354  23.984  1.00  0.00     0.013 A 
ATOM     14  C   UNL A   1      31.454  24.826  26.191  1.00  0.00     0.029 A 
ATOM     15  C   UNL A   1      30.901  25.654  23.630  1.00  0.00     0.014 A 
ATOM     16  C   UNL A   1      30.190  25.341  25.893  1.00  0.00     0.005 A 
ATOM     17  C   UNL A   1      29.895  25.737  24.594  1.00  0.00    -0.050 A 
ATOM     18  C   UNL A   1      28.588  26.390  24.255  1.00  0.00     0.044 C 
BRANCH   9  19
ATOM     19  C   UNL A   1      35.849  23.490  25.066  1.00  0.00     0.003 A 
ATOM     20  C   UNL A   1      39.303  21.117  26.192  1.00  0.00     0.044 C 
ATOM     21  C   UNL A   1      38.120  21.952  25.802  1.00  0.00    -0.051 A 
ATOM     22  C   UNL A   1      38.122  23.339  25.959  1.00  0.00     0.004 A 
ATOM     23  C   UNL A   1      36.984  21.336  25.271  1.00  0.00     0.007 A 
ATOM     24  C   UNL A   1      37.002  24.096  25.597  1.00  0.00     0.011 A 
ATOM     25  C   UNL A   1      35.854  22.085  24.890  1.00  0.00    -0.041 A 
ATOM     26  C   UNL A   1      34.674  21.325  24.337  1.00  0.00     0.045 C 
ENDBRANCH   9  19
ENDBRANCH   5   8
ENDBRANCH   3   4
ENDBRANCH   2   3
ENDBRANCH   1   2
BRANCH   1  27
ATOM     27  C   UNL A   1      33.745  29.154  26.308  1.00  0.00     0.116 C 
BRANCH  27  28
ATOM     28  N   UNL A   1      33.541  30.510  26.797  1.00  0.00    -0.352 N 
ATOM     29  C   UNL A   1      34.318  31.290  27.625  1.00  0.00     0.251 C 
ATOM     30  H   UNL A   1      32.712  30.941  26.484  1.00  0.00     0.163 HD
ATOM     31  O   UNL A   1      33.924  32.414  27.933  1.00  0.00    -0.269 OA
BRANCH  29  32
ATOM     32  C   UNL A   1      35.592  30.777  28.184  1.00  0.00     0.039 A 
ATOM     33  C   UNL A   1      36.776  31.472  27.915  1.00  0.00     0.014 A 
ATOM     34  C   UNL A   1      35.634  29.628  28.975  1.00  0.00     0.014 A 
ATOM     35  C   UNL A   1      37.977  31.062  28.504  1.00  0.00     0.010 A 
ATOM     36  C   UNL A   1      36.808  29.283  29.643  1.00  0.00     0.010 A 
ATOM     37  C   UNL A   1      37.998  29.987  29.408  1.00  0.00    -0.014 A 
BRANCH  37  38
ATOM     38  C   UNL A   1      39.256  29.570  30.087  1.00  0.00     0.031 A 
ATOM     39  C   UNL A   1      39.689  30.247  31.363  1.00  0.00     0.074 A 
ATOM     40  C   UNL A   1      40.033  28.611  29.542  1.00  0.00     0.049 A 
ATOM     41  N   UNL A   1      40.750  30.024  32.099  1.00  0.00    -0.248 NA
ATOM     42  C   UNL A   1      38.835  31.336  31.862  1.00  0.00     0.031 C 
ATOM     43  C   UNL A   1      39.757  27.906  28.288  1.00  0.00     0.029 A 
ATOM     44  N   UNL A   1      41.209  28.057  29.980  1.00  0.00    -0.354 N 
ATOM     45  C   UNL A   1      40.693  30.950  33.134  1.00  0.00     0.074 A 
ATOM     46  C   UNL A   1      39.538  31.784  32.890  1.00  0.00     0.031 C 
ATOM     47  C   UNL A   1      40.707  26.978  28.087  1.00  0.00     0.029 A 
ATOM     48  C   UNL A   1      41.678  27.044  29.174  1.00  0.00     0.049 A 
ATOM     49  H   UNL A   1      41.676  28.355  30.795  1.00  0.00     0.167 HD
ATOM     50  C   UNL A   1      41.505  31.080  34.213  1.00  0.00     0.031 A 
ATOM     51  C   UNL A   1      42.758  26.248  29.304  1.00  0.00     0.031 A 
ATOM     52  C   UNL A   1      42.652  30.248  34.461  1.00  0.00     0.049 A 
ATOM     53  C   UNL A   1      43.651  26.410  30.505  1.00  0.00     0.074 A 
ATOM     54  C   UNL A   1      43.519  30.272  35.539  1.00  0.00     0.029 A 
ATOM     55  N   UNL A   1      43.088  29.236  33.619  1.00  0.00    -0.354 N 
ATOM     56  N   UNL A   1      43.549  27.257  31.502  1.00  0.00    -0.248 NA
ATOM     57  C   UNL A   1      44.792  25.491  30.607  1.00  0.00     0.031 C 
ATOM     58  C   UNL A   1      44.506  29.302  35.328  1.00  0.00     0.029 A 
ATOM     59  C   UNL A   1      44.218  28.634  34.149  1.00  0.00     0.049 A 
ATOM     60  H   UNL A   1      42.659  28.981  32.770  1.00  0.00     0.167 HD
ATOM     61  C   UNL A   1      44.589  26.944  32.372  1.00  0.00     0.074 A 
ATOM     62  C   UNL A   1      45.301  25.827  31.784  1.00  0.00     0.031 C 
ATOM     63  C   UNL A   1      44.917  27.523  33.554  1.00  0.00     0.031 A 
BRANCH  50  64
ATOM     64  C   UNL A   1      41.166  32.169  35.198  1.00  0.00    -0.014 A 
ATOM     65  C   UNL A   1      40.280  31.932  36.265  1.00  0.00     0.010 A 
ATOM     66  C   UNL A   1      41.730  33.450  35.053  1.00  0.00     0.010 A 
ATOM     67  C   UNL A   1      39.910  32.968  37.127  1.00  0.00     0.020 A 
ATOM     68  C   UNL A   1      41.389  34.482  35.934  1.00  0.00     0.020 A 
ATOM     69  C   UNL A   1      40.460  34.240  36.948  1.00  0.00     0.054 A 
BRANCH  69  70
ATOM     70  S   UNL A   1      39.949  35.571  38.068  1.00  0.00     0.124 S 
ATOM     71  O   UNL A   1      39.735  36.679  37.140  1.00  0.00    -0.237 OA
ATOM     72  O   UNL A   1      38.741  35.029  38.684  1.00  0.00    -0.237 OA
ATOM     73  O   UNL A   1      41.089  35.724  38.969  1.00  0.00    -0.744 OA
ENDBRANCH  69  70
ENDBRANCH  50  64
BRANCH  51  74
ATOM     74  C   UNL A   1      43.018  25.176  28.302  1.00  0.00    -0.014 A 
ATOM     75  C   UNL A   1      42.602  23.856  28.554  1.00  0.00     0.010 A 
ATOM     76  C   UNL A   1      43.669  25.467  27.090  1.00  0.00     0.010 A 
ATOM     77  C   UNL A   1      42.847  22.844  27.622  1.00  0.00     0.020 A 
ATOM     78  C   UNL A   1      43.890  24.462  26.142  1.00  0.00     0.020 A 
ATOM     79  C   UNL A   1      43.487  23.154  26.419  1.00  0.00     0.054 A 
BRANCH  79  80
ATOM     80  S   UNL A   1      43.743  21.835  25.200  1.00  0.00     0.124 S 
ATOM     81  O   UNL A   1      43.644  22.562  23.940  1.00  0.00    -0.237 OA
ATOM     82  O   UNL A   1      45.075  21.342  25.544  1.00  0.00    -0.237 OA
ATOM     83  O   UNL A   1      42.653  20.901  25.474  1.00  0.00    -0.744 OA
ENDBRANCH  79  80
ENDBRANCH  51  74
BRANCH  63  84
ATOM     84  C   UNL A   1      46.065  26.920  34.321  1.00  0.00    -0.014 A 
ATOM     85  C   UNL A   1      47.384  27.384  34.163  1.00  0.00     0.010 A 
ATOM     86  C   UNL A   1      45.809  25.883  35.237  1.00  0.00     0.010 A 
ATOM     87  C   UNL A   1      48.431  26.787  34.870  1.00  0.00     0.020 A 
ATOM     88  C   UNL A   1      46.850  25.305  35.968  1.00  0.00     0.020 A 
ATOM     89  C   UNL A   1      48.157  25.747  35.764  1.00  0.00     0.054 A 
BRANCH  89  90
ATOM     90  S   UNL A   1      49.531  24.994  36.679  1.00  0.00     0.124 S 
ATOM     91  O   UNL A   1      48.858  24.483  37.870  1.00  0.00    -0.237 OA
ATOM     92  O   UNL A   1      50.020  23.980  35.748  1.00  0.00    -0.237 OA
ATOM     93  O   UNL A   1      50.445  26.111  36.911  1.00  0.00    -0.744 OA
ENDBRANCH  89  90
ENDBRANCH  63  84
ENDBRANCH  37  38
ENDBRANCH  29  32
ENDBRANCH  27  28
ENDBRANCH   1  27
TORSDOF 15
ENDMDL
MODEL 2
REMARK VINA RESULT:     -11.8      4.950      6.446
REMARK SMILES Cc1ccc(-c2cc(C(=O)NCCCCNC(=O)c3ccc(-c4c5nc(c(-c6ccc(S(=O)(=O)[O-])cc6)c6ccc([nH]6)c(-c6ccc(S(=O)(=O)[O-])cc6)c6nc(c(-c7ccc(S(=O)(=O)[O-])cc7)c7ccc4[nH]7)C=C6)C=C5)cc3)c3cc(C)ccc3n2)c(C)c1
REMARK SMILES IDX 14 1 13 2 12 3 11 4 9 5 10 6 8 8 6 9 7 10 86 11 85 12 79 13
REMARK SMILES IDX 84 14 80 15 83 16 81 17 82 18 5 19 1 20 2 21 3 22 89 23 4 24
REMARK SMILES IDX 87 25 88 26 15 27 16 28 17 29 18 31 19 32 20 33 78 34 21 35
REMARK SMILES IDX 77 36 22 37 23 38 24 39 71 40 25 41 76 42 70 43 72 44 26 45
REMARK SMILES IDX 75 46 69 47 68 48 27 50 57 51 38 52 56 53 39 54 42 55 55 56
REMARK SMILES IDX 73 57 40 58 41 59 54 61 74 62 43 63 28 64 29 65 37 66 30 67
REMARK SMILES IDX 36 68 31 69 32 70 33 71 34 72 35 73 58 74 59 75 67 76 60 77
REMARK SMILES IDX 66 78 61 79 62 80 63 81 64 82 65 83 44 84 45 85 53 86 46 87
REMARK SMILES IDX 52 88 47 89 48 90 49 91 50 92 51 93
REMARK H PARENT 11 7 16 30 72 49 42 60
REMARK Flexibility Score: inf
ROOT
ATOM      1  C   UNL A   1      34.735  31.889  28.346  1.00  0.00     0.023 C 
ENDROOT
BRANCH   1   2
ATOM      2  C   UNL A   1      34.939  30.567  27.610  1.00  0.00     0.023 C 
BRANCH   2   3
ATOM      3  C   UNL A   1      33.757  30.035  26.814  1.00  0.00     0.116 C 
BRANCH   3   4
ATOM      4  N   UNL A   1      32.670  29.426  27.561  1.00  0.00    -0.352 N 
ATOM      5  C   UNL A   1      31.980  28.248  27.330  1.00  0.00     0.252 C 
ATOM      6  O   UNL A   1      31.136  27.895  28.153  1.00  0.00    -0.269 OA
ATOM      7  H   UNL A   1      32.380  29.930  28.357  1.00  0.00     0.163 HD
BRANCH   5   8
ATOM      8  C   UNL A   1      32.131  27.445  26.078  1.00  0.00     0.051 A 
ATOM      9  C   UNL A   1      32.931  25.400  25.120  1.00  0.00     0.072 A 
ATOM     10  C   UNL A   1      32.876  26.264  26.200  1.00  0.00     0.043 A 
ATOM     11  N   UNL A   1      32.186  25.595  24.007  1.00  0.00    -0.248 NA
ATOM     12  C   UNL A   1      31.500  26.739  23.877  1.00  0.00     0.072 A 
ATOM     13  C   UNL A   1      31.549  27.766  24.833  1.00  0.00     0.013 A 
ATOM     14  C   UNL A   1      30.695  26.912  22.759  1.00  0.00     0.029 A 
ATOM     15  C   UNL A   1      30.998  29.021  24.494  1.00  0.00     0.014 A 
ATOM     16  C   UNL A   1      29.967  28.086  22.548  1.00  0.00     0.005 A 
ATOM     17  C   UNL A   1      30.135  29.166  23.407  1.00  0.00    -0.050 A 
ATOM     18  C   UNL A   1      29.296  30.403  23.278  1.00  0.00     0.044 C 
BRANCH   9  19
ATOM     19  C   UNL A   1      33.847  24.249  25.068  1.00  0.00     0.003 A 
ATOM     20  C   UNL A   1      36.603  20.899  24.953  1.00  0.00     0.044 C 
ATOM     21  C   UNL A   1      35.661  22.065  24.981  1.00  0.00    -0.051 A 
ATOM     22  C   UNL A   1      36.061  23.336  24.565  1.00  0.00     0.004 A 
ATOM     23  C   UNL A   1      34.351  21.886  25.434  1.00  0.00     0.007 A 
ATOM     24  C   UNL A   1      35.166  24.412  24.610  1.00  0.00     0.011 A 
ATOM     25  C   UNL A   1      33.436  22.955  25.472  1.00  0.00    -0.041 A 
ATOM     26  C   UNL A   1      32.050  22.661  25.988  1.00  0.00     0.045 C 
ENDBRANCH   9  19
ENDBRANCH   5   8
ENDBRANCH   3   4
ENDBRANCH   2   3
ENDBRANCH   1   2
BRANCH   1  27
ATOM     27  C   UNL A   1      35.770  32.288  29.396  1.00  0.00     0.116 C 
BRANCH  27  28
ATOM     28  N   UNL A   1      35.664  31.572  30.659  1.00  0.00    -0.352 N 
ATOM     29  C   UNL A   1      36.571  30.763  31.309  1.00  0.00     0.251 C 
ATOM     30  H   UNL A   1      34.804  31.684  31.126  1.00  0.00     0.163 HD
ATOM     31  O   UNL A   1      36.246  30.230  32.368  1.00  0.00    -0.269 OA
BRANCH  29  32
ATOM     32  C   UNL A   1      37.907  30.491  30.726  1.00  0.00     0.039 A 
ATOM     33  C   UNL A   1      38.965  30.173  31.584  1.00  0.00     0.014 A 
ATOM     34  C   UNL A   1      38.128  30.538  29.349  1.00  0.00     0.014 A 
ATOM     35  C   UNL A   1      40.212  29.824  31.056  1.00  0.00     0.010 A 
ATOM     36  C   UNL A   1      39.338  30.089  28.821  1.00  0.00     0.010 A 
ATOM     37  C   UNL A   1      40.400  29.738  29.667  1.00  0.00    -0.014 A 
BRANCH  37  38
ATOM     38  C   UNL A   1      41.705  29.314  29.086  1.00  0.00     0.031 A 
ATOM     39  C   UNL A   1      42.847  30.295  28.992  1.00  0.00     0.074 A 
ATOM     40  C   UNL A   1      41.857  28.063  28.606  1.00  0.00     0.049 A 
ATOM     41  N   UNL A   1      44.055  30.114  28.519  1.00  0.00    -0.248 NA
ATOM     42  C   UNL A   1      42.590  31.664  29.465  1.00  0.00     0.031 C 
ATOM     43  C   UNL A   1      40.821  27.027  28.590  1.00  0.00     0.029 A 
ATOM     44  N   UNL A   1      42.947  27.446  28.045  1.00  0.00    -0.354 N 
ATOM     45  C   UNL A   1      44.691  31.345  28.627  1.00  0.00     0.074 A 
ATOM     46  C   UNL A   1      43.715  32.280  29.139  1.00  0.00     0.031 C 
ATOM     47  C   UNL A   1      41.341  25.891  28.099  1.00  0.00     0.029 A 
ATOM     48  C   UNL A   1      42.734  26.123  27.730  1.00  0.00     0.049 A 
ATOM     49  H   UNL A   1      43.803  27.906  27.883  1.00  0.00     0.167 HD
ATOM     50  C   UNL A   1      45.980  31.670  28.359  1.00  0.00     0.031 A 
ATOM     51  C   UNL A   1      43.568  25.197  27.217  1.00  0.00     0.031 A 
ATOM     52  C   UNL A   1      46.956  30.740  27.855  1.00  0.00     0.049 A 
ATOM     53  C   UNL A   1      44.995  25.577  26.921  1.00  0.00     0.074 A 
ATOM     54  C   UNL A   1      48.296  30.957  27.584  1.00  0.00     0.029 A 
ATOM     55  N   UNL A   1      46.695  29.412  27.551  1.00  0.00    -0.354 N 
ATOM     56  N   UNL A   1      45.592  26.734  27.082  1.00  0.00    -0.248 NA
ATOM     57  C   UNL A   1      45.864  24.517  26.396  1.00  0.00     0.031 C 
ATOM     58  C   UNL A   1      48.836  29.770  27.074  1.00  0.00     0.029 A 
ATOM     59  C   UNL A   1      47.847  28.799  27.086  1.00  0.00     0.049 A 
ATOM     60  H   UNL A   1      45.822  28.970  27.651  1.00  0.00     0.167 HD
ATOM     61  C   UNL A   1      46.919  26.529  26.717  1.00  0.00     0.074 A 
ATOM     62  C   UNL A   1      47.034  25.136  26.334  1.00  0.00     0.031 C 
ATOM     63  C   UNL A   1      47.949  27.412  26.709  1.00  0.00     0.031 A 
BRANCH  50  64
ATOM     64  C   UNL A   1      46.395  33.097  28.612  1.00  0.00    -0.014 A 
ATOM     65  C   UNL A   1      46.892  33.496  29.867  1.00  0.00     0.010 A 
ATOM     66  C   UNL A   1      46.277  34.057  27.590  1.00  0.00     0.010 A 
ATOM     67  C   UNL A   1      47.198  34.837  30.117  1.00  0.00     0.020 A 
ATOM     68  C   UNL A   1      46.615  35.393  27.825  1.00  0.00     0.020 A 
ATOM     69  C   UNL A   1      47.048  35.778  29.097  1.00  0.00     0.054 A 
BRANCH  69  70
ATOM     70  S   UNL A   1      47.434  37.514  29.453  1.00  0.00     0.124 S 
ATOM     71  O   UNL A   1      46.118  38.141  29.354  1.00  0.00    -0.237 OA
ATOM     72  O   UNL A   1      47.998  37.449  30.799  1.00  0.00    -0.237 OA
ATOM     73  O   UNL A   1      48.380  37.881  28.402  1.00  0.00    -0.744 OA
ENDBRANCH  69  70
ENDBRANCH  50  64
BRANCH  51  74
ATOM     74  C   UNL A   1      43.096  23.799  27.015  1.00  0.00    -0.014 A 
ATOM     75  C   UNL A   1      42.690  23.367  25.738  1.00  0.00     0.010 A 
ATOM     76  C   UNL A   1      43.059  22.890  28.086  1.00  0.00     0.010 A 
ATOM     77  C   UNL A   1      42.240  22.059  25.541  1.00  0.00     0.020 A 
ATOM     78  C   UNL A   1      42.636  21.571  27.887  1.00  0.00     0.020 A 
ATOM     79  C   UNL A   1      42.218  21.167  26.617  1.00  0.00     0.054 A 
BRANCH  79  80
ATOM     80  S   UNL A   1      41.685  19.458  26.323  1.00  0.00     0.124 S 
ATOM     81  O   UNL A   1      42.491  19.082  25.168  1.00  0.00    -0.237 OA
ATOM     82  O   UNL A   1      42.033  18.800  27.580  1.00  0.00    -0.237 OA
ATOM     83  O   UNL A   1      40.250  19.586  26.073  1.00  0.00    -0.744 OA
ENDBRANCH  79  80
ENDBRANCH  51  74
BRANCH  63  84
ATOM     84  C   UNL A   1      49.307  26.882  26.328  1.00  0.00    -0.014 A 
ATOM     85  C   UNL A   1      50.173  26.317  27.282  1.00  0.00     0.010 A 
ATOM     86  C   UNL A   1      49.710  26.931  24.981  1.00  0.00     0.010 A 
ATOM     87  C   UNL A   1      51.437  25.857  26.902  1.00  0.00     0.020 A 
ATOM     88  C   UNL A   1      50.961  26.444  24.593  1.00  0.00     0.020 A 
ATOM     89  C   UNL A   1      51.825  25.930  25.560  1.00  0.00     0.054 A 
BRANCH  89  90
ATOM     90  S   UNL A   1      53.466  25.317  25.088  1.00  0.00     0.124 S 
ATOM     91  O   UNL A   1      53.318  23.877  25.278  1.00  0.00    -0.237 OA
ATOM     92  O   UNL A   1      53.587  25.759  23.701  1.00  0.00    -0.237 OA
ATOM     93  O   UNL A   1      54.367  25.981  26.028  1.00  0.00    -0.744 OA
ENDBRANCH  89  90
ENDBRANCH  63  84
ENDBRANCH  37  38
ENDBRANCH  29  32
ENDBRANCH  27  28
ENDBRANCH   1  27
TORSDOF 15
ENDMDL
MODEL 3
REMARK VINA RESULT:     -11.8      3.067      9.552
REMARK SMILES Cc1ccc(-c2cc(C(=O)NCCCCNC(=O)c3ccc(-c4c5nc(c(-c6ccc(S(=O)(=O)[O-])cc6)c6ccc([nH]6)c(-c6ccc(S(=O)(=O)[O-])cc6)c6nc(c(-c7ccc(S(=O)(=O)[O-])cc7)c7ccc4[nH]7)C=C6)C=C5)cc3)c3cc(C)ccc3n2)c(C)c1
REMARK SMILES IDX 14 1 13 2 12 3 11 4 9 5 10 6 8 8 6 9 7 10 86 11 85 12 79 13
REMARK SMILES IDX 84 14 80 15 83 16 81 17 82 18 5 19 1 20 2 21 3 22 89 23 4 24
REMARK SMILES IDX 87 25 88 26 15 27 16 28 17 29 18 31 19 32 20 33 78 34 21 35
REMARK SMILES IDX 77 36 22 37 23 38 24 39 71 40 25 41 76 42 70 43 72 44 26 45
REMARK SMILES IDX 75 46 69 47 68 48 27 50 57 51 38 52 56 53 39 54 42 55 55 56
REMARK SMILES IDX 73 57 40 58 41 59 54 61 74 62 43 63 28 64 29 65 37 66 30 67
REMARK SMILES IDX 36 68 31 69 32 70 33 71 34 72 35 73 58 74 59 75 67 76 60 77
REMARK SMILES IDX 66 78 61 79 62 80 63 81 64 82 65 83 44 84 45 85 53 86 46 87
REMARK SMILES IDX 52 88 47 89 48 90 49 91 50 92 51 93
REMARK H PARENT 11 7 16 30 72 49 42 60
REMARK Flexibility Score: inf
ROOT
ATOM      1  C   UNL A   1      37.629  23.659  26.004  1.00  0.00     0.023 C 
ENDROOT
BRANCH   1   2
ATOM      2  C   UNL A   1      37.538  22.363  25.202  1.00  0.00     0.023 C 
BRANCH   2   3
ATOM      3  C   UNL A   1      36.315  21.491  25.443  1.00  0.00     0.116 C 
BRANCH   3   4
ATOM      4  N   UNL A   1      35.509  21.782  26.616  1.00  0.00    -0.352 N 
ATOM      5  C   UNL A   1      34.142  21.962  26.737  1.00  0.00     0.252 C 
ATOM      6  O   UNL A   1      33.672  22.129  27.862  1.00  0.00    -0.269 OA
ATOM      7  H   UNL A   1      36.016  21.864  27.458  1.00  0.00     0.163 HD
BRANCH   5   8
ATOM      8  C   UNL A   1      33.226  22.075  25.560  1.00  0.00     0.051 A 
ATOM      9  C   UNL A   1      32.104  23.568  24.059  1.00  0.00     0.072 A 
ATOM     10  C   UNL A   1      32.830  23.377  25.223  1.00  0.00     0.043 A 
ATOM     11  N   UNL A   1      31.883  22.564  23.179  1.00  0.00    -0.248 NA
ATOM     12  C   UNL A   1      32.233  21.315  23.517  1.00  0.00     0.072 A 
ATOM     13  C   UNL A   1      32.788  20.995  24.765  1.00  0.00     0.013 A 
ATOM     14  C   UNL A   1      32.052  20.297  22.590  1.00  0.00     0.029 A 
ATOM     15  C   UNL A   1      32.892  19.632  25.120  1.00  0.00     0.014 A 
ATOM     16  C   UNL A   1      32.377  18.969  22.880  1.00  0.00     0.005 A 
ATOM     17  C   UNL A   1      32.777  18.621  24.165  1.00  0.00    -0.050 A 
ATOM     18  C   UNL A   1      33.234  17.230  24.490  1.00  0.00     0.044 C 
BRANCH   9  19
ATOM     19  C   UNL A   1      31.463  24.850  23.723  1.00  0.00     0.003 A 
ATOM     20  C   UNL A   1      29.559  28.642  22.812  1.00  0.00     0.044 C 
ATOM     21  C   UNL A   1      30.201  27.325  23.132  1.00  0.00    -0.051 A 
ATOM     22  C   UNL A   1      29.585  26.399  23.975  1.00  0.00     0.004 A 
ATOM     23  C   UNL A   1      31.446  27.009  22.580  1.00  0.00     0.007 A 
ATOM     24  C   UNL A   1      30.209  25.180  24.267  1.00  0.00     0.011 A 
ATOM     25  C   UNL A   1      32.079  25.782  22.853  1.00  0.00    -0.041 A 
ATOM     26  C   UNL A   1      33.425  25.542  22.217  1.00  0.00     0.045 C 
ENDBRANCH   9  19
ENDBRANCH   5   8
ENDBRANCH   3   4
ENDBRANCH   2   3
ENDBRANCH   1   2
BRANCH   1  27
ATOM     27  C   UNL A   1      38.940  23.959  26.726  1.00  0.00     0.116 C 
BRANCH  27  28
ATOM     28  N   UNL A   1      39.993  24.502  25.880  1.00  0.00    -0.352 N 
ATOM     29  C   UNL A   1      40.842  25.568  26.080  1.00  0.00     0.251 C 
ATOM     30  H   UNL A   1      40.119  24.030  25.025  1.00  0.00     0.163 HD
ATOM     31  O   UNL A   1      41.645  25.868  25.198  1.00  0.00    -0.269 OA
BRANCH  29  32
ATOM     32  C   UNL A   1      40.768  26.383  27.317  1.00  0.00     0.039 A 
ATOM     33  C   UNL A   1      41.544  27.543  27.408  1.00  0.00     0.014 A 
ATOM     34  C   UNL A   1      39.939  26.024  28.381  1.00  0.00     0.014 A 
ATOM     35  C   UNL A   1      41.425  28.377  28.525  1.00  0.00     0.010 A 
ATOM     36  C   UNL A   1      39.744  26.908  29.442  1.00  0.00     0.010 A 
ATOM     37  C   UNL A   1      40.493  28.090  29.535  1.00  0.00    -0.014 A 
BRANCH  37  38
ATOM     38  C   UNL A   1      40.312  28.994  30.704  1.00  0.00     0.031 A 
ATOM     39  C   UNL A   1      41.191  28.846  31.921  1.00  0.00     0.074 A 
ATOM     40  C   UNL A   1      39.337  29.925  30.695  1.00  0.00     0.049 A 
ATOM     41  N   UNL A   1      41.185  29.536  33.034  1.00  0.00    -0.248 NA
ATOM     42  C   UNL A   1      42.185  27.761  31.896  1.00  0.00     0.031 C 
ATOM     43  C   UNL A   1      38.385  30.148  29.602  1.00  0.00     0.029 A 
ATOM     44  N   UNL A   1      38.988  30.867  31.631  1.00  0.00    -0.354 N 
ATOM     45  C   UNL A   1      42.162  28.962  33.840  1.00  0.00     0.074 A 
ATOM     46  C   UNL A   1      42.686  27.823  33.120  1.00  0.00     0.031 C 
ATOM     47  C   UNL A   1      37.600  31.193  29.908  1.00  0.00     0.029 A 
ATOM     48  C   UNL A   1      37.963  31.693  31.230  1.00  0.00     0.049 A 
ATOM     49  H   UNL A   1      39.430  30.945  32.507  1.00  0.00     0.167 HD
ATOM     50  C   UNL A   1      42.613  29.360  35.055  1.00  0.00     0.031 A 
ATOM     51  C   UNL A   1      37.391  32.746  31.849  1.00  0.00     0.031 A 
ATOM     52  C   UNL A   1      42.098  30.495  35.772  1.00  0.00     0.049 A 
ATOM     53  C   UNL A   1      37.901  33.169  33.201  1.00  0.00     0.074 A 
ATOM     54  C   UNL A   1      42.508  31.005  36.991  1.00  0.00     0.029 A 
ATOM     55  N   UNL A   1      41.061  31.303  35.328  1.00  0.00    -0.354 N 
ATOM     56  N   UNL A   1      38.864  32.646  33.922  1.00  0.00    -0.248 NA
ATOM     57  C   UNL A   1      37.260  34.342  33.809  1.00  0.00     0.031 C 
ATOM     58  C   UNL A   1      41.689  32.096  37.307  1.00  0.00     0.029 A 
ATOM     59  C   UNL A   1      40.811  32.302  36.254  1.00  0.00     0.049 A 
ATOM     60  H   UNL A   1      40.575  31.185  34.481  1.00  0.00     0.167 HD
ATOM     61  C   UNL A   1      38.972  33.452  35.051  1.00  0.00     0.074 A 
ATOM     62  C   UNL A   1      37.981  34.499  34.910  1.00  0.00     0.031 C 
ATOM     63  C   UNL A   1      39.821  33.339  36.103  1.00  0.00     0.031 A 
BRANCH  50  64
ATOM     64  C   UNL A   1      43.722  28.547  35.674  1.00  0.00    -0.014 A 
ATOM     65  C   UNL A   1      45.072  28.839  35.405  1.00  0.00     0.010 A 
ATOM     66  C   UNL A   1      43.415  27.471  36.527  1.00  0.00     0.010 A 
ATOM     67  C   UNL A   1      46.091  28.032  35.920  1.00  0.00     0.020 A 
ATOM     68  C   UNL A   1      44.432  26.682  37.073  1.00  0.00     0.020 A 
ATOM     69  C   UNL A   1      45.763  26.952  36.742  1.00  0.00     0.054 A 
BRANCH  69  70
ATOM     70  S   UNL A   1      47.102  25.909  37.381  1.00  0.00     0.124 S 
ATOM     71  O   UNL A   1      47.802  25.535  36.155  1.00  0.00    -0.237 OA
ATOM     72  O   UNL A   1      47.826  26.820  38.263  1.00  0.00    -0.237 OA
ATOM     73  O   UNL A   1      46.401  24.819  38.056  1.00  0.00    -0.744 OA
ENDBRANCH  69  70
ENDBRANCH  50  64
BRANCH  51  74
ATOM     74  C   UNL A   1      36.315  33.516  31.166  1.00  0.00    -0.014 A 
ATOM     75  C   UNL A   1      35.170  33.918  31.880  1.00  0.00     0.010 A 
ATOM     76  C   UNL A   1      36.428  33.863  29.808  1.00  0.00     0.010 A 
ATOM     77  C   UNL A   1      34.154  34.636  31.246  1.00  0.00     0.020 A 
ATOM     78  C   UNL A   1      35.425  34.606  29.177  1.00  0.00     0.020 A 
ATOM     79  C   UNL A   1      34.288  34.979  29.898  1.00  0.00     0.054 A 
BRANCH  79  80
ATOM     80  S   UNL A   1      32.981  35.961  29.111  1.00  0.00     0.124 S 
ATOM     81  O   UNL A   1      33.751  36.964  28.383  1.00  0.00    -0.237 OA
ATOM     82  O   UNL A   1      32.295  34.969  28.287  1.00  0.00    -0.237 OA
ATOM     83  O   UNL A   1      32.204  36.464  30.242  1.00  0.00    -0.744 OA
ENDBRANCH  79  80
ENDBRANCH  51  74
BRANCH  63  84
ATOM     84  C   UNL A   1      39.756  34.412  37.158  1.00  0.00    -0.014 A 
ATOM     85  C   UNL A   1      39.017  34.238  38.343  1.00  0.00     0.010 A 
ATOM     86  C   UNL A   1      40.472  35.608  36.967  1.00  0.00     0.010 A 
ATOM     87  C   UNL A   1      38.956  35.262  39.292  1.00  0.00     0.020 A 
ATOM     88  C   UNL A   1      40.437  36.621  37.928  1.00  0.00     0.020 A 
ATOM     89  C   UNL A   1      39.662  36.450  39.075  1.00  0.00     0.054 A 
BRANCH  89  90
ATOM     90  S   UNL A   1      39.576  37.761  40.327  1.00  0.00     0.124 S 
ATOM     91  O   UNL A   1      40.976  38.162  40.442  1.00  0.00    -0.237 OA
ATOM     92  O   UNL A   1      38.691  38.741  39.704  1.00  0.00    -0.237 OA
ATOM     93  O   UNL A   1      39.022  37.085  41.498  1.00  0.00    -0.744 OA
ENDBRANCH  89  90
ENDBRANCH  63  84
ENDBRANCH  37  38
ENDBRANCH  29  32
ENDBRANCH  27  28
ENDBRANCH   1  27
TORSDOF 15
ENDMDL
