MODEL 1
REMARK VINA RESULT:      -9.8      0.000      0.000
REMARK SMILES C[C@@]([NH2+]Cc1ccccc1Br)(C(=O)NCCCCNC(=O)c1ccc(-c2c3nc(c(-c4ccc(S(=O)(=O)[O-])cc4)c4ccc([nH]4)c(-c4ccc(S(=O)(=O)[O-])cc4)c4nc(c(-c5ccc(S(=O)(=O)[O-])cc5)c5ccc2[nH]5)C=C4)C=C3)cc1)C(F)(F)F
REMARK SMILES IDX 16 1 15 2 14 3 12 4 13 5 2 7 1 8 3 9 4 12 5 13 6 14 10 15
REMARK SMILES IDX 7 16 9 17 11 18 8 19 82 20 83 21 84 22 85 23 17 24 18 25
REMARK SMILES IDX 19 26 20 27 21 29 22 30 23 31 81 32 24 33 80 34 25 35 26 36
REMARK SMILES IDX 27 37 74 38 28 39 79 40 73 41 75 42 29 43 78 44 72 45 71 46
REMARK SMILES IDX 30 48 60 49 41 50 59 51 42 52 45 53 58 54 76 55 43 56 44 57
REMARK SMILES IDX 57 59 77 60 46 61 31 62 32 63 40 64 33 65 39 66 34 67 35 68
REMARK SMILES IDX 36 69 37 70 38 71 61 72 62 73 70 74 63 75 69 76 64 77 65 78
REMARK SMILES IDX 66 79 67 80 68 81 47 82 48 83 56 84 49 85 55 86 50 87 51 88
REMARK SMILES IDX 52 89 53 90 54 91
REMARK H PARENT 14 6 3 10 3 11 19 28 75 47 45 58
REMARK Flexibility Score: inf
ROOT
ATOM      1  C   UNL A   1      34.892  22.339  24.483  1.00  0.00     0.023 C 
ENDROOT
BRANCH   1   2
ATOM      2  C   UNL A   1      33.509  22.782  24.003  1.00  0.00     0.116 C 
BRANCH   2   3
ATOM      3  N   UNL A   1      33.498  23.007  22.572  1.00  0.00    -0.350 N 
ATOM      4  C   UNL A   1      33.040  24.050  21.821  1.00  0.00     0.290 C 
ATOM      5  O   UNL A   1      33.174  23.909  20.602  1.00  0.00    -0.267 OA
ATOM      6  H   UNL A   1      33.892  22.275  22.046  1.00  0.00     0.163 HD
BRANCH   4   7
ATOM      7  C   UNL A   1      32.447  25.333  22.444  1.00  0.00     0.268 C 
ATOM      8  C   UNL A   1      31.818  26.249  21.369  1.00  0.00     0.101 C 
BRANCH   7   9
ATOM      9  N   UNL A   1      31.301  24.985  23.364  1.00  0.00    -0.322 N 
ATOM     10  H   UNL A   1      31.699  24.556  24.199  1.00  0.00     0.347 HD
ATOM     11  H   UNL A   1      30.695  24.383  22.806  1.00  0.00     0.347 HD
BRANCH   9  12
ATOM     12  C   UNL A   1      30.428  26.076  23.808  1.00  0.00     0.299 C 
BRANCH  12  13
ATOM     13  C   UNL A   1      30.978  26.987  24.884  1.00  0.00     0.020 A 
ATOM     14  C   UNL A   1      31.098  28.355  24.562  1.00  0.00     0.011 A 
ATOM     15  C   UNL A   1      31.373  26.585  26.171  1.00  0.00     0.026 A 
ATOM     16  C   UNL A   1      31.453  29.298  25.526  1.00  0.00     0.001 A 
ATOM     17  C   UNL A   1      31.669  27.539  27.153  1.00  0.00     0.016 A 
ATOM     18  Br  UNL A   1      31.564  24.762  26.687  1.00  0.00    -0.050 Br
ATOM     19  C   UNL A   1      31.690  28.894  26.835  1.00  0.00     0.001 A 
ENDBRANCH  12  13
ENDBRANCH   9  12
ENDBRANCH   7   9
BRANCH   7  20
ATOM     20  C   UNL A   1      33.670  26.141  22.986  1.00  0.00     0.453 C 
ATOM     21  F   UNL A   1      33.890  25.900  24.303  1.00  0.00    -0.164 F 
ATOM     22  F   UNL A   1      34.808  25.747  22.350  1.00  0.00    -0.164 F 
ATOM     23  F   UNL A   1      33.576  27.474  22.826  1.00  0.00    -0.164 F 
ENDBRANCH   7  20
ENDBRANCH   4   7
ENDBRANCH   2   3
ENDBRANCH   1   2
BRANCH   1  24
ATOM     24  C   UNL A   1      36.025  23.307  24.139  1.00  0.00     0.023 C 
BRANCH  24  25
ATOM     25  C   UNL A   1      36.907  23.710  25.313  1.00  0.00     0.116 C 
BRANCH  25  26
ATOM     26  N   UNL A   1      37.969  22.751  25.573  1.00  0.00    -0.352 N 
ATOM     27  C   UNL A   1      39.183  22.958  26.189  1.00  0.00     0.251 C 
ATOM     28  H   UNL A   1      37.798  21.832  25.267  1.00  0.00     0.163 HD
ATOM     29  O   UNL A   1      40.028  22.076  26.195  1.00  0.00    -0.269 OA
BRANCH  27  30
ATOM     30  C   UNL A   1      39.457  24.270  26.812  1.00  0.00     0.039 A 
ATOM     31  C   UNL A   1      39.014  24.503  28.116  1.00  0.00     0.014 A 
ATOM     32  C   UNL A   1      40.181  25.248  26.125  1.00  0.00     0.014 A 
ATOM     33  C   UNL A   1      39.356  25.696  28.755  1.00  0.00     0.010 A 
ATOM     34  C   UNL A   1      40.587  26.399  26.790  1.00  0.00     0.010 A 
ATOM     35  C   UNL A   1      40.177  26.638  28.111  1.00  0.00    -0.014 A 
BRANCH  35  36
ATOM     36  C   UNL A   1      40.618  27.876  28.802  1.00  0.00     0.031 A 
ATOM     37  C   UNL A   1      41.987  27.948  29.423  1.00  0.00     0.074 A 
ATOM     38  C   UNL A   1      39.765  28.912  28.923  1.00  0.00     0.049 A 
ATOM     39  N   UNL A   1      42.529  28.918  30.112  1.00  0.00    -0.248 NA
ATOM     40  C   UNL A   1      42.850  26.765  29.272  1.00  0.00     0.031 C 
ATOM     41  C   UNL A   1      38.394  28.948  28.403  1.00  0.00     0.029 A 
ATOM     42  N   UNL A   1      39.920  30.135  29.529  1.00  0.00    -0.354 N 
ATOM     43  C   UNL A   1      43.787  28.460  30.485  1.00  0.00     0.074 A 
ATOM     44  C   UNL A   1      43.905  27.104  29.996  1.00  0.00     0.031 C 
ATOM     45  C   UNL A   1      37.847  30.140  28.689  1.00  0.00     0.029 A 
ATOM     46  C   UNL A   1      38.805  30.937  29.448  1.00  0.00     0.049 A 
ATOM     47  H   UNL A   1      40.751  30.411  29.978  1.00  0.00     0.167 HD
ATOM     48  C   UNL A   1      44.765  29.116  31.154  1.00  0.00     0.031 A 
ATOM     49  C   UNL A   1      38.577  32.172  29.938  1.00  0.00     0.031 A 
ATOM     50  C   UNL A   1      44.645  30.466  31.635  1.00  0.00     0.049 A 
ATOM     51  C   UNL A   1      39.673  32.874  30.693  1.00  0.00     0.074 A 
ATOM     52  C   UNL A   1      45.595  31.236  32.283  1.00  0.00     0.029 A 
ATOM     53  N   UNL A   1      43.504  31.248  31.525  1.00  0.00    -0.354 N 
ATOM     54  N   UNL A   1      40.880  32.448  30.977  1.00  0.00    -0.248 NA
ATOM     55  C   UNL A   1      39.379  34.228  31.180  1.00  0.00     0.031 C 
ATOM     56  C   UNL A   1      45.011  32.463  32.613  1.00  0.00     0.029 A 
ATOM     57  C   UNL A   1      43.718  32.483  32.114  1.00  0.00     0.049 A 
ATOM     58  H   UNL A   1      42.665  30.966  31.092  1.00  0.00     0.167 HD
ATOM     59  C   UNL A   1      41.500  33.493  31.653  1.00  0.00     0.074 A 
ATOM     60  C   UNL A   1      40.540  34.576  31.719  1.00  0.00     0.031 C 
ATOM     61  C   UNL A   1      42.752  33.551  32.172  1.00  0.00     0.031 A 
BRANCH  48  62
ATOM     62  C   UNL A   1      46.053  28.375  31.405  1.00  0.00    -0.014 A 
ATOM     63  C   UNL A   1      47.130  28.464  30.504  1.00  0.00     0.010 A 
ATOM     64  C   UNL A   1      46.205  27.610  32.576  1.00  0.00     0.010 A 
ATOM     65  C   UNL A   1      48.316  27.766  30.746  1.00  0.00     0.020 A 
ATOM     66  C   UNL A   1      47.402  26.935  32.838  1.00  0.00     0.020 A 
ATOM     67  C   UNL A   1      48.444  27.005  31.911  1.00  0.00     0.054 A 
BRANCH  67  68
ATOM     68  S   UNL A   1      50.003  26.128  32.208  1.00  0.00     0.124 S 
ATOM     69  O   UNL A   1      50.027  26.042  33.666  1.00  0.00    -0.237 OA
ATOM     70  O   UNL A   1      49.797  24.863  31.508  1.00  0.00    -0.237 OA
ATOM     71  O   UNL A   1      51.013  27.006  31.620  1.00  0.00    -0.744 OA
ENDBRANCH  67  68
ENDBRANCH  48  62
BRANCH  49  72
ATOM     72  C   UNL A   1      37.255  32.824  29.720  1.00  0.00    -0.014 A 
ATOM     73  C   UNL A   1      36.236  32.717  30.681  1.00  0.00     0.010 A 
ATOM     74  C   UNL A   1      37.015  33.567  28.549  1.00  0.00     0.010 A 
ATOM     75  C   UNL A   1      34.994  33.325  30.468  1.00  0.00     0.020 A 
ATOM     76  C   UNL A   1      35.786  34.201  28.345  1.00  0.00     0.020 A 
ATOM     77  C   UNL A   1      34.779  34.065  29.302  1.00  0.00     0.054 A 
BRANCH  77  78
ATOM     78  S   UNL A   1      33.176  34.885  29.071  1.00  0.00     0.124 S 
ATOM     79  O   UNL A   1      32.529  34.017  28.092  1.00  0.00    -0.237 OA
ATOM     80  O   UNL A   1      32.610  34.855  30.417  1.00  0.00    -0.237 OA
ATOM     81  O   UNL A   1      33.540  36.215  28.586  1.00  0.00    -0.744 OA
ENDBRANCH  77  78
ENDBRANCH  49  72
BRANCH  61  82
ATOM     82  C   UNL A   1      43.174  34.842  32.825  1.00  0.00    -0.014 A 
ATOM     83  C   UNL A   1      43.718  35.899  32.073  1.00  0.00     0.010 A 
ATOM     84  C   UNL A   1      42.966  35.018  34.206  1.00  0.00     0.010 A 
ATOM     85  C   UNL A   1      44.077  37.096  32.697  1.00  0.00     0.020 A 
ATOM     86  C   UNL A   1      43.296  36.225  34.827  1.00  0.00     0.020 A 
ATOM     87  C   UNL A   1      43.862  37.252  34.070  1.00  0.00     0.054 A 
BRANCH  87  88
ATOM     88  S   UNL A   1      44.295  38.833  34.847  1.00  0.00     0.124 S 
ATOM     89  O   UNL A   1      43.380  39.759  34.184  1.00  0.00    -0.237 OA
ATOM     90  O   UNL A   1      44.020  38.581  36.259  1.00  0.00    -0.237 OA
ATOM     91  O   UNL A   1      45.706  39.008  34.515  1.00  0.00    -0.744 OA
ENDBRANCH  87  88
ENDBRANCH  61  82
ENDBRANCH  35  36
ENDBRANCH  27  30
ENDBRANCH  25  26
ENDBRANCH  24  25
ENDBRANCH   1  24
TORSDOF 18
ENDMDL
MODEL 2
REMARK VINA RESULT:      -9.7      3.853      5.245
REMARK SMILES C[C@@]([NH2+]Cc1ccccc1Br)(C(=O)NCCCCNC(=O)c1ccc(-c2c3nc(c(-c4ccc(S(=O)(=O)[O-])cc4)c4ccc([nH]4)c(-c4ccc(S(=O)(=O)[O-])cc4)c4nc(c(-c5ccc(S(=O)(=O)[O-])cc5)c5ccc2[nH]5)C=C4)C=C3)cc1)C(F)(F)F
REMARK SMILES IDX 16 1 15 2 14 3 12 4 13 5 2 7 1 8 3 9 4 12 5 13 6 14 10 15
REMARK SMILES IDX 7 16 9 17 11 18 8 19 82 20 83 21 84 22 85 23 17 24 18 25
REMARK SMILES IDX 19 26 20 27 21 29 22 30 23 31 81 32 24 33 80 34 25 35 26 36
REMARK SMILES IDX 27 37 74 38 28 39 79 40 73 41 75 42 29 43 78 44 72 45 71 46
REMARK SMILES IDX 30 48 60 49 41 50 59 51 42 52 45 53 58 54 76 55 43 56 44 57
REMARK SMILES IDX 57 59 77 60 46 61 31 62 32 63 40 64 33 65 39 66 34 67 35 68
REMARK SMILES IDX 36 69 37 70 38 71 61 72 62 73 70 74 63 75 69 76 64 77 65 78
REMARK SMILES IDX 66 79 67 80 68 81 47 82 48 83 56 84 49 85 55 86 50 87 51 88
REMARK SMILES IDX 52 89 53 90 54 91
REMARK H PARENT 14 6 3 10 3 11 19 28 75 47 45 58
REMARK Flexibility Score: inf
ROOT
ATOM      1  C   UNL A   1      37.422  21.905  25.607  1.00  0.00     0.023 C 
ENDROOT
BRANCH   1   2
ATOM      2  C   UNL A   1      36.067  21.272  25.286  1.00  0.00     0.116 C 
BRANCH   2   3
ATOM      3  N   UNL A   1      35.244  22.165  24.496  1.00  0.00    -0.350 N 
ATOM      4  C   UNL A   1      33.950  22.569  24.638  1.00  0.00     0.290 C 
ATOM      5  O   UNL A   1      33.547  23.339  23.760  1.00  0.00    -0.267 OA
ATOM      6  H   UNL A   1      35.703  22.549  23.714  1.00  0.00     0.163 HD
BRANCH   4   7
ATOM      7  C   UNL A   1      33.066  22.144  25.832  1.00  0.00     0.268 C 
ATOM      8  C   UNL A   1      31.578  22.487  25.587  1.00  0.00     0.101 C 
BRANCH   7   9
ATOM      9  N   UNL A   1      33.089  20.642  25.989  1.00  0.00    -0.322 N 
ATOM     10  H   UNL A   1      32.686  20.425  26.901  1.00  0.00     0.347 HD
ATOM     11  H   UNL A   1      34.069  20.386  25.868  1.00  0.00     0.347 HD
BRANCH   9  12
ATOM     12  C   UNL A   1      32.372  19.841  24.993  1.00  0.00     0.299 C 
BRANCH  12  13
ATOM     13  C   UNL A   1      33.106  18.641  24.435  1.00  0.00     0.020 A 
ATOM     14  C   UNL A   1      33.956  17.946  25.320  1.00  0.00     0.011 A 
ATOM     15  C   UNL A   1      33.007  18.163  23.118  1.00  0.00     0.026 A 
ATOM     16  C   UNL A   1      34.562  16.744  24.949  1.00  0.00     0.001 A 
ATOM     17  C   UNL A   1      33.564  16.927  22.767  1.00  0.00     0.016 A 
ATOM     18  Br  UNL A   1      32.153  19.127  21.715  1.00  0.00    -0.050 Br
ATOM     19  C   UNL A   1      34.324  16.210  23.688  1.00  0.00     0.001 A 
ENDBRANCH  12  13
ENDBRANCH   9  12
ENDBRANCH   7   9
BRANCH   7  20
ATOM     20  C   UNL A   1      33.494  23.064  27.020  1.00  0.00     0.453 C 
ATOM     21  F   UNL A   1      34.255  24.107  26.602  1.00  0.00    -0.164 F 
ATOM     22  F   UNL A   1      32.396  23.626  27.596  1.00  0.00    -0.164 F 
ATOM     23  F   UNL A   1      34.169  22.435  28.000  1.00  0.00    -0.164 F 
ENDBRANCH   7  20
ENDBRANCH   4   7
ENDBRANCH   2   3
ENDBRANCH   1   2
BRANCH   1  24
ATOM     24  C   UNL A   1      37.438  23.434  25.551  1.00  0.00     0.023 C 
BRANCH  24  25
ATOM     25  C   UNL A   1      38.372  24.104  26.550  1.00  0.00     0.116 C 
BRANCH  25  26
ATOM     26  N   UNL A   1      39.771  24.002  26.167  1.00  0.00    -0.352 N 
ATOM     27  C   UNL A   1      40.819  24.826  26.510  1.00  0.00     0.251 C 
ATOM     28  H   UNL A   1      39.999  23.243  25.584  1.00  0.00     0.163 HD
ATOM     29  O   UNL A   1      41.911  24.686  25.981  1.00  0.00    -0.269 OA
BRANCH  27  30
ATOM     30  C   UNL A   1      40.594  25.899  27.502  1.00  0.00     0.039 A 
ATOM     31  C   UNL A   1      39.642  25.702  28.505  1.00  0.00     0.014 A 
ATOM     32  C   UNL A   1      41.348  27.075  27.463  1.00  0.00     0.014 A 
ATOM     33  C   UNL A   1      39.493  26.660  29.509  1.00  0.00     0.010 A 
ATOM     34  C   UNL A   1      41.254  27.989  28.507  1.00  0.00     0.010 A 
ATOM     35  C   UNL A   1      40.324  27.793  29.540  1.00  0.00    -0.014 A 
BRANCH  35  36
ATOM     36  C   UNL A   1      40.235  28.784  30.643  1.00  0.00     0.031 A 
ATOM     37  C   UNL A   1      41.103  28.634  31.863  1.00  0.00     0.074 A 
ATOM     38  C   UNL A   1      39.333  29.782  30.572  1.00  0.00     0.049 A 
ATOM     39  N   UNL A   1      41.131  29.363  32.948  1.00  0.00    -0.248 NA
ATOM     40  C   UNL A   1      42.045  27.502  31.876  1.00  0.00     0.031 C 
ATOM     41  C   UNL A   1      38.403  30.008  29.462  1.00  0.00     0.029 A 
ATOM     42  N   UNL A   1      39.043  30.791  31.457  1.00  0.00    -0.354 N 
ATOM     43  C   UNL A   1      42.080  28.774  33.775  1.00  0.00     0.074 A 
ATOM     44  C   UNL A   1      42.563  27.595  33.091  1.00  0.00     0.031 C 
ATOM     45  C   UNL A   1      37.667  31.101  29.720  1.00  0.00     0.029 A 
ATOM     46  C   UNL A   1      38.037  31.628  31.030  1.00  0.00     0.049 A 
ATOM     47  H   UNL A   1      39.510  30.905  32.315  1.00  0.00     0.167 HD
ATOM     48  C   UNL A   1      42.527  29.188  34.985  1.00  0.00     0.031 A 
ATOM     49  C   UNL A   1      37.471  32.694  31.628  1.00  0.00     0.031 A 
ATOM     50  C   UNL A   1      42.046  30.365  35.660  1.00  0.00     0.049 A 
ATOM     51  C   UNL A   1      37.973  33.127  32.980  1.00  0.00     0.074 A 
ATOM     52  C   UNL A   1      42.467  30.896  36.866  1.00  0.00     0.029 A 
ATOM     53  N   UNL A   1      41.035  31.191  35.190  1.00  0.00    -0.354 N 
ATOM     54  N   UNL A   1      38.918  32.594  33.716  1.00  0.00    -0.248 NA
ATOM     55  C   UNL A   1      37.339  34.311  33.573  1.00  0.00     0.031 C 
ATOM     56  C   UNL A   1      41.674  32.012  37.152  1.00  0.00     0.029 A 
ATOM     57  C   UNL A   1      40.803  32.214  36.093  1.00  0.00     0.049 A 
ATOM     58  H   UNL A   1      40.554  31.067  34.339  1.00  0.00     0.167 HD
ATOM     59  C   UNL A   1      39.012  33.396  34.848  1.00  0.00     0.074 A 
ATOM     60  C   UNL A   1      38.039  34.458  34.690  1.00  0.00     0.031 C 
ATOM     61  C   UNL A   1      39.830  33.264  35.922  1.00  0.00     0.031 A 
BRANCH  48  62
ATOM     62  C   UNL A   1      43.590  28.359  35.656  1.00  0.00    -0.014 A 
ATOM     63  C   UNL A   1      44.954  28.555  35.369  1.00  0.00     0.010 A 
ATOM     64  C   UNL A   1      43.227  27.395  36.614  1.00  0.00     0.010 A 
ATOM     65  C   UNL A   1      45.929  27.774  35.993  1.00  0.00     0.020 A 
ATOM     66  C   UNL A   1      44.202  26.632  37.264  1.00  0.00     0.020 A 
ATOM     67  C   UNL A   1      45.547  26.816  36.936  1.00  0.00     0.054 A 
BRANCH  67  68
ATOM     68  S   UNL A   1      46.838  25.832  37.745  1.00  0.00     0.124 S 
ATOM     69  O   UNL A   1      46.726  24.554  37.046  1.00  0.00    -0.237 OA
ATOM     70  O   UNL A   1      48.048  26.598  37.461  1.00  0.00    -0.237 OA
ATOM     71  O   UNL A   1      46.431  25.811  39.148  1.00  0.00    -0.744 OA
ENDBRANCH  67  68
ENDBRANCH  48  62
BRANCH  49  72
ATOM     72  C   UNL A   1      36.371  33.432  30.946  1.00  0.00    -0.014 A 
ATOM     73  C   UNL A   1      35.127  33.608  31.576  1.00  0.00     0.010 A 
ATOM     74  C   UNL A   1      36.568  33.972  29.661  1.00  0.00     0.010 A 
ATOM     75  C   UNL A   1      34.095  34.294  30.927  1.00  0.00     0.020 A 
ATOM     76  C   UNL A   1      35.550  34.684  29.022  1.00  0.00     0.020 A 
ATOM     77  C   UNL A   1      34.315  34.830  29.656  1.00  0.00     0.054 A 
BRANCH  77  78
ATOM     78  S   UNL A   1      32.976  35.759  28.855  1.00  0.00     0.124 S 
ATOM     79  O   UNL A   1      33.713  36.796  28.140  1.00  0.00    -0.237 OA
ATOM     80  O   UNL A   1      32.343  34.740  28.021  1.00  0.00    -0.237 OA
ATOM     81  O   UNL A   1      32.166  36.226  29.978  1.00  0.00    -0.744 OA
ENDBRANCH  77  78
ENDBRANCH  49  72
BRANCH  61  82
ATOM     82  C   UNL A   1      39.739  34.316  36.997  1.00  0.00    -0.014 A 
ATOM     83  C   UNL A   1      38.949  34.124  38.144  1.00  0.00     0.010 A 
ATOM     84  C   UNL A   1      40.507  35.491  36.881  1.00  0.00     0.010 A 
ATOM     85  C   UNL A   1      38.902  35.102  39.141  1.00  0.00     0.020 A 
ATOM     86  C   UNL A   1      40.485  36.457  37.890  1.00  0.00     0.020 A 
ATOM     87  C   UNL A   1      39.673  36.263  39.007  1.00  0.00     0.054 A 
BRANCH  87  88
ATOM     88  S   UNL A   1      39.629  37.496  40.336  1.00  0.00     0.124 S 
ATOM     89  O   UNL A   1      38.866  36.803  41.371  1.00  0.00    -0.237 OA
ATOM     90  O   UNL A   1      41.045  37.700  40.630  1.00  0.00    -0.237 OA
ATOM     91  O   UNL A   1      38.955  38.639  39.726  1.00  0.00    -0.744 OA
ENDBRANCH  87  88
ENDBRANCH  61  82
ENDBRANCH  35  36
ENDBRANCH  27  30
ENDBRANCH  25  26
ENDBRANCH  24  25
ENDBRANCH   1  24
TORSDOF 18
ENDMDL
MODEL 3
REMARK VINA RESULT:      -9.7      2.418      3.426
REMARK SMILES C[C@@]([NH2+]Cc1ccccc1Br)(C(=O)NCCCCNC(=O)c1ccc(-c2c3nc(c(-c4ccc(S(=O)(=O)[O-])cc4)c4ccc([nH]4)c(-c4ccc(S(=O)(=O)[O-])cc4)c4nc(c(-c5ccc(S(=O)(=O)[O-])cc5)c5ccc2[nH]5)C=C4)C=C3)cc1)C(F)(F)F
REMARK SMILES IDX 16 1 15 2 14 3 12 4 13 5 2 7 1 8 3 9 4 12 5 13 6 14 10 15
REMARK SMILES IDX 7 16 9 17 11 18 8 19 82 20 83 21 84 22 85 23 17 24 18 25
REMARK SMILES IDX 19 26 20 27 21 29 22 30 23 31 81 32 24 33 80 34 25 35 26 36
REMARK SMILES IDX 27 37 74 38 28 39 79 40 73 41 75 42 29 43 78 44 72 45 71 46
REMARK SMILES IDX 30 48 60 49 41 50 59 51 42 52 45 53 58 54 76 55 43 56 44 57
REMARK SMILES IDX 57 59 77 60 46 61 31 62 32 63 40 64 33 65 39 66 34 67 35 68
REMARK SMILES IDX 36 69 37 70 38 71 61 72 62 73 70 74 63 75 69 76 64 77 65 78
REMARK SMILES IDX 66 79 67 80 68 81 47 82 48 83 56 84 49 85 55 86 50 87 51 88
REMARK SMILES IDX 52 89 53 90 54 91
REMARK H PARENT 14 6 3 10 3 11 19 28 75 47 45 58
REMARK Flexibility Score: inf
ROOT
ATOM      1  C   UNL A   1      34.535  23.712  25.315  1.00  0.00     0.023 C 
ENDROOT
BRANCH   1   2
ATOM      2  C   UNL A   1      34.452  25.198  24.964  1.00  0.00     0.116 C 
BRANCH   2   3
ATOM      3  N   UNL A   1      34.336  25.392  23.533  1.00  0.00    -0.350 N 
ATOM      4  C   UNL A   1      33.389  26.017  22.775  1.00  0.00     0.290 C 
ATOM      5  O   UNL A   1      33.594  25.984  21.558  1.00  0.00    -0.267 OA
ATOM      6  H   UNL A   1      35.075  25.002  23.012  1.00  0.00     0.163 HD
BRANCH   4   7
ATOM      7  C   UNL A   1      32.180  26.756  23.389  1.00  0.00     0.268 C 
ATOM      8  C   UNL A   1      31.090  27.040  22.330  1.00  0.00     0.101 C 
BRANCH   7   9
ATOM      9  N   UNL A   1      31.497  25.880  24.412  1.00  0.00    -0.322 N 
ATOM     10  H   UNL A   1      30.932  26.487  25.006  1.00  0.00     0.347 HD
ATOM     11  H   UNL A   1      32.259  25.391  24.882  1.00  0.00     0.347 HD
BRANCH   9  12
ATOM     12  C   UNL A   1      30.621  24.813  23.920  1.00  0.00     0.299 C 
BRANCH  12  13
ATOM     13  C   UNL A   1      31.137  23.398  24.057  1.00  0.00     0.020 A 
ATOM     14  C   UNL A   1      31.702  22.810  22.907  1.00  0.00     0.011 A 
ATOM     15  C   UNL A   1      31.103  22.626  25.231  1.00  0.00     0.026 A 
ATOM     16  C   UNL A   1      32.339  21.569  22.965  1.00  0.00     0.001 A 
ATOM     17  C   UNL A   1      31.795  21.411  25.303  1.00  0.00     0.016 A 
ATOM     18  Br  UNL A   1      30.124  23.128  26.786  1.00  0.00    -0.050 Br
ATOM     19  C   UNL A   1      32.427  20.893  24.176  1.00  0.00     0.001 A 
ENDBRANCH  12  13
ENDBRANCH   9  12
ENDBRANCH   7   9
BRANCH   7  20
ATOM     20  C   UNL A   1      32.714  28.168  23.797  1.00  0.00     0.453 C 
ATOM     21  F   UNL A   1      33.010  28.233  25.119  1.00  0.00    -0.164 F 
ATOM     22  F   UNL A   1      33.883  28.429  23.150  1.00  0.00    -0.164 F 
ATOM     23  F   UNL A   1      31.878  29.185  23.515  1.00  0.00    -0.164 F 
ENDBRANCH   7  20
ENDBRANCH   4   7
ENDBRANCH   2   3
ENDBRANCH   1   2
BRANCH   1  24
ATOM     24  C   UNL A   1      35.908  23.078  25.080  1.00  0.00     0.023 C 
BRANCH  24  25
ATOM     25  C   UNL A   1      36.928  23.322  26.184  1.00  0.00     0.116 C 
BRANCH  25  26
ATOM     26  N   UNL A   1      38.026  22.370  26.154  1.00  0.00    -0.352 N 
ATOM     27  C   UNL A   1      39.368  22.598  26.362  1.00  0.00     0.251 C 
ATOM     28  H   UNL A   1      37.778  21.439  25.958  1.00  0.00     0.163 HD
ATOM     29  O   UNL A   1      40.183  21.712  26.153  1.00  0.00    -0.269 OA
BRANCH  27  30
ATOM     30  C   UNL A   1      39.807  23.936  26.811  1.00  0.00     0.039 A 
ATOM     31  C   UNL A   1      39.950  24.176  28.179  1.00  0.00     0.014 A 
ATOM     32  C   UNL A   1      40.113  24.934  25.881  1.00  0.00     0.014 A 
ATOM     33  C   UNL A   1      40.463  25.400  28.613  1.00  0.00     0.010 A 
ATOM     34  C   UNL A   1      40.699  26.120  26.311  1.00  0.00     0.010 A 
ATOM     35  C   UNL A   1      40.878  26.367  27.681  1.00  0.00    -0.014 A 
BRANCH  35  36
ATOM     36  C   UNL A   1      41.500  27.642  28.119  1.00  0.00     0.031 A 
ATOM     37  C   UNL A   1      42.994  27.813  28.059  1.00  0.00     0.074 A 
ATOM     38  C   UNL A   1      40.727  28.622  28.628  1.00  0.00     0.049 A 
ATOM     39  N   UNL A   1      43.724  28.827  28.445  1.00  0.00    -0.248 NA
ATOM     40  C   UNL A   1      43.772  26.686  27.516  1.00  0.00     0.031 C 
ATOM     41  C   UNL A   1      39.271  28.561  28.780  1.00  0.00     0.029 A 
ATOM     42  N   UNL A   1      41.059  29.861  29.117  1.00  0.00    -0.354 N 
ATOM     43  C   UNL A   1      45.042  28.457  28.206  1.00  0.00     0.074 A 
ATOM     44  C   UNL A   1      45.016  27.105  27.694  1.00  0.00     0.031 C 
ATOM     45  C   UNL A   1      38.834  29.718  29.301  1.00  0.00     0.029 A 
ATOM     46  C   UNL A   1      39.977  30.587  29.560  1.00  0.00     0.049 A 
ATOM     47  H   UNL A   1      41.983  30.198  29.149  1.00  0.00     0.167 HD
ATOM     48  C   UNL A   1      46.172  29.186  28.373  1.00  0.00     0.031 A 
ATOM     49  C   UNL A   1      39.913  31.812  30.120  1.00  0.00     0.031 A 
ATOM     50  C   UNL A   1      46.193  30.533  28.878  1.00  0.00     0.049 A 
ATOM     51  C   UNL A   1      41.184  32.596  30.311  1.00  0.00     0.074 A 
ATOM     52  C   UNL A   1      47.280  31.373  29.041  1.00  0.00     0.029 A 
ATOM     53  N   UNL A   1      45.076  31.236  29.306  1.00  0.00    -0.354 N 
ATOM     54  N   UNL A   1      42.414  32.254  30.015  1.00  0.00    -0.248 NA
ATOM     55  C   UNL A   1      41.053  33.935  30.900  1.00  0.00     0.031 C 
ATOM     56  C   UNL A   1      46.829  32.564  29.618  1.00  0.00     0.029 A 
ATOM     57  C   UNL A   1      45.451  32.492  29.754  1.00  0.00     0.049 A 
ATOM     58  H   UNL A   1      44.153  30.893  29.292  1.00  0.00     0.167 HD
ATOM     59  C   UNL A   1      43.202  33.348  30.357  1.00  0.00     0.074 A 
ATOM     60  C   UNL A   1      42.307  34.367  30.864  1.00  0.00     0.031 C 
ATOM     61  C   UNL A   1      44.547  33.495  30.258  1.00  0.00     0.031 A 
BRANCH  48  62
ATOM     62  C   UNL A   1      47.480  28.535  28.006  1.00  0.00    -0.014 A 
ATOM     63  C   UNL A   1      48.192  27.758  28.939  1.00  0.00     0.010 A 
ATOM     64  C   UNL A   1      47.988  28.668  26.701  1.00  0.00     0.010 A 
ATOM     65  C   UNL A   1      49.408  27.166  28.587  1.00  0.00     0.020 A 
ATOM     66  C   UNL A   1      49.188  28.050  26.335  1.00  0.00     0.020 A 
ATOM     67  C   UNL A   1      49.899  27.317  27.288  1.00  0.00     0.054 A 
BRANCH  67  68
ATOM     68  S   UNL A   1      51.468  26.518  26.855  1.00  0.00     0.124 S 
ATOM     69  O   UNL A   1      51.530  26.738  25.412  1.00  0.00    -0.237 OA
ATOM     70  O   UNL A   1      52.438  27.270  27.646  1.00  0.00    -0.237 OA
ATOM     71  O   UNL A   1      51.276  25.129  27.265  1.00  0.00    -0.744 OA
ENDBRANCH  67  68
ENDBRANCH  48  62
BRANCH  49  72
ATOM     72  C   UNL A   1      38.596  32.373  30.530  1.00  0.00    -0.014 A 
ATOM     73  C   UNL A   1      37.829  33.133  29.631  1.00  0.00     0.010 A 
ATOM     74  C   UNL A   1      38.096  32.138  31.825  1.00  0.00     0.010 A 
ATOM     75  C   UNL A   1      36.596  33.665  30.023  1.00  0.00     0.020 A 
ATOM     76  C   UNL A   1      36.851  32.642  32.211  1.00  0.00     0.020 A 
ATOM     77  C   UNL A   1      36.114  33.413  31.310  1.00  0.00     0.054 A 
BRANCH  77  78
ATOM     78  S   UNL A   1      34.490  34.072  31.780  1.00  0.00     0.124 S 
ATOM     79  O   UNL A   1      33.837  34.223  30.484  1.00  0.00    -0.237 OA
ATOM     80  O   UNL A   1      33.959  33.015  32.638  1.00  0.00    -0.237 OA
ATOM     81  O   UNL A   1      34.813  35.319  32.469  1.00  0.00    -0.744 OA
ENDBRANCH  77  78
ENDBRANCH  49  72
BRANCH  61  82
ATOM     82  C   UNL A   1      45.133  34.820  30.671  1.00  0.00    -0.014 A 
ATOM     83  C   UNL A   1      45.603  35.037  31.979  1.00  0.00     0.010 A 
ATOM     84  C   UNL A   1      45.268  35.845  29.715  1.00  0.00     0.010 A 
ATOM     85  C   UNL A   1      46.167  36.266  32.331  1.00  0.00     0.020 A 
ATOM     86  C   UNL A   1      45.859  37.064  30.057  1.00  0.00     0.020 A 
ATOM     87  C   UNL A   1      46.292  37.271  31.367  1.00  0.00     0.054 A 
BRANCH  87  88
ATOM     88  S   UNL A   1      47.069  38.841  31.839  1.00  0.00     0.124 S 
ATOM     89  O   UNL A   1      48.114  38.399  32.758  1.00  0.00    -0.237 OA
ATOM     90  O   UNL A   1      47.539  39.362  30.557  1.00  0.00    -0.237 OA
ATOM     91  O   UNL A   1      45.980  39.597  32.450  1.00  0.00    -0.744 OA
ENDBRANCH  87  88
ENDBRANCH  61  82
ENDBRANCH  35  36
ENDBRANCH  27  30
ENDBRANCH  25  26
ENDBRANCH  24  25
ENDBRANCH   1  24
TORSDOF 18
ENDMDL
