MODEL 1
REMARK VINA RESULT:      -9.9      0.000      0.000
REMARK SMILES CC(C)Cc1ccc([C@H](CF)C(=O)NCCCCNC(=O)c2ccc(-c3c4nc(c(-c5ccc(S(=O)(=O)[O-])cc5)c5ccc([nH]5)c(-c5ccc(S(=O)(=O)[O-])cc5)c5nc(c(-c6ccc(S(=O)(=O)[O-])cc6)c6ccc3[nH]6)C=C5)C=C4)cc2)cc1
REMARK SMILES IDX 16 1 15 2 14 3 12 4 13 5 9 7 8 8 5 9 6 10 83 11 7 12 82 13
REMARK SMILES IDX 4 14 2 15 1 16 3 17 10 18 11 19 17 20 18 21 19 22 20 23
REMARK SMILES IDX 21 25 22 26 23 27 81 28 24 29 80 30 25 31 26 32 27 33 74 34
REMARK SMILES IDX 28 35 79 36 73 37 75 38 29 39 78 40 72 41 71 42 30 44 60 45
REMARK SMILES IDX 41 46 59 47 42 48 45 49 58 50 76 51 43 52 44 53 57 55 77 56
REMARK SMILES IDX 46 57 31 58 32 59 40 60 33 61 39 62 34 63 35 64 36 65 37 66
REMARK SMILES IDX 38 67 61 68 62 69 70 70 63 71 69 72 64 73 65 74 66 75 67 76
REMARK SMILES IDX 68 77 47 78 48 79 56 80 49 81 55 82 50 83 51 84 52 85 53 86
REMARK SMILES IDX 54 87
REMARK H PARENT 14 6 19 24 75 43 45 54
REMARK Flexibility Score: inf
ROOT
ATOM      1  C   UNL A   1      35.127  23.819  23.232  1.00  0.00     0.023 C 
ENDROOT
BRANCH   1   2
ATOM      2  C   UNL A   1      33.863  22.970  23.139  1.00  0.00     0.116 C 
BRANCH   2   3
ATOM      3  N   UNL A   1      33.686  22.118  24.300  1.00  0.00    -0.355 N 
ATOM      4  C   UNL A   1      32.676  22.070  25.217  1.00  0.00     0.230 C 
ATOM      5  O   UNL A   1      32.726  21.183  26.074  1.00  0.00    -0.274 OA
ATOM      6  H   UNL A   1      34.411  21.470  24.452  1.00  0.00     0.163 HD
BRANCH   4   7
ATOM      7  C   UNL A   1      31.526  23.082  25.220  1.00  0.00     0.139 C 
BRANCH   7   8
ATOM      8  C   UNL A   1      32.029  24.520  25.277  1.00  0.00    -0.033 A 
ATOM      9  C   UNL A   1      33.085  27.132  25.053  1.00  0.00    -0.048 A 
ATOM     10  C   UNL A   1      31.969  26.753  24.302  1.00  0.00     0.004 A 
ATOM     11  C   UNL A   1      33.618  26.225  25.975  1.00  0.00     0.004 A 
ATOM     12  C   UNL A   1      31.452  25.462  24.409  1.00  0.00     0.005 A 
ATOM     13  C   UNL A   1      33.078  24.942  26.105  1.00  0.00     0.005 A 
BRANCH   9  14
ATOM     14  C   UNL A   1      33.744  28.470  24.820  1.00  0.00     0.038 C 
BRANCH  14  15
ATOM     15  C   UNL A   1      33.169  29.588  25.717  1.00  0.00    -0.013 C 
ATOM     16  C   UNL A   1      31.693  29.874  25.424  1.00  0.00     0.008 C 
ATOM     17  C   UNL A   1      33.330  29.208  27.191  1.00  0.00     0.008 C 
ENDBRANCH  14  15
ENDBRANCH   9  14
ENDBRANCH   7   8
BRANCH   7  18
ATOM     18  C   UNL A   1      30.482  22.627  26.233  1.00  0.00     0.232 C 
ATOM     19  F   UNL A   1      29.896  23.716  26.806  1.00  0.00    -0.250 F 
ENDBRANCH   7  18
ENDBRANCH   4   7
ENDBRANCH   2   3
ENDBRANCH   1   2
BRANCH   1  20
ATOM     20  C   UNL A   1      36.398  23.040  23.565  1.00  0.00     0.023 C 
BRANCH  20  21
ATOM     21  C   UNL A   1      37.167  23.534  24.787  1.00  0.00     0.116 C 
BRANCH  21  22
ATOM     22  N   UNL A   1      38.089  22.547  25.332  1.00  0.00    -0.352 N 
ATOM     23  C   UNL A   1      39.124  22.745  26.218  1.00  0.00     0.251 C 
ATOM     24  H   UNL A   1      37.955  21.621  25.028  1.00  0.00     0.163 HD
ATOM     25  O   UNL A   1      39.876  21.824  26.516  1.00  0.00    -0.269 OA
BRANCH  23  26
ATOM     26  C   UNL A   1      39.337  24.098  26.771  1.00  0.00     0.039 A 
ATOM     27  C   UNL A   1      38.867  24.389  28.054  1.00  0.00     0.014 A 
ATOM     28  C   UNL A   1      40.072  25.041  26.051  1.00  0.00     0.014 A 
ATOM     29  C   UNL A   1      39.218  25.599  28.656  1.00  0.00     0.010 A 
ATOM     30  C   UNL A   1      40.471  26.218  26.675  1.00  0.00     0.010 A 
ATOM     31  C   UNL A   1      40.061  26.501  27.989  1.00  0.00    -0.014 A 
BRANCH  31  32
ATOM     32  C   UNL A   1      40.558  27.739  28.639  1.00  0.00     0.031 A 
ATOM     33  C   UNL A   1      41.933  27.763  29.244  1.00  0.00     0.074 A 
ATOM     34  C   UNL A   1      39.735  28.797  28.785  1.00  0.00     0.049 A 
ATOM     35  N   UNL A   1      42.487  28.677  29.997  1.00  0.00    -0.248 NA
ATOM     36  C   UNL A   1      42.786  26.590  28.991  1.00  0.00     0.031 C 
ATOM     37  C   UNL A   1      38.365  28.887  28.275  1.00  0.00     0.029 A 
ATOM     38  N   UNL A   1      39.928  29.994  29.428  1.00  0.00    -0.354 N 
ATOM     39  C   UNL A   1      43.737  28.174  30.340  1.00  0.00     0.074 A 
ATOM     40  C   UNL A   1      43.847  26.864  29.736  1.00  0.00     0.031 C 
ATOM     41  C   UNL A   1      37.847  30.079  28.613  1.00  0.00     0.029 A 
ATOM     42  C   UNL A   1      38.827  30.819  29.402  1.00  0.00     0.049 A 
ATOM     43  H   UNL A   1      40.774  30.241  29.867  1.00  0.00     0.167 HD
ATOM     44  C   UNL A   1      44.708  28.755  31.085  1.00  0.00     0.031 A 
ATOM     45  C   UNL A   1      38.623  32.028  29.961  1.00  0.00     0.031 A 
ATOM     46  C   UNL A   1      44.607  30.068  31.661  1.00  0.00     0.049 A 
ATOM     47  C   UNL A   1      39.722  32.660  30.769  1.00  0.00     0.074 A 
ATOM     48  C   UNL A   1      45.558  30.764  32.386  1.00  0.00     0.029 A 
ATOM     49  N   UNL A   1      43.492  30.885  31.572  1.00  0.00    -0.354 N 
ATOM     50  N   UNL A   1      40.911  32.185  31.051  1.00  0.00    -0.248 NA
ATOM     51  C   UNL A   1      39.453  33.992  31.330  1.00  0.00     0.031 C 
ATOM     52  C   UNL A   1      45.006  31.995  32.760  1.00  0.00     0.029 A 
ATOM     53  C   UNL A   1      43.726  32.077  32.235  1.00  0.00     0.049 A 
ATOM     54  H   UNL A   1      42.655  30.653  31.106  1.00  0.00     0.167 HD
ATOM     55  C   UNL A   1      41.544  33.171  31.800  1.00  0.00     0.074 A 
ATOM     56  C   UNL A   1      40.607  34.270  31.924  1.00  0.00     0.031 C 
ATOM     57  C   UNL A   1      42.788  33.165  32.336  1.00  0.00     0.031 A 
BRANCH  44  58
ATOM     58  C   UNL A   1      45.963  27.961  31.319  1.00  0.00    -0.014 A 
ATOM     59  C   UNL A   1      46.082  27.107  32.431  1.00  0.00     0.010 A 
ATOM     60  C   UNL A   1      47.030  28.056  30.408  1.00  0.00     0.010 A 
ATOM     61  C   UNL A   1      47.266  26.400  32.654  1.00  0.00     0.020 A 
ATOM     62  C   UNL A   1      48.206  27.330  30.615  1.00  0.00     0.020 A 
ATOM     63  C   UNL A   1      48.324  26.523  31.749  1.00  0.00     0.054 A 
BRANCH  63  64
ATOM     64  S   UNL A   1      49.849  25.591  32.057  1.00  0.00     0.124 S 
ATOM     65  O   UNL A   1      50.157  25.073  30.727  1.00  0.00    -0.237 OA
ATOM     66  O   UNL A   1      50.760  26.617  32.556  1.00  0.00    -0.237 OA
ATOM     67  O   UNL A   1      49.448  24.587  33.040  1.00  0.00    -0.744 OA
ENDBRANCH  63  64
ENDBRANCH  44  58
BRANCH  45  68
ATOM     68  C   UNL A   1      37.323  32.725  29.768  1.00  0.00    -0.014 A 
ATOM     69  C   UNL A   1      36.317  32.628  30.744  1.00  0.00     0.010 A 
ATOM     70  C   UNL A   1      37.093  33.504  28.619  1.00  0.00     0.010 A 
ATOM     71  C   UNL A   1      35.096  33.286  30.569  1.00  0.00     0.020 A 
ATOM     72  C   UNL A   1      35.881  34.180  28.452  1.00  0.00     0.020 A 
ATOM     73  C   UNL A   1      34.886  34.059  29.424  1.00  0.00     0.054 A 
BRANCH  73  74
ATOM     74  S   UNL A   1      33.318  34.954  29.245  1.00  0.00     0.124 S 
ATOM     75  O   UNL A   1      33.767  36.261  28.780  1.00  0.00    -0.237 OA
ATOM     76  O   UNL A   1      32.598  34.145  28.265  1.00  0.00    -0.237 OA
ATOM     77  O   UNL A   1      32.757  34.926  30.595  1.00  0.00    -0.744 OA
ENDBRANCH  73  74
ENDBRANCH  45  68
BRANCH  57  78
ATOM     78  C   UNL A   1      43.233  34.397  33.072  1.00  0.00    -0.014 A 
ATOM     79  C   UNL A   1      43.906  35.436  32.406  1.00  0.00     0.010 A 
ATOM     80  C   UNL A   1      42.897  34.552  34.429  1.00  0.00     0.010 A 
ATOM     81  C   UNL A   1      44.246  36.606  33.090  1.00  0.00     0.020 A 
ATOM     82  C   UNL A   1      43.217  35.728  35.110  1.00  0.00     0.020 A 
ATOM     83  C   UNL A   1      43.896  36.745  34.437  1.00  0.00     0.054 A 
BRANCH  83  84
ATOM     84  S   UNL A   1      44.279  38.304  35.285  1.00  0.00     0.124 S 
ATOM     85  O   UNL A   1      43.758  38.056  36.626  1.00  0.00    -0.237 OA
ATOM     86  O   UNL A   1      45.734  38.381  35.179  1.00  0.00    -0.237 OA
ATOM     87  O   UNL A   1      43.551  39.305  34.508  1.00  0.00    -0.744 OA
ENDBRANCH  83  84
ENDBRANCH  57  78
ENDBRANCH  31  32
ENDBRANCH  23  26
ENDBRANCH  21  22
ENDBRANCH  20  21
ENDBRANCH   1  20
TORSDOF 18
ENDMDL
MODEL 2
REMARK VINA RESULT:      -9.6      3.155      9.150
REMARK SMILES CC(C)Cc1ccc([C@H](CF)C(=O)NCCCCNC(=O)c2ccc(-c3c4nc(c(-c5ccc(S(=O)(=O)[O-])cc5)c5ccc([nH]5)c(-c5ccc(S(=O)(=O)[O-])cc5)c5nc(c(-c6ccc(S(=O)(=O)[O-])cc6)c6ccc3[nH]6)C=C5)C=C4)cc2)cc1
REMARK SMILES IDX 16 1 15 2 14 3 12 4 13 5 9 7 8 8 5 9 6 10 83 11 7 12 82 13
REMARK SMILES IDX 4 14 2 15 1 16 3 17 10 18 11 19 17 20 18 21 19 22 20 23
REMARK SMILES IDX 21 25 22 26 23 27 81 28 24 29 80 30 25 31 26 32 27 33 74 34
REMARK SMILES IDX 28 35 79 36 73 37 75 38 29 39 78 40 72 41 71 42 30 44 60 45
REMARK SMILES IDX 41 46 59 47 42 48 45 49 58 50 76 51 43 52 44 53 57 55 77 56
REMARK SMILES IDX 46 57 31 58 32 59 40 60 33 61 39 62 34 63 35 64 36 65 37 66
REMARK SMILES IDX 38 67 61 68 62 69 70 70 63 71 69 72 64 73 65 74 66 75 67 76
REMARK SMILES IDX 68 77 47 78 48 79 56 80 49 81 55 82 50 83 51 84 52 85 53 86
REMARK SMILES IDX 54 87
REMARK H PARENT 14 6 19 24 75 43 45 54
REMARK Flexibility Score: inf
ROOT
ATOM      1  C   UNL A   1      31.677  28.016  26.626  1.00  0.00     0.023 C 
ENDROOT
BRANCH   1   2
ATOM      2  C   UNL A   1      31.389  26.546  26.337  1.00  0.00     0.116 C 
BRANCH   2   3
ATOM      3  N   UNL A   1      32.548  25.851  25.809  1.00  0.00    -0.355 N 
ATOM      4  C   UNL A   1      32.766  25.304  24.578  1.00  0.00     0.230 C 
ATOM      5  O   UNL A   1      33.886  24.837  24.352  1.00  0.00    -0.274 OA
ATOM      6  H   UNL A   1      33.299  25.760  26.439  1.00  0.00     0.163 HD
BRANCH   4   7
ATOM      7  C   UNL A   1      31.672  25.236  23.508  1.00  0.00     0.139 C 
BRANCH   7   8
ATOM      8  C   UNL A   1      31.080  26.608  23.206  1.00  0.00    -0.033 A 
ATOM      9  C   UNL A   1      30.165  29.268  22.932  1.00  0.00    -0.048 A 
ATOM     10  C   UNL A   1      31.501  28.950  22.676  1.00  0.00     0.004 A 
ATOM     11  C   UNL A   1      29.273  28.235  23.244  1.00  0.00     0.004 A 
ATOM     12  C   UNL A   1      31.954  27.638  22.818  1.00  0.00     0.005 A 
ATOM     13  C   UNL A   1      29.721  26.915  23.353  1.00  0.00     0.005 A 
BRANCH   9  14
ATOM     14  C   UNL A   1      29.709  30.707  22.939  1.00  0.00     0.038 C 
BRANCH  14  15
ATOM     15  C   UNL A   1      28.218  30.868  22.571  1.00  0.00    -0.013 C 
ATOM     16  C   UNL A   1      27.388  31.439  23.726  1.00  0.00     0.008 C 
ATOM     17  C   UNL A   1      28.078  31.777  21.348  1.00  0.00     0.008 C 
ENDBRANCH  14  15
ENDBRANCH   9  14
ENDBRANCH   7   8
BRANCH   7  18
ATOM     18  C   UNL A   1      30.729  24.087  23.851  1.00  0.00     0.232 C 
ATOM     19  F   UNL A   1      31.068  22.985  23.125  1.00  0.00    -0.250 F 
ENDBRANCH   7  18
ENDBRANCH   4   7
ENDBRANCH   2   3
ENDBRANCH   1   2
BRANCH   1  20
ATOM     20  C   UNL A   1      33.098  28.308  27.102  1.00  0.00     0.023 C 
BRANCH  20  21
ATOM     21  C   UNL A   1      33.821  29.428  26.358  1.00  0.00     0.116 C 
BRANCH  21  22
ATOM     22  N   UNL A   1      33.627  30.743  26.954  1.00  0.00    -0.352 N 
ATOM     23  C   UNL A   1      34.401  31.373  27.900  1.00  0.00     0.251 C 
ATOM     24  H   UNL A   1      32.840  31.245  26.639  1.00  0.00     0.163 HD
ATOM     25  O   UNL A   1      34.056  32.450  28.375  1.00  0.00    -0.269 OA
BRANCH  23  26
ATOM     26  C   UNL A   1      35.636  30.708  28.364  1.00  0.00     0.039 A 
ATOM     27  C   UNL A   1      36.870  31.159  27.889  1.00  0.00     0.014 A 
ATOM     28  C   UNL A   1      35.570  29.702  29.330  1.00  0.00     0.014 A 
ATOM     29  C   UNL A   1      38.047  30.663  28.453  1.00  0.00     0.010 A 
ATOM     30  C   UNL A   1      36.740  29.254  29.932  1.00  0.00     0.010 A 
ATOM     31  C   UNL A   1      37.989  29.743  29.512  1.00  0.00    -0.014 A 
BRANCH  31  32
ATOM     32  C   UNL A   1      39.209  29.284  30.221  1.00  0.00     0.031 A 
ATOM     33  C   UNL A   1      39.672  30.010  31.453  1.00  0.00     0.074 A 
ATOM     34  C   UNL A   1      39.958  28.294  29.697  1.00  0.00     0.049 A 
ATOM     35  N   UNL A   1      40.790  29.879  32.117  1.00  0.00    -0.248 NA
ATOM     36  C   UNL A   1      38.768  31.041  31.991  1.00  0.00     0.031 C 
ATOM     37  C   UNL A   1      39.638  27.533  28.488  1.00  0.00     0.029 A 
ATOM     38  N   UNL A   1      41.160  27.772  30.107  1.00  0.00    -0.354 N 
ATOM     39  C   UNL A   1      40.743  30.833  33.125  1.00  0.00     0.074 A 
ATOM     40  C   UNL A   1      39.499  31.555  32.969  1.00  0.00     0.031 C 
ATOM     41  C   UNL A   1      40.611  26.635  28.261  1.00  0.00     0.029 A 
ATOM     42  C   UNL A   1      41.645  26.785  29.281  1.00  0.00     0.049 A 
ATOM     43  H   UNL A   1      41.631  28.075  30.917  1.00  0.00     0.167 HD
ATOM     44  C   UNL A   1      41.651  31.081  34.099  1.00  0.00     0.031 A 
ATOM     45  C   UNL A   1      42.799  26.091  29.327  1.00  0.00     0.031 A 
ATOM     46  C   UNL A   1      42.874  30.346  34.270  1.00  0.00     0.049 A 
ATOM     47  C   UNL A   1      43.783  26.372  30.428  1.00  0.00     0.074 A 
ATOM     48  C   UNL A   1      43.832  30.487  35.259  1.00  0.00     0.029 A 
ATOM     49  N   UNL A   1      43.304  29.326  33.436  1.00  0.00    -0.354 N 
ATOM     50  N   UNL A   1      43.704  27.253  31.396  1.00  0.00    -0.248 NA
ATOM     51  C   UNL A   1      45.010  25.562  30.446  1.00  0.00     0.031 C 
ATOM     52  C   UNL A   1      44.857  29.569  35.006  1.00  0.00     0.029 A 
ATOM     53  C   UNL A   1      44.517  28.832  33.882  1.00  0.00     0.049 A 
ATOM     54  H   UNL A   1      42.819  29.000  32.644  1.00  0.00     0.167 HD
ATOM     55  C   UNL A   1      44.857  27.087  32.154  1.00  0.00     0.074 A 
ATOM     56  C   UNL A   1      45.615  26.018  31.535  1.00  0.00     0.031 C 
ATOM     57  C   UNL A   1      45.251  27.759  33.262  1.00  0.00     0.031 A 
BRANCH  44  58
ATOM     58  C   UNL A   1      41.349  32.205  35.052  1.00  0.00    -0.014 A 
ATOM     59  C   UNL A   1      40.746  31.955  36.298  1.00  0.00     0.010 A 
ATOM     60  C   UNL A   1      41.686  33.525  34.704  1.00  0.00     0.010 A 
ATOM     61  C   UNL A   1      40.442  33.012  37.159  1.00  0.00     0.020 A 
ATOM     62  C   UNL A   1      41.406  34.582  35.575  1.00  0.00     0.020 A 
ATOM     63  C   UNL A   1      40.766  34.320  36.788  1.00  0.00     0.054 A 
BRANCH  63  64
ATOM     64  S   UNL A   1      40.364  35.675  37.925  1.00  0.00     0.124 S 
ATOM     65  O   UNL A   1      39.901  36.710  37.003  1.00  0.00    -0.237 OA
ATOM     66  O   UNL A   1      39.335  35.089  38.778  1.00  0.00    -0.237 OA
ATOM     67  O   UNL A   1      41.634  35.956  38.589  1.00  0.00    -0.744 OA
ENDBRANCH  63  64
ENDBRANCH  44  58
BRANCH  45  68
ATOM     68  C   UNL A   1      43.081  25.052  28.301  1.00  0.00    -0.014 A 
ATOM     69  C   UNL A   1      43.784  25.386  27.132  1.00  0.00     0.010 A 
ATOM     70  C   UNL A   1      42.667  23.722  28.496  1.00  0.00     0.010 A 
ATOM     71  C   UNL A   1      44.057  24.412  26.167  1.00  0.00     0.020 A 
ATOM     72  C   UNL A   1      42.957  22.741  27.543  1.00  0.00     0.020 A 
ATOM     73  C   UNL A   1      43.641  23.095  26.379  1.00  0.00     0.054 A 
BRANCH  73  74
ATOM     74  S   UNL A   1      44.059  21.833  25.143  1.00  0.00     0.124 S 
ATOM     75  O   UNL A   1      43.040  20.819  25.390  1.00  0.00    -0.237 OA
ATOM     76  O   UNL A   1      43.933  22.565  23.885  1.00  0.00    -0.237 OA
ATOM     77  O   UNL A   1      45.425  21.452  25.497  1.00  0.00    -0.744 OA
ENDBRANCH  73  74
ENDBRANCH  45  68
BRANCH  57  78
ATOM     78  C   UNL A   1      46.540  27.337  33.909  1.00  0.00    -0.014 A 
ATOM     79  C   UNL A   1      46.567  26.316  34.875  1.00  0.00     0.010 A 
ATOM     80  C   UNL A   1      47.749  27.914  33.481  1.00  0.00     0.010 A 
ATOM     81  C   UNL A   1      47.783  25.886  35.410  1.00  0.00     0.020 A 
ATOM     82  C   UNL A   1      48.969  27.472  34.000  1.00  0.00     0.020 A 
ATOM     83  C   UNL A   1      48.977  26.465  34.967  1.00  0.00     0.054 A 
BRANCH  83  84
ATOM     84  S   UNL A   1      50.550  25.838  35.620  1.00  0.00     0.124 S 
ATOM     85  O   UNL A   1      51.362  25.739  34.411  1.00  0.00    -0.237 OA
ATOM     86  O   UNL A   1      50.948  26.881  36.561  1.00  0.00    -0.237 OA
ATOM     87  O   UNL A   1      50.184  24.563  36.232  1.00  0.00    -0.744 OA
ENDBRANCH  83  84
ENDBRANCH  57  78
ENDBRANCH  31  32
ENDBRANCH  23  26
ENDBRANCH  21  22
ENDBRANCH  20  21
ENDBRANCH   1  20
TORSDOF 18
ENDMDL
MODEL 3
REMARK VINA RESULT:      -9.6      3.301      7.819
REMARK SMILES CC(C)Cc1ccc([C@H](CF)C(=O)NCCCCNC(=O)c2ccc(-c3c4nc(c(-c5ccc(S(=O)(=O)[O-])cc5)c5ccc([nH]5)c(-c5ccc(S(=O)(=O)[O-])cc5)c5nc(c(-c6ccc(S(=O)(=O)[O-])cc6)c6ccc3[nH]6)C=C5)C=C4)cc2)cc1
REMARK SMILES IDX 16 1 15 2 14 3 12 4 13 5 9 7 8 8 5 9 6 10 83 11 7 12 82 13
REMARK SMILES IDX 4 14 2 15 1 16 3 17 10 18 11 19 17 20 18 21 19 22 20 23
REMARK SMILES IDX 21 25 22 26 23 27 81 28 24 29 80 30 25 31 26 32 27 33 74 34
REMARK SMILES IDX 28 35 79 36 73 37 75 38 29 39 78 40 72 41 71 42 30 44 60 45
REMARK SMILES IDX 41 46 59 47 42 48 45 49 58 50 76 51 43 52 44 53 57 55 77 56
REMARK SMILES IDX 46 57 31 58 32 59 40 60 33 61 39 62 34 63 35 64 36 65 37 66
REMARK SMILES IDX 38 67 61 68 62 69 70 70 63 71 69 72 64 73 65 74 66 75 67 76
REMARK SMILES IDX 68 77 47 78 48 79 56 80 49 81 55 82 50 83 51 84 52 85 53 86
REMARK SMILES IDX 54 87
REMARK H PARENT 14 6 19 24 75 43 45 54
REMARK Flexibility Score: inf
ROOT
ATOM      1  C   UNL A   1      31.924  27.756  26.327  1.00  0.00     0.023 C 
ENDROOT
BRANCH   1   2
ATOM      2  C   UNL A   1      31.696  26.434  25.598  1.00  0.00     0.116 C 
BRANCH   2   3
ATOM      3  N   UNL A   1      31.328  25.363  26.503  1.00  0.00    -0.355 N 
ATOM      4  C   UNL A   1      31.855  24.113  26.655  1.00  0.00     0.230 C 
ATOM      5  O   UNL A   1      31.408  23.413  27.569  1.00  0.00    -0.274 OA
ATOM      6  H   UNL A   1      30.577  25.570  27.105  1.00  0.00     0.163 HD
BRANCH   4   7
ATOM      7  C   UNL A   1      32.942  23.566  25.726  1.00  0.00     0.139 C 
BRANCH   7   8
ATOM      8  C   UNL A   1      32.723  22.094  25.393  1.00  0.00    -0.033 A 
ATOM      9  C   UNL A   1      32.674  19.335  24.781  1.00  0.00    -0.048 A 
ATOM     10  C   UNL A   1      33.063  19.771  26.050  1.00  0.00     0.004 A 
ATOM     11  C   UNL A   1      32.231  20.281  23.849  1.00  0.00     0.004 A 
ATOM     12  C   UNL A   1      33.093  21.133  26.350  1.00  0.00     0.005 A 
ATOM     13  C   UNL A   1      32.230  21.643  24.162  1.00  0.00     0.005 A 
BRANCH   9  14
ATOM     14  C   UNL A   1      32.796  17.879  24.403  1.00  0.00     0.038 C 
BRANCH  14  15
ATOM     15  C   UNL A   1      34.227  17.486  23.976  1.00  0.00    -0.013 C 
ATOM     16  C   UNL A   1      34.947  16.651  25.040  1.00  0.00     0.008 C 
ATOM     17  C   UNL A   1      34.182  16.704  22.661  1.00  0.00     0.008 C 
ENDBRANCH  14  15
ENDBRANCH   9  14
ENDBRANCH   7   8
BRANCH   7  18
ATOM     18  C   UNL A   1      34.302  24.005  26.258  1.00  0.00     0.232 C 
ATOM     19  F   UNL A   1      34.537  25.298  25.900  1.00  0.00    -0.250 F 
ENDBRANCH   7  18
ENDBRANCH   4   7
ENDBRANCH   2   3
ENDBRANCH   1   2
BRANCH   1  20
ATOM     20  C   UNL A   1      33.362  27.993  26.785  1.00  0.00     0.023 C 
BRANCH  20  21
ATOM     21  C   UNL A   1      34.039  29.229  26.199  1.00  0.00     0.116 C 
BRANCH  21  22
ATOM     22  N   UNL A   1      33.605  30.477  26.812  1.00  0.00    -0.352 N 
ATOM     23  C   UNL A   1      34.251  31.230  27.764  1.00  0.00     0.251 C 
ATOM     24  H   UNL A   1      32.736  30.826  26.505  1.00  0.00     0.163 HD
ATOM     25  O   UNL A   1      33.712  32.217  28.253  1.00  0.00    -0.269 OA
BRANCH  23  26
ATOM     26  C   UNL A   1      35.591  30.804  28.217  1.00  0.00     0.039 A 
ATOM     27  C   UNL A   1      36.693  31.614  27.934  1.00  0.00     0.014 A 
ATOM     28  C   UNL A   1      35.734  29.650  28.991  1.00  0.00     0.014 A 
ATOM     29  C   UNL A   1      37.931  31.316  28.509  1.00  0.00     0.010 A 
ATOM     30  C   UNL A   1      36.952  29.391  29.611  1.00  0.00     0.010 A 
ATOM     31  C   UNL A   1      38.057  30.230  29.389  1.00  0.00    -0.014 A 
BRANCH  31  32
ATOM     32  C   UNL A   1      39.320  29.952  30.117  1.00  0.00     0.031 A 
ATOM     33  C   UNL A   1      40.221  28.843  29.650  1.00  0.00     0.074 A 
ATOM     34  C   UNL A   1      39.599  30.617  31.255  1.00  0.00     0.049 A 
ATOM     35  N   UNL A   1      41.272  28.333  30.235  1.00  0.00    -0.248 NA
ATOM     36  C   UNL A   1      39.873  28.206  28.369  1.00  0.00     0.031 C 
ATOM     37  C   UNL A   1      38.789  31.691  31.835  1.00  0.00     0.029 A 
ATOM     38  N   UNL A   1      40.636  30.469  32.143  1.00  0.00    -0.354 N 
ATOM     39  C   UNL A   1      41.689  27.291  29.415  1.00  0.00     0.074 A 
ATOM     40  C   UNL A   1      40.761  27.225  28.307  1.00  0.00     0.031 C 
ATOM     41  C   UNL A   1      39.366  32.113  32.972  1.00  0.00     0.029 A 
ATOM     42  C   UNL A   1      40.559  31.312  33.228  1.00  0.00     0.049 A 
ATOM     43  H   UNL A   1      41.367  29.822  32.016  1.00  0.00     0.167 HD
ATOM     44  C   UNL A   1      42.755  26.468  29.568  1.00  0.00     0.031 A 
ATOM     45  C   UNL A   1      41.349  31.417  34.314  1.00  0.00     0.031 A 
ATOM     46  C   UNL A   1      43.691  26.553  30.655  1.00  0.00     0.049 A 
ATOM     47  C   UNL A   1      42.536  30.505  34.453  1.00  0.00     0.074 A 
ATOM     48  C   UNL A   1      44.832  25.799  30.868  1.00  0.00     0.029 A 
ATOM     49  N   UNL A   1      43.599  27.449  31.708  1.00  0.00    -0.354 N 
ATOM     50  N   UNL A   1      42.937  29.550  33.648  1.00  0.00    -0.248 NA
ATOM     51  C   UNL A   1      43.379  30.686  35.643  1.00  0.00     0.031 C 
ATOM     52  C   UNL A   1      45.416  26.222  32.067  1.00  0.00     0.029 A 
ATOM     53  C   UNL A   1      44.658  27.264  32.579  1.00  0.00     0.049 A 
ATOM     54  H   UNL A   1      42.886  28.119  31.820  1.00  0.00     0.167 HD
ATOM     55  C   UNL A   1      44.093  29.034  34.221  1.00  0.00     0.074 A 
ATOM     56  C   UNL A   1      44.331  29.785  35.437  1.00  0.00     0.031 C 
ATOM     57  C   UNL A   1      44.887  28.029  33.778  1.00  0.00     0.031 A 
BRANCH  44  58
ATOM     58  C   UNL A   1      42.953  25.400  28.529  1.00  0.00    -0.014 A 
ATOM     59  C   UNL A   1      43.772  25.625  27.407  1.00  0.00     0.010 A 
ATOM     60  C   UNL A   1      42.328  24.150  28.683  1.00  0.00     0.010 A 
ATOM     61  C   UNL A   1      43.922  24.635  26.433  1.00  0.00     0.020 A 
ATOM     62  C   UNL A   1      42.496  23.149  27.723  1.00  0.00     0.020 A 
ATOM     63  C   UNL A   1      43.276  23.406  26.593  1.00  0.00     0.054 A 
BRANCH  63  64
ATOM     64  S   UNL A   1      43.489  22.135  25.317  1.00  0.00     0.124 S 
ATOM     65  O   UNL A   1      44.818  21.616  25.631  1.00  0.00    -0.237 OA
ATOM     66  O   UNL A   1      42.380  21.221  25.581  1.00  0.00    -0.237 OA
ATOM     67  O   UNL A   1      43.391  22.882  24.065  1.00  0.00    -0.744 OA
ENDBRANCH  63  64
ENDBRANCH  44  58
BRANCH  45  68
ATOM     68  C   UNL A   1      41.047  32.436  35.355  1.00  0.00    -0.014 A 
ATOM     69  C   UNL A   1      41.525  33.750  35.217  1.00  0.00     0.010 A 
ATOM     70  C   UNL A   1      40.265  32.105  36.476  1.00  0.00     0.010 A 
ATOM     71  C   UNL A   1      41.239  34.714  36.188  1.00  0.00     0.020 A 
ATOM     72  C   UNL A   1      39.960  33.071  37.439  1.00  0.00     0.020 A 
ATOM     73  C   UNL A   1      40.457  34.367  37.294  1.00  0.00     0.054 A 
BRANCH  73  74
ATOM     74  S   UNL A   1      40.046  35.647  38.513  1.00  0.00     0.124 S 
ATOM     75  O   UNL A   1      41.248  35.676  39.338  1.00  0.00    -0.237 OA
ATOM     76  O   UNL A   1      39.823  36.825  37.678  1.00  0.00    -0.237 OA
ATOM     77  O   UNL A   1      38.848  35.121  39.165  1.00  0.00    -0.744 OA
ENDBRANCH  73  74
ENDBRANCH  45  68
BRANCH  57  78
ATOM     78  C   UNL A   1      46.112  27.704  34.583  1.00  0.00    -0.014 A 
ATOM     79  C   UNL A   1      46.086  26.707  35.573  1.00  0.00     0.010 A 
ATOM     80  C   UNL A   1      47.326  28.348  34.285  1.00  0.00     0.010 A 
ATOM     81  C   UNL A   1      47.253  26.366  36.260  1.00  0.00     0.020 A 
ATOM     82  C   UNL A   1      48.500  27.996  34.956  1.00  0.00     0.020 A 
ATOM     83  C   UNL A   1      48.454  27.011  35.945  1.00  0.00     0.054 A 
BRANCH  83  84
ATOM     84  S   UNL A   1      49.973  26.499  36.796  1.00  0.00     0.124 S 
ATOM     85  O   UNL A   1      49.654  26.793  38.190  1.00  0.00    -0.237 OA
ATOM     86  O   UNL A   1      50.071  25.082  36.459  1.00  0.00    -0.237 OA
ATOM     87  O   UNL A   1      51.003  27.347  36.200  1.00  0.00    -0.744 OA
ENDBRANCH  83  84
ENDBRANCH  57  78
ENDBRANCH  31  32
ENDBRANCH  23  26
ENDBRANCH  21  22
ENDBRANCH  20  21
ENDBRANCH   1  20
TORSDOF 18
ENDMDL
