MODEL 1
REMARK VINA RESULT:     -10.1      0.000      0.000
REMARK SMILES Cc1cscc1CNC(=O)N[C@](C)(C(=O)NCCCCNC(=O)c1ccc(-c2c3nc(c(-c4ccc(S(=O)(=O)[O-])cc4)c4ccc([nH]4)c(-c4ccc(S(=O)(=O)[O-])cc4)c4nc(c(-c5ccc(S(=O)(=O)[O-])cc5)c5ccc2[nH]5)C=C4)C=C3)cc1)C1CC1
REMARK SMILES IDX 18 1 17 2 16 3 14 4 15 5 12 7 13 8 11 9 8 10 9 11 10 13 7 15
REMARK SMILES IDX 6 16 1 17 2 18 3 19 4 20 5 21 84 22 85 23 86 24 19 25 20 26
REMARK SMILES IDX 21 27 22 28 23 30 24 31 25 32 83 33 26 34 82 35 27 36 28 37
REMARK SMILES IDX 29 38 76 39 30 40 81 41 75 42 77 43 31 44 80 45 74 46 73 47
REMARK SMILES IDX 32 49 62 50 43 51 61 52 44 53 47 54 60 55 78 56 45 57 46 58
REMARK SMILES IDX 59 60 79 61 48 62 33 63 34 64 42 65 35 66 41 67 36 68 37 69
REMARK SMILES IDX 38 70 39 71 40 72 63 73 64 74 72 75 65 76 71 77 66 78 67 79
REMARK SMILES IDX 68 80 69 81 70 82 49 83 50 84 58 85 51 86 57 87 52 88 53 89
REMARK SMILES IDX 54 90 55 91 56 92
REMARK H PARENT 16 6 8 12 11 14 21 29 77 48 47 59
REMARK Flexibility Score: inf
ROOT
ATOM      1  C   UNL A   1      32.520  29.202  24.582  1.00  0.00     0.023 C 
ENDROOT
BRANCH   1   2
ATOM      2  C   UNL A   1      31.750  28.520  23.446  1.00  0.00     0.116 C 
BRANCH   2   3
ATOM      3  N   UNL A   1      30.555  27.853  23.928  1.00  0.00    -0.354 N 
ATOM      4  C   UNL A   1      30.170  26.546  23.956  1.00  0.00     0.245 C 
ATOM      5  O   UNL A   1      28.944  26.398  23.977  1.00  0.00    -0.272 OA
ATOM      6  H   UNL A   1      29.889  28.467  24.312  1.00  0.00     0.163 HD
BRANCH   4   7
ATOM      7  C   UNL A   1      31.181  25.342  23.793  1.00  0.00     0.120 C 
ATOM      8  C   UNL A   1      30.323  24.117  23.420  1.00  0.00     0.046 C 
BRANCH   7   9
ATOM      9  N   UNL A   1      32.108  25.674  22.681  1.00  0.00    -0.324 N 
ATOM     10  N   UNL A   1      33.076  23.705  21.761  1.00  0.00    -0.334 N 
ATOM     11  C   UNL A   1      32.837  25.018  21.777  1.00  0.00     0.315 C 
ATOM     12  H   UNL A   1      33.350  23.379  20.873  1.00  0.00     0.165 HD
ATOM     13  O   UNL A   1      33.330  25.687  20.863  1.00  0.00    -0.249 OA
ATOM     14  H   UNL A   1      32.213  26.648  22.585  1.00  0.00     0.166 HD
BRANCH  10  15
ATOM     15  C   UNL A   1      33.024  22.656  22.750  1.00  0.00     0.154 C 
BRANCH  15  16
ATOM     16  C   UNL A   1      34.286  22.547  23.554  1.00  0.00    -0.015 A 
ATOM     17  C   UNL A   1      33.263  20.921  25.324  1.00  0.00     0.045 C 
ATOM     18  C   UNL A   1      34.388  21.721  24.744  1.00  0.00    -0.035 A 
ATOM     19  C   UNL A   1      35.669  21.734  25.261  1.00  0.00     0.068 A 
ATOM     20  S   UNL A   1      36.735  22.715  24.363  1.00  0.00    -0.152 S 
ATOM     21  C   UNL A   1      35.506  23.125  23.252  1.00  0.00     0.070 A 
ENDBRANCH  15  16
ENDBRANCH  10  15
ENDBRANCH   7   9
BRANCH   7  22
ATOM     22  C   UNL A   1      32.055  25.133  25.045  1.00  0.00     0.024 C 
ATOM     23  C   UNL A   1      31.833  25.601  26.472  1.00  0.00     0.007 C 
ATOM     24  C   UNL A   1      31.608  24.165  26.126  1.00  0.00     0.007 C 
ENDBRANCH   7  22
ENDBRANCH   4   7
ENDBRANCH   2   3
ENDBRANCH   1   2
BRANCH   1  25
ATOM     25  C   UNL A   1      33.745  28.447  25.115  1.00  0.00     0.023 C 
BRANCH  25  26
ATOM     26  C   UNL A   1      34.408  29.027  26.361  1.00  0.00     0.116 C 
BRANCH  26  27
ATOM     27  N   UNL A   1      33.897  30.335  26.728  1.00  0.00    -0.352 N 
ATOM     28  C   UNL A   1      34.365  31.217  27.677  1.00  0.00     0.251 C 
ATOM     29  H   UNL A   1      33.104  30.634  26.227  1.00  0.00     0.163 HD
ATOM     30  O   UNL A   1      33.736  32.236  27.920  1.00  0.00    -0.269 OA
BRANCH  28  31
ATOM     31  C   UNL A   1      35.607  30.910  28.428  1.00  0.00     0.039 A 
ATOM     32  C   UNL A   1      35.565  29.919  29.413  1.00  0.00     0.014 A 
ATOM     33  C   UNL A   1      36.802  31.587  28.167  1.00  0.00     0.014 A 
ATOM     34  C   UNL A   1      36.736  29.561  30.089  1.00  0.00     0.010 A 
ATOM     35  C   UNL A   1      37.980  31.182  28.795  1.00  0.00     0.010 A 
ATOM     36  C   UNL A   1      37.960  30.165  29.761  1.00  0.00    -0.014 A 
BRANCH  36  37
ATOM     37  C   UNL A   1      39.229  29.734  30.409  1.00  0.00     0.031 A 
ATOM     38  C   UNL A   1      39.754  30.465  31.615  1.00  0.00     0.074 A 
ATOM     39  C   UNL A   1      39.941  28.723  29.872  1.00  0.00     0.049 A 
ATOM     40  N   UNL A   1      40.863  30.266  32.281  1.00  0.00    -0.248 NA
ATOM     41  C   UNL A   1      38.939  31.578  32.125  1.00  0.00     0.031 C 
ATOM     42  C   UNL A   1      39.564  27.960  28.681  1.00  0.00     0.029 A 
ATOM     43  N   UNL A   1      41.137  28.167  30.256  1.00  0.00    -0.354 N 
ATOM     44  C   UNL A   1      40.888  31.238  33.275  1.00  0.00     0.074 A 
ATOM     45  C   UNL A   1      39.707  32.055  33.094  1.00  0.00     0.031 C 
ATOM     46  C   UNL A   1      40.495  27.021  28.446  1.00  0.00     0.029 A 
ATOM     47  C   UNL A   1      41.555  27.139  29.443  1.00  0.00     0.049 A 
ATOM     48  H   UNL A   1      41.648  28.475  31.038  1.00  0.00     0.167 HD
ATOM     49  C   UNL A   1      41.801  31.426  34.258  1.00  0.00     0.031 A 
ATOM     50  C   UNL A   1      42.666  26.379  29.488  1.00  0.00     0.031 A 
ATOM     51  C   UNL A   1      42.971  30.608  34.440  1.00  0.00     0.049 A 
ATOM     52  C   UNL A   1      43.668  26.608  30.587  1.00  0.00     0.074 A 
ATOM     53  C   UNL A   1      43.925  30.681  35.441  1.00  0.00     0.029 A 
ATOM     54  N   UNL A   1      43.351  29.570  33.603  1.00  0.00    -0.354 N 
ATOM     55  N   UNL A   1      43.640  27.490  31.557  1.00  0.00    -0.248 NA
ATOM     56  C   UNL A   1      44.848  25.731  30.602  1.00  0.00     0.031 C 
ATOM     57  C   UNL A   1      44.908  29.722  35.180  1.00  0.00     0.029 A 
ATOM     58  C   UNL A   1      44.538  29.010  34.050  1.00  0.00     0.049 A 
ATOM     59  H   UNL A   1      42.852  29.274  32.808  1.00  0.00     0.167 HD
ATOM     60  C   UNL A   1      44.782  27.256  32.315  1.00  0.00     0.074 A 
ATOM     61  C   UNL A   1      45.473  26.142  31.697  1.00  0.00     0.031 C 
ATOM     62  C   UNL A   1      45.218  27.904  33.424  1.00  0.00     0.031 A 
BRANCH  49  63
ATOM     63  C   UNL A   1      41.571  32.571  35.210  1.00  0.00    -0.014 A 
ATOM     64  C   UNL A   1      40.789  32.409  36.369  1.00  0.00     0.010 A 
ATOM     65  C   UNL A   1      42.168  33.820  34.959  1.00  0.00     0.010 A 
ATOM     66  C   UNL A   1      40.566  33.487  37.230  1.00  0.00     0.020 A 
ATOM     67  C   UNL A   1      41.973  34.893  35.835  1.00  0.00     0.020 A 
ATOM     68  C   UNL A   1      41.156  34.724  36.955  1.00  0.00     0.054 A 
BRANCH  68  69
ATOM     69  S   UNL A   1      40.857  36.103  38.094  1.00  0.00     0.124 S 
ATOM     70  O   UNL A   1      39.734  36.784  37.454  1.00  0.00    -0.237 OA
ATOM     71  O   UNL A   1      40.546  35.421  39.348  1.00  0.00    -0.237 OA
ATOM     72  O   UNL A   1      42.118  36.840  38.086  1.00  0.00    -0.744 OA
ENDBRANCH  68  69
ENDBRANCH  49  63
BRANCH  50  73
ATOM     73  C   UNL A   1      42.879  25.317  28.468  1.00  0.00    -0.014 A 
ATOM     74  C   UNL A   1      42.362  24.024  28.666  1.00  0.00     0.010 A 
ATOM     75  C   UNL A   1      43.579  25.598  27.281  1.00  0.00     0.010 A 
ATOM     76  C   UNL A   1      42.552  23.028  27.703  1.00  0.00     0.020 A 
ATOM     77  C   UNL A   1      43.748  24.613  26.303  1.00  0.00     0.020 A 
ATOM     78  C   UNL A   1      43.241  23.331  26.525  1.00  0.00     0.054 A 
BRANCH  78  79
ATOM     79  S   UNL A   1      43.421  22.041  25.261  1.00  0.00     0.124 S 
ATOM     80  O   UNL A   1      42.255  21.201  25.517  1.00  0.00    -0.237 OA
ATOM     81  O   UNL A   1      43.388  22.809  24.019  1.00  0.00    -0.237 OA
ATOM     82  O   UNL A   1      44.713  21.433  25.574  1.00  0.00    -0.744 OA
ENDBRANCH  78  79
ENDBRANCH  50  73
BRANCH  62  83
ATOM     83  C   UNL A   1      46.486  27.407  34.065  1.00  0.00    -0.014 A 
ATOM     84  C   UNL A   1      47.740  27.927  33.701  1.00  0.00     0.010 A 
ATOM     85  C   UNL A   1      46.414  26.443  35.086  1.00  0.00     0.010 A 
ATOM     86  C   UNL A   1      48.903  27.470  34.327  1.00  0.00     0.020 A 
ATOM     87  C   UNL A   1      47.572  26.002  35.734  1.00  0.00     0.020 A 
ATOM     88  C   UNL A   1      48.811  26.509  35.340  1.00  0.00     0.054 A 
BRANCH  88  89
ATOM     89  S   UNL A   1      50.330  25.963  36.166  1.00  0.00     0.124 S 
ATOM     90  O   UNL A   1      51.329  26.146  35.117  1.00  0.00    -0.237 OA
ATOM     91  O   UNL A   1      50.430  26.882  37.297  1.00  0.00    -0.237 OA
ATOM     92  O   UNL A   1      50.050  24.574  36.524  1.00  0.00    -0.744 OA
ENDBRANCH  88  89
ENDBRANCH  62  83
ENDBRANCH  36  37
ENDBRANCH  28  31
ENDBRANCH  26  27
ENDBRANCH  25  26
ENDBRANCH   1  25
TORSDOF 18
ENDMDL
MODEL 2
REMARK VINA RESULT:     -10.0      5.034      6.180
REMARK SMILES Cc1cscc1CNC(=O)N[C@](C)(C(=O)NCCCCNC(=O)c1ccc(-c2c3nc(c(-c4ccc(S(=O)(=O)[O-])cc4)c4ccc([nH]4)c(-c4ccc(S(=O)(=O)[O-])cc4)c4nc(c(-c5ccc(S(=O)(=O)[O-])cc5)c5ccc2[nH]5)C=C4)C=C3)cc1)C1CC1
REMARK SMILES IDX 18 1 17 2 16 3 14 4 15 5 12 7 13 8 11 9 8 10 9 11 10 13 7 15
REMARK SMILES IDX 6 16 1 17 2 18 3 19 4 20 5 21 84 22 85 23 86 24 19 25 20 26
REMARK SMILES IDX 21 27 22 28 23 30 24 31 25 32 83 33 26 34 82 35 27 36 28 37
REMARK SMILES IDX 29 38 76 39 30 40 81 41 75 42 77 43 31 44 80 45 74 46 73 47
REMARK SMILES IDX 32 49 62 50 43 51 61 52 44 53 47 54 60 55 78 56 45 57 46 58
REMARK SMILES IDX 59 60 79 61 48 62 33 63 34 64 42 65 35 66 41 67 36 68 37 69
REMARK SMILES IDX 38 70 39 71 40 72 63 73 64 74 72 75 65 76 71 77 66 78 67 79
REMARK SMILES IDX 68 80 69 81 70 82 49 83 50 84 58 85 51 86 57 87 52 88 53 89
REMARK SMILES IDX 54 90 55 91 56 92
REMARK H PARENT 16 6 8 12 11 14 21 29 77 48 47 59
REMARK Flexibility Score: inf
ROOT
ATOM      1  C   UNL A   1      34.359  28.641  26.354  1.00  0.00     0.023 C 
ENDROOT
BRANCH   1   2
ATOM      2  C   UNL A   1      33.884  28.983  24.937  1.00  0.00     0.116 C 
BRANCH   2   3
ATOM      3  N   UNL A   1      32.494  29.397  24.919  1.00  0.00    -0.354 N 
ATOM      4  C   UNL A   1      31.364  28.829  24.412  1.00  0.00     0.245 C 
ATOM      5  O   UNL A   1      30.480  29.652  24.150  1.00  0.00    -0.272 OA
ATOM      6  H   UNL A   1      32.335  30.261  25.363  1.00  0.00     0.163 HD
BRANCH   4   7
ATOM      7  C   UNL A   1      31.260  27.300  24.028  1.00  0.00     0.120 C 
ATOM      8  C   UNL A   1      29.887  27.126  23.349  1.00  0.00     0.046 C 
BRANCH   7   9
ATOM      9  N   UNL A   1      32.348  26.998  23.065  1.00  0.00    -0.324 N 
ATOM     10  N   UNL A   1      32.142  24.788  22.208  1.00  0.00    -0.334 N 
ATOM     11  C   UNL A   1      32.689  26.004  22.242  1.00  0.00     0.315 C 
ATOM     12  H   UNL A   1      32.297  24.324  21.353  1.00  0.00     0.165 HD
ATOM     13  O   UNL A   1      33.590  26.235  21.429  1.00  0.00    -0.249 OA
ATOM     14  H   UNL A   1      32.999  27.736  23.020  1.00  0.00     0.166 HD
BRANCH  10  15
ATOM     15  C   UNL A   1      31.376  23.999  23.142  1.00  0.00     0.154 C 
BRANCH  15  16
ATOM     16  C   UNL A   1      32.206  22.986  23.872  1.00  0.00    -0.015 A 
ATOM     17  C   UNL A   1      31.914  21.131  22.056  1.00  0.00     0.045 C 
ATOM     18  C   UNL A   1      32.462  21.657  23.346  1.00  0.00    -0.035 A 
ATOM     19  C   UNL A   1      33.310  20.941  24.169  1.00  0.00     0.068 A 
ATOM     20  S   UNL A   1      33.789  21.819  25.550  1.00  0.00    -0.152 S 
ATOM     21  C   UNL A   1      32.886  23.183  25.061  1.00  0.00     0.070 A 
ENDBRANCH  15  16
ENDBRANCH  10  15
ENDBRANCH   7   9
BRANCH   7  22
ATOM     22  C   UNL A   1      31.478  26.372  25.239  1.00  0.00     0.024 C 
ATOM     23  C   UNL A   1      31.304  26.654  26.722  1.00  0.00     0.007 C 
ATOM     24  C   UNL A   1      30.282  25.834  26.005  1.00  0.00     0.007 C 
ENDBRANCH   7  22
ENDBRANCH   4   7
ENDBRANCH   2   3
ENDBRANCH   1   2
BRANCH   1  25
ATOM     25  C   UNL A   1      34.552  29.829  27.306  1.00  0.00     0.023 C 
BRANCH  25  26
ATOM     26  C   UNL A   1      35.354  29.555  28.575  1.00  0.00     0.116 C 
BRANCH  26  27
ATOM     27  N   UNL A   1      35.512  30.726  29.418  1.00  0.00    -0.352 N 
ATOM     28  C   UNL A   1      36.658  31.249  29.976  1.00  0.00     0.251 C 
ATOM     29  H   UNL A   1      34.682  31.216  29.621  1.00  0.00     0.163 HD
ATOM     30  O   UNL A   1      36.581  32.189  30.751  1.00  0.00    -0.269 OA
BRANCH  28  31
ATOM     31  C   UNL A   1      37.978  30.646  29.665  1.00  0.00     0.039 A 
ATOM     32  C   UNL A   1      38.273  30.336  28.334  1.00  0.00     0.014 A 
ATOM     33  C   UNL A   1      38.916  30.387  30.667  1.00  0.00     0.014 A 
ATOM     34  C   UNL A   1      39.533  29.831  28.000  1.00  0.00     0.010 A 
ATOM     35  C   UNL A   1      40.194  29.946  30.325  1.00  0.00     0.010 A 
ATOM     36  C   UNL A   1      40.517  29.664  28.988  1.00  0.00    -0.014 A 
BRANCH  36  37
ATOM     37  C   UNL A   1      41.890  29.210  28.639  1.00  0.00     0.031 A 
ATOM     38  C   UNL A   1      43.029  30.193  28.595  1.00  0.00     0.074 A 
ATOM     39  C   UNL A   1      42.100  27.923  28.298  1.00  0.00     0.049 A 
ATOM     40  N   UNL A   1      44.279  29.993  28.265  1.00  0.00    -0.248 NA
ATOM     41  C   UNL A   1      42.718  31.587  28.949  1.00  0.00     0.031 C 
ATOM     42  C   UNL A   1      41.074  26.878  28.258  1.00  0.00     0.029 A 
ATOM     43  N   UNL A   1      43.247  27.273  27.912  1.00  0.00    -0.354 N 
ATOM     44  C   UNL A   1      44.899  31.234  28.351  1.00  0.00     0.074 A 
ATOM     45  C   UNL A   1      43.876  32.190  28.720  1.00  0.00     0.031 C 
ATOM     46  C   UNL A   1      41.641  25.717  27.894  1.00  0.00     0.029 A 
ATOM     47  C   UNL A   1      43.061  25.939  27.636  1.00  0.00     0.049 A 
ATOM     48  H   UNL A   1      44.120  27.721  27.839  1.00  0.00     0.167 HD
ATOM     49  C   UNL A   1      46.202  31.550  28.158  1.00  0.00     0.031 A 
ATOM     50  C   UNL A   1      43.930  24.999  27.217  1.00  0.00     0.031 A 
ATOM     51  C   UNL A   1      47.219  30.597  27.798  1.00  0.00     0.049 A 
ATOM     52  C   UNL A   1      45.371  25.373  27.004  1.00  0.00     0.074 A 
ATOM     53  C   UNL A   1      48.578  30.808  27.636  1.00  0.00     0.029 A 
ATOM     54  N   UNL A   1      46.991  29.254  27.540  1.00  0.00    -0.354 N 
ATOM     55  N   UNL A   1      45.951  26.540  27.157  1.00  0.00    -0.248 NA
ATOM     56  C   UNL A   1      46.279  24.300  26.573  1.00  0.00     0.031 C 
ATOM     57  C   UNL A   1      49.162  29.605  27.230  1.00  0.00     0.029 A 
ATOM     58  C   UNL A   1      48.179  28.629  27.197  1.00  0.00     0.049 A 
ATOM     59  H   UNL A   1      46.114  28.809  27.593  1.00  0.00     0.167 HD
ATOM     60  C   UNL A   1      47.295  26.336  26.868  1.00  0.00     0.074 A 
ATOM     61  C   UNL A   1      47.445  24.931  26.544  1.00  0.00     0.031 C 
ATOM     62  C   UNL A   1      48.314  27.231  26.873  1.00  0.00     0.031 A 
BRANCH  49  63
ATOM     63  C   UNL A   1      46.599  32.994  28.323  1.00  0.00    -0.014 A 
ATOM     64  C   UNL A   1      46.326  33.943  27.321  1.00  0.00     0.010 A 
ATOM     65  C   UNL A   1      47.229  33.416  29.509  1.00  0.00     0.010 A 
ATOM     66  C   UNL A   1      46.720  35.275  27.478  1.00  0.00     0.020 A 
ATOM     67  C   UNL A   1      47.598  34.753  29.683  1.00  0.00     0.020 A 
ATOM     68  C   UNL A   1      47.358  35.671  28.657  1.00  0.00     0.054 A 
BRANCH  68  69
ATOM     69  S   UNL A   1      47.852  37.406  28.838  1.00  0.00     0.124 S 
ATOM     70  O   UNL A   1      46.713  37.969  29.561  1.00  0.00    -0.237 OA
ATOM     71  O   UNL A   1      49.093  37.309  29.602  1.00  0.00    -0.237 OA
ATOM     72  O   UNL A   1      48.006  37.869  27.462  1.00  0.00    -0.744 OA
ENDBRANCH  68  69
ENDBRANCH  49  63
BRANCH  50  73
ATOM     73  C   UNL A   1      43.460  23.605  26.988  1.00  0.00    -0.014 A 
ATOM     74  C   UNL A   1      43.178  22.760  28.077  1.00  0.00     0.010 A 
ATOM     75  C   UNL A   1      43.268  23.123  25.681  1.00  0.00     0.010 A 
ATOM     76  C   UNL A   1      42.726  21.454  27.863  1.00  0.00     0.020 A 
ATOM     77  C   UNL A   1      42.790  21.827  25.463  1.00  0.00     0.020 A 
ATOM     78  C   UNL A   1      42.531  20.997  26.556  1.00  0.00     0.054 A 
BRANCH  78  79
ATOM     79  S   UNL A   1      41.883  19.321  26.304  1.00  0.00     0.124 S 
ATOM     80  O   UNL A   1      40.445  19.560  26.228  1.00  0.00    -0.237 OA
ATOM     81  O   UNL A   1      42.526  18.918  25.055  1.00  0.00    -0.237 OA
ATOM     82  O   UNL A   1      42.336  18.597  27.490  1.00  0.00    -0.744 OA
ENDBRANCH  78  79
ENDBRANCH  50  73
BRANCH  62  83
ATOM     83  C   UNL A   1      49.692  26.716  26.550  1.00  0.00    -0.014 A 
ATOM     84  C   UNL A   1      50.511  26.150  27.542  1.00  0.00     0.010 A 
ATOM     85  C   UNL A   1      50.150  26.752  25.220  1.00  0.00     0.010 A 
ATOM     86  C   UNL A   1      51.777  25.655  27.214  1.00  0.00     0.020 A 
ATOM     87  C   UNL A   1      51.404  26.234  24.884  1.00  0.00     0.020 A 
ATOM     88  C   UNL A   1      52.216  25.701  25.887  1.00  0.00     0.054 A 
BRANCH  88  89
ATOM     89  S   UNL A   1      53.844  25.014  25.481  1.00  0.00     0.124 S 
ATOM     90  O   UNL A   1      53.542  23.595  25.315  1.00  0.00    -0.237 OA
ATOM     91  O   UNL A   1      54.199  25.728  24.257  1.00  0.00    -0.237 OA
ATOM     92  O   UNL A   1      54.660  25.345  26.647  1.00  0.00    -0.744 OA
ENDBRANCH  88  89
ENDBRANCH  62  83
ENDBRANCH  36  37
ENDBRANCH  28  31
ENDBRANCH  26  27
ENDBRANCH  25  26
ENDBRANCH   1  25
TORSDOF 18
ENDMDL
MODEL 3
REMARK VINA RESULT:      -9.9      2.619      3.471
REMARK SMILES Cc1cscc1CNC(=O)N[C@](C)(C(=O)NCCCCNC(=O)c1ccc(-c2c3nc(c(-c4ccc(S(=O)(=O)[O-])cc4)c4ccc([nH]4)c(-c4ccc(S(=O)(=O)[O-])cc4)c4nc(c(-c5ccc(S(=O)(=O)[O-])cc5)c5ccc2[nH]5)C=C4)C=C3)cc1)C1CC1
REMARK SMILES IDX 18 1 17 2 16 3 14 4 15 5 12 7 13 8 11 9 8 10 9 11 10 13 7 15
REMARK SMILES IDX 6 16 1 17 2 18 3 19 4 20 5 21 84 22 85 23 86 24 19 25 20 26
REMARK SMILES IDX 21 27 22 28 23 30 24 31 25 32 83 33 26 34 82 35 27 36 28 37
REMARK SMILES IDX 29 38 76 39 30 40 81 41 75 42 77 43 31 44 80 45 74 46 73 47
REMARK SMILES IDX 32 49 62 50 43 51 61 52 44 53 47 54 60 55 78 56 45 57 46 58
REMARK SMILES IDX 59 60 79 61 48 62 33 63 34 64 42 65 35 66 41 67 36 68 37 69
REMARK SMILES IDX 38 70 39 71 40 72 63 73 64 74 72 75 65 76 71 77 66 78 67 79
REMARK SMILES IDX 68 80 69 81 70 82 49 83 50 84 58 85 51 86 57 87 52 88 53 89
REMARK SMILES IDX 54 90 55 91 56 92
REMARK H PARENT 16 6 8 12 11 14 21 29 77 48 47 59
REMARK Flexibility Score: inf
ROOT
ATOM      1  C   UNL A   1      32.423  26.943  25.626  1.00  0.00     0.023 C 
ENDROOT
BRANCH   1   2
ATOM      2  C   UNL A   1      31.323  25.877  25.602  1.00  0.00     0.116 C 
BRANCH   2   3
ATOM      3  N   UNL A   1      31.816  24.583  26.033  1.00  0.00    -0.354 N 
ATOM      4  C   UNL A   1      31.964  23.387  25.396  1.00  0.00     0.245 C 
ATOM      5  O   UNL A   1      31.943  22.419  26.164  1.00  0.00    -0.272 OA
ATOM      6  H   UNL A   1      32.102  24.565  26.975  1.00  0.00     0.163 HD
BRANCH   4   7
ATOM      7  C   UNL A   1      31.976  23.240  23.823  1.00  0.00     0.120 C 
ATOM      8  C   UNL A   1      30.503  23.336  23.378  1.00  0.00     0.046 C 
BRANCH   7   9
ATOM      9  N   UNL A   1      32.753  24.375  23.266  1.00  0.00    -0.324 N 
ATOM     10  N   UNL A   1      34.999  24.339  24.052  1.00  0.00    -0.334 N 
ATOM     11  C   UNL A   1      34.016  24.805  23.279  1.00  0.00     0.315 C 
ATOM     12  H   UNL A   1      35.894  24.550  23.699  1.00  0.00     0.165 HD
ATOM     13  O   UNL A   1      34.306  25.714  22.494  1.00  0.00    -0.249 OA
ATOM     14  H   UNL A   1      32.177  24.978  22.742  1.00  0.00     0.166 HD
BRANCH  10  15
ATOM     15  C   UNL A   1      35.046  23.596  25.287  1.00  0.00     0.154 C 
BRANCH  15  16
ATOM     16  C   UNL A   1      36.416  23.077  25.607  1.00  0.00    -0.015 A 
ATOM     17  C   UNL A   1      35.873  20.618  24.915  1.00  0.00     0.045 C 
ATOM     18  C   UNL A   1      36.793  21.688  25.414  1.00  0.00    -0.035 A 
ATOM     19  C   UNL A   1      38.125  21.479  25.713  1.00  0.00     0.068 A 
ATOM     20  S   UNL A   1      38.919  22.897  26.227  1.00  0.00    -0.152 S 
ATOM     21  C   UNL A   1      37.499  23.824  26.037  1.00  0.00     0.070 A 
ENDBRANCH  15  16
ENDBRANCH  10  15
ENDBRANCH   7   9
BRANCH   7  22
ATOM     22  C   UNL A   1      32.685  21.953  23.357  1.00  0.00     0.024 C 
ATOM     23  C   UNL A   1      32.307  20.500  23.585  1.00  0.00     0.007 C 
ATOM     24  C   UNL A   1      32.079  21.117  22.244  1.00  0.00     0.007 C 
ENDBRANCH   7  22
ENDBRANCH   4   7
ENDBRANCH   2   3
ENDBRANCH   1   2
BRANCH   1  25
ATOM     25  C   UNL A   1      32.368  27.945  26.787  1.00  0.00     0.023 C 
BRANCH  25  26
ATOM     26  C   UNL A   1      33.701  28.542  27.230  1.00  0.00     0.116 C 
BRANCH  26  27
ATOM     27  N   UNL A   1      33.606  29.940  27.609  1.00  0.00    -0.352 N 
ATOM     28  C   UNL A   1      34.544  30.740  28.224  1.00  0.00     0.251 C 
ATOM     29  H   UNL A   1      32.750  30.378  27.398  1.00  0.00     0.163 HD
ATOM     30  O   UNL A   1      34.244  31.875  28.562  1.00  0.00    -0.269 OA
BRANCH  28  31
ATOM     31  C   UNL A   1      35.901  30.211  28.506  1.00  0.00     0.039 A 
ATOM     32  C   UNL A   1      36.859  30.252  27.488  1.00  0.00     0.014 A 
ATOM     33  C   UNL A   1      36.232  29.682  29.757  1.00  0.00     0.014 A 
ATOM     34  C   UNL A   1      38.165  29.824  27.746  1.00  0.00     0.010 A 
ATOM     35  C   UNL A   1      37.550  29.319  30.030  1.00  0.00     0.010 A 
ATOM     36  C   UNL A   1      38.531  29.386  29.029  1.00  0.00    -0.014 A 
BRANCH  36  37
ATOM     37  C   UNL A   1      39.936  29.011  29.343  1.00  0.00     0.031 A 
ATOM     38  C   UNL A   1      40.861  30.001  29.998  1.00  0.00     0.074 A 
ATOM     39  C   UNL A   1      40.398  27.797  28.980  1.00  0.00     0.049 A 
ATOM     40  N   UNL A   1      42.127  29.870  30.301  1.00  0.00    -0.248 NA
ATOM     41  C   UNL A   1      40.295  31.316  30.336  1.00  0.00     0.031 C 
ATOM     42  C   UNL A   1      39.617  26.761  28.300  1.00  0.00     0.029 A 
ATOM     43  N   UNL A   1      41.641  27.231  29.124  1.00  0.00    -0.354 N 
ATOM     44  C   UNL A   1      42.514  31.089  30.847  1.00  0.00     0.074 A 
ATOM     45  C   UNL A   1      41.360  31.961  30.789  1.00  0.00     0.031 C 
ATOM     46  C   UNL A   1      40.390  25.679  28.111  1.00  0.00     0.029 A 
ATOM     47  C   UNL A   1      41.731  25.956  28.616  1.00  0.00     0.049 A 
ATOM     48  H   UNL A   1      42.397  27.695  29.551  1.00  0.00     0.167 HD
ATOM     49  C   UNL A   1      43.714  31.447  31.364  1.00  0.00     0.031 A 
ATOM     50  C   UNL A   1      42.774  25.106  28.557  1.00  0.00     0.031 A 
ATOM     51  C   UNL A   1      44.858  30.576  31.427  1.00  0.00     0.049 A 
ATOM     52  C   UNL A   1      44.099  25.526  29.134  1.00  0.00     0.074 A 
ATOM     53  C   UNL A   1      46.101  30.826  31.985  1.00  0.00     0.029 A 
ATOM     54  N   UNL A   1      44.904  29.289  30.913  1.00  0.00    -0.354 N 
ATOM     55  N   UNL A   1      44.425  26.660  29.707  1.00  0.00    -0.248 NA
ATOM     56  C   UNL A   1      45.193  24.547  29.066  1.00  0.00     0.031 C 
ATOM     57  C   UNL A   1      46.913  29.710  31.761  1.00  0.00     0.029 A 
ATOM     58  C   UNL A   1      46.160  28.741  31.118  1.00  0.00     0.049 A 
ATOM     59  H   UNL A   1      44.155  28.832  30.467  1.00  0.00     0.167 HD
ATOM     60  C   UNL A   1      45.754  26.520  30.092  1.00  0.00     0.074 A 
ATOM     61  C   UNL A   1      46.166  25.188  29.699  1.00  0.00     0.031 C 
ATOM     62  C   UNL A   1      46.559  27.414  30.718  1.00  0.00     0.031 A 
BRANCH  49  63
ATOM     63  C   UNL A   1      43.851  32.850  31.896  1.00  0.00    -0.014 A 
ATOM     64  C   UNL A   1      44.238  33.911  31.057  1.00  0.00     0.010 A 
ATOM     65  C   UNL A   1      43.563  33.118  33.246  1.00  0.00     0.010 A 
ATOM     66  C   UNL A   1      44.383  35.204  31.568  1.00  0.00     0.020 A 
ATOM     67  C   UNL A   1      43.677  34.416  33.755  1.00  0.00     0.020 A 
ATOM     68  C   UNL A   1      44.106  35.447  32.917  1.00  0.00     0.054 A 
BRANCH  68  69
ATOM     69  S   UNL A   1      44.295  37.135  33.553  1.00  0.00     0.124 S 
ATOM     70  O   UNL A   1      45.139  36.921  34.727  1.00  0.00    -0.237 OA
ATOM     71  O   UNL A   1      44.935  37.828  32.438  1.00  0.00    -0.237 OA
ATOM     72  O   UNL A   1      42.925  37.553  33.839  1.00  0.00    -0.744 OA
ENDBRANCH  68  69
ENDBRANCH  49  63
BRANCH  50  73
ATOM     73  C   UNL A   1      42.599  23.762  27.942  1.00  0.00    -0.014 A 
ATOM     74  C   UNL A   1      42.865  23.563  26.575  1.00  0.00     0.010 A 
ATOM     75  C   UNL A   1      42.189  22.668  28.725  1.00  0.00     0.010 A 
ATOM     76  C   UNL A   1      42.713  22.298  26.000  1.00  0.00     0.020 A 
ATOM     77  C   UNL A   1      42.061  21.395  28.159  1.00  0.00     0.020 A 
ATOM     78  C   UNL A   1      42.314  21.221  26.797  1.00  0.00     0.054 A 
BRANCH  78  79
ATOM     79  S   UNL A   1      42.184  19.576  26.042  1.00  0.00     0.124 S 
ATOM     80  O   UNL A   1      40.757  19.489  25.748  1.00  0.00    -0.237 OA
ATOM     81  O   UNL A   1      43.064  19.689  24.882  1.00  0.00    -0.237 OA
ATOM     82  O   UNL A   1      42.663  18.679  27.092  1.00  0.00    -0.744 OA
ENDBRANCH  78  79
ENDBRANCH  50  73
BRANCH  62  83
ATOM     83  C   UNL A   1      47.960  26.974  31.048  1.00  0.00    -0.014 A 
ATOM     84  C   UNL A   1      48.336  26.659  32.366  1.00  0.00     0.010 A 
ATOM     85  C   UNL A   1      48.901  26.823  30.013  1.00  0.00     0.010 A 
ATOM     86  C   UNL A   1      49.635  26.228  32.646  1.00  0.00     0.020 A 
ATOM     87  C   UNL A   1      50.194  26.366  30.286  1.00  0.00     0.020 A 
ATOM     88  C   UNL A   1      50.557  26.086  31.604  1.00  0.00     0.054 A 
BRANCH  88  89
ATOM     89  S   UNL A   1      52.224  25.483  31.988  1.00  0.00     0.124 S 
ATOM     90  O   UNL A   1      52.488  26.121  33.275  1.00  0.00    -0.237 OA
ATOM     91  O   UNL A   1      52.042  24.035  32.028  1.00  0.00    -0.237 OA
ATOM     92  O   UNL A   1      53.034  25.972  30.873  1.00  0.00    -0.744 OA
ENDBRANCH  88  89
ENDBRANCH  62  83
ENDBRANCH  36  37
ENDBRANCH  28  31
ENDBRANCH  26  27
ENDBRANCH  25  26
ENDBRANCH   1  25
TORSDOF 18
ENDMDL
