MODEL 1
REMARK VINA RESULT:     -11.3      0.000      0.000
REMARK SMILES CCc1cc(OC(F)(F)F)cc2c1O[C@@H](C(F)(F)F)C(C(=O)NCCCCNC(=O)c1ccc(-c3c4nc(c(-c5ccc(S(=O)(=O)[O-])cc5)c5ccc([nH]5)c(-c5ccc(S(=O)(=O)[O-])cc5)c5nc(c(-c6ccc(S(=O)(=O)[O-])cc6)c6ccc3[nH]6)C=C5)C=C4)cc1)=C2
REMARK SMILES IDX 26 1 25 2 24 3 23 4 21 5 22 6 20 8 3 9 4 10 13 11 5 12 12 13
REMARK SMILES IDX 14 14 11 15 91 16 15 17 2 18 1 19 6 20 7 21 8 22 9 23 10 24
REMARK SMILES IDX 16 25 17 26 18 27 19 28 27 29 28 30 29 31 30 33 31 34 32 35
REMARK SMILES IDX 90 36 33 37 89 38 34 39 35 40 36 41 83 42 37 43 88 44 82 45
REMARK SMILES IDX 84 46 38 47 87 48 81 49 80 50 39 52 69 53 50 54 68 55 51 56
REMARK SMILES IDX 54 57 67 58 85 59 52 60 53 61 66 63 86 64 55 65 40 66 41 67
REMARK SMILES IDX 49 68 42 69 48 70 43 71 44 72 45 73 46 74 47 75 70 76 71 77
REMARK SMILES IDX 79 78 72 79 78 80 73 81 74 82 75 83 76 84 77 85 56 86 57 87
REMARK SMILES IDX 65 88 58 89 64 90 59 91 60 92 61 93 62 94 63 95
REMARK H PARENT 23 7 28 32 84 51 54 62
REMARK Flexibility Score: inf
ROOT
ATOM      1  C   UNL A   1      33.071  27.720  26.686  1.00  0.00     0.023 C 
ENDROOT
BRANCH   1   2
ATOM      2  C   UNL A   1      31.622  27.889  26.222  1.00  0.00     0.023 C 
BRANCH   2   3
ATOM      3  C   UNL A   1      30.727  26.670  26.486  1.00  0.00     0.116 C 
BRANCH   3   4
ATOM      4  N   UNL A   1      30.014  26.294  25.278  1.00  0.00    -0.352 N 
ATOM      5  C   UNL A   1      30.297  25.413  24.283  1.00  0.00     0.251 C 
ATOM      6  O   UNL A   1      29.563  25.390  23.298  1.00  0.00    -0.270 OA
ATOM      7  H   UNL A   1      29.161  26.771  25.155  1.00  0.00     0.163 HD
BRANCH   5   8
ATOM      8  C   UNL A   1      31.411  24.429  24.362  1.00  0.00     0.067 C 
ATOM      9  C   UNL A   1      34.709  21.799  24.347  1.00  0.00    -0.002 A 
ATOM     10  C   UNL A   1      34.518  20.485  24.823  1.00  0.00     0.054 A 
ATOM     11  C   UNL A   1      33.620  22.691  24.380  1.00  0.00     0.131 A 
ATOM     12  C   UNL A   1      33.272  20.058  25.284  1.00  0.00     0.130 A 
ATOM     13  C   UNL A   1      32.378  22.272  24.845  1.00  0.00     0.021 A 
ATOM     14  O   UNL A   1      33.827  23.950  23.894  1.00  0.00    -0.475 OA
ATOM     15  C   UNL A   1      32.208  20.960  25.295  1.00  0.00     0.058 A 
ATOM     16  C   UNL A   1      31.243  23.176  24.806  1.00  0.00     0.025 C 
ATOM     17  C   UNL A   1      32.803  24.973  24.071  1.00  0.00     0.314 C 
BRANCH   9  18
ATOM     18  C   UNL A   1      36.059  22.285  23.857  1.00  0.00     0.036 C 
ATOM     19  C   UNL A   1      37.008  22.837  24.916  1.00  0.00     0.009 C 
ENDBRANCH   9  18
BRANCH  12  20
ATOM     20  O   UNL A   1      32.950  18.811  25.739  1.00  0.00    -0.406 OA
BRANCH  20  21
ATOM     21  C   UNL A   1      32.832  17.767  24.791  1.00  0.00     0.573 C 
ATOM     22  F   UNL A   1      32.269  16.668  25.338  1.00  0.00    -0.132 F 
ATOM     23  F   UNL A   1      32.106  18.161  23.723  1.00  0.00    -0.132 F 
ATOM     24  F   UNL A   1      34.069  17.432  24.357  1.00  0.00    -0.132 F 
ENDBRANCH  20  21
ENDBRANCH  12  20
BRANCH  17  25
ATOM     25  C   UNL A   1      32.913  25.934  22.864  1.00  0.00     0.429 C 
ATOM     26  F   UNL A   1      32.552  27.201  23.163  1.00  0.00    -0.167 F 
ATOM     27  F   UNL A   1      34.200  26.018  22.428  1.00  0.00    -0.167 F 
ATOM     28  F   UNL A   1      32.173  25.521  21.808  1.00  0.00    -0.167 F 
ENDBRANCH  17  25
ENDBRANCH   5   8
ENDBRANCH   3   4
ENDBRANCH   2   3
ENDBRANCH   1   2
BRANCH   1  29
ATOM     29  C   UNL A   1      34.010  28.833  26.240  1.00  0.00     0.116 C 
BRANCH  29  30
ATOM     30  N   UNL A   1      33.766  30.094  26.922  1.00  0.00    -0.352 N 
ATOM     31  C   UNL A   1      34.569  30.728  27.844  1.00  0.00     0.251 C 
ATOM     32  H   UNL A   1      32.923  30.551  26.698  1.00  0.00     0.163 HD
ATOM     33  O   UNL A   1      34.188  31.735  28.415  1.00  0.00    -0.269 OA
BRANCH  31  34
ATOM     34  C   UNL A   1      35.884  30.129  28.162  1.00  0.00     0.039 A 
ATOM     35  C   UNL A   1      36.890  30.163  27.195  1.00  0.00     0.014 A 
ATOM     36  C   UNL A   1      36.131  29.594  29.429  1.00  0.00     0.014 A 
ATOM     37  C   UNL A   1      38.174  29.721  27.523  1.00  0.00     0.010 A 
ATOM     38  C   UNL A   1      37.422  29.212  29.772  1.00  0.00     0.010 A 
ATOM     39  C   UNL A   1      38.457  29.276  28.824  1.00  0.00    -0.014 A 
BRANCH  39  40
ATOM     40  C   UNL A   1      39.822  28.865  29.229  1.00  0.00     0.031 A 
ATOM     41  C   UNL A   1      40.723  29.851  29.918  1.00  0.00     0.074 A 
ATOM     42  C   UNL A   1      40.282  27.645  28.891  1.00  0.00     0.049 A 
ATOM     43  N   UNL A   1      41.989  29.740  30.222  1.00  0.00    -0.248 NA
ATOM     44  C   UNL A   1      40.126  31.145  30.284  1.00  0.00     0.031 C 
ATOM     45  C   UNL A   1      39.516  26.609  28.191  1.00  0.00     0.029 A 
ATOM     46  N   UNL A   1      41.518  27.074  29.075  1.00  0.00    -0.354 N 
ATOM     47  C   UNL A   1      42.349  30.958  30.785  1.00  0.00     0.074 A 
ATOM     48  C   UNL A   1      41.177  31.805  30.750  1.00  0.00     0.031 C 
ATOM     49  C   UNL A   1      40.294  25.528  28.018  1.00  0.00     0.029 A 
ATOM     50  C   UNL A   1      41.623  25.806  28.556  1.00  0.00     0.049 A 
ATOM     51  H   UNL A   1      42.258  27.531  29.536  1.00  0.00     0.167 HD
ATOM     52  C   UNL A   1      43.545  31.334  31.298  1.00  0.00     0.031 A 
ATOM     53  C   UNL A   1      42.675  24.966  28.506  1.00  0.00     0.031 A 
ATOM     54  C   UNL A   1      44.701  30.482  31.352  1.00  0.00     0.049 A 
ATOM     55  C   UNL A   1      43.988  25.398  29.098  1.00  0.00     0.074 A 
ATOM     56  C   UNL A   1      45.945  30.751  31.894  1.00  0.00     0.029 A 
ATOM     57  N   UNL A   1      44.753  29.188  30.854  1.00  0.00    -0.354 N 
ATOM     58  N   UNL A   1      44.300  26.541  29.661  1.00  0.00    -0.248 NA
ATOM     59  C   UNL A   1      45.088  24.425  29.055  1.00  0.00     0.031 C 
ATOM     60  C   UNL A   1      46.760  29.631  31.696  1.00  0.00     0.029 A 
ATOM     61  C   UNL A   1      46.009  28.648  31.070  1.00  0.00     0.049 A 
ATOM     62  H   UNL A   1      44.007  28.723  30.413  1.00  0.00     0.167 HD
ATOM     63  C   UNL A   1      45.623  26.413  30.066  1.00  0.00     0.074 A 
ATOM     64  C   UNL A   1      46.051  25.081  29.689  1.00  0.00     0.031 C 
ATOM     65  C   UNL A   1      46.412  27.317  30.698  1.00  0.00     0.031 A 
BRANCH  52  66
ATOM     66  C   UNL A   1      43.656  32.735  31.832  1.00  0.00    -0.014 A 
ATOM     67  C   UNL A   1      43.298  33.035  33.159  1.00  0.00     0.010 A 
ATOM     68  C   UNL A   1      44.141  33.763  31.003  1.00  0.00     0.010 A 
ATOM     69  C   UNL A   1      43.375  34.347  33.632  1.00  0.00     0.020 A 
ATOM     70  C   UNL A   1      44.244  35.072  31.482  1.00  0.00     0.020 A 
ATOM     71  C   UNL A   1      43.839  35.359  32.787  1.00  0.00     0.054 A 
BRANCH  71  72
ATOM     72  S   UNL A   1      43.936  37.054  33.427  1.00  0.00     0.124 S 
ATOM     73  O   UNL A   1      45.256  37.062  34.053  1.00  0.00    -0.237 OA
ATOM     74  O   UNL A   1      43.811  37.863  32.217  1.00  0.00    -0.237 OA
ATOM     75  O   UNL A   1      42.807  37.140  34.350  1.00  0.00    -0.744 OA
ENDBRANCH  71  72
ENDBRANCH  52  66
BRANCH  53  76
ATOM     76  C   UNL A   1      42.523  23.621  27.889  1.00  0.00    -0.014 A 
ATOM     77  C   UNL A   1      42.941  23.397  26.566  1.00  0.00     0.010 A 
ATOM     78  C   UNL A   1      41.977  22.555  28.625  1.00  0.00     0.010 A 
ATOM     79  C   UNL A   1      42.802  22.134  25.983  1.00  0.00     0.020 A 
ATOM     80  C   UNL A   1      41.857  21.284  28.053  1.00  0.00     0.020 A 
ATOM     81  C   UNL A   1      42.261  21.085  26.731  1.00  0.00     0.054 A 
BRANCH  81  82
ATOM     82  S   UNL A   1      42.142  19.439  25.976  1.00  0.00     0.124 S 
ATOM     83  O   UNL A   1      42.682  18.584  27.030  1.00  0.00    -0.237 OA
ATOM     84  O   UNL A   1      40.709  19.307  25.725  1.00  0.00    -0.237 OA
ATOM     85  O   UNL A   1      42.969  19.555  24.776  1.00  0.00    -0.744 OA
ENDBRANCH  81  82
ENDBRANCH  53  76
BRANCH  65  86
ATOM     86  C   UNL A   1      47.804  26.884  31.065  1.00  0.00    -0.014 A 
ATOM     87  C   UNL A   1      48.067  26.229  32.279  1.00  0.00     0.010 A 
ATOM     88  C   UNL A   1      48.850  27.076  30.144  1.00  0.00     0.010 A 
ATOM     89  C   UNL A   1      49.360  25.790  32.577  1.00  0.00     0.020 A 
ATOM     90  C   UNL A   1      50.139  26.620  30.429  1.00  0.00     0.020 A 
ATOM     91  C   UNL A   1      50.388  25.989  31.649  1.00  0.00     0.054 A 
BRANCH  91  92
ATOM     92  S   UNL A   1      52.046  25.358  32.030  1.00  0.00     0.124 S 
ATOM     93  O   UNL A   1      51.811  23.920  32.117  1.00  0.00    -0.237 OA
ATOM     94  O   UNL A   1      52.832  25.798  30.880  1.00  0.00    -0.237 OA
ATOM     95  O   UNL A   1      52.381  26.013  33.293  1.00  0.00    -0.744 OA
ENDBRANCH  91  92
ENDBRANCH  65  86
ENDBRANCH  39  40
ENDBRANCH  31  34
ENDBRANCH  29  30
ENDBRANCH   1  29
TORSDOF 18
ENDMDL
MODEL 2
REMARK VINA RESULT:     -11.1      1.693      2.735
REMARK SMILES CCc1cc(OC(F)(F)F)cc2c1O[C@@H](C(F)(F)F)C(C(=O)NCCCCNC(=O)c1ccc(-c3c4nc(c(-c5ccc(S(=O)(=O)[O-])cc5)c5ccc([nH]5)c(-c5ccc(S(=O)(=O)[O-])cc5)c5nc(c(-c6ccc(S(=O)(=O)[O-])cc6)c6ccc3[nH]6)C=C5)C=C4)cc1)=C2
REMARK SMILES IDX 26 1 25 2 24 3 23 4 21 5 22 6 20 8 3 9 4 10 13 11 5 12 12 13
REMARK SMILES IDX 14 14 11 15 91 16 15 17 2 18 1 19 6 20 7 21 8 22 9 23 10 24
REMARK SMILES IDX 16 25 17 26 18 27 19 28 27 29 28 30 29 31 30 33 31 34 32 35
REMARK SMILES IDX 90 36 33 37 89 38 34 39 35 40 36 41 83 42 37 43 88 44 82 45
REMARK SMILES IDX 84 46 38 47 87 48 81 49 80 50 39 52 69 53 50 54 68 55 51 56
REMARK SMILES IDX 54 57 67 58 85 59 52 60 53 61 66 63 86 64 55 65 40 66 41 67
REMARK SMILES IDX 49 68 42 69 48 70 43 71 44 72 45 73 46 74 47 75 70 76 71 77
REMARK SMILES IDX 79 78 72 79 78 80 73 81 74 82 75 83 76 84 77 85 56 86 57 87
REMARK SMILES IDX 65 88 58 89 64 90 59 91 60 92 61 93 62 94 63 95
REMARK H PARENT 23 7 28 32 84 51 54 62
REMARK Flexibility Score: inf
ROOT
ATOM      1  C   UNL A   1      34.466  28.445  26.068  1.00  0.00     0.023 C 
ENDROOT
BRANCH   1   2
ATOM      2  C   UNL A   1      33.493  28.521  24.889  1.00  0.00     0.023 C 
BRANCH   2   3
ATOM      3  C   UNL A   1      32.429  27.415  24.873  1.00  0.00     0.116 C 
BRANCH   3   4
ATOM      4  N   UNL A   1      32.103  27.046  23.507  1.00  0.00    -0.352 N 
ATOM      5  C   UNL A   1      32.433  25.970  22.744  1.00  0.00     0.251 C 
ATOM      6  O   UNL A   1      32.117  25.980  21.556  1.00  0.00    -0.270 OA
ATOM      7  H   UNL A   1      31.533  27.701  23.044  1.00  0.00     0.163 HD
BRANCH   5   8
ATOM      8  C   UNL A   1      33.096  24.757  23.294  1.00  0.00     0.067 C 
ATOM      9  C   UNL A   1      34.693  21.238  24.985  1.00  0.00    -0.002 A 
ATOM     10  C   UNL A   1      36.077  21.195  25.256  1.00  0.00     0.054 A 
ATOM     11  C   UNL A   1      34.160  22.397  24.390  1.00  0.00     0.131 A 
ATOM     12  C   UNL A   1      36.901  22.288  24.980  1.00  0.00     0.130 A 
ATOM     13  C   UNL A   1      34.979  23.485  24.107  1.00  0.00     0.021 A 
ATOM     14  O   UNL A   1      32.815  22.420  24.157  1.00  0.00    -0.475 OA
ATOM     15  C   UNL A   1      36.343  23.428  24.401  1.00  0.00     0.058 A 
ATOM     16  C   UNL A   1      34.407  24.704  23.563  1.00  0.00     0.025 C 
ATOM     17  C   UNL A   1      32.232  23.506  23.378  1.00  0.00     0.314 C 
BRANCH   9  18
ATOM     18  C   UNL A   1      33.785  20.056  25.264  1.00  0.00     0.036 C 
ATOM     19  C   UNL A   1      34.148  18.743  24.578  1.00  0.00     0.009 C 
ENDBRANCH   9  18
BRANCH  12  20
ATOM     20  O   UNL A   1      38.241  22.384  25.222  1.00  0.00    -0.406 OA
BRANCH  20  21
ATOM     21  C   UNL A   1      38.670  23.251  26.257  1.00  0.00     0.573 C 
ATOM     22  F   UNL A   1      37.621  23.849  26.863  1.00  0.00    -0.132 F 
ATOM     23  F   UNL A   1      39.401  22.585  27.175  1.00  0.00    -0.132 F 
ATOM     24  F   UNL A   1      39.450  24.216  25.719  1.00  0.00    -0.132 F 
ENDBRANCH  20  21
ENDBRANCH  12  20
BRANCH  17  25
ATOM     25  C   UNL A   1      30.792  23.715  23.903  1.00  0.00     0.429 C 
ATOM     26  F   UNL A   1      30.678  24.782  24.722  1.00  0.00    -0.167 F 
ATOM     27  F   UNL A   1      29.932  23.954  22.875  1.00  0.00    -0.167 F 
ATOM     28  F   UNL A   1      30.319  22.627  24.556  1.00  0.00    -0.167 F 
ENDBRANCH  17  25
ENDBRANCH   5   8
ENDBRANCH   3   4
ENDBRANCH   2   3
ENDBRANCH   1   2
BRANCH   1  29
ATOM     29  C   UNL A   1      33.824  28.659  27.432  1.00  0.00     0.116 C 
BRANCH  29  30
ATOM     30  N   UNL A   1      33.743  30.061  27.812  1.00  0.00    -0.352 N 
ATOM     31  C   UNL A   1      34.719  30.837  28.397  1.00  0.00     0.251 C 
ATOM     32  H   UNL A   1      32.886  30.510  27.629  1.00  0.00     0.163 HD
ATOM     33  O   UNL A   1      34.476  31.976  28.757  1.00  0.00    -0.269 OA
BRANCH  31  34
ATOM     34  C   UNL A   1      36.053  30.239  28.625  1.00  0.00     0.039 A 
ATOM     35  C   UNL A   1      37.015  30.338  27.617  1.00  0.00     0.014 A 
ATOM     36  C   UNL A   1      36.361  29.640  29.848  1.00  0.00     0.014 A 
ATOM     37  C   UNL A   1      38.316  29.895  27.864  1.00  0.00     0.010 A 
ATOM     38  C   UNL A   1      37.670  29.257  30.113  1.00  0.00     0.010 A 
ATOM     39  C   UNL A   1      38.661  29.385  29.126  1.00  0.00    -0.014 A 
BRANCH  39  40
ATOM     40  C   UNL A   1      40.048  28.971  29.447  1.00  0.00     0.031 A 
ATOM     41  C   UNL A   1      40.989  29.953  30.086  1.00  0.00     0.074 A 
ATOM     42  C   UNL A   1      40.485  27.751  29.077  1.00  0.00     0.049 A 
ATOM     43  N   UNL A   1      42.271  29.839  30.314  1.00  0.00    -0.248 NA
ATOM     44  C   UNL A   1      40.416  31.246  30.492  1.00  0.00     0.031 C 
ATOM     45  C   UNL A   1      39.678  26.720  28.420  1.00  0.00     0.029 A 
ATOM     46  N   UNL A   1      41.729  27.179  29.186  1.00  0.00    -0.354 N 
ATOM     47  C   UNL A   1      42.665  31.054  30.860  1.00  0.00     0.074 A 
ATOM     48  C   UNL A   1      41.494  31.903  30.898  1.00  0.00     0.031 C 
ATOM     49  C   UNL A   1      40.443  25.639  28.196  1.00  0.00     0.029 A 
ATOM     50  C   UNL A   1      41.801  25.913  28.656  1.00  0.00     0.049 A 
ATOM     51  H   UNL A   1      42.495  27.633  29.604  1.00  0.00     0.167 HD
ATOM     52  C   UNL A   1      43.890  31.427  31.303  1.00  0.00     0.031 A 
ATOM     53  C   UNL A   1      42.847  25.072  28.540  1.00  0.00     0.031 A 
ATOM     54  C   UNL A   1      45.046  30.573  31.285  1.00  0.00     0.049 A 
ATOM     55  C   UNL A   1      44.194  25.500  29.055  1.00  0.00     0.074 A 
ATOM     56  C   UNL A   1      46.320  30.839  31.753  1.00  0.00     0.029 A 
ATOM     57  N   UNL A   1      45.067  29.281  30.779  1.00  0.00    -0.354 N 
ATOM     58  N   UNL A   1      44.540  26.640  29.604  1.00  0.00    -0.248 NA
ATOM     59  C   UNL A   1      45.288  24.526  28.943  1.00  0.00     0.031 C 
ATOM     60  C   UNL A   1      47.120  29.719  31.503  1.00  0.00     0.029 A 
ATOM     61  C   UNL A   1      46.333  28.739  30.918  1.00  0.00     0.049 A 
ATOM     62  H   UNL A   1      44.295  28.819  30.381  1.00  0.00     0.167 HD
ATOM     63  C   UNL A   1      45.884  26.509  29.929  1.00  0.00     0.074 A 
ATOM     64  C   UNL A   1      46.288  25.178  29.522  1.00  0.00     0.031 C 
ATOM     65  C   UNL A   1      46.710  27.409  30.518  1.00  0.00     0.031 A 
BRANCH  52  66
ATOM     66  C   UNL A   1      44.034  32.825  31.835  1.00  0.00    -0.014 A 
ATOM     67  C   UNL A   1      44.421  33.884  30.994  1.00  0.00     0.010 A 
ATOM     68  C   UNL A   1      43.764  33.089  33.190  1.00  0.00     0.010 A 
ATOM     69  C   UNL A   1      44.583  35.172  31.509  1.00  0.00     0.020 A 
ATOM     70  C   UNL A   1      43.900  34.382  33.703  1.00  0.00     0.020 A 
ATOM     71  C   UNL A   1      44.330  35.412  32.863  1.00  0.00     0.054 A 
BRANCH  71  72
ATOM     72  S   UNL A   1      44.542  37.094  33.507  1.00  0.00     0.124 S 
ATOM     73  O   UNL A   1      45.729  37.544  32.783  1.00  0.00    -0.237 OA
ATOM     74  O   UNL A   1      43.291  37.746  33.126  1.00  0.00    -0.237 OA
ATOM     75  O   UNL A   1      44.725  36.894  34.942  1.00  0.00    -0.744 OA
ENDBRANCH  71  72
ENDBRANCH  52  66
BRANCH  53  76
ATOM     76  C   UNL A   1      42.657  23.730  27.927  1.00  0.00    -0.014 A 
ATOM     77  C   UNL A   1      42.378  22.615  28.736  1.00  0.00     0.010 A 
ATOM     78  C   UNL A   1      42.734  23.564  26.533  1.00  0.00     0.010 A 
ATOM     79  C   UNL A   1      42.196  21.353  28.163  1.00  0.00     0.020 A 
ATOM     80  C   UNL A   1      42.530  22.307  25.954  1.00  0.00     0.020 A 
ATOM     81  C   UNL A   1      42.272  21.206  26.776  1.00  0.00     0.054 A 
BRANCH  81  82
ATOM     82  S   UNL A   1      41.975  19.571  26.048  1.00  0.00     0.124 S 
ATOM     83  O   UNL A   1      42.421  18.680  27.115  1.00  0.00    -0.237 OA
ATOM     84  O   UNL A   1      40.535  19.591  25.799  1.00  0.00    -0.237 OA
ATOM     85  O   UNL A   1      42.807  19.578  24.846  1.00  0.00    -0.744 OA
ENDBRANCH  81  82
ENDBRANCH  53  76
BRANCH  65  86
ATOM     86  C   UNL A   1      48.121  26.973  30.800  1.00  0.00    -0.014 A 
ATOM     87  C   UNL A   1      49.141  27.144  29.849  1.00  0.00     0.010 A 
ATOM     88  C   UNL A   1      48.440  26.449  32.066  1.00  0.00     0.010 A 
ATOM     89  C   UNL A   1      50.455  26.778  30.152  1.00  0.00     0.020 A 
ATOM     90  C   UNL A   1      49.756  26.102  32.380  1.00  0.00     0.020 A 
ATOM     91  C   UNL A   1      50.754  26.259  31.416  1.00  0.00     0.054 A 
BRANCH  91  92
ATOM     92  S   UNL A   1      52.477  25.847  31.809  1.00  0.00     0.124 S 
ATOM     93  O   UNL A   1      52.730  26.683  32.978  1.00  0.00    -0.237 OA
ATOM     94  O   UNL A   1      52.415  24.410  32.064  1.00  0.00    -0.237 OA
ATOM     95  O   UNL A   1      53.206  26.227  30.600  1.00  0.00    -0.744 OA
ENDBRANCH  91  92
ENDBRANCH  65  86
ENDBRANCH  39  40
ENDBRANCH  31  34
ENDBRANCH  29  30
ENDBRANCH   1  29
TORSDOF 18
ENDMDL
MODEL 3
REMARK VINA RESULT:     -11.1      3.321      4.351
REMARK SMILES CCc1cc(OC(F)(F)F)cc2c1O[C@@H](C(F)(F)F)C(C(=O)NCCCCNC(=O)c1ccc(-c3c4nc(c(-c5ccc(S(=O)(=O)[O-])cc5)c5ccc([nH]5)c(-c5ccc(S(=O)(=O)[O-])cc5)c5nc(c(-c6ccc(S(=O)(=O)[O-])cc6)c6ccc3[nH]6)C=C5)C=C4)cc1)=C2
REMARK SMILES IDX 26 1 25 2 24 3 23 4 21 5 22 6 20 8 3 9 4 10 13 11 5 12 12 13
REMARK SMILES IDX 14 14 11 15 91 16 15 17 2 18 1 19 6 20 7 21 8 22 9 23 10 24
REMARK SMILES IDX 16 25 17 26 18 27 19 28 27 29 28 30 29 31 30 33 31 34 32 35
REMARK SMILES IDX 90 36 33 37 89 38 34 39 35 40 36 41 83 42 37 43 88 44 82 45
REMARK SMILES IDX 84 46 38 47 87 48 81 49 80 50 39 52 69 53 50 54 68 55 51 56
REMARK SMILES IDX 54 57 67 58 85 59 52 60 53 61 66 63 86 64 55 65 40 66 41 67
REMARK SMILES IDX 49 68 42 69 48 70 43 71 44 72 45 73 46 74 47 75 70 76 71 77
REMARK SMILES IDX 79 78 72 79 78 80 73 81 74 82 75 83 76 84 77 85 56 86 57 87
REMARK SMILES IDX 65 88 58 89 64 90 59 91 60 92 61 93 62 94 63 95
REMARK H PARENT 23 7 28 32 84 51 54 62
REMARK Flexibility Score: inf
ROOT
ATOM      1  C   UNL A   1      34.410  29.654  27.372  1.00  0.00     0.023 C 
ENDROOT
BRANCH   1   2
ATOM      2  C   UNL A   1      34.191  28.346  26.606  1.00  0.00     0.023 C 
BRANCH   2   3
ATOM      3  C   UNL A   1      32.736  27.860  26.585  1.00  0.00     0.116 C 
BRANCH   3   4
ATOM      4  N   UNL A   1      32.277  27.699  25.216  1.00  0.00    -0.352 N 
ATOM      5  C   UNL A   1      32.491  26.734  24.284  1.00  0.00     0.251 C 
ATOM      6  O   UNL A   1      32.074  26.922  23.144  1.00  0.00    -0.270 OA
ATOM      7  H   UNL A   1      31.698  28.432  24.903  1.00  0.00     0.163 HD
BRANCH   5   8
ATOM      8  C   UNL A   1      33.144  25.434  24.597  1.00  0.00     0.067 C 
ATOM      9  C   UNL A   1      34.726  21.663  25.633  1.00  0.00    -0.002 A 
ATOM     10  C   UNL A   1      36.126  21.533  25.746  1.00  0.00     0.054 A 
ATOM     11  C   UNL A   1      34.194  22.910  25.255  1.00  0.00     0.131 A 
ATOM     12  C   UNL A   1      36.971  22.622  25.528  1.00  0.00     0.130 A 
ATOM     13  C   UNL A   1      35.033  23.996  25.029  1.00  0.00     0.021 A 
ATOM     14  O   UNL A   1      32.835  23.013  25.173  1.00  0.00    -0.475 OA
ATOM     15  C   UNL A   1      36.416  23.850  25.165  1.00  0.00     0.058 A 
ATOM     16  C   UNL A   1      34.472  25.297  24.714  1.00  0.00     0.025 C 
ATOM     17  C   UNL A   1      32.231  24.215  24.609  1.00  0.00     0.314 C 
BRANCH   9  18
ATOM     18  C   UNL A   1      33.792  20.488  25.851  1.00  0.00     0.036 C 
ATOM     19  C   UNL A   1      33.596  19.547  24.667  1.00  0.00     0.009 C 
ENDBRANCH   9  18
BRANCH  12  20
ATOM     20  O   UNL A   1      38.332  22.637  25.635  1.00  0.00    -0.406 OA
BRANCH  20  21
ATOM     21  C   UNL A   1      38.916  23.515  26.579  1.00  0.00     0.573 C 
ATOM     22  F   UNL A   1      39.626  24.490  25.970  1.00  0.00    -0.132 F 
ATOM     23  F   UNL A   1      37.975  24.070  27.372  1.00  0.00    -0.132 F 
ATOM     24  F   UNL A   1      39.762  22.809  27.364  1.00  0.00    -0.132 F 
ENDBRANCH  20  21
ENDBRANCH  12  20
BRANCH  17  25
ATOM     25  C   UNL A   1      30.864  24.403  25.309  1.00  0.00     0.429 C 
ATOM     26  F   UNL A   1      30.268  23.234  25.626  1.00  0.00    -0.167 F 
ATOM     27  F   UNL A   1      31.012  25.065  26.489  1.00  0.00    -0.167 F 
ATOM     28  F   UNL A   1      30.000  25.131  24.564  1.00  0.00    -0.167 F 
ENDBRANCH  17  25
ENDBRANCH   5   8
ENDBRANCH   3   4
ENDBRANCH   2   3
ENDBRANCH   1   2
BRANCH   1  29
ATOM     29  C   UNL A   1      35.684  29.693  28.204  1.00  0.00     0.116 C 
BRANCH  29  30
ATOM     30  N   UNL A   1      35.501  30.331  29.499  1.00  0.00    -0.352 N 
ATOM     31  C   UNL A   1      36.463  30.638  30.435  1.00  0.00     0.251 C 
ATOM     32  H   UNL A   1      34.576  30.572  29.735  1.00  0.00     0.163 HD
ATOM     33  O   UNL A   1      36.151  31.082  31.526  1.00  0.00    -0.269 OA
BRANCH  31  34
ATOM     34  C   UNL A   1      37.880  30.371  30.103  1.00  0.00     0.039 A 
ATOM     35  C   UNL A   1      38.725  29.882  31.102  1.00  0.00     0.014 A 
ATOM     36  C   UNL A   1      38.347  30.548  28.798  1.00  0.00     0.014 A 
ATOM     37  C   UNL A   1      40.028  29.502  30.774  1.00  0.00     0.010 A 
ATOM     38  C   UNL A   1      39.623  30.113  28.462  1.00  0.00     0.010 A 
ATOM     39  C   UNL A   1      40.474  29.581  29.445  1.00  0.00    -0.014 A 
BRANCH  39  40
ATOM     40  C   UNL A   1      41.826  29.123  29.048  1.00  0.00     0.031 A 
ATOM     41  C   UNL A   1      42.958  30.110  28.986  1.00  0.00     0.074 A 
ATOM     42  C   UNL A   1      42.012  27.849  28.651  1.00  0.00     0.049 A 
ATOM     43  N   UNL A   1      44.172  29.946  28.529  1.00  0.00    -0.248 NA
ATOM     44  C   UNL A   1      42.676  31.468  29.476  1.00  0.00     0.031 C 
ATOM     45  C   UNL A   1      40.985  26.804  28.634  1.00  0.00     0.029 A 
ATOM     46  N   UNL A   1      43.133  27.220  28.166  1.00  0.00    -0.354 N 
ATOM     47  C   UNL A   1      44.788  31.186  28.644  1.00  0.00     0.074 A 
ATOM     48  C   UNL A   1      43.805  32.100  29.183  1.00  0.00     0.031 C 
ATOM     49  C   UNL A   1      41.526  25.663  28.175  1.00  0.00     0.029 A 
ATOM     50  C   UNL A   1      42.924  25.904  27.828  1.00  0.00     0.049 A 
ATOM     51  H   UNL A   1      44.002  27.670  28.069  1.00  0.00     0.167 HD
ATOM     52  C   UNL A   1      46.062  31.531  28.341  1.00  0.00     0.031 A 
ATOM     53  C   UNL A   1      43.760  24.998  27.286  1.00  0.00     0.031 A 
ATOM     54  C   UNL A   1      47.043  30.614  27.827  1.00  0.00     0.049 A 
ATOM     55  C   UNL A   1      45.175  25.397  26.975  1.00  0.00     0.074 A 
ATOM     56  C   UNL A   1      48.373  30.853  27.532  1.00  0.00     0.029 A 
ATOM     57  N   UNL A   1      46.803  29.279  27.539  1.00  0.00    -0.354 N 
ATOM     58  N   UNL A   1      45.752  26.566  27.126  1.00  0.00    -0.248 NA
ATOM     59  C   UNL A   1      46.055  24.356  26.427  1.00  0.00     0.031 C 
ATOM     60  C   UNL A   1      48.931  29.670  27.037  1.00  0.00     0.029 A 
ATOM     61  C   UNL A   1      47.958  28.682  27.065  1.00  0.00     0.049 A 
ATOM     62  H   UNL A   1      45.939  28.823  27.656  1.00  0.00     0.167 HD
ATOM     63  C   UNL A   1      47.069  26.392  26.721  1.00  0.00     0.074 A 
ATOM     64  C   UNL A   1      47.207  25.005  26.323  1.00  0.00     0.031 C 
ATOM     65  C   UNL A   1      48.077  27.298  26.686  1.00  0.00     0.031 A 
BRANCH  52  66
ATOM     66  C   UNL A   1      46.457  32.966  28.553  1.00  0.00    -0.014 A 
ATOM     67  C   UNL A   1      46.955  33.404  29.794  1.00  0.00     0.010 A 
ATOM     68  C   UNL A   1      46.345  33.886  27.495  1.00  0.00     0.010 A 
ATOM     69  C   UNL A   1      47.287  34.747  29.986  1.00  0.00     0.020 A 
ATOM     70  C   UNL A   1      46.701  35.225  27.677  1.00  0.00     0.020 A 
ATOM     71  C   UNL A   1      47.150  35.651  28.929  1.00  0.00     0.054 A 
BRANCH  71  72
ATOM     72  S   UNL A   1      47.593  37.389  29.203  1.00  0.00     0.124 S 
ATOM     73  O   UNL A   1      47.445  37.510  30.652  1.00  0.00    -0.237 OA
ATOM     74  O   UNL A   1      48.965  37.454  28.706  1.00  0.00    -0.237 OA
ATOM     75  O   UNL A   1      46.610  38.125  28.412  1.00  0.00    -0.744 OA
ENDBRANCH  71  72
ENDBRANCH  52  66
BRANCH  53  76
ATOM     76  C   UNL A   1      43.283  23.613  27.023  1.00  0.00    -0.014 A 
ATOM     77  C   UNL A   1      42.921  23.223  25.723  1.00  0.00     0.010 A 
ATOM     78  C   UNL A   1      43.208  22.672  28.066  1.00  0.00     0.010 A 
ATOM     79  C   UNL A   1      42.475  21.923  25.471  1.00  0.00     0.020 A 
ATOM     80  C   UNL A   1      42.785  21.364  27.815  1.00  0.00     0.020 A 
ATOM     81  C   UNL A   1      42.410  21.000  26.519  1.00  0.00     0.054 A 
BRANCH  81  82
ATOM     82  S   UNL A   1      41.885  19.301  26.161  1.00  0.00     0.124 S 
ATOM     83  O   UNL A   1      40.452  19.468  25.937  1.00  0.00    -0.237 OA
ATOM     84  O   UNL A   1      42.676  18.966  24.979  1.00  0.00    -0.237 OA
ATOM     85  O   UNL A   1      42.250  18.570  27.373  1.00  0.00    -0.744 OA
ENDBRANCH  81  82
ENDBRANCH  53  76
BRANCH  65  86
ATOM     86  C   UNL A   1      49.430  26.813  26.245  1.00  0.00    -0.014 A 
ATOM     87  C   UNL A   1      49.875  26.995  24.925  1.00  0.00     0.010 A 
ATOM     88  C   UNL A   1      50.294  26.229  27.190  1.00  0.00     0.010 A 
ATOM     89  C   UNL A   1      51.156  26.581  24.551  1.00  0.00     0.020 A 
ATOM     90  C   UNL A   1      51.582  25.834  26.825  1.00  0.00     0.020 A 
ATOM     91  C   UNL A   1      52.002  26.004  25.503  1.00  0.00     0.054 A 
BRANCH  91  92
ATOM     92  S   UNL A   1      53.682  25.529  25.010  1.00  0.00     0.124 S 
ATOM     93  O   UNL A   1      53.669  25.812  23.578  1.00  0.00    -0.237 OA
ATOM     94  O   UNL A   1      54.519  26.413  25.818  1.00  0.00    -0.237 OA
ATOM     95  O   UNL A   1      53.758  24.113  25.365  1.00  0.00    -0.744 OA
ENDBRANCH  91  92
ENDBRANCH  65  86
ENDBRANCH  39  40
ENDBRANCH  31  34
ENDBRANCH  29  30
ENDBRANCH   1  29
TORSDOF 18
ENDMDL
