MODEL 1
REMARK VINA RESULT:     -11.7      0.000      0.000
REMARK SMILES CNc1nc(C(=O)N2C[C@@H](C(=O)NCCCCNC(=O)c3ccc(-c4c5nc(c(-c6ccc(S(=O)(=O)[O-])cc6)c6ccc([nH]6)c(-c6ccc(S(=O)(=O)[O-])cc6)c6nc(c(-c7ccc(S(=O)(=O)[O-])cc7)c7ccc4[nH]7)C=C6)C=C5)cc3)[C@H](c3ccccc3C)C2)cs1
REMARK SMILES IDX 15 1 14 2 13 3 11 4 12 5 10 7 8 8 9 9 89 10 81 11 6 12 7 13
REMARK SMILES IDX 5 14 3 15 4 16 91 17 90 18 2 19 1 20 82 22 83 23 87 24 84 25
REMARK SMILES IDX 86 26 88 27 85 28 16 29 17 30 18 31 19 32 20 34 21 35 22 36
REMARK SMILES IDX 80 37 23 38 79 39 24 40 25 41 26 42 73 43 27 44 78 45 72 46
REMARK SMILES IDX 74 47 28 48 77 49 71 50 70 51 29 53 59 54 40 55 58 56 41 57
REMARK SMILES IDX 44 58 57 59 75 60 42 61 43 62 56 64 76 65 45 66 30 67 31 68
REMARK SMILES IDX 39 69 32 70 38 71 33 72 34 73 35 74 36 75 37 76 60 77 61 78
REMARK SMILES IDX 69 79 62 80 68 81 63 82 64 83 65 84 66 85 67 86 46 87 47 88
REMARK SMILES IDX 55 89 48 90 54 91 49 92 50 93 51 94 52 95 53 96
REMARK H PARENT 13 6 2 21 18 33 74 52 44 63
REMARK Flexibility Score: inf
ROOT
ATOM      1  C   UNL A   1      31.907  30.170  26.919  1.00  0.00     0.023 C 
ENDROOT
BRANCH   1   2
ATOM      2  C   UNL A   1      31.604  29.487  25.589  1.00  0.00     0.116 C 
BRANCH   2   3
ATOM      3  N   UNL A   1      32.660  29.696  24.617  1.00  0.00    -0.356 N 
ATOM      4  C   UNL A   1      33.126  28.858  23.651  1.00  0.00     0.225 C 
ATOM      5  O   UNL A   1      33.968  29.289  22.862  1.00  0.00    -0.275 OA
ATOM      6  H   UNL A   1      33.107  30.572  24.665  1.00  0.00     0.163 HD
BRANCH   4   7
ATOM      7  C   UNL A   1      32.616  27.442  23.572  1.00  0.00     0.107 C 
ATOM      8  N   UNL A   1      33.138  25.342  22.791  1.00  0.00    -0.336 N 
ATOM      9  C   UNL A   1      33.793  26.533  23.281  1.00  0.00     0.134 C 
ATOM     10  C   UNL A   1      32.021  25.721  21.942  1.00  0.00     0.129 C 
ATOM     11  C   UNL A   1      31.654  27.177  22.382  1.00  0.00     0.053 C 
BRANCH   8  12
ATOM     12  C   UNL A   1      33.378  24.039  23.178  1.00  0.00     0.273 C 
ATOM     13  O   UNL A   1      33.978  23.243  22.454  1.00  0.00    -0.267 OA
BRANCH  12  14
ATOM     14  C   UNL A   1      32.811  23.620  24.467  1.00  0.00     0.141 A 
ATOM     15  C   UNL A   1      31.205  22.807  25.790  1.00  0.00     0.183 A 
ATOM     16  N   UNL A   1      31.466  23.249  24.585  1.00  0.00    -0.215 NA
ATOM     17  S   UNL A   1      32.533  22.877  26.884  1.00  0.00    -0.105 S 
ATOM     18  C   UNL A   1      33.544  23.445  25.624  1.00  0.00     0.102 A 
BRANCH  15  19
ATOM     19  N   UNL A   1      30.022  22.301  26.188  1.00  0.00    -0.365 N 
ATOM     20  C   UNL A   1      29.389  22.740  27.405  1.00  0.00     0.142 C 
ATOM     21  H   UNL A   1      29.580  21.615  25.635  1.00  0.00     0.162 HD
ENDBRANCH  15  19
ENDBRANCH  12  14
ENDBRANCH   8  12
BRANCH  11  22
ATOM     22  C   UNL A   1      30.205  27.475  22.778  1.00  0.00    -0.039 A 
ATOM     23  C   UNL A   1      29.445  26.527  23.494  1.00  0.00     0.004 A 
ATOM     24  C   UNL A   1      29.591  28.724  22.494  1.00  0.00    -0.048 A 
ATOM     25  C   UNL A   1      28.131  26.784  23.897  1.00  0.00     0.000 A 
ATOM     26  C   UNL A   1      28.281  28.980  22.952  1.00  0.00     0.004 A 
ATOM     27  C   UNL A   1      30.249  29.858  21.751  1.00  0.00     0.044 C 
ATOM     28  C   UNL A   1      27.551  28.016  23.637  1.00  0.00     0.000 A 
ENDBRANCH  11  22
ENDBRANCH   4   7
ENDBRANCH   2   3
ENDBRANCH   1   2
BRANCH   1  29
ATOM     29  C   UNL A   1      31.763  31.693  26.914  1.00  0.00     0.023 C 
BRANCH  29  30
ATOM     30  C   UNL A   1      32.986  32.461  27.406  1.00  0.00     0.116 C 
BRANCH  30  31
ATOM     31  N   UNL A   1      32.688  33.856  27.692  1.00  0.00    -0.352 N 
ATOM     32  C   UNL A   1      33.206  34.680  28.662  1.00  0.00     0.251 C 
ATOM     33  H   UNL A   1      32.016  34.271  27.104  1.00  0.00     0.163 HD
ATOM     34  O   UNL A   1      32.695  35.777  28.867  1.00  0.00    -0.269 OA
BRANCH  32  35
ATOM     35  C   UNL A   1      34.362  34.235  29.471  1.00  0.00     0.039 A 
ATOM     36  C   UNL A   1      34.128  33.611  30.699  1.00  0.00     0.014 A 
ATOM     37  C   UNL A   1      35.670  34.434  29.023  1.00  0.00     0.014 A 
ATOM     38  C   UNL A   1      35.206  33.122  31.443  1.00  0.00     0.010 A 
ATOM     39  C   UNL A   1      36.737  33.886  29.731  1.00  0.00     0.010 A 
ATOM     40  C   UNL A   1      36.516  33.223  30.947  1.00  0.00    -0.014 A 
BRANCH  40  41
ATOM     41  C   UNL A   1      37.667  32.632  31.680  1.00  0.00     0.031 A 
ATOM     42  C   UNL A   1      38.398  31.446  31.113  1.00  0.00     0.074 A 
ATOM     43  C   UNL A   1      38.008  33.120  32.889  1.00  0.00     0.049 A 
ATOM     44  N   UNL A   1      39.377  30.753  31.638  1.00  0.00    -0.248 NA
ATOM     45  C   UNL A   1      37.958  30.960  29.795  1.00  0.00     0.031 C 
ATOM     46  C   UNL A   1      37.353  34.239  33.569  1.00  0.00     0.029 A 
ATOM     47  N   UNL A   1      38.987  32.728  33.768  1.00  0.00    -0.354 N 
ATOM     48  C   UNL A   1      39.657  29.742  30.727  1.00  0.00     0.074 A 
ATOM     49  C   UNL A   1      38.716  29.884  29.637  1.00  0.00     0.031 C 
ATOM     50  C   UNL A   1      37.962  34.458  34.746  1.00  0.00     0.029 A 
ATOM     51  C   UNL A   1      39.023  33.472  34.924  1.00  0.00     0.049 A 
ATOM     52  H   UNL A   1      39.606  31.983  33.587  1.00  0.00     0.167 HD
ATOM     53  C   UNL A   1      40.620  28.790  30.783  1.00  0.00     0.031 A 
ATOM     54  C   UNL A   1      39.814  33.369  36.009  1.00  0.00     0.031 A 
ATOM     55  C   UNL A   1      41.564  28.658  31.860  1.00  0.00     0.049 A 
ATOM     56  C   UNL A   1      40.875  32.304  36.049  1.00  0.00     0.074 A 
ATOM     57  C   UNL A   1      42.611  27.761  31.980  1.00  0.00     0.029 A 
ATOM     58  N   UNL A   1      41.576  29.442  33.004  1.00  0.00    -0.354 N 
ATOM     59  N   UNL A   1      41.162  31.394  35.149  1.00  0.00    -0.248 NA
ATOM     60  C   UNL A   1      41.725  32.259  37.247  1.00  0.00     0.031 C 
ATOM     61  C   UNL A   1      43.230  27.974  33.217  1.00  0.00     0.029 A 
ATOM     62  C   UNL A   1      42.600  29.037  33.843  1.00  0.00     0.049 A 
ATOM     63  H   UNL A   1      40.949  30.177  33.191  1.00  0.00     0.167 HD
ATOM     64  C   UNL A   1      42.244  30.685  35.661  1.00  0.00     0.074 A 
ATOM     65  C   UNL A   1      42.566  31.279  36.942  1.00  0.00     0.031 C 
ATOM     66  C   UNL A   1      42.910  29.638  35.116  1.00  0.00     0.031 A 
BRANCH  53  67
ATOM     67  C   UNL A   1      40.695  27.811  29.641  1.00  0.00    -0.014 A 
ATOM     68  C   UNL A   1      39.731  26.798  29.490  1.00  0.00     0.010 A 
ATOM     69  C   UNL A   1      41.721  27.927  28.686  1.00  0.00     0.010 A 
ATOM     70  C   UNL A   1      39.819  25.891  28.431  1.00  0.00     0.020 A 
ATOM     71  C   UNL A   1      41.796  27.038  27.609  1.00  0.00     0.020 A 
ATOM     72  C   UNL A   1      40.854  26.013  27.500  1.00  0.00     0.054 A 
BRANCH  72  73
ATOM     73  S   UNL A   1      40.935  24.830  26.128  1.00  0.00     0.124 S 
ATOM     74  O   UNL A   1      39.572  24.305  26.105  1.00  0.00    -0.237 OA
ATOM     75  O   UNL A   1      41.301  25.676  24.995  1.00  0.00    -0.237 OA
ATOM     76  O   UNL A   1      41.961  23.880  26.549  1.00  0.00    -0.744 OA
ENDBRANCH  72  73
ENDBRANCH  53  67
BRANCH  54  77
ATOM     77  C   UNL A   1      39.644  34.318  37.143  1.00  0.00    -0.014 A 
ATOM     78  C   UNL A   1      39.064  33.889  38.349  1.00  0.00     0.010 A 
ATOM     79  C   UNL A   1      40.076  35.653  37.027  1.00  0.00     0.010 A 
ATOM     80  C   UNL A   1      38.904  34.780  39.414  1.00  0.00     0.020 A 
ATOM     81  C   UNL A   1      39.941  36.538  38.099  1.00  0.00     0.020 A 
ATOM     82  C   UNL A   1      39.347  36.099  39.283  1.00  0.00     0.054 A 
BRANCH  82  83
ATOM     83  S   UNL A   1      39.182  37.223  40.698  1.00  0.00     0.124 S 
ATOM     84  O   UNL A   1      38.405  38.318  40.127  1.00  0.00    -0.237 OA
ATOM     85  O   UNL A   1      38.485  36.396  41.679  1.00  0.00    -0.237 OA
ATOM     86  O   UNL A   1      40.566  37.545  41.040  1.00  0.00    -0.744 OA
ENDBRANCH  82  83
ENDBRANCH  54  77
BRANCH  66  87
ATOM     87  C   UNL A   1      44.078  29.084  35.887  1.00  0.00    -0.014 A 
ATOM     88  C   UNL A   1      45.368  29.624  35.745  1.00  0.00     0.010 A 
ATOM     89  C   UNL A   1      43.867  28.043  36.809  1.00  0.00     0.010 A 
ATOM     90  C   UNL A   1      46.433  29.113  36.491  1.00  0.00     0.020 A 
ATOM     91  C   UNL A   1      44.925  27.546  37.575  1.00  0.00     0.020 A 
ATOM     92  C   UNL A   1      46.205  28.077  37.401  1.00  0.00     0.054 A 
BRANCH  92  93
ATOM     93  S   UNL A   1      47.594  27.460  38.392  1.00  0.00     0.124 S 
ATOM     94  O   UNL A   1      47.999  26.274  37.642  1.00  0.00    -0.237 OA
ATOM     95  O   UNL A   1      48.535  28.577  38.356  1.00  0.00    -0.237 OA
ATOM     96  O   UNL A   1      46.997  27.198  39.699  1.00  0.00    -0.744 OA
ENDBRANCH  92  93
ENDBRANCH  66  87
ENDBRANCH  40  41
ENDBRANCH  32  35
ENDBRANCH  30  31
ENDBRANCH  29  30
ENDBRANCH   1  29
TORSDOF 18
ENDMDL
MODEL 2
REMARK VINA RESULT:     -11.4      6.042     10.638
REMARK SMILES CNc1nc(C(=O)N2C[C@@H](C(=O)NCCCCNC(=O)c3ccc(-c4c5nc(c(-c6ccc(S(=O)(=O)[O-])cc6)c6ccc([nH]6)c(-c6ccc(S(=O)(=O)[O-])cc6)c6nc(c(-c7ccc(S(=O)(=O)[O-])cc7)c7ccc4[nH]7)C=C6)C=C5)cc3)[C@H](c3ccccc3C)C2)cs1
REMARK SMILES IDX 15 1 14 2 13 3 11 4 12 5 10 7 8 8 9 9 89 10 81 11 6 12 7 13
REMARK SMILES IDX 5 14 3 15 4 16 91 17 90 18 2 19 1 20 82 22 83 23 87 24 84 25
REMARK SMILES IDX 86 26 88 27 85 28 16 29 17 30 18 31 19 32 20 34 21 35 22 36
REMARK SMILES IDX 80 37 23 38 79 39 24 40 25 41 26 42 73 43 27 44 78 45 72 46
REMARK SMILES IDX 74 47 28 48 77 49 71 50 70 51 29 53 59 54 40 55 58 56 41 57
REMARK SMILES IDX 44 58 57 59 75 60 42 61 43 62 56 64 76 65 45 66 30 67 31 68
REMARK SMILES IDX 39 69 32 70 38 71 33 72 34 73 35 74 36 75 37 76 60 77 61 78
REMARK SMILES IDX 69 79 62 80 68 81 63 82 64 83 65 84 66 85 67 86 46 87 47 88
REMARK SMILES IDX 55 89 48 90 54 91 49 92 50 93 51 94 52 95 53 96
REMARK H PARENT 13 6 2 21 18 33 74 52 44 63
REMARK Flexibility Score: inf
ROOT
ATOM      1  C   UNL A   1      33.108  30.181  27.156  1.00  0.00     0.023 C 
ENDROOT
BRANCH   1   2
ATOM      2  C   UNL A   1      32.359  29.936  25.850  1.00  0.00     0.116 C 
BRANCH   2   3
ATOM      3  N   UNL A   1      33.264  29.778  24.726  1.00  0.00    -0.356 N 
ATOM      4  C   UNL A   1      33.245  28.858  23.723  1.00  0.00     0.225 C 
ATOM      5  O   UNL A   1      34.059  28.978  22.807  1.00  0.00    -0.275 OA
ATOM      6  H   UNL A   1      34.000  30.430  24.684  1.00  0.00     0.163 HD
BRANCH   4   7
ATOM      7  C   UNL A   1      32.251  27.727  23.757  1.00  0.00     0.107 C 
ATOM      8  N   UNL A   1      32.029  25.464  23.404  1.00  0.00    -0.336 N 
ATOM      9  C   UNL A   1      33.021  26.424  23.829  1.00  0.00     0.134 C 
ATOM     10  C   UNL A   1      31.250  26.027  22.313  1.00  0.00     0.129 C 
ATOM     11  C   UNL A   1      31.411  27.577  22.459  1.00  0.00     0.053 C 
BRANCH   8  12
ATOM     12  C   UNL A   1      31.709  24.269  24.015  1.00  0.00     0.273 C 
ATOM     13  O   UNL A   1      30.569  23.802  23.981  1.00  0.00    -0.267 OA
BRANCH  12  14
ATOM     14  C   UNL A   1      32.778  23.614  24.782  1.00  0.00     0.141 A 
ATOM     15  C   UNL A   1      34.763  22.619  25.023  1.00  0.00     0.183 A 
ATOM     16  N   UNL A   1      33.887  23.044  24.147  1.00  0.00    -0.215 NA
ATOM     17  S   UNL A   1      34.284  22.805  26.667  1.00  0.00    -0.105 S 
ATOM     18  C   UNL A   1      32.851  23.597  26.161  1.00  0.00     0.102 A 
BRANCH  15  19
ATOM     19  N   UNL A   1      35.968  22.099  24.721  1.00  0.00    -0.365 N 
ATOM     20  C   UNL A   1      36.729  22.575  23.594  1.00  0.00     0.142 C 
ATOM     21  H   UNL A   1      36.337  21.377  25.281  1.00  0.00     0.162 HD
ENDBRANCH  15  19
ENDBRANCH  12  14
ENDBRANCH   8  12
BRANCH  11  22
ATOM     22  C   UNL A   1      30.147  28.438  22.526  1.00  0.00    -0.039 A 
ATOM     23  C   UNL A   1      30.105  29.704  21.905  1.00  0.00     0.004 A 
ATOM     24  C   UNL A   1      28.961  27.981  23.159  1.00  0.00    -0.048 A 
ATOM     25  C   UNL A   1      28.954  30.498  21.922  1.00  0.00     0.000 A 
ATOM     26  C   UNL A   1      27.796  28.778  23.122  1.00  0.00     0.004 A 
ATOM     27  C   UNL A   1      28.814  26.657  23.862  1.00  0.00     0.044 C 
ATOM     28  C   UNL A   1      27.794  30.030  22.520  1.00  0.00     0.000 A 
ENDBRANCH  11  22
ENDBRANCH   4   7
ENDBRANCH   2   3
ENDBRANCH   1   2
BRANCH   1  29
ATOM     29  C   UNL A   1      34.387  29.362  27.336  1.00  0.00     0.023 C 
BRANCH  29  30
ATOM     30  C   UNL A   1      35.556  30.113  27.967  1.00  0.00     0.116 C 
BRANCH  30  31
ATOM     31  N   UNL A   1      35.456  30.178  29.417  1.00  0.00    -0.352 N 
ATOM     32  C   UNL A   1      36.408  29.913  30.372  1.00  0.00     0.251 C 
ATOM     33  H   UNL A   1      34.577  30.452  29.766  1.00  0.00     0.163 HD
ATOM     34  O   UNL A   1      36.083  29.843  31.553  1.00  0.00    -0.269 OA
BRANCH  32  35
ATOM     35  C   UNL A   1      37.815  29.690  29.972  1.00  0.00     0.039 A 
ATOM     36  C   UNL A   1      38.754  29.365  30.955  1.00  0.00     0.014 A 
ATOM     37  C   UNL A   1      38.208  29.804  28.636  1.00  0.00     0.014 A 
ATOM     38  C   UNL A   1      40.072  29.083  30.585  1.00  0.00     0.010 A 
ATOM     39  C   UNL A   1      39.503  29.456  28.262  1.00  0.00     0.010 A 
ATOM     40  C   UNL A   1      40.449  29.090  29.232  1.00  0.00    -0.014 A 
BRANCH  40  41
ATOM     41  C   UNL A   1      41.822  28.708  28.810  1.00  0.00     0.031 A 
ATOM     42  C   UNL A   1      42.910  29.745  28.741  1.00  0.00     0.074 A 
ATOM     43  C   UNL A   1      42.071  27.442  28.420  1.00  0.00     0.049 A 
ATOM     44  N   UNL A   1      44.145  29.617  28.329  1.00  0.00    -0.248 NA
ATOM     45  C   UNL A   1      42.558  31.109  29.167  1.00  0.00     0.031 C 
ATOM     46  C   UNL A   1      41.094  26.352  28.401  1.00  0.00     0.029 A 
ATOM     47  N   UNL A   1      43.224  26.860  27.955  1.00  0.00    -0.354 N 
ATOM     48  C   UNL A   1      44.712  30.881  28.429  1.00  0.00     0.074 A 
ATOM     49  C   UNL A   1      43.673  31.773  28.898  1.00  0.00     0.031 C 
ATOM     50  C   UNL A   1      41.693  25.230  27.969  1.00  0.00     0.029 A 
ATOM     51  C   UNL A   1      43.085  25.528  27.644  1.00  0.00     0.049 A 
ATOM     52  H   UNL A   1      44.072  27.351  27.854  1.00  0.00     0.167 HD
ATOM     53  C   UNL A   1      45.985  31.266  28.171  1.00  0.00     0.031 A 
ATOM     54  C   UNL A   1      43.972  24.646  27.146  1.00  0.00     0.031 A 
ATOM     55  C   UNL A   1      47.021  30.376  27.717  1.00  0.00     0.049 A 
ATOM     56  C   UNL A   1      45.379  25.095  26.865  1.00  0.00     0.074 A 
ATOM     57  C   UNL A   1      48.355  30.661  27.482  1.00  0.00     0.029 A 
ATOM     58  N   UNL A   1      46.842  29.032  27.430  1.00  0.00    -0.354 N 
ATOM     59  N   UNL A   1      45.910  26.284  27.023  1.00  0.00    -0.248 NA
ATOM     60  C   UNL A   1      46.309  24.081  26.348  1.00  0.00     0.031 C 
ATOM     61  C   UNL A   1      48.973  29.497  27.009  1.00  0.00     0.029 A 
ATOM     62  C   UNL A   1      48.036  28.477  27.001  1.00  0.00     0.049 A 
ATOM     63  H   UNL A   1      45.991  28.544  27.519  1.00  0.00     0.167 HD
ATOM     64  C   UNL A   1      47.244  26.154  26.650  1.00  0.00     0.074 A 
ATOM     65  C   UNL A   1      47.440  24.770  26.271  1.00  0.00     0.031 C 
ATOM     66  C   UNL A   1      48.217  27.097  26.627  1.00  0.00     0.031 A 
BRANCH  53  67
ATOM     67  C   UNL A   1      46.325  32.719  28.369  1.00  0.00    -0.014 A 
ATOM     68  C   UNL A   1      46.361  33.610  27.282  1.00  0.00     0.010 A 
ATOM     69  C   UNL A   1      46.577  33.209  29.664  1.00  0.00     0.010 A 
ATOM     70  C   UNL A   1      46.688  34.954  27.479  1.00  0.00     0.020 A 
ATOM     71  C   UNL A   1      46.877  34.558  29.869  1.00  0.00     0.020 A 
ATOM     72  C   UNL A   1      46.950  35.419  28.771  1.00  0.00     0.054 A 
BRANCH  72  73
ATOM     73  S   UNL A   1      47.357  37.171  29.000  1.00  0.00     0.124 S 
ATOM     74  O   UNL A   1      48.230  37.427  27.858  1.00  0.00    -0.237 OA
ATOM     75  O   UNL A   1      46.047  37.816  28.946  1.00  0.00    -0.237 OA
ATOM     76  O   UNL A   1      48.012  37.208  30.306  1.00  0.00    -0.744 OA
ENDBRANCH  72  73
ENDBRANCH  53  67
BRANCH  54  77
ATOM     77  C   UNL A   1      43.557  23.238  26.897  1.00  0.00    -0.014 A 
ATOM     78  C   UNL A   1      43.631  22.692  25.604  1.00  0.00     0.010 A 
ATOM     79  C   UNL A   1      43.102  22.431  27.957  1.00  0.00     0.010 A 
ATOM     80  C   UNL A   1      43.242  21.370  25.370  1.00  0.00     0.020 A 
ATOM     81  C   UNL A   1      42.738  21.101  27.731  1.00  0.00     0.020 A 
ATOM     82  C   UNL A   1      42.801  20.582  26.436  1.00  0.00     0.054 A 
BRANCH  82  83
ATOM     83  S   UNL A   1      42.356  18.851  26.121  1.00  0.00     0.124 S 
ATOM     84  O   UNL A   1      43.305  18.479  25.078  1.00  0.00    -0.237 OA
ATOM     85  O   UNL A   1      42.570  18.227  27.425  1.00  0.00    -0.237 OA
ATOM     86  O   UNL A   1      40.958  18.930  25.701  1.00  0.00    -0.744 OA
ENDBRANCH  82  83
ENDBRANCH  54  77
BRANCH  66  87
ATOM     87  C   UNL A   1      49.595  26.660  26.207  1.00  0.00    -0.014 A 
ATOM     88  C   UNL A   1      50.105  26.975  24.935  1.00  0.00     0.010 A 
ATOM     89  C   UNL A   1      50.411  25.971  27.123  1.00  0.00     0.010 A 
ATOM     90  C   UNL A   1      51.397  26.583  24.577  1.00  0.00     0.020 A 
ATOM     91  C   UNL A   1      51.712  25.599  26.776  1.00  0.00     0.020 A 
ATOM     92  C   UNL A   1      52.193  25.897  25.499  1.00  0.00     0.054 A 
BRANCH  92  93
ATOM     93  S   UNL A   1      53.883  25.438  25.027  1.00  0.00     0.124 S 
ATOM     94  O   UNL A   1      53.889  25.730  23.597  1.00  0.00    -0.237 OA
ATOM     95  O   UNL A   1      54.699  26.326  25.853  1.00  0.00    -0.237 OA
ATOM     96  O   UNL A   1      53.967  24.022  25.375  1.00  0.00    -0.744 OA
ENDBRANCH  92  93
ENDBRANCH  66  87
ENDBRANCH  40  41
ENDBRANCH  32  35
ENDBRANCH  30  31
ENDBRANCH  29  30
ENDBRANCH   1  29
TORSDOF 18
ENDMDL
MODEL 3
REMARK VINA RESULT:     -11.1      6.626     10.125
REMARK SMILES CNc1nc(C(=O)N2C[C@@H](C(=O)NCCCCNC(=O)c3ccc(-c4c5nc(c(-c6ccc(S(=O)(=O)[O-])cc6)c6ccc([nH]6)c(-c6ccc(S(=O)(=O)[O-])cc6)c6nc(c(-c7ccc(S(=O)(=O)[O-])cc7)c7ccc4[nH]7)C=C6)C=C5)cc3)[C@H](c3ccccc3C)C2)cs1
REMARK SMILES IDX 15 1 14 2 13 3 11 4 12 5 10 7 8 8 9 9 89 10 81 11 6 12 7 13
REMARK SMILES IDX 5 14 3 15 4 16 91 17 90 18 2 19 1 20 82 22 83 23 87 24 84 25
REMARK SMILES IDX 86 26 88 27 85 28 16 29 17 30 18 31 19 32 20 34 21 35 22 36
REMARK SMILES IDX 80 37 23 38 79 39 24 40 25 41 26 42 73 43 27 44 78 45 72 46
REMARK SMILES IDX 74 47 28 48 77 49 71 50 70 51 29 53 59 54 40 55 58 56 41 57
REMARK SMILES IDX 44 58 57 59 75 60 42 61 43 62 56 64 76 65 45 66 30 67 31 68
REMARK SMILES IDX 39 69 32 70 38 71 33 72 34 73 35 74 36 75 37 76 60 77 61 78
REMARK SMILES IDX 69 79 62 80 68 81 63 82 64 83 65 84 66 85 67 86 46 87 47 88
REMARK SMILES IDX 55 89 48 90 54 91 49 92 50 93 51 94 52 95 53 96
REMARK H PARENT 13 6 2 21 18 33 74 52 44 63
REMARK Flexibility Score: inf
ROOT
ATOM      1  C   UNL A   1      38.775  22.986  26.575  1.00  0.00     0.023 C 
ENDROOT
BRANCH   1   2
ATOM      2  C   UNL A   1      37.477  23.495  25.957  1.00  0.00     0.116 C 
BRANCH   2   3
ATOM      3  N   UNL A   1      37.486  23.392  24.510  1.00  0.00    -0.356 N 
ATOM      4  C   UNL A   1      36.447  23.217  23.648  1.00  0.00     0.225 C 
ATOM      5  O   UNL A   1      36.678  23.263  22.439  1.00  0.00    -0.275 OA
ATOM      6  H   UNL A   1      38.374  23.456  24.090  1.00  0.00     0.163 HD
BRANCH   4   7
ATOM      7  C   UNL A   1      35.061  22.966  24.181  1.00  0.00     0.107 C 
ATOM      8  N   UNL A   1      33.270  21.529  24.040  1.00  0.00    -0.336 N 
ATOM      9  C   UNL A   1      34.709  21.516  23.917  1.00  0.00     0.134 C 
ATOM     10  C   UNL A   1      32.745  22.740  23.433  1.00  0.00     0.129 C 
ATOM     11  C   UNL A   1      33.942  23.748  23.440  1.00  0.00     0.053 C 
BRANCH   8  12
ATOM     12  C   UNL A   1      32.486  20.652  24.764  1.00  0.00     0.273 C 
ATOM     13  O   UNL A   1      31.612  21.045  25.538  1.00  0.00    -0.267 OA
BRANCH  12  14
ATOM     14  C   UNL A   1      32.800  19.224  24.629  1.00  0.00     0.141 A 
ATOM     15  C   UNL A   1      32.931  17.114  25.353  1.00  0.00     0.183 A 
ATOM     16  N   UNL A   1      32.719  18.353  25.722  1.00  0.00    -0.215 NA
ATOM     17  S   UNL A   1      33.316  16.917  23.685  1.00  0.00    -0.105 S 
ATOM     18  C   UNL A   1      33.084  18.596  23.432  1.00  0.00     0.102 A 
BRANCH  15  19
ATOM     19  N   UNL A   1      32.839  16.041  26.161  1.00  0.00    -0.365 N 
ATOM     20  C   UNL A   1      31.650  15.229  26.198  1.00  0.00     0.142 C 
ATOM     21  H   UNL A   1      33.601  15.805  26.740  1.00  0.00     0.162 HD
ENDBRANCH  15  19
ENDBRANCH  12  14
ENDBRANCH   8  12
BRANCH  11  22
ATOM     22  C   UNL A   1      33.731  25.126  24.074  1.00  0.00    -0.039 A 
ATOM     23  C   UNL A   1      34.019  25.343  25.438  1.00  0.00     0.004 A 
ATOM     24  C   UNL A   1      33.296  26.243  23.313  1.00  0.00    -0.048 A 
ATOM     25  C   UNL A   1      33.867  26.598  26.035  1.00  0.00     0.000 A 
ATOM     26  C   UNL A   1      33.196  27.511  23.925  1.00  0.00     0.004 A 
ATOM     27  C   UNL A   1      32.953  26.206  21.846  1.00  0.00     0.044 C 
ATOM     28  C   UNL A   1      33.467  27.687  25.276  1.00  0.00     0.000 A 
ENDBRANCH  11  22
ENDBRANCH   4   7
ENDBRANCH   2   3
ENDBRANCH   1   2
BRANCH   1  29
ATOM     29  C   UNL A   1      39.313  21.685  25.977  1.00  0.00     0.023 C 
BRANCH  29  30
ATOM     30  C   UNL A   1      40.038  20.769  26.960  1.00  0.00     0.116 C 
BRANCH  30  31
ATOM     31  N   UNL A   1      41.009  19.909  26.303  1.00  0.00    -0.352 N 
ATOM     32  C   UNL A   1      42.251  20.216  25.800  1.00  0.00     0.251 C 
ATOM     33  H   UNL A   1      40.739  18.967  26.205  1.00  0.00     0.163 HD
ATOM     34  O   UNL A   1      42.851  19.394  25.114  1.00  0.00    -0.269 OA
BRANCH  32  35
ATOM     35  C   UNL A   1      42.850  21.542  26.067  1.00  0.00     0.039 A 
ATOM     36  C   UNL A   1      42.858  22.499  25.049  1.00  0.00     0.014 A 
ATOM     37  C   UNL A   1      43.403  21.841  27.315  1.00  0.00     0.014 A 
ATOM     38  C   UNL A   1      43.356  23.779  25.306  1.00  0.00     0.010 A 
ATOM     39  C   UNL A   1      43.836  23.136  27.590  1.00  0.00     0.010 A 
ATOM     40  C   UNL A   1      43.815  24.119  26.589  1.00  0.00    -0.014 A 
BRANCH  40  41
ATOM     41  C   UNL A   1      44.267  25.499  26.908  1.00  0.00     0.031 A 
ATOM     42  C   UNL A   1      45.681  25.921  26.611  1.00  0.00     0.074 A 
ATOM     43  C   UNL A   1      43.426  26.349  27.530  1.00  0.00     0.049 A 
ATOM     44  N   UNL A   1      46.276  27.055  26.881  1.00  0.00    -0.248 NA
ATOM     45  C   UNL A   1      46.545  24.933  25.945  1.00  0.00     0.031 C 
ATOM     46  C   UNL A   1      42.044  26.049  27.910  1.00  0.00     0.029 A 
ATOM     47  N   UNL A   1      43.615  27.638  27.961  1.00  0.00    -0.354 N 
ATOM     48  C   UNL A   1      47.585  26.912  26.437  1.00  0.00     0.074 A 
ATOM     49  C   UNL A   1      47.709  25.566  25.920  1.00  0.00     0.031 C 
ATOM     50  C   UNL A   1      41.504  27.129  28.497  1.00  0.00     0.029 A 
ATOM     51  C   UNL A   1      42.510  28.185  28.571  1.00  0.00     0.049 A 
ATOM     52  H   UNL A   1      44.462  28.126  27.845  1.00  0.00     0.167 HD
ATOM     53  C   UNL A   1      48.589  27.821  26.442  1.00  0.00     0.031 A 
ATOM     54  C   UNL A   1      42.327  29.394  29.134  1.00  0.00     0.031 A 
ATOM     55  C   UNL A   1      48.461  29.164  26.944  1.00  0.00     0.049 A 
ATOM     56  C   UNL A   1      43.457  30.387  29.130  1.00  0.00     0.074 A 
ATOM     57  C   UNL A   1      49.404  30.176  26.941  1.00  0.00     0.029 A 
ATOM     58  N   UNL A   1      47.320  29.682  27.538  1.00  0.00    -0.354 N 
ATOM     59  N   UNL A   1      44.669  30.251  28.650  1.00  0.00    -0.248 NA
ATOM     60  C   UNL A   1      43.188  31.700  29.734  1.00  0.00     0.031 C 
ATOM     61  C   UNL A   1      48.849  31.294  27.575  1.00  0.00     0.029 A 
ATOM     62  C   UNL A   1      47.542  30.993  27.924  1.00  0.00     0.049 A 
ATOM     63  H   UNL A   1      46.477  29.190  27.667  1.00  0.00     0.167 HD
ATOM     64  C   UNL A   1      45.302  31.471  28.871  1.00  0.00     0.074 A 
ATOM     65  C   UNL A   1      44.333  32.334  29.515  1.00  0.00     0.031 C 
ATOM     66  C   UNL A   1      46.569  31.841  28.564  1.00  0.00     0.031 A 
BRANCH  53  67
ATOM     67  C   UNL A   1      49.921  27.388  25.890  1.00  0.00    -0.014 A 
ATOM     68  C   UNL A   1      50.231  27.556  24.529  1.00  0.00     0.010 A 
ATOM     69  C   UNL A   1      50.889  26.837  26.749  1.00  0.00     0.010 A 
ATOM     70  C   UNL A   1      51.467  27.140  24.028  1.00  0.00     0.020 A 
ATOM     71  C   UNL A   1      52.137  26.445  26.257  1.00  0.00     0.020 A 
ATOM     72  C   UNL A   1      52.411  26.581  24.894  1.00  0.00     0.054 A 
BRANCH  72  73
ATOM     73  S   UNL A   1      54.012  26.063  24.220  1.00  0.00     0.124 S 
ATOM     74  O   UNL A   1      54.922  27.021  24.841  1.00  0.00    -0.237 OA
ATOM     75  O   UNL A   1      54.131  24.686  24.693  1.00  0.00    -0.237 OA
ATOM     76  O   UNL A   1      53.844  26.210  22.775  1.00  0.00    -0.744 OA
ENDBRANCH  72  73
ENDBRANCH  53  67
BRANCH  54  77
ATOM     77  C   UNL A   1      41.010  29.741  29.734  1.00  0.00    -0.014 A 
ATOM     78  C   UNL A   1      39.935  30.129  28.916  1.00  0.00     0.010 A 
ATOM     79  C   UNL A   1      40.820  29.668  31.127  1.00  0.00     0.010 A 
ATOM     80  C   UNL A   1      38.697  30.454  29.479  1.00  0.00     0.020 A 
ATOM     81  C   UNL A   1      39.577  29.967  31.690  1.00  0.00     0.020 A 
ATOM     82  C   UNL A   1      38.525  30.368  30.864  1.00  0.00     0.054 A 
BRANCH  82  83
ATOM     83  S   UNL A   1      36.895  30.739  31.569  1.00  0.00     0.124 S 
ATOM     84  O   UNL A   1      36.359  31.696  30.607  1.00  0.00    -0.237 OA
ATOM     85  O   UNL A   1      36.252  29.427  31.583  1.00  0.00    -0.237 OA
ATOM     86  O   UNL A   1      37.211  31.282  32.888  1.00  0.00    -0.744 OA
ENDBRANCH  82  83
ENDBRANCH  54  77
BRANCH  66  87
ATOM     87  C   UNL A   1      46.976  33.252  28.892  1.00  0.00    -0.014 A 
ATOM     88  C   UNL A   1      47.587  33.570  30.118  1.00  0.00     0.010 A 
ATOM     89  C   UNL A   1      46.794  34.265  27.933  1.00  0.00     0.010 A 
ATOM     90  C   UNL A   1      47.982  34.882  30.390  1.00  0.00     0.020 A 
ATOM     91  C   UNL A   1      47.210  35.573  28.192  1.00  0.00     0.020 A 
ATOM     92  C   UNL A   1      47.791  35.876  29.426  1.00  0.00     0.054 A 
BRANCH  92  93
ATOM     93  S   UNL A   1      48.354  37.563  29.783  1.00  0.00     0.124 S 
ATOM     94  O   UNL A   1      49.618  37.321  30.471  1.00  0.00    -0.237 OA
ATOM     95  O   UNL A   1      48.466  38.153  28.451  1.00  0.00    -0.237 OA
ATOM     96  O   UNL A   1      47.286  38.115  30.614  1.00  0.00    -0.744 OA
ENDBRANCH  92  93
ENDBRANCH  66  87
ENDBRANCH  40  41
ENDBRANCH  32  35
ENDBRANCH  30  31
ENDBRANCH  29  30
ENDBRANCH   1  29
TORSDOF 18
ENDMDL
