MODEL 1
REMARK VINA RESULT:     -10.6      0.000      0.000
REMARK SMILES CCCCCCNC(=O)Oc1cccc(-c2ccc([C@@H](C)C(=O)NCCCCNC(=O)c3ccc(-c4c5nc(c(-c6ccc(S(=O)(=O)[O-])cc6)c6ccc([nH]6)c(-c6ccc(S(=O)(=O)[O-])cc6)c6nc(c(-c7ccc(S(=O)(=O)[O-])cc7)c7ccc4[nH]7)C=C6)C=C5)cc3)cc2C(F)(F)F)c1
REMARK SMILES IDX 20 1 21 2 19 3 16 4 17 5 93 6 18 7 92 8 15 9 11 10 12 11
REMARK SMILES IDX 98 12 13 13 14 14 10 15 8 16 7 17 9 19 6 20 5 21 4 22 3 23
REMARK SMILES IDX 2 24 1 25 94 26 95 27 96 28 97 29 22 30 23 31 24 32 25 34
REMARK SMILES IDX 26 35 27 36 28 37 29 38 30 39 31 41 32 42 33 43 91 44 34 45
REMARK SMILES IDX 90 46 35 47 36 48 37 49 84 50 38 51 89 52 83 53 85 54 39 55
REMARK SMILES IDX 88 56 82 57 81 58 40 60 70 61 51 62 69 63 52 64 55 65 68 66
REMARK SMILES IDX 86 67 53 68 54 69 67 71 87 72 56 73 41 74 42 75 50 76 43 77
REMARK SMILES IDX 49 78 44 79 45 80 46 81 47 82 48 83 71 84 72 85 80 86 73 87
REMARK SMILES IDX 79 88 74 89 75 90 76 91 77 92 78 93 57 94 58 95 66 96 59 97
REMARK SMILES IDX 65 98 60 99 61 100 62 101 63 102 64 103
REMARK H PARENT 7 18 24 33 29 40 85 59 55 70
REMARK Flexibility Score: inf
ROOT
ATOM      1  C   UNL A   1      29.523  27.754  22.760  1.00  0.00     0.105 C 
ATOM      2  C   UNL A   1      28.174  27.849  23.473  1.00  0.00     0.023 C 
ENDROOT
BRANCH   1   3
ATOM      3  C   UNL A   1      30.439  26.639  23.238  1.00  0.00    -0.035 A 
ATOM      4  C   UNL A   1      31.969  24.354  24.049  1.00  0.00    -0.006 A 
ATOM      5  C   UNL A   1      32.329  25.147  22.942  1.00  0.00     0.009 A 
ATOM      6  C   UNL A   1      30.884  24.801  24.832  1.00  0.00     0.064 A 
ATOM      7  C   UNL A   1      31.619  26.298  22.587  1.00  0.00     0.005 A 
ATOM      8  C   UNL A   1      30.101  25.892  24.375  1.00  0.00     0.018 A 
BRANCH   4   9
ATOM      9  C   UNL A   1      32.744  23.120  24.305  1.00  0.00    -0.014 A 
ATOM     10  C   UNL A   1      34.655  21.957  25.255  1.00  0.00     0.133 A 
ATOM     11  C   UNL A   1      34.189  20.734  24.781  1.00  0.00     0.047 A 
ATOM     12  C   UNL A   1      33.939  23.139  25.043  1.00  0.00     0.056 A 
ATOM     13  C   UNL A   1      32.986  20.690  24.087  1.00  0.00     0.004 A 
ATOM     14  C   UNL A   1      32.281  21.872  23.841  1.00  0.00     0.009 A 
BRANCH  10  15
ATOM     15  O   UNL A   1      35.950  21.959  25.803  1.00  0.00    -0.410 OA
BRANCH  15  16
ATOM     16  C   UNL A   1      37.054  21.945  24.964  1.00  0.00     0.412 C 
ATOM     17  N   UNL A   1      37.851  23.046  25.121  1.00  0.00    -0.321 N 
ATOM     18  H   UNL A   1      38.632  23.114  24.527  1.00  0.00     0.167 HD
ATOM     19  O   UNL A   1      37.324  21.073  24.149  1.00  0.00    -0.224 OA
BRANCH  17  20
ATOM     20  C   UNL A   1      37.663  24.123  26.074  1.00  0.00     0.119 C 
BRANCH  20  21
ATOM     21  C   UNL A   1      38.829  24.229  27.057  1.00  0.00     0.021 C 
BRANCH  21  22
ATOM     22  C   UNL A   1      40.067  23.405  26.680  1.00  0.00     0.002 C 
BRANCH  22  23
ATOM     23  C   UNL A   1      40.288  22.134  27.507  1.00  0.00    -0.000 C 
BRANCH  23  24
ATOM     24  C   UNL A   1      40.617  20.874  26.702  1.00  0.00    -0.003 C 
ATOM     25  C   UNL A   1      41.541  19.915  27.436  1.00  0.00     0.004 C 
ENDBRANCH  23  24
ENDBRANCH  22  23
ENDBRANCH  21  22
ENDBRANCH  20  21
ENDBRANCH  17  20
ENDBRANCH  15  16
ENDBRANCH  10  15
ENDBRANCH   4   9
BRANCH   6  26
ATOM     26  C   UNL A   1      30.504  24.221  26.178  1.00  0.00     0.417 C 
ATOM     27  F   UNL A   1      30.241  22.880  26.086  1.00  0.00    -0.166 F 
ATOM     28  F   UNL A   1      31.504  24.328  27.097  1.00  0.00    -0.166 F 
ATOM     29  F   UNL A   1      29.396  24.744  26.764  1.00  0.00    -0.166 F 
ENDBRANCH   6  26
ENDBRANCH   1   3
BRANCH   1  30
ATOM     30  C   UNL A   1      30.228  29.107  22.562  1.00  0.00     0.227 C 
ATOM     31  O   UNL A   1      30.101  29.709  21.488  1.00  0.00    -0.274 OA
ATOM     32  N   UNL A   1      30.983  29.722  23.514  1.00  0.00    -0.356 N 
ATOM     33  H   UNL A   1      31.294  30.621  23.261  1.00  0.00     0.163 HD
BRANCH  32  34
ATOM     34  C   UNL A   1      31.413  29.294  24.829  1.00  0.00     0.116 C 
BRANCH  34  35
ATOM     35  C   UNL A   1      32.893  28.905  24.846  1.00  0.00     0.023 C 
BRANCH  35  36
ATOM     36  C   UNL A   1      33.264  27.821  25.854  1.00  0.00     0.023 C 
BRANCH  36  37
ATOM     37  C   UNL A   1      33.814  28.333  27.176  1.00  0.00     0.116 C 
BRANCH  37  38
ATOM     38  N   UNL A   1      33.670  29.772  27.365  1.00  0.00    -0.352 N 
ATOM     39  C   UNL A   1      34.579  30.641  27.928  1.00  0.00     0.251 C 
ATOM     40  H   UNL A   1      32.824  30.167  27.055  1.00  0.00     0.163 HD
ATOM     41  O   UNL A   1      34.295  31.821  28.097  1.00  0.00    -0.269 OA
BRANCH  39  42
ATOM     42  C   UNL A   1      35.884  30.107  28.365  1.00  0.00     0.039 A 
ATOM     43  C   UNL A   1      37.009  30.327  27.567  1.00  0.00     0.014 A 
ATOM     44  C   UNL A   1      36.005  29.484  29.610  1.00  0.00     0.014 A 
ATOM     45  C   UNL A   1      38.272  29.991  28.060  1.00  0.00     0.010 A 
ATOM     46  C   UNL A   1      37.268  29.234  30.130  1.00  0.00     0.010 A 
ATOM     47  C   UNL A   1      38.415  29.485  29.362  1.00  0.00    -0.014 A 
BRANCH  47  48
ATOM     48  C   UNL A   1      39.752  29.199  29.944  1.00  0.00     0.031 A 
ATOM     49  C   UNL A   1      40.237  30.003  31.121  1.00  0.00     0.074 A 
ATOM     50  C   UNL A   1      40.551  28.272  29.377  1.00  0.00     0.049 A 
ATOM     51  N   UNL A   1      41.402  29.975  31.713  1.00  0.00    -0.248 NA
ATOM     52  C   UNL A   1      39.300  30.988  31.687  1.00  0.00     0.031 C 
ATOM     53  C   UNL A   1      40.212  27.454  28.208  1.00  0.00     0.029 A 
ATOM     54  N   UNL A   1      41.821  27.866  29.704  1.00  0.00    -0.354 N 
ATOM     55  C   UNL A   1      41.343  30.944  32.707  1.00  0.00     0.074 A 
ATOM     56  C   UNL A   1      40.050  31.584  32.600  1.00  0.00     0.031 C 
ATOM     57  C   UNL A   1      41.235  26.627  27.936  1.00  0.00     0.029 A 
ATOM     58  C   UNL A   1      42.318  26.882  28.880  1.00  0.00     0.049 A 
ATOM     59  H   UNL A   1      42.329  28.244  30.458  1.00  0.00     0.167 HD
ATOM     60  C   UNL A   1      42.267  31.256  33.645  1.00  0.00     0.031 A 
ATOM     61  C   UNL A   1      43.515  26.262  28.882  1.00  0.00     0.031 A 
ATOM     62  C   UNL A   1      43.542  30.602  33.763  1.00  0.00     0.049 A 
ATOM     63  C   UNL A   1      44.532  26.639  29.927  1.00  0.00     0.074 A 
ATOM     64  C   UNL A   1      44.533  30.817  34.705  1.00  0.00     0.029 A 
ATOM     65  N   UNL A   1      43.999  29.600  32.922  1.00  0.00    -0.354 N 
ATOM     66  N   UNL A   1      44.435  27.524  30.890  1.00  0.00    -0.248 NA
ATOM     67  C   UNL A   1      45.816  25.924  29.892  1.00  0.00     0.031 C 
ATOM     68  C   UNL A   1      45.608  29.973  34.407  1.00  0.00     0.029 A 
ATOM     69  C   UNL A   1      45.262  29.194  33.316  1.00  0.00     0.049 A 
ATOM     70  H   UNL A   1      43.498  29.232  32.158  1.00  0.00     0.167 HD
ATOM     71  C   UNL A   1      45.630  27.444  31.597  1.00  0.00     0.074 A 
ATOM     72  C   UNL A   1      46.427  26.418  30.959  1.00  0.00     0.031 C 
ATOM     73  C   UNL A   1      46.032  28.157  32.678  1.00  0.00     0.031 A 
BRANCH  60  74
ATOM     74  C   UNL A   1      41.926  32.342  34.628  1.00  0.00    -0.014 A 
ATOM     75  C   UNL A   1      42.211  33.690  34.341  1.00  0.00     0.010 A 
ATOM     76  C   UNL A   1      41.262  32.023  35.827  1.00  0.00     0.010 A 
ATOM     77  C   UNL A   1      41.868  34.695  35.247  1.00  0.00     0.020 A 
ATOM     78  C   UNL A   1      40.891  33.030  36.723  1.00  0.00     0.020 A 
ATOM     79  C   UNL A   1      41.207  34.359  36.433  1.00  0.00     0.054 A 
BRANCH  79  80
ATOM     80  S   UNL A   1      40.733  35.692  37.567  1.00  0.00     0.124 S 
ATOM     81  O   UNL A   1      40.053  36.623  36.670  1.00  0.00    -0.237 OA
ATOM     82  O   UNL A   1      39.874  35.004  38.527  1.00  0.00    -0.237 OA
ATOM     83  O   UNL A   1      42.009  36.163  38.101  1.00  0.00    -0.744 OA
ENDBRANCH  79  80
ENDBRANCH  60  74
BRANCH  61  84
ATOM     84  C   UNL A   1      43.824  25.212  27.871  1.00  0.00    -0.014 A 
ATOM     85  C   UNL A   1      43.555  23.859  28.143  1.00  0.00     0.010 A 
ATOM     86  C   UNL A   1      44.416  25.554  26.642  1.00  0.00     0.010 A 
ATOM     87  C   UNL A   1      43.909  22.865  27.226  1.00  0.00     0.020 A 
ATOM     88  C   UNL A   1      44.743  24.567  25.708  1.00  0.00     0.020 A 
ATOM     89  C   UNL A   1      44.507  23.225  26.015  1.00  0.00     0.054 A 
BRANCH  89  90
ATOM     90  S   UNL A   1      44.951  21.921  24.834  1.00  0.00     0.124 S 
ATOM     91  O   UNL A   1      46.297  21.564  25.270  1.00  0.00    -0.237 OA
ATOM     92  O   UNL A   1      43.920  20.913  25.074  1.00  0.00    -0.237 OA
ATOM     93  O   UNL A   1      44.868  22.591  23.539  1.00  0.00    -0.744 OA
ENDBRANCH  89  90
ENDBRANCH  61  84
BRANCH  73  94
ATOM     94  C   UNL A   1      47.370  27.817  33.278  1.00  0.00    -0.014 A 
ATOM     95  C   UNL A   1      48.555  28.401  32.800  1.00  0.00     0.010 A 
ATOM     96  C   UNL A   1      47.428  26.949  34.383  1.00  0.00     0.010 A 
ATOM     97  C   UNL A   1      49.781  28.100  33.399  1.00  0.00     0.020 A 
ATOM     98  C   UNL A   1      48.648  26.668  35.004  1.00  0.00     0.020 A 
ATOM     99  C   UNL A   1      49.819  27.236  34.499  1.00  0.00     0.054 A 
BRANCH  99 100
ATOM    100  S   UNL A   1      51.415  26.903  35.292  1.00  0.00     0.124 S 
ATOM    101  O   UNL A   1      52.270  27.926  34.695  1.00  0.00    -0.237 OA
ATOM    102  O   UNL A   1      51.114  27.086  36.709  1.00  0.00    -0.237 OA
ATOM    103  O   UNL A   1      51.719  25.529  34.898  1.00  0.00    -0.744 OA
ENDBRANCH  99 100
ENDBRANCH  73  94
ENDBRANCH  47  48
ENDBRANCH  39  42
ENDBRANCH  37  38
ENDBRANCH  36  37
ENDBRANCH  35  36
ENDBRANCH  34  35
ENDBRANCH  32  34
ENDBRANCH   1  30
TORSDOF 24
ENDMDL
MODEL 2
REMARK VINA RESULT:      -9.9      2.861     10.125
REMARK SMILES CCCCCCNC(=O)Oc1cccc(-c2ccc([C@@H](C)C(=O)NCCCCNC(=O)c3ccc(-c4c5nc(c(-c6ccc(S(=O)(=O)[O-])cc6)c6ccc([nH]6)c(-c6ccc(S(=O)(=O)[O-])cc6)c6nc(c(-c7ccc(S(=O)(=O)[O-])cc7)c7ccc4[nH]7)C=C6)C=C5)cc3)cc2C(F)(F)F)c1
REMARK SMILES IDX 20 1 21 2 19 3 16 4 17 5 93 6 18 7 92 8 15 9 11 10 12 11
REMARK SMILES IDX 98 12 13 13 14 14 10 15 8 16 7 17 9 19 6 20 5 21 4 22 3 23
REMARK SMILES IDX 2 24 1 25 94 26 95 27 96 28 97 29 22 30 23 31 24 32 25 34
REMARK SMILES IDX 26 35 27 36 28 37 29 38 30 39 31 41 32 42 33 43 91 44 34 45
REMARK SMILES IDX 90 46 35 47 36 48 37 49 84 50 38 51 89 52 83 53 85 54 39 55
REMARK SMILES IDX 88 56 82 57 81 58 40 60 70 61 51 62 69 63 52 64 55 65 68 66
REMARK SMILES IDX 86 67 53 68 54 69 67 71 87 72 56 73 41 74 42 75 50 76 43 77
REMARK SMILES IDX 49 78 44 79 45 80 46 81 47 82 48 83 71 84 72 85 80 86 73 87
REMARK SMILES IDX 79 88 74 89 75 90 76 91 77 92 78 93 57 94 58 95 66 96 59 97
REMARK SMILES IDX 65 98 60 99 61 100 62 101 63 102 64 103
REMARK H PARENT 7 18 24 33 29 40 85 59 55 70
REMARK Flexibility Score: inf
ROOT
ATOM      1  C   UNL A   1      38.200  22.583  25.554  1.00  0.00     0.105 C 
ATOM      2  C   UNL A   1      38.765  23.409  26.710  1.00  0.00     0.023 C 
ENDROOT
BRANCH   1   3
ATOM      3  C   UNL A   1      36.762  22.894  25.168  1.00  0.00    -0.035 A 
ATOM      4  C   UNL A   1      34.078  23.718  24.593  1.00  0.00    -0.006 A 
ATOM      5  C   UNL A   1      35.095  23.732  23.619  1.00  0.00     0.009 A 
ATOM      6  C   UNL A   1      34.399  23.158  25.847  1.00  0.00     0.064 A 
ATOM      7  C   UNL A   1      36.387  23.269  23.883  1.00  0.00     0.005 A 
ATOM      8  C   UNL A   1      35.747  22.821  26.132  1.00  0.00     0.018 A 
BRANCH   4   9
ATOM      9  C   UNL A   1      32.761  24.289  24.234  1.00  0.00    -0.014 A 
ATOM     10  C   UNL A   1      31.174  26.129  24.185  1.00  0.00     0.133 A 
ATOM     11  C   UNL A   1      30.235  25.346  23.520  1.00  0.00     0.047 A 
ATOM     12  C   UNL A   1      32.432  25.624  24.524  1.00  0.00     0.056 A 
ATOM     13  C   UNL A   1      30.560  24.037  23.186  1.00  0.00     0.004 A 
ATOM     14  C   UNL A   1      31.803  23.513  23.552  1.00  0.00     0.009 A 
BRANCH  10  15
ATOM     15  O   UNL A   1      30.729  27.384  24.637  1.00  0.00    -0.410 OA
BRANCH  15  16
ATOM     16  C   UNL A   1      31.608  28.456  24.674  1.00  0.00     0.412 C 
ATOM     17  N   UNL A   1      31.523  29.247  23.561  1.00  0.00    -0.321 N 
ATOM     18  H   UNL A   1      32.149  30.004  23.509  1.00  0.00     0.167 HD
ATOM     19  O   UNL A   1      32.400  28.703  25.574  1.00  0.00    -0.224 OA
BRANCH  17  20
ATOM     20  C   UNL A   1      30.605  29.085  22.450  1.00  0.00     0.119 C 
BRANCH  20  21
ATOM     21  C   UNL A   1      29.192  29.551  22.802  1.00  0.00     0.021 C 
BRANCH  21  22
ATOM     22  C   UNL A   1      28.381  30.096  21.619  1.00  0.00     0.002 C 
BRANCH  22  23
ATOM     23  C   UNL A   1      27.739  31.470  21.838  1.00  0.00    -0.000 C 
BRANCH  23  24
ATOM     24  C   UNL A   1      28.055  32.137  23.180  1.00  0.00    -0.003 C 
ATOM     25  C   UNL A   1      28.994  33.327  23.053  1.00  0.00     0.004 C 
ENDBRANCH  23  24
ENDBRANCH  22  23
ENDBRANCH  21  22
ENDBRANCH  20  21
ENDBRANCH  17  20
ENDBRANCH  15  16
ENDBRANCH  10  15
ENDBRANCH   4   9
BRANCH   6  26
ATOM     26  C   UNL A   1      33.386  22.841  26.927  1.00  0.00     0.417 C 
ATOM     27  F   UNL A   1      33.988  22.301  28.032  1.00  0.00    -0.166 F 
ATOM     28  F   UNL A   1      32.736  23.950  27.378  1.00  0.00    -0.166 F 
ATOM     29  F   UNL A   1      32.419  21.946  26.597  1.00  0.00    -0.166 F 
ENDBRANCH   6  26
ENDBRANCH   1   3
BRANCH   1  30
ATOM     30  C   UNL A   1      38.519  21.080  25.638  1.00  0.00     0.227 C 
ATOM     31  O   UNL A   1      37.606  20.256  25.508  1.00  0.00    -0.274 OA
ATOM     32  N   UNL A   1      39.769  20.574  25.826  1.00  0.00    -0.356 N 
ATOM     33  H   UNL A   1      39.818  19.592  25.771  1.00  0.00     0.163 HD
BRANCH  32  34
ATOM     34  C   UNL A   1      41.039  21.216  26.094  1.00  0.00     0.116 C 
BRANCH  34  35
ATOM     35  C   UNL A   1      41.409  21.150  27.578  1.00  0.00     0.023 C 
BRANCH  35  36
ATOM     36  C   UNL A   1      41.854  22.475  28.191  1.00  0.00     0.023 C 
BRANCH  36  37
ATOM     37  C   UNL A   1      42.925  23.219  27.407  1.00  0.00     0.116 C 
BRANCH  37  38
ATOM     38  N   UNL A   1      42.424  23.926  26.235  1.00  0.00    -0.352 N 
ATOM     39  C   UNL A   1      41.884  25.192  26.185  1.00  0.00     0.251 C 
ATOM     40  H   UNL A   1      42.477  23.441  25.380  1.00  0.00     0.163 HD
ATOM     41  O   UNL A   1      41.426  25.637  25.138  1.00  0.00    -0.269 OA
BRANCH  39  42
ATOM     42  C   UNL A   1      41.827  25.982  27.431  1.00  0.00     0.039 A 
ATOM     43  C   UNL A   1      42.813  26.940  27.674  1.00  0.00     0.014 A 
ATOM     44  C   UNL A   1      40.740  25.843  28.299  1.00  0.00     0.014 A 
ATOM     45  C   UNL A   1      42.665  27.815  28.751  1.00  0.00     0.010 A 
ATOM     46  C   UNL A   1      40.553  26.771  29.315  1.00  0.00     0.010 A 
ATOM     47  C   UNL A   1      41.512  27.767  29.553  1.00  0.00    -0.014 A 
BRANCH  47  48
ATOM     48  C   UNL A   1      41.286  28.740  30.652  1.00  0.00     0.031 A 
ATOM     49  C   UNL A   1      42.155  28.687  31.881  1.00  0.00     0.074 A 
ATOM     50  C   UNL A   1      40.265  29.619  30.577  1.00  0.00     0.049 A 
ATOM     51  N   UNL A   1      42.062  29.380  32.986  1.00  0.00    -0.248 NA
ATOM     52  C   UNL A   1      43.252  27.706  31.879  1.00  0.00     0.031 C 
ATOM     53  C   UNL A   1      39.328  29.743  29.457  1.00  0.00     0.029 A 
ATOM     54  N   UNL A   1      39.840  30.573  31.468  1.00  0.00    -0.354 N 
ATOM     55  C   UNL A   1      43.075  28.910  33.812  1.00  0.00     0.074 A 
ATOM     56  C   UNL A   1      43.733  27.832  33.107  1.00  0.00     0.031 C 
ATOM     57  C   UNL A   1      38.459  30.734  29.717  1.00  0.00     0.029 A 
ATOM     58  C   UNL A   1      38.747  31.287  31.036  1.00  0.00     0.049 A 
ATOM     59  H   UNL A   1      40.276  30.731  32.337  1.00  0.00     0.167 HD
ATOM     60  C   UNL A   1      43.447  29.352  35.036  1.00  0.00     0.031 A 
ATOM     61  C   UNL A   1      38.051  32.273  31.638  1.00  0.00     0.031 A 
ATOM     62  C   UNL A   1      42.805  30.439  35.725  1.00  0.00     0.049 A 
ATOM     63  C   UNL A   1      38.476  32.736  33.006  1.00  0.00     0.074 A 
ATOM     64  C   UNL A   1      43.133  30.990  36.951  1.00  0.00     0.029 A 
ATOM     65  N   UNL A   1      41.715  31.147  35.244  1.00  0.00    -0.354 N 
ATOM     66  N   UNL A   1      39.470  32.310  33.749  1.00  0.00    -0.248 NA
ATOM     67  C   UNL A   1      37.692  33.821  33.613  1.00  0.00     0.031 C 
ATOM     68  C   UNL A   1      42.213  32.005  37.232  1.00  0.00     0.029 A 
ATOM     69  C   UNL A   1      41.350  32.123  36.155  1.00  0.00     0.049 A 
ATOM     70  H   UNL A   1      41.268  30.981  34.383  1.00  0.00     0.167 HD
ATOM     71  C   UNL A   1      39.453  33.101  34.893  1.00  0.00     0.074 A 
ATOM     72  C   UNL A   1      38.358  34.037  34.739  1.00  0.00     0.031 C 
ATOM     73  C   UNL A   1      40.269  33.057  35.975  1.00  0.00     0.031 A 
BRANCH  60  74
ATOM     74  C   UNL A   1      44.611  28.671  35.701  1.00  0.00    -0.014 A 
ATOM     75  C   UNL A   1      44.413  27.545  36.523  1.00  0.00     0.010 A 
ATOM     76  C   UNL A   1      45.922  29.121  35.460  1.00  0.00     0.010 A 
ATOM     77  C   UNL A   1      45.501  26.902  37.116  1.00  0.00     0.020 A 
ATOM     78  C   UNL A   1      47.016  28.461  36.029  1.00  0.00     0.020 A 
ATOM     79  C   UNL A   1      46.797  27.363  36.863  1.00  0.00     0.054 A 
BRANCH  79  80
ATOM     80  S   UNL A   1      48.191  26.478  37.611  1.00  0.00     0.124 S 
ATOM     81  O   UNL A   1      47.595  25.179  37.917  1.00  0.00    -0.237 OA
ATOM     82  O   UNL A   1      49.182  26.476  36.538  1.00  0.00    -0.237 OA
ATOM     83  O   UNL A   1      48.537  27.293  38.774  1.00  0.00    -0.744 OA
ENDBRANCH  79  80
ENDBRANCH  60  74
BRANCH  61  84
ATOM     84  C   UNL A   1      36.885  32.901  30.956  1.00  0.00    -0.014 A 
ATOM     85  C   UNL A   1      37.082  33.834  29.922  1.00  0.00     0.010 A 
ATOM     86  C   UNL A   1      35.572  32.594  31.355  1.00  0.00     0.010 A 
ATOM     87  C   UNL A   1      35.991  34.478  29.329  1.00  0.00     0.020 A 
ATOM     88  C   UNL A   1      34.477  33.212  30.744  1.00  0.00     0.020 A 
ATOM     89  C   UNL A   1      34.695  34.167  29.748  1.00  0.00     0.054 A 
BRANCH  89  90
ATOM     90  S   UNL A   1      33.293  35.008  28.960  1.00  0.00     0.124 S 
ATOM     91  O   UNL A   1      32.479  35.382  30.111  1.00  0.00    -0.237 OA
ATOM     92  O   UNL A   1      33.943  36.113  28.258  1.00  0.00    -0.237 OA
ATOM     93  O   UNL A   1      32.722  33.980  28.094  1.00  0.00    -0.744 OA
ENDBRANCH  89  90
ENDBRANCH  61  84
BRANCH  73  94
ATOM     94  C   UNL A   1      40.050  34.083  37.054  1.00  0.00    -0.014 A 
ATOM     95  C   UNL A   1      40.625  35.363  36.973  1.00  0.00     0.010 A 
ATOM     96  C   UNL A   1      39.200  33.778  38.132  1.00  0.00     0.010 A 
ATOM     97  C   UNL A   1      40.375  36.312  37.968  1.00  0.00     0.020 A 
ATOM     98  C   UNL A   1      38.924  34.734  39.114  1.00  0.00     0.020 A 
ATOM     99  C   UNL A   1      39.525  35.991  39.032  1.00  0.00     0.054 A 
BRANCH  99 100
ATOM    100  S   UNL A   1      39.174  37.258  40.281  1.00  0.00     0.124 S 
ATOM    101  O   UNL A   1      40.517  37.699  40.652  1.00  0.00    -0.237 OA
ATOM    102  O   UNL A   1      38.377  38.229  39.539  1.00  0.00    -0.237 OA
ATOM    103  O   UNL A   1      38.449  36.529  41.320  1.00  0.00    -0.744 OA
ENDBRANCH  99 100
ENDBRANCH  73  94
ENDBRANCH  47  48
ENDBRANCH  39  42
ENDBRANCH  37  38
ENDBRANCH  36  37
ENDBRANCH  35  36
ENDBRANCH  34  35
ENDBRANCH  32  34
ENDBRANCH   1  30
TORSDOF 24
ENDMDL
MODEL 3
REMARK VINA RESULT:      -9.2      2.929      9.825
REMARK SMILES CCCCCCNC(=O)Oc1cccc(-c2ccc([C@@H](C)C(=O)NCCCCNC(=O)c3ccc(-c4c5nc(c(-c6ccc(S(=O)(=O)[O-])cc6)c6ccc([nH]6)c(-c6ccc(S(=O)(=O)[O-])cc6)c6nc(c(-c7ccc(S(=O)(=O)[O-])cc7)c7ccc4[nH]7)C=C6)C=C5)cc3)cc2C(F)(F)F)c1
REMARK SMILES IDX 20 1 21 2 19 3 16 4 17 5 93 6 18 7 92 8 15 9 11 10 12 11
REMARK SMILES IDX 98 12 13 13 14 14 10 15 8 16 7 17 9 19 6 20 5 21 4 22 3 23
REMARK SMILES IDX 2 24 1 25 94 26 95 27 96 28 97 29 22 30 23 31 24 32 25 34
REMARK SMILES IDX 26 35 27 36 28 37 29 38 30 39 31 41 32 42 33 43 91 44 34 45
REMARK SMILES IDX 90 46 35 47 36 48 37 49 84 50 38 51 89 52 83 53 85 54 39 55
REMARK SMILES IDX 88 56 82 57 81 58 40 60 70 61 51 62 69 63 52 64 55 65 68 66
REMARK SMILES IDX 86 67 53 68 54 69 67 71 87 72 56 73 41 74 42 75 50 76 43 77
REMARK SMILES IDX 49 78 44 79 45 80 46 81 47 82 48 83 71 84 72 85 80 86 73 87
REMARK SMILES IDX 79 88 74 89 75 90 76 91 77 92 78 93 57 94 58 95 66 96 59 97
REMARK SMILES IDX 65 98 60 99 61 100 62 101 63 102 64 103
REMARK H PARENT 7 18 24 33 29 40 85 59 55 70
REMARK Flexibility Score: inf
ROOT
ATOM      1  C   UNL A   1      39.070  22.680  25.952  1.00  0.00     0.105 C 
ATOM      2  C   UNL A   1      39.355  23.421  27.257  1.00  0.00     0.023 C 
ENDROOT
BRANCH   1   3
ATOM      3  C   UNL A   1      37.640  22.775  25.444  1.00  0.00    -0.035 A 
ATOM      4  C   UNL A   1      34.919  23.189  24.643  1.00  0.00    -0.006 A 
ATOM      5  C   UNL A   1      36.001  23.388  23.764  1.00  0.00     0.009 A 
ATOM      6  C   UNL A   1      35.214  22.650  25.912  1.00  0.00     0.064 A 
ATOM      7  C   UNL A   1      37.322  23.124  24.136  1.00  0.00     0.005 A 
ATOM      8  C   UNL A   1      36.569  22.518  26.312  1.00  0.00     0.018 A 
BRANCH   4   9
ATOM      9  C   UNL A   1      33.564  23.559  24.176  1.00  0.00    -0.014 A 
ATOM     10  C   UNL A   1      31.722  25.135  24.005  1.00  0.00     0.133 A 
ATOM     11  C   UNL A   1      30.975  24.231  23.255  1.00  0.00     0.047 A 
ATOM     12  C   UNL A   1      33.010  24.822  24.447  1.00  0.00     0.056 A 
ATOM     13  C   UNL A   1      31.524  22.995  22.940  1.00  0.00     0.004 A 
ATOM     14  C   UNL A   1      32.798  22.660  23.407  1.00  0.00     0.009 A 
BRANCH  10  15
ATOM     15  O   UNL A   1      31.051  26.297  24.427  1.00  0.00    -0.410 OA
BRANCH  15  16
ATOM     16  C   UNL A   1      30.094  26.216  25.427  1.00  0.00     0.412 C 
ATOM     17  N   UNL A   1      30.580  26.579  26.654  1.00  0.00    -0.321 N 
ATOM     18  H   UNL A   1      29.959  26.506  27.414  1.00  0.00     0.167 HD
ATOM     19  O   UNL A   1      28.934  25.855  25.282  1.00  0.00    -0.224 OA
BRANCH  17  20
ATOM     20  C   UNL A   1      31.916  27.060  26.949  1.00  0.00     0.119 C 
BRANCH  20  21
ATOM     21  C   UNL A   1      31.952  28.578  27.129  1.00  0.00     0.021 C 
BRANCH  21  22
ATOM     22  C   UNL A   1      32.970  29.307  26.243  1.00  0.00     0.002 C 
BRANCH  22  23
ATOM     23  C   UNL A   1      33.408  30.688  26.744  1.00  0.00    -0.000 C 
BRANCH  23  24
ATOM     24  C   UNL A   1      34.355  30.682  27.947  1.00  0.00    -0.003 C 
ATOM     25  C   UNL A   1      35.736  30.134  27.622  1.00  0.00     0.004 C 
ENDBRANCH  23  24
ENDBRANCH  22  23
ENDBRANCH  21  22
ENDBRANCH  20  21
ENDBRANCH  17  20
ENDBRANCH  15  16
ENDBRANCH  10  15
ENDBRANCH   4   9
BRANCH   6  26
ATOM     26  C   UNL A   1      34.175  22.149  26.893  1.00  0.00     0.417 C 
ATOM     27  F   UNL A   1      33.355  21.217  26.316  1.00  0.00    -0.166 F 
ATOM     28  F   UNL A   1      34.728  21.524  27.970  1.00  0.00    -0.166 F 
ATOM     29  F   UNL A   1      33.326  23.084  27.394  1.00  0.00    -0.166 F 
ENDBRANCH   6  26
ENDBRANCH   1   3
BRANCH   1  30
ATOM     30  C   UNL A   1      39.669  21.264  25.886  1.00  0.00     0.227 C 
ATOM     31  O   UNL A   1      38.920  20.282  25.959  1.00  0.00    -0.274 OA
ATOM     32  N   UNL A   1      40.995  21.003  25.727  1.00  0.00    -0.356 N 
ATOM     33  H   UNL A   1      41.207  20.047  25.619  1.00  0.00     0.163 HD
BRANCH  32  34
ATOM     34  C   UNL A   1      42.152  21.873  25.688  1.00  0.00     0.116 C 
BRANCH  34  35
ATOM     35  C   UNL A   1      42.993  21.761  26.962  1.00  0.00     0.023 C 
BRANCH  35  36
ATOM     36  C   UNL A   1      43.203  23.071  27.714  1.00  0.00     0.023 C 
BRANCH  36  37
ATOM     37  C   UNL A   1      43.922  24.157  26.927  1.00  0.00     0.116 C 
BRANCH  37  38
ATOM     38  N   UNL A   1      43.122  24.749  25.861  1.00  0.00    -0.352 N 
ATOM     39  C   UNL A   1      42.310  25.859  25.938  1.00  0.00     0.251 C 
ATOM     40  H   UNL A   1      43.167  24.303  24.985  1.00  0.00     0.163 HD
ATOM     41  O   UNL A   1      41.629  26.204  24.979  1.00  0.00    -0.269 OA
BRANCH  39  42
ATOM     42  C   UNL A   1      42.245  26.596  27.216  1.00  0.00     0.039 A 
ATOM     43  C   UNL A   1      43.036  27.734  27.385  1.00  0.00     0.014 A 
ATOM     44  C   UNL A   1      41.325  26.216  28.197  1.00  0.00     0.014 A 
ATOM     45  C   UNL A   1      42.844  28.538  28.510  1.00  0.00     0.010 A 
ATOM     46  C   UNL A   1      41.077  27.065  29.268  1.00  0.00     0.010 A 
ATOM     47  C   UNL A   1      41.833  28.235  29.436  1.00  0.00    -0.014 A 
BRANCH  47  48
ATOM     48  C   UNL A   1      41.549  29.118  30.597  1.00  0.00     0.031 A 
ATOM     49  C   UNL A   1      42.382  28.996  31.844  1.00  0.00     0.074 A 
ATOM     50  C   UNL A   1      40.506  29.973  30.555  1.00  0.00     0.049 A 
ATOM     51  N   UNL A   1      42.238  29.603  32.994  1.00  0.00    -0.248 NA
ATOM     52  C   UNL A   1      43.506  28.045  31.805  1.00  0.00     0.031 C 
ATOM     53  C   UNL A   1      39.598  30.156  29.418  1.00  0.00     0.029 A 
ATOM     54  N   UNL A   1      40.029  30.847  31.500  1.00  0.00    -0.354 N 
ATOM     55  C   UNL A   1      43.240  29.099  33.814  1.00  0.00     0.074 A 
ATOM     56  C   UNL A   1      43.947  28.093  33.053  1.00  0.00     0.031 C 
ATOM     57  C   UNL A   1      38.695  31.102  29.723  1.00  0.00     0.029 A 
ATOM     58  C   UNL A   1      38.930  31.564  31.087  1.00  0.00     0.049 A 
ATOM     59  H   UNL A   1      40.436  30.952  32.390  1.00  0.00     0.167 HD
ATOM     60  C   UNL A   1      43.563  29.459  35.078  1.00  0.00     0.031 A 
ATOM     61  C   UNL A   1      38.190  32.484  31.738  1.00  0.00     0.031 A 
ATOM     62  C   UNL A   1      42.873  30.475  35.825  1.00  0.00     0.049 A 
ATOM     63  C   UNL A   1      38.562  32.856  33.149  1.00  0.00     0.074 A 
ATOM     64  C   UNL A   1      43.150  30.942  37.098  1.00  0.00     0.029 A 
ATOM     65  N   UNL A   1      41.778  31.189  35.364  1.00  0.00    -0.354 N 
ATOM     66  N   UNL A   1      39.546  32.402  33.888  1.00  0.00    -0.248 NA
ATOM     67  C   UNL A   1      37.731  33.872  33.809  1.00  0.00     0.031 C 
ATOM     68  C   UNL A   1      42.194  31.910  37.423  1.00  0.00     0.029 A 
ATOM     69  C   UNL A   1      41.359  32.085  36.331  1.00  0.00     0.049 A 
ATOM     70  H   UNL A   1      41.361  31.075  34.479  1.00  0.00     0.167 HD
ATOM     71  C   UNL A   1      39.473  33.105  35.087  1.00  0.00     0.074 A 
ATOM     72  C   UNL A   1      38.358  34.021  34.967  1.00  0.00     0.031 C 
ATOM     73  C   UNL A   1      40.258  33.002  36.187  1.00  0.00     0.031 A 
BRANCH  60  74
ATOM     74  C   UNL A   1      44.726  28.760  35.727  1.00  0.00    -0.014 A 
ATOM     75  C   UNL A   1      44.534  27.579  36.469  1.00  0.00     0.010 A 
ATOM     76  C   UNL A   1      46.032  29.252  35.550  1.00  0.00     0.010 A 
ATOM     77  C   UNL A   1      45.622  26.922  37.048  1.00  0.00     0.020 A 
ATOM     78  C   UNL A   1      47.127  28.579  36.102  1.00  0.00     0.020 A 
ATOM     79  C   UNL A   1      46.912  27.425  36.858  1.00  0.00     0.054 A 
BRANCH  79  80
ATOM     80  S   UNL A   1      48.308  26.522  37.583  1.00  0.00     0.124 S 
ATOM     81  O   UNL A   1      49.385  26.828  36.643  1.00  0.00    -0.237 OA
ATOM     82  O   UNL A   1      48.435  27.134  38.903  1.00  0.00    -0.237 OA
ATOM     83  O   UNL A   1      47.859  25.131  37.583  1.00  0.00    -0.744 OA
ENDBRANCH  79  80
ENDBRANCH  60  74
BRANCH  61  84
ATOM     84  C   UNL A   1      37.027  33.131  31.068  1.00  0.00    -0.014 A 
ATOM     85  C   UNL A   1      35.760  33.130  31.679  1.00  0.00     0.010 A 
ATOM     86  C   UNL A   1      37.171  33.726  29.801  1.00  0.00     0.010 A 
ATOM     87  C   UNL A   1      34.653  33.674  31.019  1.00  0.00     0.020 A 
ATOM     88  C   UNL A   1      36.074  34.299  29.152  1.00  0.00     0.020 A 
ATOM     89  C   UNL A   1      34.816  34.250  29.757  1.00  0.00     0.054 A 
BRANCH  89  90
ATOM     90  S   UNL A   1      33.368  34.957  28.923  1.00  0.00     0.124 S 
ATOM     91  O   UNL A   1      32.398  35.028  30.009  1.00  0.00    -0.237 OA
ATOM     92  O   UNL A   1      33.876  36.241  28.443  1.00  0.00    -0.237 OA
ATOM     93  O   UNL A   1      33.068  33.984  27.875  1.00  0.00    -0.744 OA
ENDBRANCH  89  90
ENDBRANCH  61  84
BRANCH  73  94
ATOM     94  C   UNL A   1      39.980  33.939  37.331  1.00  0.00    -0.014 A 
ATOM     95  C   UNL A   1      40.540  35.227  37.373  1.00  0.00     0.010 A 
ATOM     96  C   UNL A   1      39.090  33.543  38.346  1.00  0.00     0.010 A 
ATOM     97  C   UNL A   1      40.236  36.095  38.426  1.00  0.00     0.020 A 
ATOM     98  C   UNL A   1      38.759  34.417  39.384  1.00  0.00     0.020 A 
ATOM     99  C   UNL A   1      39.346  35.684  39.425  1.00  0.00     0.054 A 
BRANCH  99 100
ATOM    100  S   UNL A   1      38.926  36.847  40.751  1.00  0.00     0.124 S 
ATOM    101  O   UNL A   1      40.240  37.171  41.298  1.00  0.00    -0.237 OA
ATOM    102  O   UNL A   1      38.261  37.929  40.031  1.00  0.00    -0.237 OA
ATOM    103  O   UNL A   1      38.058  36.068  41.632  1.00  0.00    -0.744 OA
ENDBRANCH  99 100
ENDBRANCH  73  94
ENDBRANCH  47  48
ENDBRANCH  39  42
ENDBRANCH  37  38
ENDBRANCH  36  37
ENDBRANCH  35  36
ENDBRANCH  34  35
ENDBRANCH  32  34
ENDBRANCH   1  30
TORSDOF 24
ENDMDL
