MODEL 1
REMARK VINA RESULT:     -10.2      0.000      0.000
REMARK SMILES CCC[C@H](CNC(=O)N1CCN2C(=O)NC[C@H]2C1)C(=O)NCCCCNC(=O)c1ccc(-c2c3nc(c(-c4ccc(S(=O)(=O)[O-])cc4)c4ccc([nH]4)c(-c4ccc(S(=O)(=O)[O-])cc4)c4nc(c(-c5ccc(S(=O)(=O)[O-])cc5)c5ccc2[nH]5)C=C4)C=C3)cc1
REMARK SMILES IDX 23 1 22 2 21 3 19 4 20 5 4 7 3 8 2 9 1 10 5 11 6 12 7 13
REMARK SMILES IDX 8 15 9 16 10 17 18 18 11 19 17 20 12 21 16 22 13 23 15 24
REMARK SMILES IDX 14 25 24 27 25 28 26 29 27 30 28 32 29 33 30 34 88 35 31 36
REMARK SMILES IDX 87 37 32 38 33 39 34 40 81 41 35 42 86 43 80 44 82 45 36 46
REMARK SMILES IDX 85 47 79 48 78 49 37 51 67 52 48 53 66 54 49 55 52 56 65 57
REMARK SMILES IDX 83 58 50 59 51 60 64 62 84 63 53 64 38 65 39 66 47 67 40 68
REMARK SMILES IDX 46 69 41 70 42 71 43 72 44 73 45 74 68 75 69 76 77 77 70 78
REMARK SMILES IDX 76 79 71 80 72 81 73 82 74 83 75 84 54 85 55 86 63 87 56 88
REMARK SMILES IDX 62 89 57 90 58 91 59 92 60 93 61 94
REMARK H PARENT 21 6 6 14 15 26 26 31 82 50 52 61
REMARK Flexibility Score: inf
ROOT
ATOM      1  C   UNL A   1      33.683  28.917  24.756  1.00  0.00     0.023 C 
ENDROOT
BRANCH   1   2
ATOM      2  C   UNL A   1      33.498  28.559  23.289  1.00  0.00     0.116 C 
BRANCH   2   3
ATOM      3  N   UNL A   1      32.096  28.639  22.964  1.00  0.00    -0.356 N 
ATOM      4  C   UNL A   1      31.276  27.635  22.557  1.00  0.00     0.224 C 
ATOM      5  O   UNL A   1      30.230  27.949  21.982  1.00  0.00    -0.275 OA
ATOM      6  H   UNL A   1      31.683  29.528  23.047  1.00  0.00     0.163 HD
BRANCH   4   7
ATOM      7  C   UNL A   1      31.565  26.167  22.875  1.00  0.00     0.097 C 
BRANCH   7   8
ATOM      8  C   UNL A   1      32.487  25.516  21.809  1.00  0.00     0.015 C 
BRANCH   8   9
ATOM      9  C   UNL A   1      33.285  24.311  22.331  1.00  0.00    -0.003 C 
ATOM     10  C   UNL A   1      33.355  23.138  21.364  1.00  0.00     0.004 C 
ENDBRANCH   8   9
ENDBRANCH   7   8
BRANCH   7  11
ATOM     11  C   UNL A   1      30.434  25.212  23.335  1.00  0.00     0.131 C 
BRANCH  11  12
ATOM     12  N   UNL A   1      29.844  25.357  24.651  1.00  0.00    -0.337 N 
ATOM     13  C   UNL A   1      30.182  24.905  25.887  1.00  0.00     0.317 C 
ATOM     14  H   UNL A   1      29.022  25.899  24.649  1.00  0.00     0.165 HD
ATOM     15  O   UNL A   1      29.402  25.143  26.811  1.00  0.00    -0.249 OA
BRANCH  13  16
ATOM     16  N   UNL A   1      31.250  24.076  26.052  1.00  0.00    -0.321 N 
ATOM     17  C   UNL A   1      32.554  24.462  26.603  1.00  0.00     0.143 C 
ATOM     18  C   UNL A   1      31.057  22.610  25.995  1.00  0.00     0.148 C 
ATOM     19  C   UNL A   1      33.728  23.799  25.850  1.00  0.00     0.143 C 
ATOM     20  C   UNL A   1      32.088  22.076  24.998  1.00  0.00     0.125 C 
ATOM     21  N   UNL A   1      33.426  22.435  25.441  1.00  0.00    -0.317 N 
ATOM     22  C   UNL A   1      32.174  20.570  24.789  1.00  0.00     0.144 C 
ATOM     23  C   UNL A   1      34.323  21.408  25.217  1.00  0.00     0.317 C 
ATOM     24  N   UNL A   1      33.592  20.311  24.791  1.00  0.00    -0.336 N 
ATOM     25  O   UNL A   1      35.529  21.442  25.359  1.00  0.00    -0.249 OA
ATOM     26  H   UNL A   1      33.994  19.454  24.520  1.00  0.00     0.165 HD
ENDBRANCH  13  16
ENDBRANCH  11  12
ENDBRANCH   7  11
ENDBRANCH   4   7
ENDBRANCH   2   3
ENDBRANCH   1   2
BRANCH   1  27
ATOM     27  C   UNL A   1      32.999  28.027  25.773  1.00  0.00     0.023 C 
BRANCH  27  28
ATOM     28  C   UNL A   1      33.348  28.344  27.214  1.00  0.00     0.116 C 
BRANCH  28  29
ATOM     29  N   UNL A   1      33.274  29.762  27.553  1.00  0.00    -0.352 N 
ATOM     30  C   UNL A   1      34.261  30.599  28.022  1.00  0.00     0.251 C 
ATOM     31  H   UNL A   1      32.393  30.180  27.426  1.00  0.00     0.163 HD
ATOM     32  O   UNL A   1      33.994  31.760  28.313  1.00  0.00    -0.269 OA
BRANCH  30  33
ATOM     33  C   UNL A   1      35.612  30.057  28.247  1.00  0.00     0.039 A 
ATOM     34  C   UNL A   1      36.543  30.144  27.212  1.00  0.00     0.014 A 
ATOM     35  C   UNL A   1      35.989  29.601  29.510  1.00  0.00     0.014 A 
ATOM     36  C   UNL A   1      37.881  29.876  27.481  1.00  0.00     0.010 A 
ATOM     37  C   UNL A   1      37.334  29.491  29.811  1.00  0.00     0.010 A 
ATOM     38  C   UNL A   1      38.293  29.609  28.797  1.00  0.00    -0.014 A 
BRANCH  38  39
ATOM     39  C   UNL A   1      39.721  29.420  29.128  1.00  0.00     0.031 A 
ATOM     40  C   UNL A   1      40.387  28.111  28.806  1.00  0.00     0.074 A 
ATOM     41  C   UNL A   1      40.394  30.408  29.751  1.00  0.00     0.049 A 
ATOM     42  N   UNL A   1      41.622  27.743  29.017  1.00  0.00    -0.248 NA
ATOM     43  C   UNL A   1      39.546  27.059  28.205  1.00  0.00     0.031 C 
ATOM     44  C   UNL A   1      39.823  31.692  30.174  1.00  0.00     0.029 A 
ATOM     45  N   UNL A   1      41.709  30.494  30.128  1.00  0.00    -0.354 N 
ATOM     46  C   UNL A   1      41.697  26.422  28.592  1.00  0.00     0.074 A 
ATOM     47  C   UNL A   1      40.368  26.023  28.194  1.00  0.00     0.031 C 
ATOM     48  C   UNL A   1      40.797  32.458  30.693  1.00  0.00     0.029 A 
ATOM     49  C   UNL A   1      42.046  31.706  30.683  1.00  0.00     0.049 A 
ATOM     50  H   UNL A   1      42.351  29.757  30.011  1.00  0.00     0.167 HD
ATOM     51  C   UNL A   1      42.784  25.623  28.503  1.00  0.00     0.031 A 
ATOM     52  C   UNL A   1      43.234  32.161  31.123  1.00  0.00     0.031 A 
ATOM     53  C   UNL A   1      44.104  26.043  28.881  1.00  0.00     0.049 A 
ATOM     54  C   UNL A   1      44.433  31.260  30.997  1.00  0.00     0.074 A 
ATOM     55  C   UNL A   1      45.292  25.343  28.783  1.00  0.00     0.029 A 
ATOM     56  N   UNL A   1      44.409  27.282  29.427  1.00  0.00    -0.354 N 
ATOM     57  N   UNL A   1      44.500  30.038  30.520  1.00  0.00    -0.248 NA
ATOM     58  C   UNL A   1      45.718  31.806  31.448  1.00  0.00     0.031 C 
ATOM     59  C   UNL A   1      46.306  26.137  29.326  1.00  0.00     0.029 A 
ATOM     60  C   UNL A   1      45.764  27.359  29.693  1.00  0.00     0.049 A 
ATOM     61  H   UNL A   1      43.757  27.999  29.599  1.00  0.00     0.167 HD
ATOM     62  C   UNL A   1      45.841  29.678  30.590  1.00  0.00     0.074 A 
ATOM     63  C   UNL A   1      46.549  30.823  31.129  1.00  0.00     0.031 C 
ATOM     64  C   UNL A   1      46.437  28.511  30.241  1.00  0.00     0.031 A 
BRANCH  51  65
ATOM     65  C   UNL A   1      42.579  24.226  27.977  1.00  0.00    -0.014 A 
ATOM     66  C   UNL A   1      42.694  23.939  26.603  1.00  0.00     0.010 A 
ATOM     67  C   UNL A   1      42.276  23.182  28.869  1.00  0.00     0.010 A 
ATOM     68  C   UNL A   1      42.466  22.646  26.127  1.00  0.00     0.020 A 
ATOM     69  C   UNL A   1      42.082  21.879  28.400  1.00  0.00     0.020 A 
ATOM     70  C   UNL A   1      42.162  21.624  27.030  1.00  0.00     0.054 A 
BRANCH  70  71
ATOM     71  S   UNL A   1      41.901  19.949  26.385  1.00  0.00     0.124 S 
ATOM     72  O   UNL A   1      42.809  19.924  25.240  1.00  0.00    -0.237 OA
ATOM     73  O   UNL A   1      42.290  19.109  27.514  1.00  0.00    -0.237 OA
ATOM     74  O   UNL A   1      40.479  19.923  26.051  1.00  0.00    -0.744 OA
ENDBRANCH  70  71
ENDBRANCH  51  65
BRANCH  52  75
ATOM     75  C   UNL A   1      43.353  33.536  31.683  1.00  0.00    -0.014 A 
ATOM     76  C   UNL A   1      43.228  33.764  33.065  1.00  0.00     0.010 A 
ATOM     77  C   UNL A   1      43.605  34.630  30.834  1.00  0.00     0.010 A 
ATOM     78  C   UNL A   1      43.324  35.059  33.584  1.00  0.00     0.020 A 
ATOM     79  C   UNL A   1      43.734  35.922  31.353  1.00  0.00     0.020 A 
ATOM     80  C   UNL A   1      43.578  36.131  32.724  1.00  0.00     0.054 A 
BRANCH  80  81
ATOM     81  S   UNL A   1      43.739  37.797  33.425  1.00  0.00     0.124 S 
ATOM     82  O   UNL A   1      42.549  37.889  34.265  1.00  0.00    -0.237 OA
ATOM     83  O   UNL A   1      45.012  37.718  34.135  1.00  0.00    -0.237 OA
ATOM     84  O   UNL A   1      43.742  38.664  32.248  1.00  0.00    -0.744 OA
ENDBRANCH  80  81
ENDBRANCH  52  75
BRANCH  64  85
ATOM     85  C   UNL A   1      47.931  28.432  30.401  1.00  0.00    -0.014 A 
ATOM     86  C   UNL A   1      48.517  27.979  31.595  1.00  0.00     0.010 A 
ATOM     87  C   UNL A   1      48.759  28.795  29.322  1.00  0.00     0.010 A 
ATOM     88  C   UNL A   1      49.908  27.945  31.728  1.00  0.00     0.020 A 
ATOM     89  C   UNL A   1      50.149  28.724  29.438  1.00  0.00     0.020 A 
ATOM     90  C   UNL A   1      50.713  28.322  30.650  1.00  0.00     0.054 A 
BRANCH  90  91
ATOM     91  S   UNL A   1      52.514  28.261  30.845  1.00  0.00     0.124 S 
ATOM     92  O   UNL A   1      52.910  27.411  29.725  1.00  0.00    -0.237 OA
ATOM     93  O   UNL A   1      52.895  29.667  30.734  1.00  0.00    -0.237 OA
ATOM     94  O   UNL A   1      52.700  27.674  32.170  1.00  0.00    -0.744 OA
ENDBRANCH  90  91
ENDBRANCH  64  85
ENDBRANCH  38  39
ENDBRANCH  30  33
ENDBRANCH  28  29
ENDBRANCH  27  28
ENDBRANCH   1  27
TORSDOF 19
ENDMDL
MODEL 2
REMARK VINA RESULT:     -10.1      2.473      7.526
REMARK SMILES CCC[C@H](CNC(=O)N1CCN2C(=O)NC[C@H]2C1)C(=O)NCCCCNC(=O)c1ccc(-c2c3nc(c(-c4ccc(S(=O)(=O)[O-])cc4)c4ccc([nH]4)c(-c4ccc(S(=O)(=O)[O-])cc4)c4nc(c(-c5ccc(S(=O)(=O)[O-])cc5)c5ccc2[nH]5)C=C4)C=C3)cc1
REMARK SMILES IDX 23 1 22 2 21 3 19 4 20 5 4 7 3 8 2 9 1 10 5 11 6 12 7 13
REMARK SMILES IDX 8 15 9 16 10 17 18 18 11 19 17 20 12 21 16 22 13 23 15 24
REMARK SMILES IDX 14 25 24 27 25 28 26 29 27 30 28 32 29 33 30 34 88 35 31 36
REMARK SMILES IDX 87 37 32 38 33 39 34 40 81 41 35 42 86 43 80 44 82 45 36 46
REMARK SMILES IDX 85 47 79 48 78 49 37 51 67 52 48 53 66 54 49 55 52 56 65 57
REMARK SMILES IDX 83 58 50 59 51 60 64 62 84 63 53 64 38 65 39 66 47 67 40 68
REMARK SMILES IDX 46 69 41 70 42 71 43 72 44 73 45 74 68 75 69 76 77 77 70 78
REMARK SMILES IDX 76 79 71 80 72 81 73 82 74 83 75 84 54 85 55 86 63 87 56 88
REMARK SMILES IDX 62 89 57 90 58 91 59 92 60 93 61 94
REMARK H PARENT 21 6 6 14 15 26 26 31 82 50 52 61
REMARK Flexibility Score: inf
ROOT
ATOM      1  C   UNL A   1      35.231  24.501  25.985  1.00  0.00     0.023 C 
ENDROOT
BRANCH   1   2
ATOM      2  C   UNL A   1      34.192  25.200  25.120  1.00  0.00     0.116 C 
BRANCH   2   3
ATOM      3  N   UNL A   1      32.879  24.795  25.553  1.00  0.00    -0.356 N 
ATOM      4  C   UNL A   1      31.754  24.669  24.800  1.00  0.00     0.224 C 
ATOM      5  O   UNL A   1      30.670  24.675  25.388  1.00  0.00    -0.275 OA
ATOM      6  H   UNL A   1      32.784  24.586  26.511  1.00  0.00     0.163 HD
BRANCH   4   7
ATOM      7  C   UNL A   1      31.808  24.427  23.292  1.00  0.00     0.097 C 
BRANCH   7   8
ATOM      8  C   UNL A   1      32.568  23.119  22.943  1.00  0.00     0.015 C 
BRANCH   8   9
ATOM      9  C   UNL A   1      31.706  21.852  23.053  1.00  0.00    -0.003 C 
ATOM     10  C   UNL A   1      31.992  20.804  21.987  1.00  0.00     0.004 C 
ENDBRANCH   8   9
ENDBRANCH   7   8
BRANCH   7  11
ATOM     11  C   UNL A   1      32.142  25.579  22.310  1.00  0.00     0.131 C 
BRANCH  11  12
ATOM     12  N   UNL A   1      31.144  26.581  21.989  1.00  0.00    -0.337 N 
ATOM     13  C   UNL A   1      30.922  27.853  22.411  1.00  0.00     0.317 C 
ATOM     14  H   UNL A   1      30.487  26.273  21.324  1.00  0.00     0.165 HD
ATOM     15  O   UNL A   1      29.912  28.421  21.994  1.00  0.00    -0.249 OA
BRANCH  13  16
ATOM     16  N   UNL A   1      31.695  28.403  23.389  1.00  0.00    -0.321 N 
ATOM     17  C   UNL A   1      33.033  28.977  23.199  1.00  0.00     0.143 C 
ATOM     18  C   UNL A   1      31.087  28.772  24.686  1.00  0.00     0.148 C 
ATOM     19  C   UNL A   1      33.992  28.625  24.357  1.00  0.00     0.143 C 
ATOM     20  C   UNL A   1      31.956  28.131  25.770  1.00  0.00     0.125 C 
ATOM     21  N   UNL A   1      33.322  28.616  25.649  1.00  0.00    -0.317 N 
ATOM     22  C   UNL A   1      31.608  28.406  27.227  1.00  0.00     0.144 C 
ATOM     23  C   UNL A   1      33.890  28.837  26.889  1.00  0.00     0.317 C 
ATOM     24  N   UNL A   1      32.888  28.674  27.833  1.00  0.00    -0.336 N 
ATOM     25  O   UNL A   1      35.046  29.120  27.128  1.00  0.00    -0.249 OA
ATOM     26  H   UNL A   1      33.035  28.733  28.805  1.00  0.00     0.165 HD
ENDBRANCH  13  16
ENDBRANCH  11  12
ENDBRANCH   7  11
ENDBRANCH   4   7
ENDBRANCH   2   3
ENDBRANCH   1   2
BRANCH   1  27
ATOM     27  C   UNL A   1      35.880  23.258  25.410  1.00  0.00     0.023 C 
BRANCH  27  28
ATOM     28  C   UNL A   1      37.221  23.506  24.747  1.00  0.00     0.116 C 
BRANCH  28  29
ATOM     29  N   UNL A   1      38.285  22.608  25.188  1.00  0.00    -0.352 N 
ATOM     30  C   UNL A   1      39.321  22.846  26.062  1.00  0.00     0.251 C 
ATOM     31  H   UNL A   1      38.257  21.702  24.804  1.00  0.00     0.163 HD
ATOM     32  O   UNL A   1      40.164  21.978  26.265  1.00  0.00    -0.269 OA
BRANCH  30  33
ATOM     33  C   UNL A   1      39.445  24.177  26.679  1.00  0.00     0.039 A 
ATOM     34  C   UNL A   1      38.944  24.360  27.968  1.00  0.00     0.014 A 
ATOM     35  C   UNL A   1      40.172  25.184  26.046  1.00  0.00     0.014 A 
ATOM     36  C   UNL A   1      39.272  25.520  28.663  1.00  0.00     0.010 A 
ATOM     37  C   UNL A   1      40.626  26.256  26.792  1.00  0.00     0.010 A 
ATOM     38  C   UNL A   1      40.167  26.445  28.101  1.00  0.00    -0.014 A 
BRANCH  38  39
ATOM     39  C   UNL A   1      40.611  27.636  28.858  1.00  0.00     0.031 A 
ATOM     40  C   UNL A   1      41.993  27.660  29.450  1.00  0.00     0.074 A 
ATOM     41  C   UNL A   1      39.757  28.662  29.041  1.00  0.00     0.049 A 
ATOM     42  N   UNL A   1      42.571  28.601  30.148  1.00  0.00    -0.248 NA
ATOM     43  C   UNL A   1      42.823  26.454  29.272  1.00  0.00     0.031 C 
ATOM     44  C   UNL A   1      38.368  28.709  28.570  1.00  0.00     0.029 A 
ATOM     45  N   UNL A   1      39.933  29.871  29.663  1.00  0.00    -0.354 N 
ATOM     46  C   UNL A   1      43.816  28.093  30.501  1.00  0.00     0.074 A 
ATOM     47  C   UNL A   1      43.877  26.734  30.020  1.00  0.00     0.031 C 
ATOM     48  C   UNL A   1      37.842  29.909  28.865  1.00  0.00     0.029 A 
ATOM     49  C   UNL A   1      38.836  30.697  29.584  1.00  0.00     0.049 A 
ATOM     50  H   UNL A   1      40.766  30.124  30.121  1.00  0.00     0.167 HD
ATOM     51  C   UNL A   1      44.834  28.717  31.136  1.00  0.00     0.031 A 
ATOM     52  C   UNL A   1      38.660  31.954  30.032  1.00  0.00     0.031 A 
ATOM     53  C   UNL A   1      44.765  30.077  31.588  1.00  0.00     0.049 A 
ATOM     54  C   UNL A   1      39.813  32.633  30.720  1.00  0.00     0.074 A 
ATOM     55  C   UNL A   1      45.751  30.835  32.193  1.00  0.00     0.029 A 
ATOM     56  N   UNL A   1      43.643  30.887  31.479  1.00  0.00    -0.354 N 
ATOM     57  N   UNL A   1      41.013  32.163  30.978  1.00  0.00    -0.248 NA
ATOM     58  C   UNL A   1      39.598  34.017  31.158  1.00  0.00     0.031 C 
ATOM     59  C   UNL A   1      45.205  32.084  32.503  1.00  0.00     0.029 A 
ATOM     60  C   UNL A   1      43.904  32.130  32.026  1.00  0.00     0.049 A 
ATOM     61  H   UNL A   1      42.789  30.615  31.073  1.00  0.00     0.167 HD
ATOM     62  C   UNL A   1      41.705  33.205  31.586  1.00  0.00     0.074 A 
ATOM     63  C   UNL A   1      40.796  34.334  31.630  1.00  0.00     0.031 C 
ATOM     64  C   UNL A   1      42.973  33.231  32.064  1.00  0.00     0.031 A 
BRANCH  51  65
ATOM     65  C   UNL A   1      46.095  27.926  31.369  1.00  0.00    -0.014 A 
ATOM     66  C   UNL A   1      47.188  28.016  30.485  1.00  0.00     0.010 A 
ATOM     67  C   UNL A   1      46.196  27.088  32.494  1.00  0.00     0.010 A 
ATOM     68  C   UNL A   1      48.336  27.250  30.696  1.00  0.00     0.020 A 
ATOM     69  C   UNL A   1      47.358  26.347  32.728  1.00  0.00     0.020 A 
ATOM     70  C   UNL A   1      48.414  26.420  31.817  1.00  0.00     0.054 A 
BRANCH  70  71
ATOM     71  S   UNL A   1      49.930  25.462  32.081  1.00  0.00     0.124 S 
ATOM     72  O   UNL A   1      50.007  24.677  30.851  1.00  0.00    -0.237 OA
ATOM     73  O   UNL A   1      50.944  26.502  32.227  1.00  0.00    -0.237 OA
ATOM     74  O   UNL A   1      49.649  24.693  33.292  1.00  0.00    -0.744 OA
ENDBRANCH  70  71
ENDBRANCH  51  65
BRANCH  52  75
ATOM     75  C   UNL A   1      37.365  32.656  29.815  1.00  0.00    -0.014 A 
ATOM     76  C   UNL A   1      37.160  33.452  28.673  1.00  0.00     0.010 A 
ATOM     77  C   UNL A   1      36.319  32.524  30.746  1.00  0.00     0.010 A 
ATOM     78  C   UNL A   1      35.948  34.123  28.481  1.00  0.00     0.020 A 
ATOM     79  C   UNL A   1      35.094  33.167  30.542  1.00  0.00     0.020 A 
ATOM     80  C   UNL A   1      34.921  33.974  29.417  1.00  0.00     0.054 A 
BRANCH  80  81
ATOM     81  S   UNL A   1      33.343  34.822  29.127  1.00  0.00     0.124 S 
ATOM     82  O   UNL A   1      33.783  36.120  28.625  1.00  0.00    -0.237 OA
ATOM     83  O   UNL A   1      32.694  33.951  28.151  1.00  0.00    -0.237 OA
ATOM     84  O   UNL A   1      32.717  34.841  30.448  1.00  0.00    -0.744 OA
ENDBRANCH  80  81
ENDBRANCH  52  75
BRANCH  64  85
ATOM     85  C   UNL A   1      43.459  34.532  32.643  1.00  0.00    -0.014 A 
ATOM     86  C   UNL A   1      44.065  35.511  31.836  1.00  0.00     0.010 A 
ATOM     87  C   UNL A   1      43.278  34.787  34.015  1.00  0.00     0.010 A 
ATOM     88  C   UNL A   1      44.534  36.698  32.403  1.00  0.00     0.020 A 
ATOM     89  C   UNL A   1      43.710  35.989  34.578  1.00  0.00     0.020 A 
ATOM     90  C   UNL A   1      44.358  36.926  33.771  1.00  0.00     0.054 A 
BRANCH  90  91
ATOM     91  S   UNL A   1      44.968  38.478  34.481  1.00  0.00     0.124 S 
ATOM     92  O   UNL A   1      44.202  38.564  35.722  1.00  0.00    -0.237 OA
ATOM     93  O   UNL A   1      46.397  38.216  34.640  1.00  0.00    -0.237 OA
ATOM     94  O   UNL A   1      44.633  39.478  33.470  1.00  0.00    -0.744 OA
ENDBRANCH  90  91
ENDBRANCH  64  85
ENDBRANCH  38  39
ENDBRANCH  30  33
ENDBRANCH  28  29
ENDBRANCH  27  28
ENDBRANCH   1  27
TORSDOF 19
ENDMDL
MODEL 3
REMARK VINA RESULT:      -9.9      4.249      9.332
REMARK SMILES CCC[C@H](CNC(=O)N1CCN2C(=O)NC[C@H]2C1)C(=O)NCCCCNC(=O)c1ccc(-c2c3nc(c(-c4ccc(S(=O)(=O)[O-])cc4)c4ccc([nH]4)c(-c4ccc(S(=O)(=O)[O-])cc4)c4nc(c(-c5ccc(S(=O)(=O)[O-])cc5)c5ccc2[nH]5)C=C4)C=C3)cc1
REMARK SMILES IDX 23 1 22 2 21 3 19 4 20 5 4 7 3 8 2 9 1 10 5 11 6 12 7 13
REMARK SMILES IDX 8 15 9 16 10 17 18 18 11 19 17 20 12 21 16 22 13 23 15 24
REMARK SMILES IDX 14 25 24 27 25 28 26 29 27 30 28 32 29 33 30 34 88 35 31 36
REMARK SMILES IDX 87 37 32 38 33 39 34 40 81 41 35 42 86 43 80 44 82 45 36 46
REMARK SMILES IDX 85 47 79 48 78 49 37 51 67 52 48 53 66 54 49 55 52 56 65 57
REMARK SMILES IDX 83 58 50 59 51 60 64 62 84 63 53 64 38 65 39 66 47 67 40 68
REMARK SMILES IDX 46 69 41 70 42 71 43 72 44 73 45 74 68 75 69 76 77 77 70 78
REMARK SMILES IDX 76 79 71 80 72 81 73 82 74 83 75 84 54 85 55 86 63 87 56 88
REMARK SMILES IDX 62 89 57 90 58 91 59 92 60 93 61 94
REMARK H PARENT 21 6 6 14 15 26 26 31 82 50 52 61
REMARK Flexibility Score: inf
ROOT
ATOM      1  C   UNL A   1      33.292  29.736  26.064  1.00  0.00     0.023 C 
ENDROOT
BRANCH   1   2
ATOM      2  C   UNL A   1      32.146  29.063  25.323  1.00  0.00     0.116 C 
BRANCH   2   3
ATOM      3  N   UNL A   1      31.784  27.856  26.024  1.00  0.00    -0.356 N 
ATOM      4  C   UNL A   1      30.933  26.878  25.617  1.00  0.00     0.224 C 
ATOM      5  O   UNL A   1      30.470  26.129  26.481  1.00  0.00    -0.275 OA
ATOM      6  H   UNL A   1      32.204  27.726  26.905  1.00  0.00     0.163 HD
BRANCH   4   7
ATOM      7  C   UNL A   1      30.623  26.632  24.141  1.00  0.00     0.097 C 
BRANCH   7   8
ATOM      8  C   UNL A   1      29.206  27.136  23.755  1.00  0.00     0.015 C 
BRANCH   8   9
ATOM      9  C   UNL A   1      29.202  28.513  23.073  1.00  0.00    -0.003 C 
ATOM     10  C   UNL A   1      27.813  29.078  22.808  1.00  0.00     0.004 C 
ENDBRANCH   8   9
ENDBRANCH   7   8
BRANCH   7  11
ATOM     11  C   UNL A   1      30.966  25.278  23.468  1.00  0.00     0.131 C 
BRANCH  11  12
ATOM     12  N   UNL A   1      31.784  25.242  22.271  1.00  0.00    -0.337 N 
ATOM     13  C   UNL A   1      32.674  24.347  21.769  1.00  0.00     0.317 C 
ATOM     14  H   UNL A   1      31.668  26.035  21.700  1.00  0.00     0.165 HD
ATOM     15  O   UNL A   1      33.276  24.661  20.742  1.00  0.00    -0.249 OA
BRANCH  13  16
ATOM     16  N   UNL A   1      33.006  23.230  22.476  1.00  0.00    -0.321 N 
ATOM     17  C   UNL A   1      32.338  21.927  22.378  1.00  0.00     0.143 C 
ATOM     18  C   UNL A   1      34.313  23.160  23.165  1.00  0.00     0.148 C 
ATOM     19  C   UNL A   1      32.177  21.246  23.755  1.00  0.00     0.143 C 
ATOM     20  C   UNL A   1      34.019  22.750  24.610  1.00  0.00     0.125 C 
ATOM     21  N   UNL A   1      33.323  21.473  24.623  1.00  0.00    -0.317 N 
ATOM     22  C   UNL A   1      35.197  22.525  25.548  1.00  0.00     0.144 C 
ATOM     23  C   UNL A   1      33.762  20.671  25.660  1.00  0.00     0.317 C 
ATOM     24  N   UNL A   1      34.847  21.309  26.239  1.00  0.00    -0.336 N 
ATOM     25  O   UNL A   1      33.296  19.607  26.013  1.00  0.00    -0.249 OA
ATOM     26  H   UNL A   1      35.324  20.970  27.031  1.00  0.00     0.165 HD
ENDBRANCH  13  16
ENDBRANCH  11  12
ENDBRANCH   7  11
ENDBRANCH   4   7
ENDBRANCH   2   3
ENDBRANCH   1   2
BRANCH   1  27
ATOM     27  C   UNL A   1      32.927  30.610  27.246  1.00  0.00     0.023 C 
BRANCH  27  28
ATOM     28  C   UNL A   1      33.909  31.734  27.517  1.00  0.00     0.116 C 
BRANCH  28  29
ATOM     29  N   UNL A   1      33.284  33.024  27.798  1.00  0.00    -0.352 N 
ATOM     30  C   UNL A   1      33.605  33.957  28.756  1.00  0.00     0.251 C 
ATOM     31  H   UNL A   1      32.524  33.258  27.219  1.00  0.00     0.163 HD
ATOM     32  O   UNL A   1      32.919  34.966  28.885  1.00  0.00    -0.269 OA
BRANCH  30  33
ATOM     33  C   UNL A   1      34.726  33.686  29.673  1.00  0.00     0.039 A 
ATOM     34  C   UNL A   1      34.510  32.828  30.750  1.00  0.00     0.014 A 
ATOM     35  C   UNL A   1      36.005  34.161  29.384  1.00  0.00     0.014 A 
ATOM     36  C   UNL A   1      35.603  32.360  31.473  1.00  0.00     0.010 A 
ATOM     37  C   UNL A   1      37.095  33.573  29.998  1.00  0.00     0.010 A 
ATOM     38  C   UNL A   1      36.906  32.681  31.061  1.00  0.00    -0.014 A 
BRANCH  38  39
ATOM     39  C   UNL A   1      38.087  32.116  31.748  1.00  0.00     0.031 A 
ATOM     40  C   UNL A   1      38.514  32.688  33.072  1.00  0.00     0.074 A 
ATOM     41  C   UNL A   1      38.787  31.126  31.159  1.00  0.00     0.049 A 
ATOM     42  N   UNL A   1      39.517  32.340  33.831  1.00  0.00    -0.248 NA
ATOM     43  C   UNL A   1      37.738  33.828  33.593  1.00  0.00     0.031 C 
ATOM     44  C   UNL A   1      38.500  30.548  29.841  1.00  0.00     0.029 A 
ATOM     45  N   UNL A   1      39.878  30.421  31.596  1.00  0.00    -0.354 N 
ATOM     46  C   UNL A   1      39.500  33.225  34.903  1.00  0.00     0.074 A 
ATOM     47  C   UNL A   1      38.445  34.178  34.655  1.00  0.00     0.031 C 
ATOM     48  C   UNL A   1      39.353  29.537  29.608  1.00  0.00     0.029 A 
ATOM     49  C   UNL A   1      40.273  29.425  30.734  1.00  0.00     0.049 A 
ATOM     50  H   UNL A   1      40.335  30.609  32.448  1.00  0.00     0.167 HD
ATOM     51  C   UNL A   1      40.267  33.220  36.016  1.00  0.00     0.031 A 
ATOM     52  C   UNL A   1      41.261  28.518  30.848  1.00  0.00     0.031 A 
ATOM     53  C   UNL A   1      41.298  32.250  36.259  1.00  0.00     0.049 A 
ATOM     54  C   UNL A   1      42.091  28.521  32.103  1.00  0.00     0.074 A 
ATOM     55  C   UNL A   1      42.103  32.109  37.374  1.00  0.00     0.029 A 
ATOM     56  N   UNL A   1      41.661  31.249  35.369  1.00  0.00    -0.354 N 
ATOM     57  N   UNL A   1      42.009  29.319  33.143  1.00  0.00    -0.248 NA
ATOM     58  C   UNL A   1      43.130  27.491  32.209  1.00  0.00     0.031 C 
ATOM     59  C   UNL A   1      42.994  31.060  37.132  1.00  0.00     0.029 A 
ATOM     60  C   UNL A   1      42.695  30.499  35.899  1.00  0.00     0.049 A 
ATOM     61  H   UNL A   1      41.244  31.096  34.491  1.00  0.00     0.167 HD
ATOM     62  C   UNL A   1      42.971  28.869  34.041  1.00  0.00     0.074 A 
ATOM     63  C   UNL A   1      43.599  27.714  33.429  1.00  0.00     0.031 C 
ATOM     64  C   UNL A   1      43.307  29.361  35.259  1.00  0.00     0.031 A 
BRANCH  51  65
ATOM     65  C   UNL A   1      40.012  34.295  37.040  1.00  0.00    -0.014 A 
ATOM     66  C   UNL A   1      40.619  35.562  36.936  1.00  0.00     0.010 A 
ATOM     67  C   UNL A   1      39.145  34.042  38.118  1.00  0.00     0.010 A 
ATOM     68  C   UNL A   1      40.401  36.537  37.912  1.00  0.00     0.020 A 
ATOM     69  C   UNL A   1      38.896  35.027  39.078  1.00  0.00     0.020 A 
ATOM     70  C   UNL A   1      39.539  36.262  38.977  1.00  0.00     0.054 A 
BRANCH  70  71
ATOM     71  S   UNL A   1      39.250  37.558  40.212  1.00  0.00     0.124 S 
ATOM     72  O   UNL A   1      40.544  38.237  40.243  1.00  0.00    -0.237 OA
ATOM     73  O   UNL A   1      38.154  38.321  39.623  1.00  0.00    -0.237 OA
ATOM     74  O   UNL A   1      38.909  36.814  41.423  1.00  0.00    -0.744 OA
ENDBRANCH  70  71
ENDBRANCH  51  65
BRANCH  52  75
ATOM     75  C   UNL A   1      41.492  27.517  29.768  1.00  0.00    -0.014 A 
ATOM     76  C   UNL A   1      42.776  27.323  29.229  1.00  0.00     0.010 A 
ATOM     77  C   UNL A   1      40.425  26.741  29.279  1.00  0.00     0.010 A 
ATOM     78  C   UNL A   1      42.984  26.395  28.204  1.00  0.00     0.020 A 
ATOM     79  C   UNL A   1      40.635  25.788  28.277  1.00  0.00     0.020 A 
ATOM     80  C   UNL A   1      41.912  25.631  27.736  1.00  0.00     0.054 A 
BRANCH  80  81
ATOM     81  S   UNL A   1      42.214  24.404  26.434  1.00  0.00     0.124 S 
ATOM     82  O   UNL A   1      43.626  24.092  26.632  1.00  0.00    -0.237 OA
ATOM     83  O   UNL A   1      41.275  23.340  26.780  1.00  0.00    -0.237 OA
ATOM     84  O   UNL A   1      41.900  25.127  25.203  1.00  0.00    -0.744 OA
ENDBRANCH  80  81
ENDBRANCH  52  75
BRANCH  64  85
ATOM     85  C   UNL A   1      44.378  28.627  36.021  1.00  0.00    -0.014 A 
ATOM     86  C   UNL A   1      44.065  27.559  36.879  1.00  0.00     0.010 A 
ATOM     87  C   UNL A   1      45.723  29.001  35.849  1.00  0.00     0.010 A 
ATOM     88  C   UNL A   1      45.075  26.915  37.597  1.00  0.00     0.020 A 
ATOM     89  C   UNL A   1      46.739  28.334  36.536  1.00  0.00     0.020 A 
ATOM     90  C   UNL A   1      46.404  27.310  37.424  1.00  0.00     0.054 A 
BRANCH  90  91
ATOM     91  S   UNL A   1      47.697  26.453  38.361  1.00  0.00     0.124 S 
ATOM     92  O   UNL A   1      47.829  25.201  37.620  1.00  0.00    -0.237 OA
ATOM     93  O   UNL A   1      48.829  27.369  38.256  1.00  0.00    -0.237 OA
ATOM     94  O   UNL A   1      47.128  26.327  39.702  1.00  0.00    -0.744 OA
ENDBRANCH  90  91
ENDBRANCH  64  85
ENDBRANCH  38  39
ENDBRANCH  30  33
ENDBRANCH  28  29
ENDBRANCH  27  28
ENDBRANCH   1  27
TORSDOF 19
ENDMDL
