MODEL 1
REMARK VINA RESULT:     -10.8      0.000      0.000
REMARK SMILES CCOc1cc(NC(=O)c2c(C(=O)NCCCCNC(=O)c3ccc(-c4c5nc(c(-c6ccc(S(=O)(=O)[O-])cc6)c6ccc([nH]6)c(-c6ccc(S(=O)(=O)[O-])cc6)c6nc(c(-c7ccc(S(=O)(=O)[O-])cc7)c7ccc4[nH]7)C=C6)C=C5)cc3)cnn2C)ccc1OC(F)F
REMARK SMILES IDX 16 1 15 2 14 3 12 4 13 5 11 7 10 8 84 9 82 10 83 11 85 12
REMARK SMILES IDX 8 13 7 14 9 16 6 17 4 18 5 19 88 20 87 21 86 22 3 23 2 24
REMARK SMILES IDX 1 25 89 26 90 27 91 28 92 29 17 30 18 31 19 32 20 33 21 35
REMARK SMILES IDX 22 36 23 37 81 38 24 39 80 40 25 41 26 42 27 43 74 44 28 45
REMARK SMILES IDX 79 46 73 47 75 48 29 49 78 50 72 51 71 52 30 54 60 55 41 56
REMARK SMILES IDX 59 57 42 58 45 59 58 60 76 61 43 62 44 63 57 65 77 66 46 67
REMARK SMILES IDX 31 68 32 69 40 70 33 71 39 72 34 73 35 74 36 75 37 76 38 77
REMARK SMILES IDX 61 78 62 79 70 80 63 81 69 82 64 83 65 84 66 85 67 86 68 87
REMARK SMILES IDX 47 88 48 89 56 90 49 91 55 92 50 93 51 94 52 95 53 96 54 97
REMARK H PARENT 14 6 7 15 19 34 75 53 45 64
REMARK Flexibility Score: inf
ROOT
ATOM      1  C   UNL A   1      35.177  29.844  27.172  1.00  0.00     0.023 C 
ENDROOT
BRANCH   1   2
ATOM      2  C   UNL A   1      34.401  28.564  26.863  1.00  0.00     0.116 C 
BRANCH   2   3
ATOM      3  N   UNL A   1      33.130  28.458  27.537  1.00  0.00    -0.352 N 
ATOM      4  C   UNL A   1      31.957  27.843  27.193  1.00  0.00     0.255 C 
ATOM      5  O   UNL A   1      31.021  27.988  27.983  1.00  0.00    -0.269 OA
ATOM      6  H   UNL A   1      33.100  28.914  28.410  1.00  0.00     0.163 HD
BRANCH   4   7
ATOM      7  C   UNL A   1      31.746  27.105  25.955  1.00  0.00     0.090 A 
ATOM      8  C   UNL A   1      31.082  25.926  25.623  1.00  0.00     0.138 A 
ATOM      9  N   UNL A   1      31.091  25.871  24.247  1.00  0.00    -0.262 N 
ATOM     10  C   UNL A   1      32.193  27.594  24.696  1.00  0.00     0.149 A 
ATOM     11  N   UNL A   1      31.856  26.810  23.672  1.00  0.00    -0.180 NA
ATOM     12  C   UNL A   1      30.416  24.923  23.388  1.00  0.00     0.174 C 
BRANCH   8  13
ATOM     13  C   UNL A   1      30.345  25.000  26.424  1.00  0.00     0.274 C 
ATOM     14  N   UNL A   1      30.852  23.751  26.714  1.00  0.00    -0.321 N 
ATOM     15  H   UNL A   1      30.219  23.195  27.222  1.00  0.00     0.170 HD
ATOM     16  O   UNL A   1      29.235  25.274  26.876  1.00  0.00    -0.267 OA
BRANCH  14  17
ATOM     17  C   UNL A   1      32.069  23.086  26.454  1.00  0.00     0.045 A 
ATOM     18  C   UNL A   1      33.552  21.538  25.274  1.00  0.00     0.163 A 
ATOM     19  C   UNL A   1      32.303  22.172  25.425  1.00  0.00     0.076 A 
ATOM     20  C   UNL A   1      34.615  21.888  26.111  1.00  0.00     0.168 A 
ATOM     21  C   UNL A   1      34.400  22.838  27.110  1.00  0.00     0.053 A 
ATOM     22  C   UNL A   1      33.137  23.408  27.298  1.00  0.00     0.030 A 
BRANCH  18  23
ATOM     23  O   UNL A   1      33.768  20.644  24.260  1.00  0.00    -0.490 OA
BRANCH  23  24
ATOM     24  C   UNL A   1      33.561  19.272  24.621  1.00  0.00     0.226 C 
ATOM     25  C   UNL A   1      32.530  18.679  23.676  1.00  0.00     0.049 C 
ENDBRANCH  23  24
ENDBRANCH  18  23
BRANCH  20  26
ATOM     26  O   UNL A   1      35.904  21.445  26.031  1.00  0.00    -0.431 OA
BRANCH  26  27
ATOM     27  C   UNL A   1      36.801  22.145  25.177  1.00  0.00     0.542 C 
ATOM     28  F   UNL A   1      36.595  21.829  23.875  1.00  0.00    -0.167 F 
ATOM     29  F   UNL A   1      36.667  23.480  25.340  1.00  0.00    -0.167 F 
ENDBRANCH  26  27
ENDBRANCH  20  26
ENDBRANCH  14  17
ENDBRANCH   8  13
ENDBRANCH   4   7
ENDBRANCH   2   3
ENDBRANCH   1   2
BRANCH   1  30
ATOM     30  C   UNL A   1      34.545  30.814  28.178  1.00  0.00     0.023 C 
BRANCH  30  31
ATOM     31  C   UNL A   1      35.494  31.511  29.149  1.00  0.00     0.116 C 
BRANCH  31  32
ATOM     32  N   UNL A   1      35.619  30.826  30.425  1.00  0.00    -0.352 N 
ATOM     33  C   UNL A   1      36.654  30.111  30.979  1.00  0.00     0.251 C 
ATOM     34  H   UNL A   1      34.818  30.886  30.996  1.00  0.00     0.163 HD
ATOM     35  O   UNL A   1      36.456  29.507  32.033  1.00  0.00    -0.269 OA
BRANCH  33  36
ATOM     36  C   UNL A   1      37.982  30.016  30.324  1.00  0.00     0.039 A 
ATOM     37  C   UNL A   1      39.125  30.094  31.128  1.00  0.00     0.014 A 
ATOM     38  C   UNL A   1      38.127  29.904  28.939  1.00  0.00     0.014 A 
ATOM     39  C   UNL A   1      40.397  29.958  30.562  1.00  0.00     0.010 A 
ATOM     40  C   UNL A   1      39.393  29.706  28.381  1.00  0.00     0.010 A 
ATOM     41  C   UNL A   1      40.540  29.710  29.188  1.00  0.00    -0.014 A 
BRANCH  41  42
ATOM     42  C   UNL A   1      41.864  29.396  28.588  1.00  0.00     0.031 A 
ATOM     43  C   UNL A   1      42.177  28.015  28.080  1.00  0.00     0.074 A 
ATOM     44  C   UNL A   1      42.829  30.337  28.581  1.00  0.00     0.049 A 
ATOM     45  N   UNL A   1      43.324  27.525  27.683  1.00  0.00    -0.248 NA
ATOM     46  C   UNL A   1      41.061  27.058  28.033  1.00  0.00     0.031 C 
ATOM     47  C   UNL A   1      42.680  31.712  29.067  1.00  0.00     0.029 A 
ATOM     48  N   UNL A   1      44.136  30.275  28.163  1.00  0.00    -0.354 N 
ATOM     49  C   UNL A   1      43.082  26.190  27.384  1.00  0.00     0.074 A 
ATOM     50  C   UNL A   1      41.676  25.950  27.638  1.00  0.00     0.031 C 
ATOM     51  C   UNL A   1      43.841  32.365  28.904  1.00  0.00     0.029 A 
ATOM     52  C   UNL A   1      44.828  31.447  28.344  1.00  0.00     0.049 A 
ATOM     53  H   UNL A   1      44.538  29.465  27.771  1.00  0.00     0.167 HD
ATOM     54  C   UNL A   1      43.950  25.247  26.943  1.00  0.00     0.031 A 
ATOM     55  C   UNL A   1      46.118  31.753  28.109  1.00  0.00     0.031 A 
ATOM     56  C   UNL A   1      45.338  25.480  26.650  1.00  0.00     0.049 A 
ATOM     57  C   UNL A   1      47.049  30.706  27.576  1.00  0.00     0.074 A 
ATOM     58  C   UNL A   1      46.279  24.587  26.163  1.00  0.00     0.029 A 
ATOM     59  N   UNL A   1      45.985  26.695  26.805  1.00  0.00    -0.354 N 
ATOM     60  N   UNL A   1      46.799  29.449  27.302  1.00  0.00    -0.248 NA
ATOM     61  C   UNL A   1      48.439  31.118  27.328  1.00  0.00     0.031 C 
ATOM     62  C   UNL A   1      47.499  25.264  26.033  1.00  0.00     0.029 A 
ATOM     63  C   UNL A   1      47.312  26.578  26.424  1.00  0.00     0.049 A 
ATOM     64  H   UNL A   1      45.563  27.521  27.136  1.00  0.00     0.167 HD
ATOM     65  C   UNL A   1      48.000  28.918  26.849  1.00  0.00     0.074 A 
ATOM     66  C   UNL A   1      48.974  29.991  26.874  1.00  0.00     0.031 C 
ATOM     67  C   UNL A   1      48.269  27.651  26.453  1.00  0.00     0.031 A 
BRANCH  54  68
ATOM     68  C   UNL A   1      43.411  23.855  26.777  1.00  0.00    -0.014 A 
ATOM     69  C   UNL A   1      43.048  23.367  25.509  1.00  0.00     0.010 A 
ATOM     70  C   UNL A   1      43.268  23.027  27.903  1.00  0.00     0.010 A 
ATOM     71  C   UNL A   1      42.509  22.085  25.377  1.00  0.00     0.020 A 
ATOM     72  C   UNL A   1      42.740  21.740  27.773  1.00  0.00     0.020 A 
ATOM     73  C   UNL A   1      42.343  21.285  26.512  1.00  0.00     0.054 A 
BRANCH  73  74
ATOM     74  S   UNL A   1      41.630  19.626  26.337  1.00  0.00     0.124 S 
ATOM     75  O   UNL A   1      42.348  19.116  25.173  1.00  0.00    -0.237 OA
ATOM     76  O   UNL A   1      41.961  18.986  27.608  1.00  0.00    -0.237 OA
ATOM     77  O   UNL A   1      40.208  19.888  26.130  1.00  0.00    -0.744 OA
ENDBRANCH  73  74
ENDBRANCH  54  68
BRANCH  55  78
ATOM     78  C   UNL A   1      46.602  33.127  28.389  1.00  0.00    -0.014 A 
ATOM     79  C   UNL A   1      46.501  34.122  27.402  1.00  0.00     0.010 A 
ATOM     80  C   UNL A   1      47.116  33.455  29.655  1.00  0.00     0.010 A 
ATOM     81  C   UNL A   1      46.905  35.430  27.678  1.00  0.00     0.020 A 
ATOM     82  C   UNL A   1      47.510  34.765  29.938  1.00  0.00     0.020 A 
ATOM     83  C   UNL A   1      47.406  35.744  28.946  1.00  0.00     0.054 A 
BRANCH  83  84
ATOM     84  S   UNL A   1      47.846  37.462  29.329  1.00  0.00     0.124 S 
ATOM     85  O   UNL A   1      48.600  37.313  30.569  1.00  0.00    -0.237 OA
ATOM     86  O   UNL A   1      48.623  37.870  28.161  1.00  0.00    -0.237 OA
ATOM     87  O   UNL A   1      46.545  38.116  29.457  1.00  0.00    -0.744 OA
ENDBRANCH  83  84
ENDBRANCH  55  78
BRANCH  67  88
ATOM     88  C   UNL A   1      49.670  27.361  26.001  1.00  0.00    -0.014 A 
ATOM     89  C   UNL A   1      50.650  26.956  26.925  1.00  0.00     0.010 A 
ATOM     90  C   UNL A   1      50.002  27.459  24.639  1.00  0.00     0.010 A 
ATOM     91  C   UNL A   1      51.947  26.668  26.495  1.00  0.00     0.020 A 
ATOM     92  C   UNL A   1      51.296  27.165  24.204  1.00  0.00     0.020 A 
ATOM     93  C   UNL A   1      52.265  26.782  25.137  1.00  0.00     0.054 A 
BRANCH  93  94
ATOM     94  S   UNL A   1      53.940  26.364  24.578  1.00  0.00     0.124 S 
ATOM     95  O   UNL A   1      54.741  26.688  25.755  1.00  0.00    -0.237 OA
ATOM     96  O   UNL A   1      53.839  24.941  24.261  1.00  0.00    -0.237 OA
ATOM     97  O   UNL A   1      54.140  27.238  23.424  1.00  0.00    -0.744 OA
ENDBRANCH  93  94
ENDBRANCH  67  88
ENDBRANCH  41  42
ENDBRANCH  33  36
ENDBRANCH  31  32
ENDBRANCH  30  31
ENDBRANCH   1  30
TORSDOF 20
ENDMDL
MODEL 2
REMARK VINA RESULT:     -10.7      1.325      8.078
REMARK SMILES CCOc1cc(NC(=O)c2c(C(=O)NCCCCNC(=O)c3ccc(-c4c5nc(c(-c6ccc(S(=O)(=O)[O-])cc6)c6ccc([nH]6)c(-c6ccc(S(=O)(=O)[O-])cc6)c6nc(c(-c7ccc(S(=O)(=O)[O-])cc7)c7ccc4[nH]7)C=C6)C=C5)cc3)cnn2C)ccc1OC(F)F
REMARK SMILES IDX 16 1 15 2 14 3 12 4 13 5 11 7 10 8 84 9 82 10 83 11 85 12
REMARK SMILES IDX 8 13 7 14 9 16 6 17 4 18 5 19 88 20 87 21 86 22 3 23 2 24
REMARK SMILES IDX 1 25 89 26 90 27 91 28 92 29 17 30 18 31 19 32 20 33 21 35
REMARK SMILES IDX 22 36 23 37 81 38 24 39 80 40 25 41 26 42 27 43 74 44 28 45
REMARK SMILES IDX 79 46 73 47 75 48 29 49 78 50 72 51 71 52 30 54 60 55 41 56
REMARK SMILES IDX 59 57 42 58 45 59 58 60 76 61 43 62 44 63 57 65 77 66 46 67
REMARK SMILES IDX 31 68 32 69 40 70 33 71 39 72 34 73 35 74 36 75 37 76 38 77
REMARK SMILES IDX 61 78 62 79 70 80 63 81 69 82 64 83 65 84 66 85 67 86 68 87
REMARK SMILES IDX 47 88 48 89 56 90 49 91 55 92 50 93 51 94 52 95 53 96 54 97
REMARK H PARENT 14 6 7 15 19 34 75 53 45 64
REMARK Flexibility Score: inf
ROOT
ATOM      1  C   UNL A   1      33.495  29.877  26.952  1.00  0.00     0.023 C 
ENDROOT
BRANCH   1   2
ATOM      2  C   UNL A   1      33.190  29.769  25.458  1.00  0.00     0.116 C 
BRANCH   2   3
ATOM      3  N   UNL A   1      33.945  28.752  24.766  1.00  0.00    -0.352 N 
ATOM      4  C   UNL A   1      33.564  27.618  24.102  1.00  0.00     0.255 C 
ATOM      5  O   UNL A   1      34.479  26.921  23.658  1.00  0.00    -0.269 OA
ATOM      6  H   UNL A   1      34.919  28.903  24.772  1.00  0.00     0.163 HD
BRANCH   4   7
ATOM      7  C   UNL A   1      32.184  27.175  23.953  1.00  0.00     0.090 A 
ATOM      8  C   UNL A   1      31.187  26.774  24.840  1.00  0.00     0.138 A 
ATOM      9  N   UNL A   1      30.042  26.662  24.084  1.00  0.00    -0.262 N 
ATOM     10  C   UNL A   1      31.527  27.156  22.692  1.00  0.00     0.149 A 
ATOM     11  N   UNL A   1      30.251  26.778  22.763  1.00  0.00    -0.180 NA
ATOM     12  C   UNL A   1      28.693  26.410  24.540  1.00  0.00     0.174 C 
BRANCH   8  13
ATOM     13  C   UNL A   1      31.181  26.659  26.265  1.00  0.00     0.274 C 
ATOM     14  N   UNL A   1      31.382  25.442  26.880  1.00  0.00    -0.321 N 
ATOM     15  H   UNL A   1      31.293  25.494  27.858  1.00  0.00     0.170 HD
ATOM     16  O   UNL A   1      30.990  27.632  26.992  1.00  0.00    -0.267 OA
BRANCH  14  17
ATOM     17  C   UNL A   1      31.687  24.139  26.433  1.00  0.00     0.045 A 
ATOM     18  C   UNL A   1      33.158  22.278  25.834  1.00  0.00     0.163 A 
ATOM     19  C   UNL A   1      32.963  23.583  26.324  1.00  0.00     0.076 A 
ATOM     20  C   UNL A   1      32.054  21.478  25.529  1.00  0.00     0.168 A 
ATOM     21  C   UNL A   1      30.774  22.010  25.684  1.00  0.00     0.053 A 
ATOM     22  C   UNL A   1      30.593  23.332  26.102  1.00  0.00     0.030 A 
BRANCH  18  23
ATOM     23  O   UNL A   1      34.416  21.746  25.733  1.00  0.00    -0.490 OA
BRANCH  23  24
ATOM     24  C   UNL A   1      35.427  22.679  25.331  1.00  0.00     0.226 C 
ATOM     25  C   UNL A   1      35.304  22.904  23.834  1.00  0.00     0.049 C 
ENDBRANCH  23  24
ENDBRANCH  18  23
BRANCH  20  26
ATOM     26  O   UNL A   1      32.069  20.168  25.143  1.00  0.00    -0.431 OA
BRANCH  26  27
ATOM     27  C   UNL A   1      32.440  19.870  23.802  1.00  0.00     0.542 C 
ATOM     28  F   UNL A   1      32.238  20.931  22.983  1.00  0.00    -0.167 F 
ATOM     29  F   UNL A   1      33.738  19.497  23.740  1.00  0.00    -0.167 F 
ENDBRANCH  26  27
ENDBRANCH  20  26
ENDBRANCH  14  17
ENDBRANCH   8  13
ENDBRANCH   4   7
ENDBRANCH   2   3
ENDBRANCH   1   2
BRANCH   1  30
ATOM     30  C   UNL A   1      33.980  31.239  27.464  1.00  0.00     0.023 C 
BRANCH  30  31
ATOM     31  C   UNL A   1      35.342  31.266  28.153  1.00  0.00     0.116 C 
BRANCH  31  32
ATOM     32  N   UNL A   1      35.263  31.092  29.594  1.00  0.00    -0.352 N 
ATOM     33  C   UNL A   1      36.197  30.682  30.515  1.00  0.00     0.251 C 
ATOM     34  H   UNL A   1      34.382  31.306  29.979  1.00  0.00     0.163 HD
ATOM     35  O   UNL A   1      35.834  30.486  31.675  1.00  0.00    -0.269 OA
BRANCH  33  36
ATOM     36  C   UNL A   1      37.612  30.436  30.143  1.00  0.00     0.039 A 
ATOM     37  C   UNL A   1      38.555  30.307  31.170  1.00  0.00     0.014 A 
ATOM     38  C   UNL A   1      38.037  30.380  28.814  1.00  0.00     0.014 A 
ATOM     39  C   UNL A   1      39.892  30.024  30.868  1.00  0.00     0.010 A 
ATOM     40  C   UNL A   1      39.358  30.034  28.513  1.00  0.00     0.010 A 
ATOM     41  C   UNL A   1      40.295  29.833  29.538  1.00  0.00    -0.014 A 
BRANCH  41  42
ATOM     42  C   UNL A   1      41.666  29.367  29.200  1.00  0.00     0.031 A 
ATOM     43  C   UNL A   1      42.830  30.319  29.200  1.00  0.00     0.074 A 
ATOM     44  C   UNL A   1      41.855  28.092  28.803  1.00  0.00     0.049 A 
ATOM     45  N   UNL A   1      44.053  30.123  28.774  1.00  0.00    -0.248 NA
ATOM     46  C   UNL A   1      42.582  31.670  29.725  1.00  0.00     0.031 C 
ATOM     47  C   UNL A   1      40.814  27.063  28.726  1.00  0.00     0.029 A 
ATOM     48  N   UNL A   1      42.988  27.448  28.371  1.00  0.00    -0.354 N 
ATOM     49  C   UNL A   1      44.708  31.337  28.934  1.00  0.00     0.074 A 
ATOM     50  C   UNL A   1      43.749  32.262  29.504  1.00  0.00     0.031 C 
ATOM     51  C   UNL A   1      41.360  25.917  28.291  1.00  0.00     0.029 A 
ATOM     52  C   UNL A   1      42.777  26.139  28.018  1.00  0.00     0.049 A 
ATOM     53  H   UNL A   1      43.869  27.886  28.319  1.00  0.00     0.167 HD
ATOM     54  C   UNL A   1      45.989  31.659  28.630  1.00  0.00     0.031 A 
ATOM     55  C   UNL A   1      43.617  25.216  27.510  1.00  0.00     0.031 A 
ATOM     56  C   UNL A   1      46.963  30.743  28.100  1.00  0.00     0.049 A 
ATOM     57  C   UNL A   1      45.043  25.581  27.226  1.00  0.00     0.074 A 
ATOM     58  C   UNL A   1      48.294  30.978  27.799  1.00  0.00     0.029 A 
ATOM     59  N   UNL A   1      46.716  29.413  27.801  1.00  0.00    -0.354 N 
ATOM     60  N   UNL A   1      45.641  26.737  27.383  1.00  0.00    -0.248 NA
ATOM     61  C   UNL A   1      45.905  24.519  26.688  1.00  0.00     0.031 C 
ATOM     62  C   UNL A   1      48.850  29.789  27.308  1.00  0.00     0.029 A 
ATOM     63  C   UNL A   1      47.867  28.813  27.319  1.00  0.00     0.049 A 
ATOM     64  H   UNL A   1      45.849  28.961  27.915  1.00  0.00     0.167 HD
ATOM     65  C   UNL A   1      46.950  26.541  26.965  1.00  0.00     0.074 A 
ATOM     66  C   UNL A   1      47.062  25.154  26.558  1.00  0.00     0.031 C 
ATOM     67  C   UNL A   1      47.966  27.435  26.919  1.00  0.00     0.031 A 
BRANCH  54  68
ATOM     68  C   UNL A   1      46.400  33.087  28.847  1.00  0.00    -0.014 A 
ATOM     69  C   UNL A   1      46.959  33.502  30.068  1.00  0.00     0.010 A 
ATOM     70  C   UNL A   1      46.225  34.024  27.813  1.00  0.00     0.010 A 
ATOM     71  C   UNL A   1      47.296  34.842  30.269  1.00  0.00     0.020 A 
ATOM     72  C   UNL A   1      46.572  35.363  28.006  1.00  0.00     0.020 A 
ATOM     73  C   UNL A   1      47.085  35.768  29.242  1.00  0.00     0.054 A 
BRANCH  73  74
ATOM     74  S   UNL A   1      47.512  37.511  29.512  1.00  0.00     0.124 S 
ATOM     75  O   UNL A   1      47.708  37.548  30.958  1.00  0.00    -0.237 OA
ATOM     76  O   UNL A   1      48.722  37.685  28.711  1.00  0.00    -0.237 OA
ATOM     77  O   UNL A   1      46.338  38.228  29.021  1.00  0.00    -0.744 OA
ENDBRANCH  73  74
ENDBRANCH  54  68
BRANCH  55  78
ATOM     78  C   UNL A   1      43.113  23.849  27.231  1.00  0.00    -0.014 A 
ATOM     79  C   UNL A   1      42.768  23.482  25.920  1.00  0.00     0.010 A 
ATOM     80  C   UNL A   1      43.028  22.899  28.263  1.00  0.00     0.010 A 
ATOM     81  C   UNL A   1      42.345  22.180  25.643  1.00  0.00     0.020 A 
ATOM     82  C   UNL A   1      42.616  21.593  27.987  1.00  0.00     0.020 A 
ATOM     83  C   UNL A   1      42.273  21.243  26.678  1.00  0.00     0.054 A 
BRANCH  83  84
ATOM     84  S   UNL A   1      41.809  19.530  26.299  1.00  0.00     0.124 S 
ATOM     85  O   UNL A   1      42.587  19.265  25.094  1.00  0.00    -0.237 OA
ATOM     86  O   UNL A   1      42.230  18.804  27.495  1.00  0.00    -0.237 OA
ATOM     87  O   UNL A   1      40.362  19.613  26.110  1.00  0.00    -0.744 OA
ENDBRANCH  83  84
ENDBRANCH  55  78
BRANCH  67  88
ATOM     88  C   UNL A   1      49.291  26.937  26.422  1.00  0.00    -0.014 A 
ATOM     89  C   UNL A   1      50.179  26.276  27.290  1.00  0.00     0.010 A 
ATOM     90  C   UNL A   1      49.637  27.096  25.069  1.00  0.00     0.010 A 
ATOM     91  C   UNL A   1      51.402  25.797  26.815  1.00  0.00     0.020 A 
ATOM     92  C   UNL A   1      50.856  26.612  24.589  1.00  0.00     0.020 A 
ATOM     93  C   UNL A   1      51.737  25.975  25.468  1.00  0.00     0.054 A 
BRANCH  93  94
ATOM     94  S   UNL A   1      53.308  25.311  24.848  1.00  0.00     0.124 S 
ATOM     95  O   UNL A   1      53.228  23.912  25.259  1.00  0.00    -0.237 OA
ATOM     96  O   UNL A   1      53.223  25.548  23.409  1.00  0.00    -0.237 OA
ATOM     97  O   UNL A   1      54.313  26.112  25.544  1.00  0.00    -0.744 OA
ENDBRANCH  93  94
ENDBRANCH  67  88
ENDBRANCH  41  42
ENDBRANCH  33  36
ENDBRANCH  31  32
ENDBRANCH  30  31
ENDBRANCH   1  30
TORSDOF 20
ENDMDL
MODEL 3
REMARK VINA RESULT:     -10.5      5.867      8.321
REMARK SMILES CCOc1cc(NC(=O)c2c(C(=O)NCCCCNC(=O)c3ccc(-c4c5nc(c(-c6ccc(S(=O)(=O)[O-])cc6)c6ccc([nH]6)c(-c6ccc(S(=O)(=O)[O-])cc6)c6nc(c(-c7ccc(S(=O)(=O)[O-])cc7)c7ccc4[nH]7)C=C6)C=C5)cc3)cnn2C)ccc1OC(F)F
REMARK SMILES IDX 16 1 15 2 14 3 12 4 13 5 11 7 10 8 84 9 82 10 83 11 85 12
REMARK SMILES IDX 8 13 7 14 9 16 6 17 4 18 5 19 88 20 87 21 86 22 3 23 2 24
REMARK SMILES IDX 1 25 89 26 90 27 91 28 92 29 17 30 18 31 19 32 20 33 21 35
REMARK SMILES IDX 22 36 23 37 81 38 24 39 80 40 25 41 26 42 27 43 74 44 28 45
REMARK SMILES IDX 79 46 73 47 75 48 29 49 78 50 72 51 71 52 30 54 60 55 41 56
REMARK SMILES IDX 59 57 42 58 45 59 58 60 76 61 43 62 44 63 57 65 77 66 46 67
REMARK SMILES IDX 31 68 32 69 40 70 33 71 39 72 34 73 35 74 36 75 37 76 38 77
REMARK SMILES IDX 61 78 62 79 70 80 63 81 69 82 64 83 65 84 66 85 67 86 68 87
REMARK SMILES IDX 47 88 48 89 56 90 49 91 55 92 50 93 51 94 52 95 53 96 54 97
REMARK H PARENT 14 6 7 15 19 34 75 53 45 64
REMARK Flexibility Score: inf
ROOT
ATOM      1  C   UNL A   1      32.571  29.971  25.426  1.00  0.00     0.023 C 
ENDROOT
BRANCH   1   2
ATOM      2  C   UNL A   1      33.177  28.577  25.596  1.00  0.00     0.116 C 
BRANCH   2   3
ATOM      3  N   UNL A   1      33.271  27.813  24.376  1.00  0.00    -0.352 N 
ATOM      4  C   UNL A   1      32.831  26.562  24.041  1.00  0.00     0.255 C 
ATOM      5  O   UNL A   1      33.125  26.173  22.908  1.00  0.00    -0.269 OA
ATOM      6  H   UNL A   1      33.740  28.280  23.646  1.00  0.00     0.163 HD
BRANCH   4   7
ATOM      7  C   UNL A   1      32.113  25.672  24.942  1.00  0.00     0.090 A 
ATOM      8  C   UNL A   1      31.423  24.472  24.785  1.00  0.00     0.138 A 
ATOM      9  N   UNL A   1      31.134  24.040  26.060  1.00  0.00    -0.262 N 
ATOM     10  C   UNL A   1      32.067  25.893  26.347  1.00  0.00     0.149 A 
ATOM     11  N   UNL A   1      31.414  24.941  27.014  1.00  0.00    -0.180 NA
ATOM     12  C   UNL A   1      30.550  22.780  26.464  1.00  0.00     0.174 C 
BRANCH   8  13
ATOM     13  C   UNL A   1      31.177  23.669  23.628  1.00  0.00     0.274 C 
ATOM     14  N   UNL A   1      32.085  22.714  23.220  1.00  0.00    -0.321 N 
ATOM     15  H   UNL A   1      31.821  22.277  22.379  1.00  0.00     0.170 HD
ATOM     16  O   UNL A   1      30.158  23.800  22.953  1.00  0.00    -0.267 OA
BRANCH  14  17
ATOM     17  C   UNL A   1      33.304  22.219  23.728  1.00  0.00     0.045 A 
ATOM     18  C   UNL A   1      35.710  22.255  24.173  1.00  0.00     0.163 A 
ATOM     19  C   UNL A   1      34.544  22.856  23.660  1.00  0.00     0.076 A 
ATOM     20  C   UNL A   1      35.624  21.034  24.847  1.00  0.00     0.168 A 
ATOM     21  C   UNL A   1      34.378  20.416  24.962  1.00  0.00     0.053 A 
ATOM     22  C   UNL A   1      33.239  20.985  24.385  1.00  0.00     0.030 A 
BRANCH  18  23
ATOM     23  O   UNL A   1      36.920  22.893  24.100  1.00  0.00    -0.490 OA
BRANCH  23  24
ATOM     24  C   UNL A   1      37.112  23.920  25.081  1.00  0.00     0.226 C 
ATOM     25  C   UNL A   1      38.044  23.386  26.156  1.00  0.00     0.049 C 
ENDBRANCH  23  24
ENDBRANCH  18  23
BRANCH  20  26
ATOM     26  O   UNL A   1      36.634  20.374  25.485  1.00  0.00    -0.431 OA
BRANCH  26  27
ATOM     27  C   UNL A   1      37.326  19.357  24.770  1.00  0.00     0.542 C 
ATOM     28  F   UNL A   1      38.643  19.331  25.092  1.00  0.00    -0.167 F 
ATOM     29  F   UNL A   1      36.779  18.146  25.021  1.00  0.00    -0.167 F 
ENDBRANCH  26  27
ENDBRANCH  20  26
ENDBRANCH  14  17
ENDBRANCH   8  13
ENDBRANCH   4   7
ENDBRANCH   2   3
ENDBRANCH   1   2
BRANCH   1  30
ATOM     30  C   UNL A   1      32.205  30.729  26.707  1.00  0.00     0.023 C 
BRANCH  30  31
ATOM     31  C   UNL A   1      33.322  31.530  27.372  1.00  0.00     0.116 C 
BRANCH  31  32
ATOM     32  N   UNL A   1      32.973  32.922  27.607  1.00  0.00    -0.352 N 
ATOM     33  C   UNL A   1      33.482  33.855  28.478  1.00  0.00     0.251 C 
ATOM     34  H   UNL A   1      32.241  33.255  27.039  1.00  0.00     0.163 HD
ATOM     35  O   UNL A   1      32.912  34.942  28.577  1.00  0.00    -0.269 OA
BRANCH  33  36
ATOM     36  C   UNL A   1      34.668  33.575  29.324  1.00  0.00     0.039 A 
ATOM     37  C   UNL A   1      34.512  32.721  30.424  1.00  0.00     0.014 A 
ATOM     38  C   UNL A   1      35.911  34.168  29.092  1.00  0.00     0.014 A 
ATOM     39  C   UNL A   1      35.613  32.388  31.219  1.00  0.00     0.010 A 
ATOM     40  C   UNL A   1      37.023  33.787  29.847  1.00  0.00     0.010 A 
ATOM     41  C   UNL A   1      36.890  32.877  30.907  1.00  0.00    -0.014 A 
BRANCH  41  42
ATOM     42  C   UNL A   1      38.101  32.407  31.630  1.00  0.00     0.031 A 
ATOM     43  C   UNL A   1      39.001  31.359  31.036  1.00  0.00     0.074 A 
ATOM     44  C   UNL A   1      38.349  32.863  32.875  1.00  0.00     0.049 A 
ATOM     45  N   UNL A   1      39.998  30.718  31.595  1.00  0.00    -0.248 NA
ATOM     46  C   UNL A   1      38.733  30.965  29.645  1.00  0.00     0.031 C 
ATOM     47  C   UNL A   1      37.546  33.859  33.591  1.00  0.00     0.029 A 
ATOM     48  N   UNL A   1      39.339  32.534  33.768  1.00  0.00    -0.354 N 
ATOM     49  C   UNL A   1      40.446  29.812  30.643  1.00  0.00     0.074 A 
ATOM     50  C   UNL A   1      39.617  29.992  29.467  1.00  0.00     0.031 C 
ATOM     51  C   UNL A   1      38.085  34.071  34.801  1.00  0.00     0.029 A 
ATOM     52  C   UNL A   1      39.243  33.197  34.966  1.00  0.00     0.049 A 
ATOM     53  H   UNL A   1      40.050  31.882  33.566  1.00  0.00     0.167 HD
ATOM     54  C   UNL A   1      41.451  28.908  30.736  1.00  0.00     0.031 A 
ATOM     55  C   UNL A   1      39.985  33.104  36.086  1.00  0.00     0.031 A 
ATOM     56  C   UNL A   1      42.306  28.744  31.880  1.00  0.00     0.049 A 
ATOM     57  C   UNL A   1      41.122  32.130  36.150  1.00  0.00     0.074 A 
ATOM     58  C   UNL A   1      43.373  27.876  32.043  1.00  0.00     0.029 A 
ATOM     59  N   UNL A   1      42.200  29.471  33.055  1.00  0.00    -0.354 N 
ATOM     60  N   UNL A   1      41.527  31.281  35.237  1.00  0.00    -0.248 NA
ATOM     61  C   UNL A   1      41.897  32.096  37.399  1.00  0.00     0.031 C 
ATOM     62  C   UNL A   1      43.907  28.073  33.324  1.00  0.00     0.029 A 
ATOM     63  C   UNL A   1      43.181  29.073  33.949  1.00  0.00     0.049 A 
ATOM     64  H   UNL A   1      41.527  30.168  33.229  1.00  0.00     0.167 HD
ATOM     65  C   UNL A   1      42.606  30.612  35.800  1.00  0.00     0.074 A 
ATOM     66  C   UNL A   1      42.798  31.160  37.128  1.00  0.00     0.031 C 
ATOM     67  C   UNL A   1      43.363  29.626  35.264  1.00  0.00     0.031 A 
BRANCH  54  68
ATOM     68  C   UNL A   1      41.659  28.001  29.557  1.00  0.00    -0.014 A 
ATOM     69  C   UNL A   1      42.765  28.164  28.705  1.00  0.00     0.010 A 
ATOM     70  C   UNL A   1      40.735  26.972  29.301  1.00  0.00     0.010 A 
ATOM     71  C   UNL A   1      42.921  27.340  27.588  1.00  0.00     0.020 A 
ATOM     72  C   UNL A   1      40.895  26.138  28.192  1.00  0.00     0.020 A 
ATOM     73  C   UNL A   1      41.976  26.342  27.329  1.00  0.00     0.054 A 
BRANCH  73  74
ATOM     74  S   UNL A   1      42.176  25.281  25.871  1.00  0.00     0.124 S 
ATOM     75  O   UNL A   1      43.576  25.511  25.527  1.00  0.00    -0.237 OA
ATOM     76  O   UNL A   1      41.867  23.949  26.383  1.00  0.00    -0.237 OA
ATOM     77  O   UNL A   1      41.203  25.820  24.924  1.00  0.00    -0.744 OA
ENDBRANCH  73  74
ENDBRANCH  54  68
BRANCH  55  78
ATOM     78  C   UNL A   1      39.659  33.967  37.248  1.00  0.00    -0.014 A 
ATOM     79  C   UNL A   1      38.849  33.473  38.284  1.00  0.00     0.010 A 
ATOM     80  C   UNL A   1      40.197  35.261  37.345  1.00  0.00     0.010 A 
ATOM     81  C   UNL A   1      38.584  34.261  39.406  1.00  0.00     0.020 A 
ATOM     82  C   UNL A   1      39.942  36.048  38.471  1.00  0.00     0.020 A 
ATOM     83  C   UNL A   1      39.133  35.544  39.493  1.00  0.00     0.054 A 
BRANCH  83  84
ATOM     84  S   UNL A   1      38.859  36.531  40.991  1.00  0.00     0.124 S 
ATOM     85  O   UNL A   1      40.181  36.522  41.606  1.00  0.00    -0.237 OA
ATOM     86  O   UNL A   1      38.418  37.819  40.460  1.00  0.00    -0.237 OA
ATOM     87  O   UNL A   1      37.828  35.776  41.701  1.00  0.00    -0.744 OA
ENDBRANCH  83  84
ENDBRANCH  55  78
BRANCH  67  88
ATOM     88  C   UNL A   1      44.480  29.087  36.109  1.00  0.00    -0.014 A 
ATOM     89  C   UNL A   1      44.270  27.980  36.950  1.00  0.00     0.010 A 
ATOM     90  C   UNL A   1      45.757  29.668  36.036  1.00  0.00     0.010 A 
ATOM     91  C   UNL A   1      45.320  27.472  37.719  1.00  0.00     0.020 A 
ATOM     92  C   UNL A   1      46.811  29.158  36.798  1.00  0.00     0.020 A 
ATOM     93  C   UNL A   1      46.583  28.069  37.644  1.00  0.00     0.054 A 
BRANCH  93  94
ATOM     94  S   UNL A   1      47.952  27.376  38.612  1.00  0.00     0.124 S 
ATOM     95  O   UNL A   1      47.281  26.985  39.849  1.00  0.00    -0.237 OA
ATOM     96  O   UNL A   1      48.423  26.273  37.778  1.00  0.00    -0.237 OA
ATOM     97  O   UNL A   1      48.883  28.496  38.732  1.00  0.00    -0.744 OA
ENDBRANCH  93  94
ENDBRANCH  67  88
ENDBRANCH  41  42
ENDBRANCH  33  36
ENDBRANCH  31  32
ENDBRANCH  30  31
ENDBRANCH   1  30
TORSDOF 20
ENDMDL
