MODEL 1
REMARK VINA RESULT:      -9.8      0.000      0.000
REMARK SMILES COCC[NH2+]CC(=O)N1C[C@H](OC)C[C@@H]1C(=O)NCCCCNC(=O)c1ccc(-c2c3nc(c(-c4ccc(S(=O)(=O)[O-])cc4)c4ccc([nH]4)c(-c4ccc(S(=O)(=O)[O-])cc4)c4nc(c(-c5ccc(S(=O)(=O)[O-])cc5)c5ccc2[nH]5)C=C4)C=C3)cc1
REMARK SMILES IDX 19 1 18 2 16 3 17 4 15 6 9 7 10 8 11 9 14 10 7 11 8 12 6 13
REMARK SMILES IDX 5 14 4 17 3 18 2 19 1 20 12 21 13 22 20 23 21 24 22 25 23 26
REMARK SMILES IDX 24 27 25 29 26 30 27 31 85 32 28 33 84 34 29 35 30 36 31 37
REMARK SMILES IDX 78 38 32 39 83 40 77 41 79 42 33 43 82 44 76 45 75 46 34 48
REMARK SMILES IDX 64 49 45 50 63 51 46 52 49 53 62 54 80 55 47 56 48 57 61 59
REMARK SMILES IDX 81 60 50 61 35 62 36 63 44 64 37 65 43 66 38 67 39 68 40 69
REMARK SMILES IDX 41 70 42 71 65 72 66 73 74 74 67 75 73 76 68 77 69 78 70 79
REMARK SMILES IDX 71 80 72 81 51 82 52 83 60 84 53 85 59 86 54 87 55 88 56 89
REMARK SMILES IDX 57 90 58 91
REMARK H PARENT 18 5 5 15 5 16 23 28 79 47 49 58
REMARK Flexibility Score: inf
ROOT
ATOM      1  C   UNL A   1      32.384  25.768  26.281  1.00  0.00     0.116 C 
ENDROOT
BRANCH   1   2
ATOM      2  N   UNL A   1      31.368  24.917  26.845  1.00  0.00    -0.354 N 
ATOM      3  C   UNL A   1      31.071  23.621  26.535  1.00  0.00     0.242 C 
ATOM      4  O   UNL A   1      30.162  23.085  27.178  1.00  0.00    -0.273 OA
ATOM      5  H   UNL A   1      30.812  25.325  27.548  1.00  0.00     0.163 HD
BRANCH   3   6
ATOM      6  C   UNL A   1      31.704  22.887  25.328  1.00  0.00     0.177 C 
ATOM      7  N   UNL A   1      33.148  23.018  25.094  1.00  0.00    -0.323 N 
ATOM      8  C   UNL A   1      33.344  22.899  23.664  1.00  0.00     0.152 C 
ATOM      9  C   UNL A   1      32.198  23.672  23.043  1.00  0.00     0.139 C 
ATOM     10  C   UNL A   1      31.040  23.334  23.996  1.00  0.00     0.069 C 
BRANCH   7  11
ATOM     11  C   UNL A   1      34.070  22.387  25.924  1.00  0.00     0.278 C 
ATOM     12  O   UNL A   1      35.215  22.806  26.081  1.00  0.00    -0.268 OA
BRANCH  11  13
ATOM     13  C   UNL A   1      33.555  21.112  26.627  1.00  0.00     0.362 C 
BRANCH  13  14
ATOM     14  N   UNL A   1      33.880  19.843  25.928  1.00  0.00    -0.337 N 
ATOM     15  H   UNL A   1      34.589  20.029  25.220  1.00  0.00     0.346 HD
ATOM     16  H   UNL A   1      34.220  19.178  26.623  1.00  0.00     0.346 HD
BRANCH  14  17
ATOM     17  C   UNL A   1      32.704  19.260  25.280  1.00  0.00     0.289 C 
BRANCH  17  18
ATOM     18  C   UNL A   1      32.912  18.505  23.962  1.00  0.00     0.221 C 
BRANCH  18  19
ATOM     19  O   UNL A   1      34.186  17.859  23.902  1.00  0.00    -0.379 OA
ATOM     20  C   UNL A   1      34.120  16.556  23.347  1.00  0.00     0.195 C 
ENDBRANCH  18  19
ENDBRANCH  17  18
ENDBRANCH  14  17
ENDBRANCH  13  14
ENDBRANCH  11  13
ENDBRANCH   7  11
BRANCH   9  21
ATOM     21  O   UNL A   1      32.364  25.097  22.989  1.00  0.00    -0.380 OA
ATOM     22  C   UNL A   1      31.190  25.884  22.796  1.00  0.00     0.195 C 
ENDBRANCH   9  21
ENDBRANCH   3   6
ENDBRANCH   1   2
BRANCH   1  23
ATOM     23  C   UNL A   1      31.928  27.213  26.078  1.00  0.00     0.023 C 
BRANCH  23  24
ATOM     24  C   UNL A   1      32.194  28.137  27.263  1.00  0.00     0.023 C 
BRANCH  24  25
ATOM     25  C   UNL A   1      33.544  28.845  27.252  1.00  0.00     0.116 C 
BRANCH  25  26
ATOM     26  N   UNL A   1      33.518  30.210  27.753  1.00  0.00    -0.352 N 
ATOM     27  C   UNL A   1      34.552  30.929  28.329  1.00  0.00     0.251 C 
ATOM     28  H   UNL A   1      32.658  30.682  27.673  1.00  0.00     0.163 HD
ATOM     29  O   UNL A   1      34.368  32.052  28.749  1.00  0.00    -0.269 OA
BRANCH  27  30
ATOM     30  C   UNL A   1      35.871  30.266  28.469  1.00  0.00     0.039 A 
ATOM     31  C   UNL A   1      36.772  30.328  27.404  1.00  0.00     0.014 A 
ATOM     32  C   UNL A   1      36.250  29.689  29.682  1.00  0.00     0.014 A 
ATOM     33  C   UNL A   1      38.085  29.888  27.591  1.00  0.00     0.010 A 
ATOM     34  C   UNL A   1      37.581  29.351  29.896  1.00  0.00     0.010 A 
ATOM     35  C   UNL A   1      38.515  29.442  28.852  1.00  0.00    -0.014 A 
BRANCH  35  36
ATOM     36  C   UNL A   1      39.931  29.058  29.093  1.00  0.00     0.031 A 
ATOM     37  C   UNL A   1      40.880  30.037  29.733  1.00  0.00     0.074 A 
ATOM     38  C   UNL A   1      40.380  27.850  28.695  1.00  0.00     0.049 A 
ATOM     39  N   UNL A   1      42.147  29.888  30.024  1.00  0.00    -0.248 NA
ATOM     40  C   UNL A   1      40.344  31.368  30.061  1.00  0.00     0.031 C 
ATOM     41  C   UNL A   1      39.582  26.830  28.008  1.00  0.00     0.029 A 
ATOM     42  N   UNL A   1      41.619  27.271  28.820  1.00  0.00    -0.354 N 
ATOM     43  C   UNL A   1      42.559  31.106  30.553  1.00  0.00     0.074 A 
ATOM     44  C   UNL A   1      41.428  32.004  30.474  1.00  0.00     0.031 C 
ATOM     45  C   UNL A   1      40.336  25.734  27.820  1.00  0.00     0.029 A 
ATOM     46  C   UNL A   1      41.677  25.982  28.340  1.00  0.00     0.049 A 
ATOM     47  H   UNL A   1      42.392  27.734  29.215  1.00  0.00     0.167 HD
ATOM     48  C   UNL A   1      43.756  31.443  31.089  1.00  0.00     0.031 A 
ATOM     49  C   UNL A   1      42.691  25.095  28.334  1.00  0.00     0.031 A 
ATOM     50  C   UNL A   1      44.877  30.549  31.180  1.00  0.00     0.049 A 
ATOM     51  C   UNL A   1      44.010  25.483  28.945  1.00  0.00     0.074 A 
ATOM     52  C   UNL A   1      46.119  30.776  31.745  1.00  0.00     0.029 A 
ATOM     53  N   UNL A   1      44.890  29.249  30.694  1.00  0.00    -0.354 N 
ATOM     54  N   UNL A   1      44.359  26.620  29.500  1.00  0.00    -0.248 NA
ATOM     55  C   UNL A   1      45.063  24.460  28.949  1.00  0.00     0.031 C 
ATOM     56  C   UNL A   1      46.899  29.628  31.564  1.00  0.00     0.029 A 
ATOM     57  C   UNL A   1      46.122  28.666  30.936  1.00  0.00     0.049 A 
ATOM     58  H   UNL A   1      44.135  28.807  30.243  1.00  0.00     0.167 HD
ATOM     59  C   UNL A   1      45.663  26.436  29.949  1.00  0.00     0.074 A 
ATOM     60  C   UNL A   1      46.033  25.076  29.611  1.00  0.00     0.031 C 
ATOM     61  C   UNL A   1      46.477  27.312  30.590  1.00  0.00     0.031 A 
BRANCH  48  62
ATOM     62  C   UNL A   1      43.898  32.847  31.618  1.00  0.00    -0.014 A 
ATOM     63  C   UNL A   1      43.536  33.162  32.942  1.00  0.00     0.010 A 
ATOM     64  C   UNL A   1      44.389  33.867  30.784  1.00  0.00     0.010 A 
ATOM     65  C   UNL A   1      43.601  34.479  33.401  1.00  0.00     0.020 A 
ATOM     66  C   UNL A   1      44.488  35.181  31.251  1.00  0.00     0.020 A 
ATOM     67  C   UNL A   1      44.068  35.483  32.548  1.00  0.00     0.054 A 
BRANCH  67  68
ATOM     68  S   UNL A   1      44.133  37.187  33.165  1.00  0.00     0.124 S 
ATOM     69  O   UNL A   1      45.439  37.220  33.817  1.00  0.00    -0.237 OA
ATOM     70  O   UNL A   1      44.022  37.977  31.941  1.00  0.00    -0.237 OA
ATOM     71  O   UNL A   1      42.985  37.273  34.065  1.00  0.00    -0.744 OA
ENDBRANCH  67  68
ENDBRANCH  48  62
BRANCH  49  72
ATOM     72  C   UNL A   1      42.479  23.727  27.783  1.00  0.00    -0.014 A 
ATOM     73  C   UNL A   1      42.718  23.467  26.420  1.00  0.00     0.010 A 
ATOM     74  C   UNL A   1      42.058  22.674  28.615  1.00  0.00     0.010 A 
ATOM     75  C   UNL A   1      42.527  22.184  25.899  1.00  0.00     0.020 A 
ATOM     76  C   UNL A   1      41.891  21.385  28.103  1.00  0.00     0.020 A 
ATOM     77  C   UNL A   1      42.118  21.149  26.745  1.00  0.00     0.054 A 
BRANCH  77  78
ATOM     78  S   UNL A   1      41.937  19.479  26.058  1.00  0.00     0.124 S 
ATOM     79  O   UNL A   1      42.813  19.533  24.892  1.00  0.00    -0.237 OA
ATOM     80  O   UNL A   1      42.397  18.635  27.157  1.00  0.00    -0.237 OA
ATOM     81  O   UNL A   1      40.508  19.384  25.765  1.00  0.00    -0.744 OA
ENDBRANCH  77  78
ENDBRANCH  49  72
BRANCH  61  82
ATOM     82  C   UNL A   1      47.835  26.811  31.008  1.00  0.00    -0.014 A 
ATOM     83  C   UNL A   1      48.975  27.032  30.216  1.00  0.00     0.010 A 
ATOM     84  C   UNL A   1      47.971  26.133  32.233  1.00  0.00     0.010 A 
ATOM     85  C   UNL A   1      50.219  26.540  30.619  1.00  0.00     0.020 A 
ATOM     86  C   UNL A   1      49.218  25.665  32.653  1.00  0.00     0.020 A 
ATOM     87  C   UNL A   1      50.331  25.854  31.833  1.00  0.00     0.054 A 
BRANCH  87  88
ATOM     88  S   UNL A   1      51.958  25.238  32.343  1.00  0.00     0.124 S 
ATOM     89  O   UNL A   1      51.704  23.810  32.509  1.00  0.00    -0.237 OA
ATOM     90  O   UNL A   1      52.809  25.598  31.211  1.00  0.00    -0.237 OA
ATOM     91  O   UNL A   1      52.235  25.970  33.578  1.00  0.00    -0.744 OA
ENDBRANCH  87  88
ENDBRANCH  61  82
ENDBRANCH  35  36
ENDBRANCH  27  30
ENDBRANCH  25  26
ENDBRANCH  24  25
ENDBRANCH  23  24
ENDBRANCH   1  23
TORSDOF 21
ENDMDL
MODEL 2
REMARK VINA RESULT:      -9.6      1.923      4.015
REMARK SMILES COCC[NH2+]CC(=O)N1C[C@H](OC)C[C@@H]1C(=O)NCCCCNC(=O)c1ccc(-c2c3nc(c(-c4ccc(S(=O)(=O)[O-])cc4)c4ccc([nH]4)c(-c4ccc(S(=O)(=O)[O-])cc4)c4nc(c(-c5ccc(S(=O)(=O)[O-])cc5)c5ccc2[nH]5)C=C4)C=C3)cc1
REMARK SMILES IDX 19 1 18 2 16 3 17 4 15 6 9 7 10 8 11 9 14 10 7 11 8 12 6 13
REMARK SMILES IDX 5 14 4 17 3 18 2 19 1 20 12 21 13 22 20 23 21 24 22 25 23 26
REMARK SMILES IDX 24 27 25 29 26 30 27 31 85 32 28 33 84 34 29 35 30 36 31 37
REMARK SMILES IDX 78 38 32 39 83 40 77 41 79 42 33 43 82 44 76 45 75 46 34 48
REMARK SMILES IDX 64 49 45 50 63 51 46 52 49 53 62 54 80 55 47 56 48 57 61 59
REMARK SMILES IDX 81 60 50 61 35 62 36 63 44 64 37 65 43 66 38 67 39 68 40 69
REMARK SMILES IDX 41 70 42 71 65 72 66 73 74 74 67 75 73 76 68 77 69 78 70 79
REMARK SMILES IDX 71 80 72 81 51 82 52 83 60 84 53 85 59 86 54 87 55 88 56 89
REMARK SMILES IDX 57 90 58 91
REMARK H PARENT 18 5 5 15 5 16 23 28 79 47 49 58
REMARK Flexibility Score: inf
ROOT
ATOM      1  C   UNL A   1      33.762  26.682  24.163  1.00  0.00     0.116 C 
ENDROOT
BRANCH   1   2
ATOM      2  N   UNL A   1      33.881  26.345  22.768  1.00  0.00    -0.354 N 
ATOM      3  C   UNL A   1      32.942  25.805  21.936  1.00  0.00     0.242 C 
ATOM      4  O   UNL A   1      33.272  25.627  20.759  1.00  0.00    -0.273 OA
ATOM      5  H   UNL A   1      34.757  26.530  22.357  1.00  0.00     0.163 HD
BRANCH   3   6
ATOM      6  C   UNL A   1      31.583  25.271  22.450  1.00  0.00     0.177 C 
ATOM      7  N   UNL A   1      30.803  26.094  23.383  1.00  0.00    -0.323 N 
ATOM      8  C   UNL A   1      30.053  25.174  24.212  1.00  0.00     0.152 C 
ATOM      9  C   UNL A   1      31.010  24.037  24.507  1.00  0.00     0.139 C 
ATOM     10  C   UNL A   1      31.759  23.905  23.171  1.00  0.00     0.069 C 
BRANCH   7  11
ATOM     11  C   UNL A   1      30.153  27.248  22.953  1.00  0.00     0.278 C 
ATOM     12  O   UNL A   1      30.537  27.903  21.987  1.00  0.00    -0.268 OA
BRANCH  11  13
ATOM     13  C   UNL A   1      28.919  27.655  23.788  1.00  0.00     0.362 C 
BRANCH  13  14
ATOM     14  N   UNL A   1      27.711  27.982  22.991  1.00  0.00    -0.337 N 
ATOM     15  H   UNL A   1      27.910  27.815  22.005  1.00  0.00     0.346 HD
ATOM     16  H   UNL A   1      26.947  27.388  23.317  1.00  0.00     0.346 HD
BRANCH  14  17
ATOM     17  C   UNL A   1      27.304  29.378  23.163  1.00  0.00     0.289 C 
BRANCH  17  18
ATOM     18  C   UNL A   1      28.059  30.448  22.366  1.00  0.00     0.221 C 
BRANCH  18  19
ATOM     19  O   UNL A   1      27.730  31.773  22.788  1.00  0.00    -0.379 OA
ATOM     20  C   UNL A   1      28.609  32.755  22.266  1.00  0.00     0.195 C 
ENDBRANCH  18  19
ENDBRANCH  17  18
ENDBRANCH  14  17
ENDBRANCH  13  14
ENDBRANCH  11  13
ENDBRANCH   7  11
BRANCH   9  21
ATOM     21  O   UNL A   1      31.958  24.276  25.558  1.00  0.00    -0.380 OA
ATOM     22  C   UNL A   1      32.150  23.234  26.514  1.00  0.00     0.195 C 
ENDBRANCH   9  21
ENDBRANCH   3   6
ENDBRANCH   1   2
BRANCH   1  23
ATOM     23  C   UNL A   1      33.693  28.186  24.425  1.00  0.00     0.023 C 
BRANCH  23  24
ATOM     24  C   UNL A   1      32.915  28.579  25.678  1.00  0.00     0.023 C 
BRANCH  24  25
ATOM     25  C   UNL A   1      33.746  28.716  26.948  1.00  0.00     0.116 C 
BRANCH  25  26
ATOM     26  N   UNL A   1      33.644  30.010  27.604  1.00  0.00    -0.352 N 
ATOM     27  C   UNL A   1      34.620  30.686  28.317  1.00  0.00     0.251 C 
ATOM     28  H   UNL A   1      32.772  30.462  27.533  1.00  0.00     0.163 HD
ATOM     29  O   UNL A   1      34.374  31.745  28.856  1.00  0.00    -0.269 OA
BRANCH  27  30
ATOM     30  C   UNL A   1      35.954  30.052  28.451  1.00  0.00     0.039 A 
ATOM     31  C   UNL A   1      36.852  30.144  27.386  1.00  0.00     0.014 A 
ATOM     32  C   UNL A   1      36.346  29.473  29.659  1.00  0.00     0.014 A 
ATOM     33  C   UNL A   1      38.175  29.732  27.568  1.00  0.00     0.010 A 
ATOM     34  C   UNL A   1      37.685  29.164  29.869  1.00  0.00     0.010 A 
ATOM     35  C   UNL A   1      38.616  29.284  28.826  1.00  0.00    -0.014 A 
BRANCH  35  36
ATOM     36  C   UNL A   1      40.040  28.930  29.063  1.00  0.00     0.031 A 
ATOM     37  C   UNL A   1      40.969  29.927  29.705  1.00  0.00     0.074 A 
ATOM     38  C   UNL A   1      40.515  27.734  28.658  1.00  0.00     0.049 A 
ATOM     39  N   UNL A   1      42.239  29.805  29.994  1.00  0.00    -0.248 NA
ATOM     40  C   UNL A   1      40.405  31.245  30.040  1.00  0.00     0.031 C 
ATOM     41  C   UNL A   1      39.739  26.700  27.968  1.00  0.00     0.029 A 
ATOM     42  N   UNL A   1      41.766  27.182  28.778  1.00  0.00    -0.354 N 
ATOM     43  C   UNL A   1      42.625  31.029  30.527  1.00  0.00     0.074 A 
ATOM     44  C   UNL A   1      41.475  31.902  30.454  1.00  0.00     0.031 C 
ATOM     45  C   UNL A   1      40.516  25.622  27.774  1.00  0.00     0.029 A 
ATOM     46  C   UNL A   1      41.852  25.897  28.292  1.00  0.00     0.049 A 
ATOM     47  H   UNL A   1      42.530  27.660  29.174  1.00  0.00     0.167 HD
ATOM     48  C   UNL A   1      43.815  31.390  31.062  1.00  0.00     0.031 A 
ATOM     49  C   UNL A   1      42.885  25.032  28.281  1.00  0.00     0.031 A 
ATOM     50  C   UNL A   1      44.956  30.520  31.147  1.00  0.00     0.049 A 
ATOM     51  C   UNL A   1      44.196  25.447  28.892  1.00  0.00     0.074 A 
ATOM     52  C   UNL A   1      46.194  30.772  31.712  1.00  0.00     0.029 A 
ATOM     53  N   UNL A   1      44.997  29.223  30.656  1.00  0.00    -0.354 N 
ATOM     54  N   UNL A   1      44.522  26.588  29.451  1.00  0.00    -0.248 NA
ATOM     55  C   UNL A   1      45.272  24.447  28.889  1.00  0.00     0.031 C 
ATOM     56  C   UNL A   1      46.998  29.642  31.524  1.00  0.00     0.029 A 
ATOM     57  C   UNL A   1      46.242  28.666  30.893  1.00  0.00     0.049 A 
ATOM     58  H   UNL A   1      44.251  28.767  30.204  1.00  0.00     0.167 HD
ATOM     59  C   UNL A   1      45.830  26.432  29.897  1.00  0.00     0.074 A 
ATOM     60  C   UNL A   1      46.229  25.081  29.552  1.00  0.00     0.031 C 
ATOM     61  C   UNL A   1      46.626  27.322  30.541  1.00  0.00     0.031 A 
BRANCH  48  62
ATOM     62  C   UNL A   1      43.927  32.794  31.598  1.00  0.00    -0.014 A 
ATOM     63  C   UNL A   1      43.578  33.092  32.929  1.00  0.00     0.010 A 
ATOM     64  C   UNL A   1      44.379  33.831  30.762  1.00  0.00     0.010 A 
ATOM     65  C   UNL A   1      43.614  34.408  33.395  1.00  0.00     0.020 A 
ATOM     66  C   UNL A   1      44.450  35.146  31.235  1.00  0.00     0.020 A 
ATOM     67  C   UNL A   1      44.041  35.429  32.541  1.00  0.00     0.054 A 
BRANCH  67  68
ATOM     68  S   UNL A   1      44.069  37.131  33.167  1.00  0.00     0.124 S 
ATOM     69  O   UNL A   1      45.373  37.188  33.821  1.00  0.00    -0.237 OA
ATOM     70  O   UNL A   1      43.944  37.924  31.947  1.00  0.00    -0.237 OA
ATOM     71  O   UNL A   1      42.918  37.188  34.065  1.00  0.00    -0.744 OA
ENDBRANCH  67  68
ENDBRANCH  48  62
BRANCH  49  72
ATOM     72  C   UNL A   1      42.703  23.663  27.724  1.00  0.00    -0.014 A 
ATOM     73  C   UNL A   1      42.272  22.612  28.555  1.00  0.00     0.010 A 
ATOM     74  C   UNL A   1      42.937  23.404  26.362  1.00  0.00     0.010 A 
ATOM     75  C   UNL A   1      42.092  21.326  28.036  1.00  0.00     0.020 A 
ATOM     76  C   UNL A   1      42.734  22.126  25.834  1.00  0.00     0.020 A 
ATOM     77  C   UNL A   1      42.321  21.091  26.677  1.00  0.00     0.054 A 
BRANCH  77  78
ATOM     78  S   UNL A   1      42.020  19.429  26.015  1.00  0.00     0.124 S 
ATOM     79  O   UNL A   1      42.827  19.435  24.799  1.00  0.00    -0.237 OA
ATOM     80  O   UNL A   1      42.504  18.569  27.091  1.00  0.00    -0.237 OA
ATOM     81  O   UNL A   1      40.574  19.400  25.808  1.00  0.00    -0.744 OA
ENDBRANCH  77  78
ENDBRANCH  49  72
BRANCH  61  82
ATOM     82  C   UNL A   1      47.995  26.849  30.954  1.00  0.00    -0.014 A 
ATOM     83  C   UNL A   1      49.104  26.974  30.100  1.00  0.00     0.010 A 
ATOM     84  C   UNL A   1      48.174  26.297  32.236  1.00  0.00     0.010 A 
ATOM     85  C   UNL A   1      50.359  26.509  30.502  1.00  0.00     0.020 A 
ATOM     86  C   UNL A   1      49.433  25.859  32.652  1.00  0.00     0.020 A 
ATOM     87  C   UNL A   1      50.514  25.949  31.774  1.00  0.00     0.054 A 
BRANCH  87  88
ATOM     88  S   UNL A   1      52.155  25.368  32.280  1.00  0.00     0.124 S 
ATOM     89  O   UNL A   1      51.957  23.923  32.350  1.00  0.00    -0.237 OA
ATOM     90  O   UNL A   1      53.012  25.833  31.191  1.00  0.00    -0.237 OA
ATOM     91  O   UNL A   1      52.377  26.030  33.564  1.00  0.00    -0.744 OA
ENDBRANCH  87  88
ENDBRANCH  61  82
ENDBRANCH  35  36
ENDBRANCH  27  30
ENDBRANCH  25  26
ENDBRANCH  24  25
ENDBRANCH  23  24
ENDBRANCH   1  23
TORSDOF 21
ENDMDL
MODEL 3
REMARK VINA RESULT:      -9.4      2.836      4.347
REMARK SMILES COCC[NH2+]CC(=O)N1C[C@H](OC)C[C@@H]1C(=O)NCCCCNC(=O)c1ccc(-c2c3nc(c(-c4ccc(S(=O)(=O)[O-])cc4)c4ccc([nH]4)c(-c4ccc(S(=O)(=O)[O-])cc4)c4nc(c(-c5ccc(S(=O)(=O)[O-])cc5)c5ccc2[nH]5)C=C4)C=C3)cc1
REMARK SMILES IDX 19 1 18 2 16 3 17 4 15 6 9 7 10 8 11 9 14 10 7 11 8 12 6 13
REMARK SMILES IDX 5 14 4 17 3 18 2 19 1 20 12 21 13 22 20 23 21 24 22 25 23 26
REMARK SMILES IDX 24 27 25 29 26 30 27 31 85 32 28 33 84 34 29 35 30 36 31 37
REMARK SMILES IDX 78 38 32 39 83 40 77 41 79 42 33 43 82 44 76 45 75 46 34 48
REMARK SMILES IDX 64 49 45 50 63 51 46 52 49 53 62 54 80 55 47 56 48 57 61 59
REMARK SMILES IDX 81 60 50 61 35 62 36 63 44 64 37 65 43 66 38 67 39 68 40 69
REMARK SMILES IDX 41 70 42 71 65 72 66 73 74 74 67 75 73 76 68 77 69 78 70 79
REMARK SMILES IDX 71 80 72 81 51 82 52 83 60 84 53 85 59 86 54 87 55 88 56 89
REMARK SMILES IDX 57 90 58 91
REMARK H PARENT 18 5 5 15 5 16 23 28 79 47 49 58
REMARK Flexibility Score: inf
ROOT
ATOM      1  C   UNL A   1      31.005  26.653  26.680  1.00  0.00     0.116 C 
ENDROOT
BRANCH   1   2
ATOM      2  N   UNL A   1      30.367  26.277  25.445  1.00  0.00    -0.354 N 
ATOM      3  C   UNL A   1      30.804  25.407  24.488  1.00  0.00     0.242 C 
ATOM      4  O   UNL A   1      30.063  25.224  23.516  1.00  0.00    -0.273 OA
ATOM      5  H   UNL A   1      29.498  26.704  25.267  1.00  0.00     0.163 HD
BRANCH   3   6
ATOM      6  C   UNL A   1      32.227  24.798  24.504  1.00  0.00     0.177 C 
ATOM      7  N   UNL A   1      32.802  24.301  23.246  1.00  0.00    -0.323 N 
ATOM      8  C   UNL A   1      33.696  23.220  23.603  1.00  0.00     0.152 C 
ATOM      9  C   UNL A   1      32.976  22.456  24.696  1.00  0.00     0.139 C 
ATOM     10  C   UNL A   1      32.306  23.594  25.483  1.00  0.00     0.069 C 
BRANCH   7  11
ATOM     11  C   UNL A   1      33.219  25.180  22.251  1.00  0.00     0.278 C 
ATOM     12  O   UNL A   1      33.277  24.859  21.066  1.00  0.00    -0.268 OA
BRANCH  11  13
ATOM     13  C   UNL A   1      33.618  26.588  22.744  1.00  0.00     0.362 C 
BRANCH  13  14
ATOM     14  N   UNL A   1      33.378  27.679  21.768  1.00  0.00    -0.337 N 
ATOM     15  H   UNL A   1      34.264  27.936  21.335  1.00  0.00     0.346 HD
ATOM     16  H   UNL A   1      32.713  27.341  21.072  1.00  0.00     0.346 HD
BRANCH  14  17
ATOM     17  C   UNL A   1      32.802  28.865  22.406  1.00  0.00     0.289 C 
BRANCH  17  18
ATOM     18  C   UNL A   1      31.448  28.714  23.109  1.00  0.00     0.221 C 
BRANCH  18  19
ATOM     19  O   UNL A   1      30.395  28.396  22.196  1.00  0.00    -0.379 OA
ATOM     20  C   UNL A   1      29.105  28.629  22.736  1.00  0.00     0.195 C 
ENDBRANCH  18  19
ENDBRANCH  17  18
ENDBRANCH  14  17
ENDBRANCH  13  14
ENDBRANCH  11  13
ENDBRANCH   7  11
BRANCH   9  21
ATOM     21  O   UNL A   1      31.971  21.532  24.254  1.00  0.00    -0.380 OA
ATOM     22  C   UNL A   1      32.415  20.354  23.585  1.00  0.00     0.195 C 
ENDBRANCH   9  21
ENDBRANCH   3   6
ENDBRANCH   1   2
BRANCH   1  23
ATOM     23  C   UNL A   1      31.791  27.962  26.588  1.00  0.00     0.023 C 
BRANCH  23  24
ATOM     24  C   UNL A   1      33.308  27.798  26.623  1.00  0.00     0.023 C 
BRANCH  24  25
ATOM     25  C   UNL A   1      34.103  28.922  25.972  1.00  0.00     0.116 C 
BRANCH  25  26
ATOM     26  N   UNL A   1      33.844  30.245  26.519  1.00  0.00    -0.352 N 
ATOM     27  C   UNL A   1      34.587  30.943  27.455  1.00  0.00     0.251 C 
ATOM     28  H   UNL A   1      33.039  30.701  26.181  1.00  0.00     0.163 HD
ATOM     29  O   UNL A   1      34.219  32.027  27.858  1.00  0.00    -0.269 OA
BRANCH  27  30
ATOM     30  C   UNL A   1      35.813  30.303  27.993  1.00  0.00     0.039 A 
ATOM     31  C   UNL A   1      37.030  30.529  27.347  1.00  0.00     0.014 A 
ATOM     32  C   UNL A   1      35.770  29.582  29.188  1.00  0.00     0.014 A 
ATOM     33  C   UNL A   1      38.216  30.105  27.950  1.00  0.00     0.010 A 
ATOM     34  C   UNL A   1      36.957  29.255  29.835  1.00  0.00     0.010 A 
ATOM     35  C   UNL A   1      38.195  29.508  29.223  1.00  0.00    -0.014 A 
BRANCH  35  36
ATOM     36  C   UNL A   1      39.453  29.134  29.920  1.00  0.00     0.031 A 
ATOM     37  C   UNL A   1      39.864  29.858  31.175  1.00  0.00     0.074 A 
ATOM     38  C   UNL A   1      40.252  28.178  29.404  1.00  0.00     0.049 A 
ATOM     39  N   UNL A   1      40.922  29.677  31.924  1.00  0.00    -0.248 NA
ATOM     40  C   UNL A   1      38.989  30.950  31.632  1.00  0.00     0.031 C 
ATOM     41  C   UNL A   1      40.004  27.440  28.163  1.00  0.00     0.029 A 
ATOM     42  N   UNL A   1      41.436  27.656  29.867  1.00  0.00    -0.354 N 
ATOM     43  C   UNL A   1      40.844  30.637  32.926  1.00  0.00     0.074 A 
ATOM     44  C   UNL A   1      39.678  31.445  32.647  1.00  0.00     0.031 C 
ATOM     45  C   UNL A   1      40.975  26.527  27.991  1.00  0.00     0.029 A 
ATOM     46  C   UNL A   1      41.932  26.636  29.088  1.00  0.00     0.049 A 
ATOM     47  H   UNL A   1      41.886  27.981  30.679  1.00  0.00     0.167 HD
ATOM     48  C   UNL A   1      41.647  30.816  34.001  1.00  0.00     0.031 A 
ATOM     49  C   UNL A   1      43.024  25.863  29.247  1.00  0.00     0.031 A 
ATOM     50  C   UNL A   1      42.801  30.007  34.287  1.00  0.00     0.049 A 
ATOM     51  C   UNL A   1      43.897  26.068  30.455  1.00  0.00     0.074 A 
ATOM     52  C   UNL A   1      43.655  30.075  35.373  1.00  0.00     0.029 A 
ATOM     53  N   UNL A   1      43.261  28.977  33.480  1.00  0.00    -0.354 N 
ATOM     54  N   UNL A   1      43.770  26.940  31.427  1.00  0.00    -0.248 NA
ATOM     55  C   UNL A   1      45.049  25.168  30.598  1.00  0.00     0.031 C 
ATOM     56  C   UNL A   1      44.657  29.112  35.202  1.00  0.00     0.029 A 
ATOM     57  C   UNL A   1      44.393  28.408  34.038  1.00  0.00     0.049 A 
ATOM     58  H   UNL A   1      42.843  28.693  32.635  1.00  0.00     0.167 HD
ATOM     59  C   UNL A   1      44.807  26.671  32.315  1.00  0.00     0.074 A 
ATOM     60  C   UNL A   1      45.542  25.548  31.768  1.00  0.00     0.031 C 
ATOM     61  C   UNL A   1      45.117  27.293  33.481  1.00  0.00     0.031 A 
BRANCH  48  62
ATOM     62  C   UNL A   1      41.290  31.936  34.945  1.00  0.00    -0.014 A 
ATOM     63  C   UNL A   1      40.452  31.709  36.053  1.00  0.00     0.010 A 
ATOM     64  C   UNL A   1      41.788  33.231  34.719  1.00  0.00     0.010 A 
ATOM     65  C   UNL A   1      40.066  32.767  36.879  1.00  0.00     0.020 A 
ATOM     66  C   UNL A   1      41.431  34.287  35.564  1.00  0.00     0.020 A 
ATOM     67  C   UNL A   1      40.551  34.052  36.623  1.00  0.00     0.054 A 
BRANCH  67  68
ATOM     68  S   UNL A   1      40.026  35.410  37.704  1.00  0.00     0.124 S 
ATOM     69  O   UNL A   1      41.143  35.496  38.641  1.00  0.00    -0.237 OA
ATOM     70  O   UNL A   1      39.899  36.530  36.775  1.00  0.00    -0.237 OA
ATOM     71  O   UNL A   1      38.769  34.932  38.275  1.00  0.00    -0.744 OA
ENDBRANCH  67  68
ENDBRANCH  48  62
BRANCH  49  72
ATOM     72  C   UNL A   1      43.320  24.782  28.266  1.00  0.00    -0.014 A 
ATOM     73  C   UNL A   1      42.729  23.513  28.411  1.00  0.00     0.010 A 
ATOM     74  C   UNL A   1      44.175  25.017  27.174  1.00  0.00     0.010 A 
ATOM     75  C   UNL A   1      42.998  22.496  27.490  1.00  0.00     0.020 A 
ATOM     76  C   UNL A   1      44.425  24.010  26.237  1.00  0.00     0.020 A 
ATOM     77  C   UNL A   1      43.842  22.752  26.406  1.00  0.00     0.054 A 
BRANCH  77  78
ATOM     78  S   UNL A   1      44.126  21.436  25.189  1.00  0.00     0.124 S 
ATOM     79  O   UNL A   1      42.993  20.548  25.431  1.00  0.00    -0.237 OA
ATOM     80  O   UNL A   1      44.102  22.165  23.925  1.00  0.00    -0.237 OA
ATOM     81  O   UNL A   1      45.434  20.901  25.565  1.00  0.00    -0.744 OA
ENDBRANCH  77  78
ENDBRANCH  49  72
BRANCH  61  82
ATOM     82  C   UNL A   1      46.277  26.743  34.267  1.00  0.00    -0.014 A 
ATOM     83  C   UNL A   1      46.140  25.604  35.080  1.00  0.00     0.010 A 
ATOM     84  C   UNL A   1      47.536  27.364  34.162  1.00  0.00     0.010 A 
ATOM     85  C   UNL A   1      47.229  25.126  35.814  1.00  0.00     0.020 A 
ATOM     86  C   UNL A   1      48.634  26.871  34.871  1.00  0.00     0.020 A 
ATOM     87  C   UNL A   1      48.468  25.767  35.708  1.00  0.00     0.054 A 
BRANCH  87  88
ATOM     88  S   UNL A   1      49.871  25.119  36.657  1.00  0.00     0.124 S 
ATOM     89  O   UNL A   1      49.884  26.003  37.820  1.00  0.00    -0.237 OA
ATOM     90  O   UNL A   1      49.472  23.738  36.921  1.00  0.00    -0.237 OA
ATOM     91  O   UNL A   1      51.004  25.269  35.746  1.00  0.00    -0.744 OA
ENDBRANCH  87  88
ENDBRANCH  61  82
ENDBRANCH  35  36
ENDBRANCH  27  30
ENDBRANCH  25  26
ENDBRANCH  24  25
ENDBRANCH  23  24
ENDBRANCH   1  23
TORSDOF 21
ENDMDL
