MODEL 1
REMARK VINA RESULT:     -12.0      0.000      0.000
REMARK SMILES Cc1cc(Cl)c(C)c2c1O[C@H](C(F)(F)F)C(C(=O)NCCCCNC(=O)c1ccc(-c3c4nc(c(-c5ccc(S(=O)(=O)[O-])cc5)c5ccc([nH]5)c(-c5ccc(S(=O)(=O)[O-])cc5)c5nc(c(-c6ccc(S(=O)(=O)[O-])cc6)c6ccc3[nH]6)C=C5)C=C4)cc1)=C2
REMARK SMILES IDX 22 1 21 2 20 3 19 4 17 5 18 6 16 8 1 9 2 10 3 11 9 12 4 13
REMARK SMILES IDX 8 14 10 15 5 16 6 17 87 18 11 19 7 20 12 21 13 22 14 23
REMARK SMILES IDX 15 24 23 25 24 26 25 27 26 29 27 30 28 31 86 32 29 33 85 34
REMARK SMILES IDX 30 35 31 36 32 37 79 38 33 39 84 40 78 41 80 42 34 43 83 44
REMARK SMILES IDX 77 45 76 46 35 48 65 49 46 50 64 51 47 52 50 53 63 54 81 55
REMARK SMILES IDX 48 56 49 57 62 59 82 60 51 61 36 62 37 63 45 64 38 65 44 66
REMARK SMILES IDX 39 67 40 68 41 69 42 70 43 71 66 72 67 73 75 74 68 75 74 76
REMARK SMILES IDX 69 77 70 78 71 79 72 80 73 81 52 82 53 83 61 84 54 85 60 86
REMARK SMILES IDX 55 87 56 88 57 89 58 90 59 91
REMARK H PARENT 19 7 24 28 80 47 50 58
REMARK Flexibility Score: inf
ROOT
ATOM      1  C   UNL A   1      33.649  28.759  25.608  1.00  0.00     0.023 C 
ENDROOT
BRANCH   1   2
ATOM      2  C   UNL A   1      33.850  27.387  24.956  1.00  0.00     0.023 C 
BRANCH   2   3
ATOM      3  C   UNL A   1      32.573  26.760  24.404  1.00  0.00     0.116 C 
BRANCH   3   4
ATOM      4  N   UNL A   1      31.761  26.167  25.451  1.00  0.00    -0.352 N 
ATOM      5  C   UNL A   1      31.630  24.953  26.032  1.00  0.00     0.251 C 
ATOM      6  O   UNL A   1      30.771  24.883  26.918  1.00  0.00    -0.270 OA
ATOM      7  H   UNL A   1      31.140  26.825  25.843  1.00  0.00     0.163 HD
BRANCH   5   8
ATOM      8  C   UNL A   1      32.431  23.739  25.691  1.00  0.00     0.067 C 
ATOM      9  C   UNL A   1      34.148  19.071  24.489  1.00  0.00     0.048 C 
ATOM     10  C   UNL A   1      34.797  20.349  24.939  1.00  0.00    -0.007 A 
ATOM     11  C   UNL A   1      36.187  20.438  25.043  1.00  0.00     0.028 A 
ATOM     12  C   UNL A   1      34.029  21.475  25.258  1.00  0.00     0.131 A 
ATOM     13  C   UNL A   1      36.799  21.626  25.458  1.00  0.00     0.045 A 
ATOM     14  C   UNL A   1      34.625  22.675  25.681  1.00  0.00     0.022 A 
ATOM     15  O   UNL A   1      32.669  21.326  25.181  1.00  0.00    -0.475 OA
ATOM     16  Cl  UNL A   1      38.528  21.605  25.556  1.00  0.00    -0.084 Cl
ATOM     17  C   UNL A   1      36.035  22.765  25.780  1.00  0.00    -0.021 A 
ATOM     18  C   UNL A   1      33.733  23.786  26.032  1.00  0.00     0.026 C 
ATOM     19  C   UNL A   1      31.897  22.538  24.973  1.00  0.00     0.314 C 
ATOM     20  C   UNL A   1      36.682  24.054  26.227  1.00  0.00     0.047 C 
BRANCH  19  21
ATOM     21  C   UNL A   1      31.708  22.774  23.463  1.00  0.00     0.429 C 
ATOM     22  F   UNL A   1      32.681  23.592  22.988  1.00  0.00    -0.167 F 
ATOM     23  F   UNL A   1      31.785  21.629  22.745  1.00  0.00    -0.167 F 
ATOM     24  F   UNL A   1      30.520  23.347  23.168  1.00  0.00    -0.167 F 
ENDBRANCH  19  21
ENDBRANCH   5   8
ENDBRANCH   3   4
ENDBRANCH   2   3
ENDBRANCH   1   2
BRANCH   1  25
ATOM     25  C   UNL A   1      33.660  28.772  27.136  1.00  0.00     0.116 C 
BRANCH  25  26
ATOM     26  N   UNL A   1      33.630  30.107  27.719  1.00  0.00    -0.352 N 
ATOM     27  C   UNL A   1      34.657  30.769  28.353  1.00  0.00     0.251 C 
ATOM     28  H   UNL A   1      32.777  30.593  27.649  1.00  0.00     0.163 HD
ATOM     29  O   UNL A   1      34.479  31.874  28.851  1.00  0.00    -0.269 OA
BRANCH  27  30
ATOM     30  C   UNL A   1      35.960  30.089  28.469  1.00  0.00     0.039 A 
ATOM     31  C   UNL A   1      36.837  30.135  27.384  1.00  0.00     0.014 A 
ATOM     32  C   UNL A   1      36.349  29.512  29.682  1.00  0.00     0.014 A 
ATOM     33  C   UNL A   1      38.145  29.677  27.544  1.00  0.00     0.010 A 
ATOM     34  C   UNL A   1      37.667  29.105  29.854  1.00  0.00     0.010 A 
ATOM     35  C   UNL A   1      38.581  29.204  28.793  1.00  0.00    -0.014 A 
BRANCH  35  36
ATOM     36  C   UNL A   1      40.005  28.857  29.015  1.00  0.00     0.031 A 
ATOM     37  C   UNL A   1      40.942  29.857  29.626  1.00  0.00     0.074 A 
ATOM     38  C   UNL A   1      40.459  27.652  28.616  1.00  0.00     0.049 A 
ATOM     39  N   UNL A   1      42.219  29.733  29.882  1.00  0.00    -0.248 NA
ATOM     40  C   UNL A   1      40.381  31.171  29.973  1.00  0.00     0.031 C 
ATOM     41  C   UNL A   1      39.653  26.614  27.968  1.00  0.00     0.029 A 
ATOM     42  N   UNL A   1      41.710  27.095  28.701  1.00  0.00    -0.354 N 
ATOM     43  C   UNL A   1      42.615  30.952  30.415  1.00  0.00     0.074 A 
ATOM     44  C   UNL A   1      41.456  31.818  30.403  1.00  0.00     0.031 C 
ATOM     45  C   UNL A   1      40.419  25.533  27.751  1.00  0.00     0.029 A 
ATOM     46  C   UNL A   1      41.775  25.809  28.218  1.00  0.00     0.049 A 
ATOM     47  H   UNL A   1      42.488  27.570  29.071  1.00  0.00     0.167 HD
ATOM     48  C   UNL A   1      43.830  31.311  30.892  1.00  0.00     0.031 A 
ATOM     49  C   UNL A   1      42.805  24.943  28.169  1.00  0.00     0.031 A 
ATOM     50  C   UNL A   1      44.976  30.446  30.915  1.00  0.00     0.049 A 
ATOM     51  C   UNL A   1      44.141  25.360  28.714  1.00  0.00     0.074 A 
ATOM     52  C   UNL A   1      46.241  30.706  31.416  1.00  0.00     0.029 A 
ATOM     53  N   UNL A   1      44.998  29.150  30.425  1.00  0.00    -0.354 N 
ATOM     54  N   UNL A   1      44.484  26.502  29.259  1.00  0.00    -0.248 NA
ATOM     55  C   UNL A   1      45.227  24.372  28.645  1.00  0.00     0.031 C 
ATOM     56  C   UNL A   1      47.033  29.575  31.203  1.00  0.00     0.029 A 
ATOM     57  C   UNL A   1      46.254  28.599  30.602  1.00  0.00     0.049 A 
ATOM     58  H   UNL A   1      44.231  28.690  30.011  1.00  0.00     0.167 HD
ATOM     59  C   UNL A   1      45.818  26.363  29.618  1.00  0.00     0.074 A 
ATOM     60  C   UNL A   1      46.221  25.027  29.232  1.00  0.00     0.031 C 
ATOM     61  C   UNL A   1      46.634  27.263  30.217  1.00  0.00     0.031 A 
BRANCH  48  62
ATOM     62  C   UNL A   1      43.968  32.704  31.440  1.00  0.00    -0.014 A 
ATOM     63  C   UNL A   1      44.274  33.780  30.588  1.00  0.00     0.010 A 
ATOM     64  C   UNL A   1      43.769  32.946  32.811  1.00  0.00     0.010 A 
ATOM     65  C   UNL A   1      44.418  35.069  31.104  1.00  0.00     0.020 A 
ATOM     66  C   UNL A   1      43.891  34.238  33.326  1.00  0.00     0.020 A 
ATOM     67  C   UNL A   1      44.233  35.290  32.471  1.00  0.00     0.054 A 
BRANCH  67  68
ATOM     68  S   UNL A   1      44.419  36.975  33.114  1.00  0.00     0.124 S 
ATOM     69  O   UNL A   1      45.456  36.797  34.127  1.00  0.00    -0.237 OA
ATOM     70  O   UNL A   1      44.821  37.730  31.930  1.00  0.00    -0.237 OA
ATOM     71  O   UNL A   1      43.090  37.295  33.632  1.00  0.00    -0.744 OA
ENDBRANCH  67  68
ENDBRANCH  48  62
BRANCH  49  72
ATOM     72  C   UNL A   1      42.591  23.575  27.629  1.00  0.00    -0.014 A 
ATOM     73  C   UNL A   1      42.883  23.298  26.283  1.00  0.00     0.010 A 
ATOM     74  C   UNL A   1      42.141  22.537  28.463  1.00  0.00     0.010 A 
ATOM     75  C   UNL A   1      42.727  22.005  25.777  1.00  0.00     0.020 A 
ATOM     76  C   UNL A   1      41.999  21.238  27.965  1.00  0.00     0.020 A 
ATOM     77  C   UNL A   1      42.289  20.982  26.623  1.00  0.00     0.054 A 
BRANCH  77  78
ATOM     78  S   UNL A   1      42.166  19.295  25.965  1.00  0.00     0.124 S 
ATOM     79  O   UNL A   1      42.688  18.499  27.071  1.00  0.00    -0.237 OA
ATOM     80  O   UNL A   1      40.734  19.159  25.708  1.00  0.00    -0.237 OA
ATOM     81  O   UNL A   1      43.003  19.334  24.768  1.00  0.00    -0.744 OA
ENDBRANCH  77  78
ENDBRANCH  49  72
BRANCH  61  82
ATOM     82  C   UNL A   1      48.042  26.839  30.519  1.00  0.00    -0.014 A 
ATOM     83  C   UNL A   1      49.107  27.253  29.701  1.00  0.00     0.010 A 
ATOM     84  C   UNL A   1      48.314  26.118  31.695  1.00  0.00     0.010 A 
ATOM     85  C   UNL A   1      50.424  26.952  30.057  1.00  0.00     0.020 A 
ATOM     86  C   UNL A   1      49.630  25.829  32.062  1.00  0.00     0.020 A 
ATOM     87  C   UNL A   1      50.677  26.247  31.237  1.00  0.00     0.054 A 
BRANCH  87  88
ATOM     88  S   UNL A   1      52.400  25.954  31.727  1.00  0.00     0.124 S 
ATOM     89  O   UNL A   1      52.319  24.633  32.343  1.00  0.00    -0.237 OA
ATOM     90  O   UNL A   1      53.111  26.011  30.452  1.00  0.00    -0.237 OA
ATOM     91  O   UNL A   1      52.690  27.054  32.645  1.00  0.00    -0.744 OA
ENDBRANCH  87  88
ENDBRANCH  61  82
ENDBRANCH  35  36
ENDBRANCH  27  30
ENDBRANCH  25  26
ENDBRANCH   1  25
TORSDOF 15
ENDMDL
MODEL 2
REMARK VINA RESULT:     -11.7      2.990      9.416
REMARK SMILES Cc1cc(Cl)c(C)c2c1O[C@H](C(F)(F)F)C(C(=O)NCCCCNC(=O)c1ccc(-c3c4nc(c(-c5ccc(S(=O)(=O)[O-])cc5)c5ccc([nH]5)c(-c5ccc(S(=O)(=O)[O-])cc5)c5nc(c(-c6ccc(S(=O)(=O)[O-])cc6)c6ccc3[nH]6)C=C5)C=C4)cc1)=C2
REMARK SMILES IDX 22 1 21 2 20 3 19 4 17 5 18 6 16 8 1 9 2 10 3 11 9 12 4 13
REMARK SMILES IDX 8 14 10 15 5 16 6 17 87 18 11 19 7 20 12 21 13 22 14 23
REMARK SMILES IDX 15 24 23 25 24 26 25 27 26 29 27 30 28 31 86 32 29 33 85 34
REMARK SMILES IDX 30 35 31 36 32 37 79 38 33 39 84 40 78 41 80 42 34 43 83 44
REMARK SMILES IDX 77 45 76 46 35 48 65 49 46 50 64 51 47 52 50 53 63 54 81 55
REMARK SMILES IDX 48 56 49 57 62 59 82 60 51 61 36 62 37 63 45 64 38 65 44 66
REMARK SMILES IDX 39 67 40 68 41 69 42 70 43 71 66 72 67 73 75 74 68 75 74 76
REMARK SMILES IDX 69 77 70 78 71 79 72 80 73 81 52 82 53 83 61 84 54 85 60 86
REMARK SMILES IDX 55 87 56 88 57 89 58 90 59 91
REMARK H PARENT 19 7 24 28 80 47 50 58
REMARK Flexibility Score: inf
ROOT
ATOM      1  C   UNL A   1      35.681  22.620  25.238  1.00  0.00     0.023 C 
ENDROOT
BRANCH   1   2
ATOM      2  C   UNL A   1      34.519  23.232  26.028  1.00  0.00     0.023 C 
BRANCH   2   3
ATOM      3  C   UNL A   1      33.227  23.384  25.230  1.00  0.00     0.116 C 
BRANCH   3   4
ATOM      4  N   UNL A   1      33.483  23.710  23.838  1.00  0.00    -0.352 N 
ATOM      5  C   UNL A   1      33.249  24.753  23.009  1.00  0.00     0.251 C 
ATOM      6  O   UNL A   1      33.642  24.601  21.848  1.00  0.00    -0.270 OA
ATOM      7  H   UNL A   1      33.951  22.978  23.375  1.00  0.00     0.163 HD
BRANCH   5   8
ATOM      8  C   UNL A   1      32.578  26.032  23.394  1.00  0.00     0.067 C 
ATOM      9  C   UNL A   1      29.660  30.218  23.764  1.00  0.00     0.048 C 
ATOM     10  C   UNL A   1      30.902  29.735  24.456  1.00  0.00    -0.007 A 
ATOM     11  C   UNL A   1      31.464  30.476  25.498  1.00  0.00     0.028 A 
ATOM     12  C   UNL A   1      31.518  28.536  24.079  1.00  0.00     0.131 A 
ATOM     13  C   UNL A   1      32.619  30.031  26.151  1.00  0.00     0.045 A 
ATOM     14  C   UNL A   1      32.681  28.075  24.720  1.00  0.00     0.022 A 
ATOM     15  O   UNL A   1      30.954  27.866  23.025  1.00  0.00    -0.475 OA
ATOM     16  Cl  UNL A   1      33.223  31.043  27.419  1.00  0.00    -0.084 Cl
ATOM     17  C   UNL A   1      33.246  28.825  25.780  1.00  0.00    -0.021 A 
ATOM     18  C   UNL A   1      33.276  26.828  24.225  1.00  0.00     0.026 C 
ATOM     19  C   UNL A   1      31.203  26.437  22.960  1.00  0.00     0.314 C 
ATOM     20  C   UNL A   1      34.491  28.331  26.477  1.00  0.00     0.047 C 
BRANCH  19  21
ATOM     21  C   UNL A   1      30.088  25.687  23.713  1.00  0.00     0.429 C 
ATOM     22  F   UNL A   1      30.389  25.595  25.032  1.00  0.00    -0.167 F 
ATOM     23  F   UNL A   1      28.893  26.319  23.634  1.00  0.00    -0.167 F 
ATOM     24  F   UNL A   1      29.902  24.430  23.252  1.00  0.00    -0.167 F 
ENDBRANCH  19  21
ENDBRANCH   5   8
ENDBRANCH   3   4
ENDBRANCH   2   3
ENDBRANCH   1   2
BRANCH   1  25
ATOM     25  C   UNL A   1      37.013  23.362  25.339  1.00  0.00     0.116 C 
BRANCH  25  26
ATOM     26  N   UNL A   1      38.152  22.500  25.628  1.00  0.00    -0.352 N 
ATOM     27  C   UNL A   1      39.302  22.830  26.309  1.00  0.00     0.251 C 
ATOM     28  H   UNL A   1      38.091  21.575  25.299  1.00  0.00     0.163 HD
ATOM     29  O   UNL A   1      40.212  22.020  26.433  1.00  0.00    -0.269 OA
BRANCH  27  30
ATOM     30  C   UNL A   1      39.434  24.201  26.835  1.00  0.00     0.039 A 
ATOM     31  C   UNL A   1      38.979  24.468  28.128  1.00  0.00     0.014 A 
ATOM     32  C   UNL A   1      40.102  25.180  26.093  1.00  0.00     0.014 A 
ATOM     33  C   UNL A   1      39.276  25.698  28.714  1.00  0.00     0.010 A 
ATOM     34  C   UNL A   1      40.443  26.384  26.699  1.00  0.00     0.010 A 
ATOM     35  C   UNL A   1      40.051  26.644  28.022  1.00  0.00    -0.014 A 
BRANCH  35  36
ATOM     36  C   UNL A   1      40.499  27.889  28.689  1.00  0.00     0.031 A 
ATOM     37  C   UNL A   1      41.901  28.006  29.213  1.00  0.00     0.074 A 
ATOM     38  C   UNL A   1      39.620  28.896  28.866  1.00  0.00     0.049 A 
ATOM     39  N   UNL A   1      42.462  29.010  29.834  1.00  0.00    -0.248 NA
ATOM     40  C   UNL A   1      42.777  26.837  29.038  1.00  0.00     0.031 C 
ATOM     41  C   UNL A   1      38.218  28.881  28.441  1.00  0.00     0.029 A 
ATOM     42  N   UNL A   1      39.778  30.129  29.445  1.00  0.00    -0.354 N 
ATOM     43  C   UNL A   1      43.754  28.596  30.128  1.00  0.00     0.074 A 
ATOM     44  C   UNL A   1      43.880  27.233  29.659  1.00  0.00     0.031 C 
ATOM     45  C   UNL A   1      37.655  30.063  28.738  1.00  0.00     0.029 A 
ATOM     46  C   UNL A   1      38.646  30.909  29.397  1.00  0.00     0.049 A 
ATOM     47  H   UNL A   1      40.620  30.428  29.857  1.00  0.00     0.167 HD
ATOM     48  C   UNL A   1      44.754  29.295  30.715  1.00  0.00     0.031 A 
ATOM     49  C   UNL A   1      38.432  32.169  29.822  1.00  0.00     0.031 A 
ATOM     50  C   UNL A   1      44.632  30.653  31.168  1.00  0.00     0.049 A 
ATOM     51  C   UNL A   1      39.559  32.929  30.462  1.00  0.00     0.074 A 
ATOM     52  C   UNL A   1      45.600  31.460  31.739  1.00  0.00     0.029 A 
ATOM     53  N   UNL A   1      43.472  31.409  31.093  1.00  0.00    -0.354 N 
ATOM     54  N   UNL A   1      40.790  32.536  30.688  1.00  0.00    -0.248 NA
ATOM     55  C   UNL A   1      39.274  34.304  30.898  1.00  0.00     0.031 C 
ATOM     56  C   UNL A   1      45.018  32.695  32.034  1.00  0.00     0.029 A 
ATOM     57  C   UNL A   1      43.697  32.669  31.615  1.00  0.00     0.049 A 
ATOM     58  H   UNL A   1      42.615  31.094  30.723  1.00  0.00     0.167 HD
ATOM     59  C   UNL A   1      41.431  33.620  31.271  1.00  0.00     0.074 A 
ATOM     60  C   UNL A   1      40.456  34.688  31.362  1.00  0.00     0.031 C 
ATOM     61  C   UNL A   1      42.715  33.722  31.690  1.00  0.00     0.031 A 
BRANCH  48  62
ATOM     62  C   UNL A   1      46.073  28.595  30.886  1.00  0.00    -0.014 A 
ATOM     63  C   UNL A   1      46.342  27.852  32.049  1.00  0.00     0.010 A 
ATOM     64  C   UNL A   1      47.042  28.659  29.870  1.00  0.00     0.010 A 
ATOM     65  C   UNL A   1      47.575  27.218  32.212  1.00  0.00     0.020 A 
ATOM     66  C   UNL A   1      48.269  28.008  30.021  1.00  0.00     0.020 A 
ATOM     67  C   UNL A   1      48.534  27.306  31.200  1.00  0.00     0.054 A 
BRANCH  67  68
ATOM     68  S   UNL A   1      50.124  26.466  31.433  1.00  0.00     0.124 S 
ATOM     69  O   UNL A   1      50.305  26.561  32.879  1.00  0.00    -0.237 OA
ATOM     70  O   UNL A   1      49.859  25.123  30.921  1.00  0.00    -0.237 OA
ATOM     71  O   UNL A   1      51.055  27.261  30.634  1.00  0.00    -0.744 OA
ENDBRANCH  67  68
ENDBRANCH  48  62
BRANCH  49  72
ATOM     72  C   UNL A   1      37.107  32.804  29.604  1.00  0.00    -0.014 A 
ATOM     73  C   UNL A   1      36.232  32.994  30.687  1.00  0.00     0.010 A 
ATOM     74  C   UNL A   1      36.732  33.262  28.329  1.00  0.00     0.010 A 
ATOM     75  C   UNL A   1      35.002  33.630  30.500  1.00  0.00     0.020 A 
ATOM     76  C   UNL A   1      35.509  33.914  28.140  1.00  0.00     0.020 A 
ATOM     77  C   UNL A   1      34.650  34.089  29.228  1.00  0.00     0.054 A 
BRANCH  77  78
ATOM     78  S   UNL A   1      33.082  34.979  29.021  1.00  0.00     0.124 S 
ATOM     79  O   UNL A   1      33.535  36.299  28.597  1.00  0.00    -0.237 OA
ATOM     80  O   UNL A   1      32.399  34.186  28.001  1.00  0.00    -0.237 OA
ATOM     81  O   UNL A   1      32.478  34.919  30.350  1.00  0.00    -0.744 OA
ENDBRANCH  77  78
ENDBRANCH  49  72
BRANCH  61  82
ATOM     82  C   UNL A   1      43.161  35.033  32.268  1.00  0.00    -0.014 A 
ATOM     83  C   UNL A   1      43.669  36.047  31.439  1.00  0.00     0.010 A 
ATOM     84  C   UNL A   1      42.959  35.294  33.636  1.00  0.00     0.010 A 
ATOM     85  C   UNL A   1      43.968  37.304  31.970  1.00  0.00     0.020 A 
ATOM     86  C   UNL A   1      43.243  36.554  34.166  1.00  0.00     0.020 A 
ATOM     87  C   UNL A   1      43.748  37.552  33.328  1.00  0.00     0.054 A 
BRANCH  87  88
ATOM     88  S   UNL A   1      44.053  39.220  33.973  1.00  0.00     0.124 S 
ATOM     89  O   UNL A   1      45.242  39.621  33.227  1.00  0.00    -0.237 OA
ATOM     90  O   UNL A   1      42.823  39.929  33.624  1.00  0.00    -0.237 OA
ATOM     91  O   UNL A   1      44.256  39.006  35.404  1.00  0.00    -0.744 OA
ENDBRANCH  87  88
ENDBRANCH  61  82
ENDBRANCH  35  36
ENDBRANCH  27  30
ENDBRANCH  25  26
ENDBRANCH   1  25
TORSDOF 15
ENDMDL
MODEL 3
REMARK VINA RESULT:     -11.5      1.289      8.302
REMARK SMILES Cc1cc(Cl)c(C)c2c1O[C@H](C(F)(F)F)C(C(=O)NCCCCNC(=O)c1ccc(-c3c4nc(c(-c5ccc(S(=O)(=O)[O-])cc5)c5ccc([nH]5)c(-c5ccc(S(=O)(=O)[O-])cc5)c5nc(c(-c6ccc(S(=O)(=O)[O-])cc6)c6ccc3[nH]6)C=C5)C=C4)cc1)=C2
REMARK SMILES IDX 22 1 21 2 20 3 19 4 17 5 18 6 16 8 1 9 2 10 3 11 9 12 4 13
REMARK SMILES IDX 8 14 10 15 5 16 6 17 87 18 11 19 7 20 12 21 13 22 14 23
REMARK SMILES IDX 15 24 23 25 24 26 25 27 26 29 27 30 28 31 86 32 29 33 85 34
REMARK SMILES IDX 30 35 31 36 32 37 79 38 33 39 84 40 78 41 80 42 34 43 83 44
REMARK SMILES IDX 77 45 76 46 35 48 65 49 46 50 64 51 47 52 50 53 63 54 81 55
REMARK SMILES IDX 48 56 49 57 62 59 82 60 51 61 36 62 37 63 45 64 38 65 44 66
REMARK SMILES IDX 39 67 40 68 41 69 42 70 43 71 66 72 67 73 75 74 68 75 74 76
REMARK SMILES IDX 69 77 70 78 71 79 72 80 73 81 52 82 53 83 61 84 54 85 60 86
REMARK SMILES IDX 55 87 56 88 57 89 58 90 59 91
REMARK H PARENT 19 7 24 28 80 47 50 58
REMARK Flexibility Score: inf
ROOT
ATOM      1  C   UNL A   1      32.647  28.153  26.086  1.00  0.00     0.023 C 
ENDROOT
BRANCH   1   2
ATOM      2  C   UNL A   1      33.005  28.692  24.697  1.00  0.00     0.023 C 
BRANCH   2   3
ATOM      3  C   UNL A   1      31.951  28.421  23.627  1.00  0.00     0.116 C 
BRANCH   3   4
ATOM      4  N   UNL A   1      32.485  27.644  22.522  1.00  0.00    -0.352 N 
ATOM      5  C   UNL A   1      33.014  26.413  22.345  1.00  0.00     0.251 C 
ATOM      6  O   UNL A   1      33.364  26.150  21.189  1.00  0.00    -0.270 OA
ATOM      7  H   UNL A   1      32.452  28.149  21.676  1.00  0.00     0.163 HD
BRANCH   5   8
ATOM      8  C   UNL A   1      33.190  25.384  23.414  1.00  0.00     0.067 C 
ATOM      9  C   UNL A   1      32.953  22.446  27.597  1.00  0.00     0.048 C 
ATOM     10  C   UNL A   1      33.910  22.564  26.445  1.00  0.00    -0.007 A 
ATOM     11  C   UNL A   1      35.000  21.696  26.338  1.00  0.00     0.028 A 
ATOM     12  C   UNL A   1      33.730  23.537  25.454  1.00  0.00     0.131 A 
ATOM     13  C   UNL A   1      35.893  21.798  25.266  1.00  0.00     0.045 A 
ATOM     14  C   UNL A   1      34.620  23.657  24.373  1.00  0.00     0.022 A 
ATOM     15  O   UNL A   1      32.673  24.390  25.624  1.00  0.00    -0.475 OA
ATOM     16  Cl  UNL A   1      37.208  20.671  25.254  1.00  0.00    -0.084 Cl
ATOM     17  C   UNL A   1      35.720  22.772  24.264  1.00  0.00    -0.021 A 
ATOM     18  C   UNL A   1      34.370  24.734  23.408  1.00  0.00     0.026 C 
ATOM     19  C   UNL A   1      32.147  25.015  24.423  1.00  0.00     0.314 C 
ATOM     20  C   UNL A   1      36.675  22.891  23.101  1.00  0.00     0.047 C 
BRANCH  19  21
ATOM     21  C   UNL A   1      31.025  24.138  23.837  1.00  0.00     0.429 C 
ATOM     22  F   UNL A   1      30.494  23.344  24.801  1.00  0.00    -0.167 F 
ATOM     23  F   UNL A   1      30.003  24.870  23.336  1.00  0.00    -0.167 F 
ATOM     24  F   UNL A   1      31.459  23.330  22.843  1.00  0.00    -0.167 F 
ENDBRANCH  19  21
ENDBRANCH   5   8
ENDBRANCH   3   4
ENDBRANCH   2   3
ENDBRANCH   1   2
BRANCH   1  25
ATOM     25  C   UNL A   1      33.633  28.493  27.202  1.00  0.00     0.116 C 
BRANCH  25  26
ATOM     26  N   UNL A   1      33.515  29.856  27.704  1.00  0.00    -0.352 N 
ATOM     27  C   UNL A   1      34.497  30.621  28.292  1.00  0.00     0.251 C 
ATOM     28  H   UNL A   1      32.631  30.278  27.611  1.00  0.00     0.163 HD
ATOM     29  O   UNL A   1      34.246  31.740  28.724  1.00  0.00    -0.269 OA
BRANCH  27  30
ATOM     30  C   UNL A   1      35.843  30.038  28.440  1.00  0.00     0.039 A 
ATOM     31  C   UNL A   1      36.706  30.060  27.343  1.00  0.00     0.014 A 
ATOM     32  C   UNL A   1      36.278  29.577  29.687  1.00  0.00     0.014 A 
ATOM     33  C   UNL A   1      38.042  29.701  27.520  1.00  0.00     0.010 A 
ATOM     34  C   UNL A   1      37.621  29.271  29.871  1.00  0.00     0.010 A 
ATOM     35  C   UNL A   1      38.519  29.351  28.795  1.00  0.00    -0.014 A 
BRANCH  35  36
ATOM     36  C   UNL A   1      39.964  29.113  29.023  1.00  0.00     0.031 A 
ATOM     37  C   UNL A   1      40.576  27.786  28.683  1.00  0.00     0.074 A 
ATOM     38  C   UNL A   1      40.710  30.083  29.587  1.00  0.00     0.049 A 
ATOM     39  N   UNL A   1      41.815  27.395  28.826  1.00  0.00    -0.248 NA
ATOM     40  C   UNL A   1      39.678  26.759  28.132  1.00  0.00     0.031 C 
ATOM     41  C   UNL A   1      40.217  31.398  30.004  1.00  0.00     0.029 A 
ATOM     42  N   UNL A   1      42.044  30.115  29.903  1.00  0.00    -0.354 N 
ATOM     43  C   UNL A   1      41.847  26.078  28.389  1.00  0.00     0.074 A 
ATOM     44  C   UNL A   1      40.495  25.721  28.019  1.00  0.00     0.031 C 
ATOM     45  C   UNL A   1      41.242  32.122  30.483  1.00  0.00     0.029 A 
ATOM     46  C   UNL A   1      42.458  31.315  30.433  1.00  0.00     0.049 A 
ATOM     47  H   UNL A   1      42.650  29.352  29.764  1.00  0.00     0.167 HD
ATOM     48  C   UNL A   1      42.911  25.247  28.283  1.00  0.00     0.031 A 
ATOM     49  C   UNL A   1      43.679  31.727  30.822  1.00  0.00     0.031 A 
ATOM     50  C   UNL A   1      44.255  25.607  28.639  1.00  0.00     0.049 A 
ATOM     51  C   UNL A   1      44.847  30.791  30.687  1.00  0.00     0.074 A 
ATOM     52  C   UNL A   1      45.407  24.847  28.530  1.00  0.00     0.029 A 
ATOM     53  N   UNL A   1      44.631  26.834  29.164  1.00  0.00    -0.354 N 
ATOM     54  N   UNL A   1      44.865  29.563  30.225  1.00  0.00    -0.248 NA
ATOM     55  C   UNL A   1      46.159  31.294  31.117  1.00  0.00     0.031 C 
ATOM     56  C   UNL A   1      46.476  25.607  29.015  1.00  0.00     0.029 A 
ATOM     57  C   UNL A   1      45.995  26.851  29.393  1.00  0.00     0.049 A 
ATOM     58  H   UNL A   1      44.017  27.583  29.347  1.00  0.00     0.167 HD
ATOM     59  C   UNL A   1      46.191  29.156  30.288  1.00  0.00     0.074 A 
ATOM     60  C   UNL A   1      46.947  30.267  30.829  1.00  0.00     0.031 C 
ATOM     61  C   UNL A   1      46.732  27.968  29.926  1.00  0.00     0.031 A 
BRANCH  48  62
ATOM     62  C   UNL A   1      42.654  23.867  27.748  1.00  0.00    -0.014 A 
ATOM     63  C   UNL A   1      42.448  22.787  28.624  1.00  0.00     0.010 A 
ATOM     64  C   UNL A   1      42.592  23.648  26.360  1.00  0.00     0.010 A 
ATOM     65  C   UNL A   1      42.226  21.503  28.123  1.00  0.00     0.020 A 
ATOM     66  C   UNL A   1      42.350  22.369  25.855  1.00  0.00     0.020 A 
ATOM     67  C   UNL A   1      42.186  21.300  26.741  1.00  0.00     0.054 A 
BRANCH  67  68
ATOM     68  S   UNL A   1      41.888  19.624  26.115  1.00  0.00     0.124 S 
ATOM     69  O   UNL A   1      42.240  18.805  27.272  1.00  0.00    -0.237 OA
ATOM     70  O   UNL A   1      40.467  19.654  25.776  1.00  0.00    -0.237 OA
ATOM     71  O   UNL A   1      42.796  19.515  24.975  1.00  0.00    -0.744 OA
ENDBRANCH  67  68
ENDBRANCH  48  62
BRANCH  49  72
ATOM     72  C   UNL A   1      43.863  33.112  31.327  1.00  0.00    -0.014 A 
ATOM     73  C   UNL A   1      44.266  34.132  30.448  1.00  0.00     0.010 A 
ATOM     74  C   UNL A   1      43.593  33.428  32.670  1.00  0.00     0.010 A 
ATOM     75  C   UNL A   1      44.399  35.447  30.903  1.00  0.00     0.020 A 
ATOM     76  C   UNL A   1      43.709  34.745  33.125  1.00  0.00     0.020 A 
ATOM     77  C   UNL A   1      44.116  35.745  32.239  1.00  0.00     0.054 A 
BRANCH  77  78
ATOM     78  S   UNL A   1      44.222  37.471  32.791  1.00  0.00     0.124 S 
ATOM     79  O   UNL A   1      43.755  38.196  31.614  1.00  0.00    -0.237 OA
ATOM     80  O   UNL A   1      43.323  37.490  33.944  1.00  0.00    -0.237 OA
ATOM     81  O   UNL A   1      45.636  37.640  33.114  1.00  0.00    -0.744 OA
ENDBRANCH  77  78
ENDBRANCH  49  72
BRANCH  61  82
ATOM     82  C   UNL A   1      48.216  27.801  30.077  1.00  0.00    -0.014 A 
ATOM     83  C   UNL A   1      48.756  27.194  31.223  1.00  0.00     0.010 A 
ATOM     84  C   UNL A   1      49.066  28.148  29.012  1.00  0.00     0.010 A 
ATOM     85  C   UNL A   1      50.127  26.935  31.301  1.00  0.00     0.020 A 
ATOM     86  C   UNL A   1      50.434  27.877  29.080  1.00  0.00     0.020 A 
ATOM     87  C   UNL A   1      50.956  27.273  30.227  1.00  0.00     0.054 A 
BRANCH  87  88
ATOM     88  S   UNL A   1      52.716  26.839  30.311  1.00  0.00     0.124 S 
ATOM     89  O   UNL A   1      52.926  26.174  29.028  1.00  0.00    -0.237 OA
ATOM     90  O   UNL A   1      53.362  28.141  30.457  1.00  0.00    -0.237 OA
ATOM     91  O   UNL A   1      52.802  25.973  31.485  1.00  0.00    -0.744 OA
ENDBRANCH  87  88
ENDBRANCH  61  82
ENDBRANCH  35  36
ENDBRANCH  27  30
ENDBRANCH  25  26
ENDBRANCH   1  25
TORSDOF 15
ENDMDL
