MODEL 1
REMARK VINA RESULT:      -8.6      0.000      0.000
REMARK SMILES CCNC(=O)c1cccc(-c2ccc(Cl)c(C(=O)NCCCCNC(=O)c3ccc(-c4c5nc(c(-c6ccc(S(=O)(=O)[O-])cc6)c6ccc([nH]6)c(-c6ccc(S(=O)(=O)[O-])cc6)c6nc(c(-c7ccc(S(=O)(=O)[O-])cc7)c7ccc4[nH]7)C=C6)C=C5)cc3)c2)c1
REMARK SMILES IDX 21 1 20 2 19 3 17 4 18 5 16 7 11 8 12 9 87 10 13 11 14 12
REMARK SMILES IDX 15 13 10 14 6 15 7 16 88 17 8 18 9 19 4 20 3 21 5 23 2 24
REMARK SMILES IDX 1 25 22 26 23 27 24 28 25 29 26 31 27 32 28 33 86 34 29 35
REMARK SMILES IDX 85 36 30 37 31 38 32 39 79 40 33 41 84 42 78 43 80 44 34 45
REMARK SMILES IDX 83 46 77 47 76 48 35 50 65 51 46 52 64 53 47 54 50 55 63 56
REMARK SMILES IDX 81 57 48 58 49 59 62 61 82 62 51 63 36 64 37 65 45 66 38 67
REMARK SMILES IDX 44 68 39 69 40 70 41 71 42 72 43 73 66 74 67 75 75 76 68 77
REMARK SMILES IDX 74 78 69 79 70 80 71 81 72 82 73 83 52 84 53 85 61 86 54 87
REMARK SMILES IDX 60 88 55 89 56 90 57 91 58 92 59 93
REMARK H PARENT 19 6 3 22 24 30 80 49 50 60
REMARK Flexibility Score: inf
ROOT
ATOM      1  C   UNL A   1      36.867  34.260  28.960  1.00  0.00     0.023 C 
ENDROOT
BRANCH   1   2
ATOM      2  C   UNL A   1      37.665  33.699  30.127  1.00  0.00     0.116 C 
BRANCH   2   3
ATOM      3  N   UNL A   1      37.544  34.417  31.393  1.00  0.00    -0.352 N 
ATOM      4  C   UNL A   1      37.687  34.003  32.708  1.00  0.00     0.252 C 
ATOM      5  O   UNL A   1      37.682  34.860  33.587  1.00  0.00    -0.269 OA
ATOM      6  H   UNL A   1      37.318  35.371  31.294  1.00  0.00     0.163 HD
BRANCH   4   7
ATOM      7  C   UNL A   1      37.831  32.561  33.068  1.00  0.00     0.059 A 
ATOM      8  C   UNL A   1      39.413  30.764  33.589  1.00  0.00    -0.017 A 
ATOM      9  C   UNL A   1      38.396  29.830  33.371  1.00  0.00     0.010 A 
ATOM     10  C   UNL A   1      39.052  32.119  33.585  1.00  0.00     0.024 A 
ATOM     11  C   UNL A   1      37.101  30.254  33.050  1.00  0.00     0.022 A 
ATOM     12  C   UNL A   1      36.826  31.613  32.848  1.00  0.00     0.053 A 
ATOM     13  Cl  UNL A   1      35.241  31.998  32.281  1.00  0.00    -0.083 Cl
BRANCH   8  14
ATOM     14  C   UNL A   1      40.844  30.392  33.655  1.00  0.00    -0.018 A 
ATOM     15  C   UNL A   1      42.620  28.722  33.409  1.00  0.00     0.040 A 
ATOM     16  C   UNL A   1      43.522  29.565  34.059  1.00  0.00     0.014 A 
ATOM     17  C   UNL A   1      41.288  29.123  33.250  1.00  0.00     0.022 A 
ATOM     18  C   UNL A   1      43.107  30.823  34.487  1.00  0.00     0.001 A 
ATOM     19  C   UNL A   1      41.786  31.233  34.275  1.00  0.00     0.009 A 
BRANCH  15  20
ATOM     20  C   UNL A   1      43.068  27.373  32.999  1.00  0.00     0.251 C 
ATOM     21  N   UNL A   1      43.238  26.372  33.923  1.00  0.00    -0.352 N 
ATOM     22  H   UNL A   1      43.707  25.576  33.584  1.00  0.00     0.163 HD
ATOM     23  O   UNL A   1      43.291  27.150  31.812  1.00  0.00    -0.269 OA
BRANCH  21  24
ATOM     24  C   UNL A   1      42.840  26.295  35.318  1.00  0.00     0.112 C 
ATOM     25  C   UNL A   1      41.519  25.568  35.471  1.00  0.00     0.027 C 
ENDBRANCH  21  24
ENDBRANCH  15  20
ENDBRANCH   8  14
ENDBRANCH   4   7
ENDBRANCH   2   3
ENDBRANCH   1   2
BRANCH   1  26
ATOM     26  C   UNL A   1      35.915  33.308  28.253  1.00  0.00     0.023 C 
BRANCH  26  27
ATOM     27  C   UNL A   1      34.868  32.621  29.123  1.00  0.00     0.116 C 
BRANCH  27  28
ATOM     28  N   UNL A   1      34.118  31.575  28.445  1.00  0.00    -0.352 N 
ATOM     29  C   UNL A   1      34.530  30.334  28.010  1.00  0.00     0.251 C 
ATOM     30  H   UNL A   1      33.172  31.786  28.272  1.00  0.00     0.163 HD
ATOM     31  O   UNL A   1      33.750  29.614  27.401  1.00  0.00    -0.269 OA
BRANCH  29  32
ATOM     32  C   UNL A   1      35.925  29.888  28.235  1.00  0.00     0.039 A 
ATOM     33  C   UNL A   1      36.835  29.977  27.177  1.00  0.00     0.014 A 
ATOM     34  C   UNL A   1      36.345  29.405  29.476  1.00  0.00     0.014 A 
ATOM     35  C   UNL A   1      38.181  29.667  27.391  1.00  0.00     0.010 A 
ATOM     36  C   UNL A   1      37.700  29.181  29.710  1.00  0.00     0.010 A 
ATOM     37  C   UNL A   1      38.634  29.311  28.672  1.00  0.00    -0.014 A 
BRANCH  37  38
ATOM     38  C   UNL A   1      40.079  29.081  28.940  1.00  0.00     0.031 A 
ATOM     39  C   UNL A   1      40.708  27.749  28.630  1.00  0.00     0.074 A 
ATOM     40  C   UNL A   1      40.813  30.056  29.515  1.00  0.00     0.049 A 
ATOM     41  N   UNL A   1      41.943  27.358  28.819  1.00  0.00    -0.248 NA
ATOM     42  C   UNL A   1      39.833  26.714  28.056  1.00  0.00     0.031 C 
ATOM     43  C   UNL A   1      40.311  31.374  29.915  1.00  0.00     0.029 A 
ATOM     44  N   UNL A   1      42.140  30.091  29.864  1.00  0.00    -0.354 N 
ATOM     45  C   UNL A   1      41.988  26.032  28.402  1.00  0.00     0.074 A 
ATOM     46  C   UNL A   1      40.645  25.669  28.003  1.00  0.00     0.031 C 
ATOM     47  C   UNL A   1      41.324  32.098  30.418  1.00  0.00     0.029 A 
ATOM     48  C   UNL A   1      42.538  31.288  30.412  1.00  0.00     0.049 A 
ATOM     49  H   UNL A   1      42.751  29.329  29.734  1.00  0.00     0.167 HD
ATOM     50  C   UNL A   1      43.053  25.198  28.330  1.00  0.00     0.031 A 
ATOM     51  C   UNL A   1      43.744  31.692  30.858  1.00  0.00     0.031 A 
ATOM     52  C   UNL A   1      44.391  25.564  28.714  1.00  0.00     0.049 A 
ATOM     53  C   UNL A   1      44.912  30.749  30.765  1.00  0.00     0.074 A 
ATOM     54  C   UNL A   1      45.546  24.808  28.631  1.00  0.00     0.029 A 
ATOM     55  N   UNL A   1      44.752  26.790  29.252  1.00  0.00    -0.354 N 
ATOM     56  N   UNL A   1      44.947  29.521  30.304  1.00  0.00    -0.248 NA
ATOM     57  C   UNL A   1      46.209  31.252  31.238  1.00  0.00     0.031 C 
ATOM     58  C   UNL A   1      46.601  25.560  29.160  1.00  0.00     0.029 A 
ATOM     59  C   UNL A   1      46.111  26.805  29.521  1.00  0.00     0.049 A 
ATOM     60  H   UNL A   1      44.135  27.538  29.418  1.00  0.00     0.167 HD
ATOM     61  C   UNL A   1      46.273  29.117  30.406  1.00  0.00     0.074 A 
ATOM     62  C   UNL A   1      47.011  30.235  30.957  1.00  0.00     0.031 C 
ATOM     63  C   UNL A   1      46.830  27.926  30.071  1.00  0.00     0.031 A 
BRANCH  50  64
ATOM     64  C   UNL A   1      42.810  23.804  27.812  1.00  0.00    -0.014 A 
ATOM     65  C   UNL A   1      43.172  23.447  26.500  1.00  0.00     0.010 A 
ATOM     66  C   UNL A   1      42.244  22.830  28.654  1.00  0.00     0.010 A 
ATOM     67  C   UNL A   1      42.932  22.154  26.026  1.00  0.00     0.020 A 
ATOM     68  C   UNL A   1      42.029  21.528  28.193  1.00  0.00     0.020 A 
ATOM     69  C   UNL A   1      42.357  21.204  26.875  1.00  0.00     0.054 A 
BRANCH  69  70
ATOM     70  S   UNL A   1      42.076  19.529  26.238  1.00  0.00     0.124 S 
ATOM     71  O   UNL A   1      42.631  18.704  27.308  1.00  0.00    -0.237 OA
ATOM     72  O   UNL A   1      40.624  19.479  26.096  1.00  0.00    -0.237 OA
ATOM     73  O   UNL A   1      42.823  19.505  24.983  1.00  0.00    -0.744 OA
ENDBRANCH  69  70
ENDBRANCH  50  64
BRANCH  51  74
ATOM     74  C   UNL A   1      43.916  33.066  31.403  1.00  0.00    -0.014 A 
ATOM     75  C   UNL A   1      44.071  34.163  30.537  1.00  0.00     0.010 A 
ATOM     76  C   UNL A   1      43.921  33.288  32.793  1.00  0.00     0.010 A 
ATOM     77  C   UNL A   1      44.251  35.452  31.049  1.00  0.00     0.020 A 
ATOM     78  C   UNL A   1      44.073  34.579  33.308  1.00  0.00     0.020 A 
ATOM     79  C   UNL A   1      44.251  35.651  32.432  1.00  0.00     0.054 A 
BRANCH  79  80
ATOM     80  S   UNL A   1      44.442  37.338  33.073  1.00  0.00     0.124 S 
ATOM     81  O   UNL A   1      45.874  37.401  33.342  1.00  0.00    -0.237 OA
ATOM     82  O   UNL A   1      43.970  38.156  31.959  1.00  0.00    -0.237 OA
ATOM     83  O   UNL A   1      43.580  37.353  34.254  1.00  0.00    -0.744 OA
ENDBRANCH  79  80
ENDBRANCH  51  74
BRANCH  63  84
ATOM     84  C   UNL A   1      48.317  27.783  30.259  1.00  0.00    -0.014 A 
ATOM     85  C   UNL A   1      49.220  28.143  29.244  1.00  0.00     0.010 A 
ATOM     86  C   UNL A   1      48.818  27.319  31.489  1.00  0.00     0.010 A 
ATOM     87  C   UNL A   1      50.596  28.005  29.441  1.00  0.00     0.020 A 
ATOM     88  C   UNL A   1      50.194  27.207  31.701  1.00  0.00     0.020 A 
ATOM     89  C   UNL A   1      51.075  27.534  30.668  1.00  0.00     0.054 A 
BRANCH  89  90
ATOM     90  S   UNL A   1      52.866  27.394  30.912  1.00  0.00     0.124 S 
ATOM     91  O   UNL A   1      52.998  27.648  32.344  1.00  0.00    -0.237 OA
ATOM     92  O   UNL A   1      53.142  26.023  30.490  1.00  0.00    -0.237 OA
ATOM     93  O   UNL A   1      53.416  28.431  30.043  1.00  0.00    -0.744 OA
ENDBRANCH  89  90
ENDBRANCH  63  84
ENDBRANCH  37  38
ENDBRANCH  29  32
ENDBRANCH  27  28
ENDBRANCH  26  27
ENDBRANCH   1  26
TORSDOF 17
ENDMDL
MODEL 2
REMARK VINA RESULT:      -8.3      1.395      8.234
REMARK SMILES CCNC(=O)c1cccc(-c2ccc(Cl)c(C(=O)NCCCCNC(=O)c3ccc(-c4c5nc(c(-c6ccc(S(=O)(=O)[O-])cc6)c6ccc([nH]6)c(-c6ccc(S(=O)(=O)[O-])cc6)c6nc(c(-c7ccc(S(=O)(=O)[O-])cc7)c7ccc4[nH]7)C=C6)C=C5)cc3)c2)c1
REMARK SMILES IDX 21 1 20 2 19 3 17 4 18 5 16 7 11 8 12 9 87 10 13 11 14 12
REMARK SMILES IDX 15 13 10 14 6 15 7 16 88 17 8 18 9 19 4 20 3 21 5 23 2 24
REMARK SMILES IDX 1 25 22 26 23 27 24 28 25 29 26 31 27 32 28 33 86 34 29 35
REMARK SMILES IDX 85 36 30 37 31 38 32 39 79 40 33 41 84 42 78 43 80 44 34 45
REMARK SMILES IDX 83 46 77 47 76 48 35 50 65 51 46 52 64 53 47 54 50 55 63 56
REMARK SMILES IDX 81 57 48 58 49 59 62 61 82 62 51 63 36 64 37 65 45 66 38 67
REMARK SMILES IDX 44 68 39 69 40 70 41 71 42 72 43 73 66 74 67 75 75 76 68 77
REMARK SMILES IDX 74 78 69 79 70 80 71 81 72 82 73 83 52 84 53 85 61 86 54 87
REMARK SMILES IDX 60 88 55 89 56 90 57 91 58 92 59 93
REMARK H PARENT 19 6 3 22 24 30 80 49 50 60
REMARK Flexibility Score: inf
ROOT
ATOM      1  C   UNL A   1      36.528  33.995  30.761  1.00  0.00     0.023 C 
ENDROOT
BRANCH   1   2
ATOM      2  C   UNL A   1      37.748  33.292  31.336  1.00  0.00     0.116 C 
BRANCH   2   3
ATOM      3  N   UNL A   1      38.788  34.158  31.885  1.00  0.00    -0.352 N 
ATOM      4  C   UNL A   1      39.562  34.062  33.031  1.00  0.00     0.252 C 
ATOM      5  O   UNL A   1      40.483  34.861  33.175  1.00  0.00    -0.269 OA
ATOM      6  H   UNL A   1      38.973  34.959  31.341  1.00  0.00     0.163 HD
BRANCH   4   7
ATOM      7  C   UNL A   1      39.293  33.032  34.078  1.00  0.00     0.059 A 
ATOM      8  C   UNL A   1      39.910  30.820  34.933  1.00  0.00    -0.017 A 
ATOM      9  C   UNL A   1      38.729  30.800  35.679  1.00  0.00     0.010 A 
ATOM     10  C   UNL A   1      40.232  32.016  34.274  1.00  0.00     0.024 A 
ATOM     11  C   UNL A   1      37.861  31.897  35.664  1.00  0.00     0.022 A 
ATOM     12  C   UNL A   1      38.112  32.992  34.827  1.00  0.00     0.053 A 
ATOM     13  Cl  UNL A   1      36.883  34.203  34.758  1.00  0.00    -0.083 Cl
BRANCH   8  14
ATOM     14  C   UNL A   1      40.724  29.609  34.682  1.00  0.00    -0.018 A 
ATOM     15  C   UNL A   1      42.304  27.910  35.467  1.00  0.00     0.040 A 
ATOM     16  C   UNL A   1      42.517  27.481  34.157  1.00  0.00     0.014 A 
ATOM     17  C   UNL A   1      41.447  28.990  35.714  1.00  0.00     0.022 A 
ATOM     18  C   UNL A   1      41.827  28.088  33.111  1.00  0.00     0.001 A 
ATOM     19  C   UNL A   1      40.932  29.131  33.375  1.00  0.00     0.009 A 
BRANCH  15  20
ATOM     20  C   UNL A   1      43.079  27.282  36.561  1.00  0.00     0.251 C 
ATOM     21  N   UNL A   1      42.505  26.353  37.393  1.00  0.00    -0.352 N 
ATOM     22  H   UNL A   1      43.037  26.132  38.190  1.00  0.00     0.163 HD
ATOM     23  O   UNL A   1      44.254  27.601  36.723  1.00  0.00    -0.269 OA
BRANCH  21  24
ATOM     24  C   UNL A   1      41.242  25.644  37.289  1.00  0.00     0.112 C 
ATOM     25  C   UNL A   1      41.232  24.713  36.094  1.00  0.00     0.027 C 
ENDBRANCH  21  24
ENDBRANCH  15  20
ENDBRANCH   8  14
ENDBRANCH   4   7
ENDBRANCH   2   3
ENDBRANCH   1   2
BRANCH   1  26
ATOM     26  C   UNL A   1      35.820  33.310  29.601  1.00  0.00     0.023 C 
BRANCH  26  27
ATOM     27  C   UNL A   1      34.786  32.251  29.966  1.00  0.00     0.116 C 
BRANCH  27  28
ATOM     28  N   UNL A   1      34.170  31.595  28.822  1.00  0.00    -0.352 N 
ATOM     29  C   UNL A   1      34.662  30.599  28.006  1.00  0.00     0.251 C 
ATOM     30  H   UNL A   1      33.265  31.911  28.597  1.00  0.00     0.163 HD
ATOM     31  O   UNL A   1      34.002  30.218  27.047  1.00  0.00    -0.269 OA
BRANCH  29  32
ATOM     32  C   UNL A   1      36.002  30.020  28.256  1.00  0.00     0.039 A 
ATOM     33  C   UNL A   1      36.976  30.132  27.260  1.00  0.00     0.014 A 
ATOM     34  C   UNL A   1      36.311  29.391  29.464  1.00  0.00     0.014 A 
ATOM     35  C   UNL A   1      38.279  29.693  27.510  1.00  0.00     0.010 A 
ATOM     36  C   UNL A   1      37.628  29.034  29.743  1.00  0.00     0.010 A 
ATOM     37  C   UNL A   1      38.629  29.182  28.771  1.00  0.00    -0.014 A 
BRANCH  37  38
ATOM     38  C   UNL A   1      40.033  28.810  29.089  1.00  0.00     0.031 A 
ATOM     39  C   UNL A   1      40.948  29.798  29.762  1.00  0.00     0.074 A 
ATOM     40  C   UNL A   1      40.500  27.600  28.721  1.00  0.00     0.049 A 
ATOM     41  N   UNL A   1      42.207  29.661  30.092  1.00  0.00    -0.248 NA
ATOM     42  C   UNL A   1      40.385  31.119  30.083  1.00  0.00     0.031 C 
ATOM     43  C   UNL A   1      39.732  26.570  28.014  1.00  0.00     0.029 A 
ATOM     44  N   UNL A   1      41.737  27.027  28.890  1.00  0.00    -0.354 N 
ATOM     45  C   UNL A   1      42.588  30.878  30.646  1.00  0.00     0.074 A 
ATOM     46  C   UNL A   1      41.444  31.760  30.554  1.00  0.00     0.031 C 
ATOM     47  C   UNL A   1      40.502  25.483  27.847  1.00  0.00     0.029 A 
ATOM     48  C   UNL A   1      41.828  25.747  28.397  1.00  0.00     0.049 A 
ATOM     49  H   UNL A   1      42.490  27.491  29.325  1.00  0.00     0.167 HD
ATOM     50  C   UNL A   1      43.773  31.226  31.204  1.00  0.00     0.031 A 
ATOM     51  C   UNL A   1      42.859  24.879  28.390  1.00  0.00     0.031 A 
ATOM     52  C   UNL A   1      44.905  30.344  31.307  1.00  0.00     0.049 A 
ATOM     53  C   UNL A   1      44.163  25.287  29.019  1.00  0.00     0.074 A 
ATOM     54  C   UNL A   1      46.131  30.585  31.901  1.00  0.00     0.029 A 
ATOM     55  N   UNL A   1      44.950  29.052  30.807  1.00  0.00    -0.354 N 
ATOM     56  N   UNL A   1      44.481  26.421  29.597  1.00  0.00    -0.248 NA
ATOM     57  C   UNL A   1      45.243  24.291  29.009  1.00  0.00     0.031 C 
ATOM     58  C   UNL A   1      46.935  29.454  31.721  1.00  0.00     0.029 A 
ATOM     59  C   UNL A   1      46.189  28.489  31.063  1.00  0.00     0.049 A 
ATOM     60  H   UNL A   1      44.211  28.602  30.338  1.00  0.00     0.167 HD
ATOM     61  C   UNL A   1      45.788  26.264  30.044  1.00  0.00     0.074 A 
ATOM     62  C   UNL A   1      46.195  24.921  29.684  1.00  0.00     0.031 C 
ATOM     63  C   UNL A   1      46.579  27.151  30.696  1.00  0.00     0.031 A 
BRANCH  50  64
ATOM     64  C   UNL A   1      43.898  32.624  31.751  1.00  0.00    -0.014 A 
ATOM     65  C   UNL A   1      44.261  33.698  30.917  1.00  0.00     0.010 A 
ATOM     66  C   UNL A   1      43.620  32.876  33.107  1.00  0.00     0.010 A 
ATOM     67  C   UNL A   1      44.384  34.989  31.437  1.00  0.00     0.020 A 
ATOM     68  C   UNL A   1      43.715  34.171  33.625  1.00  0.00     0.020 A 
ATOM     69  C   UNL A   1      44.115  35.216  32.790  1.00  0.00     0.054 A 
BRANCH  69  70
ATOM     70  S   UNL A   1      44.266  36.906  33.433  1.00  0.00     0.124 S 
ATOM     71  O   UNL A   1      45.529  36.839  34.161  1.00  0.00    -0.237 OA
ATOM     72  O   UNL A   1      44.285  37.712  32.215  1.00  0.00    -0.237 OA
ATOM     73  O   UNL A   1      43.075  37.068  34.264  1.00  0.00    -0.744 OA
ENDBRANCH  69  70
ENDBRANCH  50  64
BRANCH  51  74
ATOM     74  C   UNL A   1      42.691  23.526  27.794  1.00  0.00    -0.014 A 
ATOM     75  C   UNL A   1      43.138  23.262  26.487  1.00  0.00     0.010 A 
ATOM     76  C   UNL A   1      42.087  22.490  28.531  1.00  0.00     0.010 A 
ATOM     77  C   UNL A   1      42.965  21.996  25.920  1.00  0.00     0.020 A 
ATOM     78  C   UNL A   1      41.937  21.215  27.976  1.00  0.00     0.020 A 
ATOM     79  C   UNL A   1      42.365  20.981  26.669  1.00  0.00     0.054 A 
BRANCH  79  80
ATOM     80  S   UNL A   1      42.189  19.333  25.927  1.00  0.00     0.124 S 
ATOM     81  O   UNL A   1      40.746  19.238  25.734  1.00  0.00    -0.237 OA
ATOM     82  O   UNL A   1      42.986  19.448  24.709  1.00  0.00    -0.237 OA
ATOM     83  O   UNL A   1      42.746  18.442  26.943  1.00  0.00    -0.744 OA
ENDBRANCH  79  80
ENDBRANCH  51  74
BRANCH  63  84
ATOM     84  C   UNL A   1      47.955  26.687  31.094  1.00  0.00    -0.014 A 
ATOM     85  C   UNL A   1      49.071  26.918  30.272  1.00  0.00     0.010 A 
ATOM     86  C   UNL A   1      48.138  26.043  32.332  1.00  0.00     0.010 A 
ATOM     87  C   UNL A   1      50.339  26.482  30.662  1.00  0.00     0.020 A 
ATOM     88  C   UNL A   1      49.408  25.631  32.739  1.00  0.00     0.020 A 
ATOM     89  C   UNL A   1      50.500  25.837  31.894  1.00  0.00     0.054 A 
BRANCH  89  90
ATOM     90  S   UNL A   1      52.160  25.308  32.394  1.00  0.00     0.124 S 
ATOM     91  O   UNL A   1      52.966  25.710  31.244  1.00  0.00    -0.237 OA
ATOM     92  O   UNL A   1      52.387  26.072  33.618  1.00  0.00    -0.237 OA
ATOM     93  O   UNL A   1      52.022  23.866  32.582  1.00  0.00    -0.744 OA
ENDBRANCH  89  90
ENDBRANCH  63  84
ENDBRANCH  37  38
ENDBRANCH  29  32
ENDBRANCH  27  28
ENDBRANCH  26  27
ENDBRANCH   1  26
TORSDOF 17
ENDMDL
MODEL 3
REMARK VINA RESULT:      -8.2      4.754     11.173
REMARK SMILES CCNC(=O)c1cccc(-c2ccc(Cl)c(C(=O)NCCCCNC(=O)c3ccc(-c4c5nc(c(-c6ccc(S(=O)(=O)[O-])cc6)c6ccc([nH]6)c(-c6ccc(S(=O)(=O)[O-])cc6)c6nc(c(-c7ccc(S(=O)(=O)[O-])cc7)c7ccc4[nH]7)C=C6)C=C5)cc3)c2)c1
REMARK SMILES IDX 21 1 20 2 19 3 17 4 18 5 16 7 11 8 12 9 87 10 13 11 14 12
REMARK SMILES IDX 15 13 10 14 6 15 7 16 88 17 8 18 9 19 4 20 3 21 5 23 2 24
REMARK SMILES IDX 1 25 22 26 23 27 24 28 25 29 26 31 27 32 28 33 86 34 29 35
REMARK SMILES IDX 85 36 30 37 31 38 32 39 79 40 33 41 84 42 78 43 80 44 34 45
REMARK SMILES IDX 83 46 77 47 76 48 35 50 65 51 46 52 64 53 47 54 50 55 63 56
REMARK SMILES IDX 81 57 48 58 49 59 62 61 82 62 51 63 36 64 37 65 45 66 38 67
REMARK SMILES IDX 44 68 39 69 40 70 41 71 42 72 43 73 66 74 67 75 75 76 68 77
REMARK SMILES IDX 74 78 69 79 70 80 71 81 72 82 73 83 52 84 53 85 61 86 54 87
REMARK SMILES IDX 60 88 55 89 56 90 57 91 58 92 59 93
REMARK H PARENT 19 6 3 22 24 30 80 49 50 60
REMARK Flexibility Score: inf
ROOT
ATOM      1  C   UNL A   1      38.942  22.287  26.367  1.00  0.00     0.023 C 
ENDROOT
BRANCH   1   2
ATOM      2  C   UNL A   1      37.765  23.041  25.766  1.00  0.00     0.116 C 
BRANCH   2   3
ATOM      3  N   UNL A   1      37.600  22.924  24.320  1.00  0.00    -0.352 N 
ATOM      4  C   UNL A   1      36.469  22.907  23.517  1.00  0.00     0.252 C 
ATOM      5  O   UNL A   1      36.625  22.954  22.300  1.00  0.00    -0.269 OA
ATOM      6  H   UNL A   1      38.447  22.842  23.824  1.00  0.00     0.163 HD
BRANCH   4   7
ATOM      7  C   UNL A   1      35.096  22.820  24.095  1.00  0.00     0.059 A 
ATOM      8  C   UNL A   1      33.117  24.092  24.785  1.00  0.00    -0.017 A 
ATOM      9  C   UNL A   1      32.671  22.975  25.497  1.00  0.00     0.010 A 
ATOM     10  C   UNL A   1      34.246  23.923  23.970  1.00  0.00     0.024 A 
ATOM     11  C   UNL A   1      33.401  21.781  25.474  1.00  0.00     0.022 A 
ATOM     12  C   UNL A   1      34.637  21.714  24.818  1.00  0.00     0.053 A 
ATOM     13  Cl  UNL A   1      35.528  20.247  25.008  1.00  0.00    -0.083 Cl
BRANCH   8  14
ATOM     14  C   UNL A   1      32.558  25.448  24.984  1.00  0.00    -0.018 A 
ATOM     15  C   UNL A   1      32.309  27.772  24.255  1.00  0.00     0.040 A 
ATOM     16  C   UNL A   1      31.759  28.117  25.490  1.00  0.00     0.014 A 
ATOM     17  C   UNL A   1      32.739  26.459  24.028  1.00  0.00     0.022 A 
ATOM     18  C   UNL A   1      31.585  27.138  26.465  1.00  0.00     0.001 A 
ATOM     19  C   UNL A   1      31.969  25.817  26.207  1.00  0.00     0.009 A 
BRANCH  15  20
ATOM     20  C   UNL A   1      32.526  28.834  23.247  1.00  0.00     0.251 C 
ATOM     21  N   UNL A   1      31.505  29.259  22.433  1.00  0.00    -0.352 N 
ATOM     22  H   UNL A   1      31.789  29.829  21.683  1.00  0.00     0.163 HD
ATOM     23  O   UNL A   1      33.640  29.340  23.140  1.00  0.00    -0.269 OA
BRANCH  21  24
ATOM     24  C   UNL A   1      30.077  29.004  22.498  1.00  0.00     0.112 C 
ATOM     25  C   UNL A   1      29.290  30.299  22.529  1.00  0.00     0.027 C 
ENDBRANCH  21  24
ENDBRANCH  15  20
ENDBRANCH   8  14
ENDBRANCH   4   7
ENDBRANCH   2   3
ENDBRANCH   1   2
BRANCH   1  26
ATOM     26  C   UNL A   1      39.239  20.906  25.802  1.00  0.00     0.023 C 
BRANCH  26  27
ATOM     27  C   UNL A   1      40.008  19.952  26.709  1.00  0.00     0.116 C 
BRANCH  27  28
ATOM     28  N   UNL A   1      41.156  19.319  26.077  1.00  0.00    -0.352 N 
ATOM     29  C   UNL A   1      42.389  19.846  25.759  1.00  0.00     0.251 C 
ATOM     30  H   UNL A   1      41.033  18.371  25.841  1.00  0.00     0.163 HD
ATOM     31  O   UNL A   1      43.211  19.156  25.168  1.00  0.00    -0.269 OA
BRANCH  29  32
ATOM     32  C   UNL A   1      42.709  21.255  26.086  1.00  0.00     0.039 A 
ATOM     33  C   UNL A   1      43.049  21.575  27.403  1.00  0.00     0.014 A 
ATOM     34  C   UNL A   1      42.697  22.252  25.108  1.00  0.00     0.014 A 
ATOM     35  C   UNL A   1      43.460  22.874  27.718  1.00  0.00     0.010 A 
ATOM     36  C   UNL A   1      43.190  23.520  25.405  1.00  0.00     0.010 A 
ATOM     37  C   UNL A   1      43.580  23.846  26.712  1.00  0.00    -0.014 A 
BRANCH  37  38
ATOM     38  C   UNL A   1      44.117  25.200  27.011  1.00  0.00     0.031 A 
ATOM     39  C   UNL A   1      43.235  26.250  27.632  1.00  0.00     0.074 A 
ATOM     40  C   UNL A   1      45.388  25.502  26.672  1.00  0.00     0.049 A 
ATOM     41  N   UNL A   1      43.520  27.489  27.939  1.00  0.00    -0.248 NA
ATOM     42  C   UNL A   1      41.843  25.865  27.923  1.00  0.00     0.031 C 
ATOM     43  C   UNL A   1      46.331  24.593  26.016  1.00  0.00     0.029 A 
ATOM     44  N   UNL A   1      46.106  26.661  26.833  1.00  0.00    -0.354 N 
ATOM     45  C   UNL A   1      42.345  28.035  28.445  1.00  0.00     0.074 A 
ATOM     46  C   UNL A   1      41.329  27.009  28.350  1.00  0.00     0.031 C 
ATOM     47  C   UNL A   1      47.512  25.215  25.866  1.00  0.00     0.029 A 
ATOM     48  C   UNL A   1      47.402  26.577  26.378  1.00  0.00     0.049 A 
ATOM     49  H   UNL A   1      45.729  27.477  27.236  1.00  0.00     0.167 HD
ATOM     50  C   UNL A   1      42.134  29.267  28.966  1.00  0.00     0.031 A 
ATOM     51  C   UNL A   1      48.393  27.490  26.377  1.00  0.00     0.031 A 
ATOM     52  C   UNL A   1      43.148  30.282  29.072  1.00  0.00     0.049 A 
ATOM     53  C   UNL A   1      48.135  28.851  26.964  1.00  0.00     0.074 A 
ATOM     54  C   UNL A   1      43.047  31.544  29.632  1.00  0.00     0.029 A 
ATOM     55  N   UNL A   1      44.450  30.151  28.613  1.00  0.00    -0.354 N 
ATOM     56  N   UNL A   1      47.034  29.324  27.499  1.00  0.00    -0.248 NA
ATOM     57  C   UNL A   1      49.259  29.797  26.962  1.00  0.00     0.031 C 
ATOM     58  C   UNL A   1      44.276  32.193  29.470  1.00  0.00     0.029 A 
ATOM     59  C   UNL A   1      45.158  31.316  28.860  1.00  0.00     0.049 A 
ATOM     60  H   UNL A   1      44.817  29.349  28.175  1.00  0.00     0.167 HD
ATOM     61  C   UNL A   1      47.343  30.612  27.922  1.00  0.00     0.074 A 
ATOM     62  C   UNL A   1      48.736  30.837  27.596  1.00  0.00     0.031 C 
ATOM     63  C   UNL A   1      46.544  31.525  28.528  1.00  0.00     0.031 A 
BRANCH  50  64
ATOM     64  C   UNL A   1      40.747  29.582  29.465  1.00  0.00    -0.014 A 
ATOM     65  C   UNL A   1      40.426  29.466  30.830  1.00  0.00     0.010 A 
ATOM     66  C   UNL A   1      39.762  30.030  28.566  1.00  0.00     0.010 A 
ATOM     67  C   UNL A   1      39.133  29.751  31.279  1.00  0.00     0.020 A 
ATOM     68  C   UNL A   1      38.476  30.343  29.017  1.00  0.00     0.020 A 
ATOM     69  C   UNL A   1      38.165  30.183  30.369  1.00  0.00     0.054 A 
BRANCH  69  70
ATOM     70  S   UNL A   1      36.502  30.563  30.985  1.00  0.00     0.124 S 
ATOM     71  O   UNL A   1      36.598  31.998  31.242  1.00  0.00    -0.237 OA
ATOM     72  O   UNL A   1      35.649  30.183  29.863  1.00  0.00    -0.237 OA
ATOM     73  O   UNL A   1      36.373  29.725  32.174  1.00  0.00    -0.744 OA
ENDBRANCH  69  70
ENDBRANCH  50  64
BRANCH  51  74
ATOM     74  C   UNL A   1      49.731  27.139  25.828  1.00  0.00    -0.014 A 
ATOM     75  C   UNL A   1      50.039  27.396  24.480  1.00  0.00     0.010 A 
ATOM     76  C   UNL A   1      50.708  26.547  26.651  1.00  0.00     0.010 A 
ATOM     77  C   UNL A   1      51.289  27.049  23.959  1.00  0.00     0.020 A 
ATOM     78  C   UNL A   1      51.969  26.224  26.140  1.00  0.00     0.020 A 
ATOM     79  C   UNL A   1      52.246  26.465  24.793  1.00  0.00     0.054 A 
BRANCH  79  80
ATOM     80  S   UNL A   1      53.878  26.063  24.106  1.00  0.00     0.124 S 
ATOM     81  O   UNL A   1      54.693  27.173  24.588  1.00  0.00    -0.237 OA
ATOM     82  O   UNL A   1      54.162  24.762  24.705  1.00  0.00    -0.237 OA
ATOM     83  O   UNL A   1      53.642  26.037  22.664  1.00  0.00    -0.744 OA
ENDBRANCH  79  80
ENDBRANCH  51  74
BRANCH  63  84
ATOM     84  C   UNL A   1      47.167  32.841  28.910  1.00  0.00    -0.014 A 
ATOM     85  C   UNL A   1      47.130  33.947  28.043  1.00  0.00     0.010 A 
ATOM     86  C   UNL A   1      47.764  32.983  30.177  1.00  0.00     0.010 A 
ATOM     87  C   UNL A   1      47.711  35.160  28.420  1.00  0.00     0.020 A 
ATOM     88  C   UNL A   1      48.321  34.202  30.569  1.00  0.00     0.020 A 
ATOM     89  C   UNL A   1      48.307  35.279  29.680  1.00  0.00     0.054 A 
BRANCH  89  90
ATOM     90  S   UNL A   1      49.027  36.873  30.160  1.00  0.00     0.124 S 
ATOM     91  O   UNL A   1      50.368  36.784  29.588  1.00  0.00    -0.237 OA
ATOM     92  O   UNL A   1      48.134  37.835  29.520  1.00  0.00    -0.237 OA
ATOM     93  O   UNL A   1      48.970  36.853  31.619  1.00  0.00    -0.744 OA
ENDBRANCH  89  90
ENDBRANCH  63  84
ENDBRANCH  37  38
ENDBRANCH  29  32
ENDBRANCH  27  28
ENDBRANCH  26  27
ENDBRANCH   1  26
TORSDOF 17
ENDMDL
