MODEL 1
REMARK VINA RESULT:     -11.5      0.000      0.000
REMARK SMILES O=C(Cc1ccccc1Nc1c(F)cccc1C(F)(F)F)NCCCCNC(=O)c1ccc(-c2c3nc(c(-c4ccc(S(=O)(=O)[O-])cc4)c4ccc([nH]4)c(-c4ccc(S(=O)(=O)[O-])cc4)c4nc(c(-c5ccc(S(=O)(=O)[O-])cc5)c5ccc2[nH]5)C=C4)C=C3)cc1
REMARK SMILES IDX 24 1 23 2 22 3 1 4 2 5 3 7 4 8 5 9 9 10 6 11 8 12 7 13 10 14
REMARK SMILES IDX 11 16 12 17 17 18 13 19 14 20 16 21 15 22 18 23 19 24 20 25
REMARK SMILES IDX 21 26 25 27 26 28 27 29 28 30 29 32 30 33 31 34 89 35 32 36
REMARK SMILES IDX 88 37 33 38 34 39 35 40 82 41 36 42 87 43 81 44 83 45 37 46
REMARK SMILES IDX 86 47 80 48 79 49 38 51 68 52 49 53 67 54 50 55 53 56 66 57
REMARK SMILES IDX 84 58 51 59 52 60 65 62 85 63 54 64 39 65 40 66 48 67 41 68
REMARK SMILES IDX 47 69 42 70 43 71 44 72 45 73 46 74 69 75 70 76 78 77 71 78
REMARK SMILES IDX 77 79 72 80 73 81 74 82 75 83 76 84 55 85 56 86 64 87 57 88
REMARK SMILES IDX 63 89 58 90 59 91 60 92 61 93 62 94
REMARK H PARENT 22 6 10 15 27 31 83 50 53 61
REMARK Flexibility Score: inf
ROOT
ATOM      1  C   UNL A   1      36.372  22.513  25.760  1.00  0.00     0.023 C 
ENDROOT
BRANCH   1   2
ATOM      2  C   UNL A   1      35.046  22.488  25.002  1.00  0.00     0.116 C 
BRANCH   2   3
ATOM      3  N   UNL A   1      34.810  23.711  24.263  1.00  0.00    -0.356 N 
ATOM      4  O   UNL A   1      32.519  23.521  24.193  1.00  0.00    -0.275 OA
ATOM      5  C   UNL A   1      33.539  24.168  23.974  1.00  0.00     0.224 C 
ATOM      6  H   UNL A   1      35.584  24.236  23.955  1.00  0.00     0.163 HD
BRANCH   5   7
ATOM      7  C   UNL A   1      33.511  25.575  23.390  1.00  0.00     0.137 C 
BRANCH   7   8
ATOM      8  C   UNL A   1      33.257  26.653  24.431  1.00  0.00    -0.015 A 
ATOM      9  C   UNL A   1      34.131  26.755  25.536  1.00  0.00     0.006 A 
ATOM     10  C   UNL A   1      32.228  27.611  24.293  1.00  0.00     0.042 A 
ATOM     11  C   UNL A   1      33.971  27.741  26.506  1.00  0.00     0.000 A 
ATOM     12  C   UNL A   1      32.069  28.577  25.303  1.00  0.00     0.026 A 
ATOM     13  C   UNL A   1      32.930  28.646  26.397  1.00  0.00     0.002 A 
BRANCH  10  14
ATOM     14  N   UNL A   1      31.413  27.647  23.138  1.00  0.00    -0.352 N 
ATOM     15  H   UNL A   1      31.758  27.131  22.374  1.00  0.00     0.167 HD
BRANCH  14  16
ATOM     16  C   UNL A   1      30.184  28.303  22.906  1.00  0.00     0.087 A 
ATOM     17  C   UNL A   1      30.236  29.528  22.207  1.00  0.00     0.147 A 
ATOM     18  C   UNL A   1      28.918  27.790  23.242  1.00  0.00     0.082 A 
ATOM     19  F   UNL A   1      31.433  30.057  21.905  1.00  0.00    -0.205 F 
ATOM     20  C   UNL A   1      29.094  30.206  21.795  1.00  0.00     0.041 A 
ATOM     21  C   UNL A   1      27.761  28.477  22.795  1.00  0.00     0.015 A 
ATOM     22  C   UNL A   1      27.847  29.668  22.074  1.00  0.00     0.004 A 
BRANCH  18  23
ATOM     23  C   UNL A   1      28.692  26.558  24.089  1.00  0.00     0.418 C 
ATOM     24  F   UNL A   1      29.127  25.427  23.450  1.00  0.00    -0.166 F 
ATOM     25  F   UNL A   1      29.400  26.590  25.253  1.00  0.00    -0.166 F 
ATOM     26  F   UNL A   1      27.400  26.291  24.416  1.00  0.00    -0.166 F 
ENDBRANCH  18  23
ENDBRANCH  14  16
ENDBRANCH  10  14
ENDBRANCH   7   8
ENDBRANCH   5   7
ENDBRANCH   2   3
ENDBRANCH   1   2
BRANCH   1  27
ATOM     27  C   UNL A   1      37.338  23.633  25.356  1.00  0.00     0.023 C 
BRANCH  27  28
ATOM     28  C   UNL A   1      38.242  24.154  26.468  1.00  0.00     0.116 C 
BRANCH  28  29
ATOM     29  N   UNL A   1      39.654  24.008  26.151  1.00  0.00    -0.352 N 
ATOM     30  C   UNL A   1      40.722  24.784  26.529  1.00  0.00     0.251 C 
ATOM     31  H   UNL A   1      39.877  23.238  25.579  1.00  0.00     0.163 HD
ATOM     32  O   UNL A   1      41.820  24.604  26.002  1.00  0.00    -0.269 OA
BRANCH  30  33
ATOM     33  C   UNL A   1      40.559  25.849  27.546  1.00  0.00     0.039 A 
ATOM     34  C   UNL A   1      39.621  25.671  28.567  1.00  0.00     0.014 A 
ATOM     35  C   UNL A   1      41.310  27.027  27.488  1.00  0.00     0.014 A 
ATOM     36  C   UNL A   1      39.489  26.640  29.566  1.00  0.00     0.010 A 
ATOM     37  C   UNL A   1      41.230  27.955  28.526  1.00  0.00     0.010 A 
ATOM     38  C   UNL A   1      40.318  27.773  29.578  1.00  0.00    -0.014 A 
BRANCH  38  39
ATOM     39  C   UNL A   1      40.258  28.765  30.685  1.00  0.00     0.031 A 
ATOM     40  C   UNL A   1      41.158  28.626  31.885  1.00  0.00     0.074 A 
ATOM     41  C   UNL A   1      39.350  29.760  30.640  1.00  0.00     0.049 A 
ATOM     42  N   UNL A   1      41.210  29.364  32.966  1.00  0.00    -0.248 NA
ATOM     43  C   UNL A   1      42.105  27.501  31.882  1.00  0.00     0.031 C 
ATOM     44  C   UNL A   1      38.395  29.988  29.552  1.00  0.00     0.029 A 
ATOM     45  N   UNL A   1      39.074  30.766  31.535  1.00  0.00    -0.354 N 
ATOM     46  C   UNL A   1      42.181  28.785  33.775  1.00  0.00     0.074 A 
ATOM     47  C   UNL A   1      42.656  27.606  33.084  1.00  0.00     0.031 C 
ATOM     48  C   UNL A   1      37.662  31.078  29.828  1.00  0.00     0.029 A 
ATOM     49  C   UNL A   1      38.059  31.602  31.132  1.00  0.00     0.049 A 
ATOM     50  H   UNL A   1      39.558  30.877  32.385  1.00  0.00     0.167 HD
ATOM     51  C   UNL A   1      42.646  29.202  34.977  1.00  0.00     0.031 A 
ATOM     52  C   UNL A   1      37.500  32.666  31.744  1.00  0.00     0.031 A 
ATOM     53  C   UNL A   1      42.175  30.378  35.663  1.00  0.00     0.049 A 
ATOM     54  C   UNL A   1      38.016  33.096  33.090  1.00  0.00     0.074 A 
ATOM     55  C   UNL A   1      42.624  30.914  36.857  1.00  0.00     0.029 A 
ATOM     56  N   UNL A   1      41.143  31.194  35.222  1.00  0.00    -0.354 N 
ATOM     57  N   UNL A   1      38.983  32.573  33.806  1.00  0.00    -0.248 NA
ATOM     58  C   UNL A   1      37.375  34.266  33.703  1.00  0.00     0.031 C 
ATOM     59  C   UNL A   1      41.823  32.017  37.171  1.00  0.00     0.029 A 
ATOM     60  C   UNL A   1      40.921  32.211  36.137  1.00  0.00     0.049 A 
ATOM     61  H   UNL A   1      40.643  31.068  34.383  1.00  0.00     0.167 HD
ATOM     62  C   UNL A   1      39.085  33.370  34.941  1.00  0.00     0.074 A 
ATOM     63  C   UNL A   1      38.093  34.416  34.808  1.00  0.00     0.031 C 
ATOM     64  C   UNL A   1      39.928  33.246  35.997  1.00  0.00     0.031 A 
BRANCH  51  65
ATOM     65  C   UNL A   1      43.717  28.371  35.641  1.00  0.00    -0.014 A 
ATOM     66  C   UNL A   1      43.388  27.297  36.487  1.00  0.00     0.010 A 
ATOM     67  C   UNL A   1      45.073  28.643  35.380  1.00  0.00     0.010 A 
ATOM     68  C   UNL A   1      44.394  26.540  37.097  1.00  0.00     0.020 A 
ATOM     69  C   UNL A   1      46.081  27.869  35.961  1.00  0.00     0.020 A 
ATOM     70  C   UNL A   1      45.734  26.833  36.831  1.00  0.00     0.054 A 
BRANCH  70  71
ATOM     71  S   UNL A   1      47.017  25.824  37.622  1.00  0.00     0.124 S 
ATOM     72  O   UNL A   1      47.699  26.808  38.461  1.00  0.00    -0.237 OA
ATOM     73  O   UNL A   1      46.236  24.821  38.342  1.00  0.00    -0.237 OA
ATOM     74  O   UNL A   1      47.800  25.313  36.500  1.00  0.00    -0.744 OA
ENDBRANCH  70  71
ENDBRANCH  51  65
BRANCH  52  75
ATOM     75  C   UNL A   1      36.392  33.408  31.079  1.00  0.00    -0.014 A 
ATOM     76  C   UNL A   1      36.546  33.900  29.770  1.00  0.00     0.010 A 
ATOM     77  C   UNL A   1      35.171  33.616  31.747  1.00  0.00     0.010 A 
ATOM     78  C   UNL A   1      35.507  34.600  29.149  1.00  0.00     0.020 A 
ATOM     79  C   UNL A   1      34.119  34.288  31.118  1.00  0.00     0.020 A 
ATOM     80  C   UNL A   1      34.299  34.786  29.826  1.00  0.00     0.054 A 
BRANCH  80  81
ATOM     81  S   UNL A   1      32.947  35.649  28.977  1.00  0.00     0.124 S 
ATOM     82  O   UNL A   1      33.659  36.705  28.266  1.00  0.00    -0.237 OA
ATOM     83  O   UNL A   1      32.375  34.594  28.143  1.00  0.00    -0.237 OA
ATOM     84  O   UNL A   1      32.089  36.099  30.073  1.00  0.00    -0.744 OA
ENDBRANCH  80  81
ENDBRANCH  52  75
BRANCH  64  85
ATOM     85  C   UNL A   1      39.845  34.291  37.081  1.00  0.00    -0.014 A 
ATOM     86  C   UNL A   1      39.059  34.095  38.230  1.00  0.00     0.010 A 
ATOM     87  C   UNL A   1      40.613  35.465  36.969  1.00  0.00     0.010 A 
ATOM     88  C   UNL A   1      39.018  35.069  39.233  1.00  0.00     0.020 A 
ATOM     89  C   UNL A   1      40.599  36.426  37.983  1.00  0.00     0.020 A 
ATOM     90  C   UNL A   1      39.789  36.228  39.102  1.00  0.00     0.054 A 
BRANCH  90  91
ATOM     91  S   UNL A   1      39.752  37.454  40.439  1.00  0.00     0.124 S 
ATOM     92  O   UNL A   1      40.875  38.320  40.087  1.00  0.00    -0.237 OA
ATOM     93  O   UNL A   1      38.428  38.051  40.290  1.00  0.00    -0.237 OA
ATOM     94  O   UNL A   1      39.938  36.656  41.648  1.00  0.00    -0.744 OA
ENDBRANCH  90  91
ENDBRANCH  64  85
ENDBRANCH  38  39
ENDBRANCH  30  33
ENDBRANCH  28  29
ENDBRANCH  27  28
ENDBRANCH   1  27
TORSDOF 18
ENDMDL
MODEL 2
REMARK VINA RESULT:     -11.5      2.491      8.852
REMARK SMILES O=C(Cc1ccccc1Nc1c(F)cccc1C(F)(F)F)NCCCCNC(=O)c1ccc(-c2c3nc(c(-c4ccc(S(=O)(=O)[O-])cc4)c4ccc([nH]4)c(-c4ccc(S(=O)(=O)[O-])cc4)c4nc(c(-c5ccc(S(=O)(=O)[O-])cc5)c5ccc2[nH]5)C=C4)C=C3)cc1
REMARK SMILES IDX 24 1 23 2 22 3 1 4 2 5 3 7 4 8 5 9 9 10 6 11 8 12 7 13 10 14
REMARK SMILES IDX 11 16 12 17 17 18 13 19 14 20 16 21 15 22 18 23 19 24 20 25
REMARK SMILES IDX 21 26 25 27 26 28 27 29 28 30 29 32 30 33 31 34 89 35 32 36
REMARK SMILES IDX 88 37 33 38 34 39 35 40 82 41 36 42 87 43 81 44 83 45 37 46
REMARK SMILES IDX 86 47 80 48 79 49 38 51 68 52 49 53 67 54 50 55 53 56 66 57
REMARK SMILES IDX 84 58 51 59 52 60 65 62 85 63 54 64 39 65 40 66 48 67 41 68
REMARK SMILES IDX 47 69 42 70 43 71 44 72 45 73 46 74 69 75 70 76 78 77 71 78
REMARK SMILES IDX 77 79 72 80 73 81 74 82 75 83 76 84 55 85 56 86 64 87 57 88
REMARK SMILES IDX 63 89 58 90 59 91 60 92 61 93 62 94
REMARK H PARENT 22 6 10 15 27 31 83 50 53 61
REMARK Flexibility Score: inf
ROOT
ATOM      1  C   UNL A   1      34.920  31.006  28.152  1.00  0.00     0.023 C 
ENDROOT
BRANCH   1   2
ATOM      2  C   UNL A   1      35.046  29.532  27.773  1.00  0.00     0.116 C 
BRANCH   2   3
ATOM      3  N   UNL A   1      33.761  28.867  27.709  1.00  0.00    -0.356 N 
ATOM      4  O   UNL A   1      34.045  27.982  25.605  1.00  0.00    -0.275 OA
ATOM      5  C   UNL A   1      33.389  28.078  26.638  1.00  0.00     0.224 C 
ATOM      6  H   UNL A   1      33.129  28.982  28.455  1.00  0.00     0.163 HD
BRANCH   5   7
ATOM      7  C   UNL A   1      32.100  27.297  26.870  1.00  0.00     0.137 C 
BRANCH   7   8
ATOM      8  C   UNL A   1      31.372  26.945  25.584  1.00  0.00    -0.015 A 
ATOM      9  C   UNL A   1      30.905  27.990  24.755  1.00  0.00     0.006 A 
ATOM     10  C   UNL A   1      31.216  25.613  25.141  1.00  0.00     0.042 A 
ATOM     11  C   UNL A   1      30.259  27.734  23.548  1.00  0.00     0.000 A 
ATOM     12  C   UNL A   1      30.532  25.379  23.935  1.00  0.00     0.026 A 
ATOM     13  C   UNL A   1      30.060  26.425  23.143  1.00  0.00     0.002 A 
BRANCH  10  14
ATOM     14  N   UNL A   1      31.787  24.535  25.856  1.00  0.00    -0.352 N 
ATOM     15  H   UNL A   1      31.760  24.630  26.836  1.00  0.00     0.167 HD
BRANCH  14  16
ATOM     16  C   UNL A   1      32.387  23.344  25.391  1.00  0.00     0.087 A 
ATOM     17  C   UNL A   1      31.617  22.165  25.475  1.00  0.00     0.147 A 
ATOM     18  C   UNL A   1      33.652  23.261  24.780  1.00  0.00     0.082 A 
ATOM     19  F   UNL A   1      30.420  22.209  26.085  1.00  0.00    -0.205 F 
ATOM     20  C   UNL A   1      32.034  20.955  24.931  1.00  0.00     0.041 A 
ATOM     21  C   UNL A   1      34.056  22.029  24.206  1.00  0.00     0.015 A 
ATOM     22  C   UNL A   1      33.254  20.890  24.275  1.00  0.00     0.004 A 
BRANCH  18  23
ATOM     23  C   UNL A   1      34.646  24.399  24.717  1.00  0.00     0.418 C 
ATOM     24  F   UNL A   1      34.833  24.967  25.950  1.00  0.00    -0.166 F 
ATOM     25  F   UNL A   1      35.887  23.985  24.336  1.00  0.00    -0.166 F 
ATOM     26  F   UNL A   1      34.308  25.438  23.909  1.00  0.00    -0.166 F 
ENDBRANCH  18  23
ENDBRANCH  14  16
ENDBRANCH  10  14
ENDBRANCH   7   8
ENDBRANCH   5   7
ENDBRANCH   2   3
ENDBRANCH   1   2
BRANCH   1  27
ATOM     27  C   UNL A   1      34.053  31.852  27.213  1.00  0.00     0.023 C 
BRANCH  27  28
ATOM     28  C   UNL A   1      32.801  32.457  27.842  1.00  0.00     0.116 C 
BRANCH  28  29
ATOM     29  N   UNL A   1      32.829  33.911  27.850  1.00  0.00    -0.352 N 
ATOM     30  C   UNL A   1      33.611  34.767  28.586  1.00  0.00     0.251 C 
ATOM     31  H   UNL A   1      32.192  34.346  27.239  1.00  0.00     0.163 HD
ATOM     32  O   UNL A   1      33.354  35.971  28.589  1.00  0.00    -0.269 OA
BRANCH  30  33
ATOM     33  C   UNL A   1      34.743  34.253  29.391  1.00  0.00     0.039 A 
ATOM     34  C   UNL A   1      34.473  33.609  30.602  1.00  0.00     0.014 A 
ATOM     35  C   UNL A   1      36.066  34.418  28.970  1.00  0.00     0.014 A 
ATOM     36  C   UNL A   1      35.522  33.070  31.352  1.00  0.00     0.010 A 
ATOM     37  C   UNL A   1      37.102  33.814  29.681  1.00  0.00     0.010 A 
ATOM     38  C   UNL A   1      36.844  33.132  30.880  1.00  0.00    -0.014 A 
BRANCH  38  39
ATOM     39  C   UNL A   1      37.960  32.480  31.617  1.00  0.00     0.031 A 
ATOM     40  C   UNL A   1      38.398  33.003  32.960  1.00  0.00     0.074 A 
ATOM     41  C   UNL A   1      38.622  31.452  31.050  1.00  0.00     0.049 A 
ATOM     42  N   UNL A   1      39.381  32.596  33.723  1.00  0.00    -0.248 NA
ATOM     43  C   UNL A   1      37.650  34.146  33.507  1.00  0.00     0.031 C 
ATOM     44  C   UNL A   1      38.322  30.870  29.739  1.00  0.00     0.029 A 
ATOM     45  N   UNL A   1      39.690  30.714  31.501  1.00  0.00    -0.354 N 
ATOM     46  C   UNL A   1      39.380  33.439  34.828  1.00  0.00     0.074 A 
ATOM     47  C   UNL A   1      38.331  34.412  34.613  1.00  0.00     0.031 C 
ATOM     48  C   UNL A   1      39.164  29.850  29.506  1.00  0.00     0.029 A 
ATOM     49  C   UNL A   1      40.093  29.733  30.625  1.00  0.00     0.049 A 
ATOM     50  H   UNL A   1      40.126  30.873  32.368  1.00  0.00     0.167 HD
ATOM     51  C   UNL A   1      40.168  33.400  35.929  1.00  0.00     0.031 A 
ATOM     52  C   UNL A   1      41.102  28.842  30.706  1.00  0.00     0.031 A 
ATOM     53  C   UNL A   1      41.209  32.429  36.143  1.00  0.00     0.049 A 
ATOM     54  C   UNL A   1      41.981  28.834  31.927  1.00  0.00     0.074 A 
ATOM     55  C   UNL A   1      42.023  32.272  37.252  1.00  0.00     0.029 A 
ATOM     56  N   UNL A   1      41.587  31.455  35.231  1.00  0.00    -0.354 N 
ATOM     57  N   UNL A   1      41.918  29.597  32.992  1.00  0.00    -0.248 NA
ATOM     58  C   UNL A   1      43.059  27.836  31.962  1.00  0.00     0.031 C 
ATOM     59  C   UNL A   1      42.935  31.246  36.984  1.00  0.00     0.029 A 
ATOM     60  C   UNL A   1      42.644  30.715  35.738  1.00  0.00     0.049 A 
ATOM     61  H   UNL A   1      41.167  31.312  34.352  1.00  0.00     0.167 HD
ATOM     62  C   UNL A   1      42.929  29.151  33.836  1.00  0.00     0.074 A 
ATOM     63  C   UNL A   1      43.577  28.044  33.165  1.00  0.00     0.031 C 
ATOM     64  C   UNL A   1      43.284  29.616  35.060  1.00  0.00     0.031 A 
BRANCH  51  65
ATOM     65  C   UNL A   1      39.945  34.452  36.988  1.00  0.00    -0.014 A 
ATOM     66  C   UNL A   1      39.037  34.247  38.042  1.00  0.00     0.010 A 
ATOM     67  C   UNL A   1      40.687  35.648  36.950  1.00  0.00     0.010 A 
ATOM     68  C   UNL A   1      38.840  35.235  39.011  1.00  0.00     0.020 A 
ATOM     69  C   UNL A   1      40.517  36.624  37.936  1.00  0.00     0.020 A 
ATOM     70  C   UNL A   1      39.581  36.419  38.950  1.00  0.00     0.054 A 
BRANCH  70  71
ATOM     71  S   UNL A   1      39.317  37.676  40.231  1.00  0.00     0.124 S 
ATOM     72  O   UNL A   1      38.201  38.439  39.677  1.00  0.00    -0.237 OA
ATOM     73  O   UNL A   1      39.002  36.870  41.409  1.00  0.00    -0.237 OA
ATOM     74  O   UNL A   1      40.591  38.387  40.288  1.00  0.00    -0.744 OA
ENDBRANCH  70  71
ENDBRANCH  51  65
BRANCH  52  75
ATOM     75  C   UNL A   1      41.328  27.873  29.597  1.00  0.00    -0.014 A 
ATOM     76  C   UNL A   1      42.331  28.103  28.639  1.00  0.00     0.010 A 
ATOM     77  C   UNL A   1      40.547  26.705  29.499  1.00  0.00     0.010 A 
ATOM     78  C   UNL A   1      42.538  27.195  27.596  1.00  0.00     0.020 A 
ATOM     79  C   UNL A   1      40.772  25.779  28.478  1.00  0.00     0.020 A 
ATOM     80  C   UNL A   1      41.760  26.036  27.525  1.00  0.00     0.054 A 
BRANCH  80  81
ATOM     81  S   UNL A   1      42.087  24.846  26.195  1.00  0.00     0.124 S 
ATOM     82  O   UNL A   1      40.972  23.915  26.340  1.00  0.00    -0.237 OA
ATOM     83  O   UNL A   1      42.059  25.690  25.003  1.00  0.00    -0.237 OA
ATOM     84  O   UNL A   1      43.402  24.306  26.535  1.00  0.00    -0.744 OA
ENDBRANCH  80  81
ENDBRANCH  52  75
BRANCH  64  85
ATOM     85  C   UNL A   1      44.404  28.906  35.777  1.00  0.00    -0.014 A 
ATOM     86  C   UNL A   1      44.157  27.803  36.613  1.00  0.00     0.010 A 
ATOM     87  C   UNL A   1      45.733  29.318  35.563  1.00  0.00     0.010 A 
ATOM     88  C   UNL A   1      45.215  27.145  37.248  1.00  0.00     0.020 A 
ATOM     89  C   UNL A   1      46.796  28.644  36.170  1.00  0.00     0.020 A 
ATOM     90  C   UNL A   1      46.528  27.570  37.021  1.00  0.00     0.054 A 
BRANCH  90  91
ATOM     91  S   UNL A   1      47.886  26.671  37.821  1.00  0.00     0.124 S 
ATOM     92  O   UNL A   1      47.726  25.328  37.271  1.00  0.00    -0.237 OA
ATOM     93  O   UNL A   1      49.066  27.401  37.364  1.00  0.00    -0.237 OA
ATOM     94  O   UNL A   1      47.595  26.799  39.246  1.00  0.00    -0.744 OA
ENDBRANCH  90  91
ENDBRANCH  64  85
ENDBRANCH  38  39
ENDBRANCH  30  33
ENDBRANCH  28  29
ENDBRANCH  27  28
ENDBRANCH   1  27
TORSDOF 18
ENDMDL
MODEL 3
REMARK VINA RESULT:     -11.5      3.402      9.632
REMARK SMILES O=C(Cc1ccccc1Nc1c(F)cccc1C(F)(F)F)NCCCCNC(=O)c1ccc(-c2c3nc(c(-c4ccc(S(=O)(=O)[O-])cc4)c4ccc([nH]4)c(-c4ccc(S(=O)(=O)[O-])cc4)c4nc(c(-c5ccc(S(=O)(=O)[O-])cc5)c5ccc2[nH]5)C=C4)C=C3)cc1
REMARK SMILES IDX 24 1 23 2 22 3 1 4 2 5 3 7 4 8 5 9 9 10 6 11 8 12 7 13 10 14
REMARK SMILES IDX 11 16 12 17 17 18 13 19 14 20 16 21 15 22 18 23 19 24 20 25
REMARK SMILES IDX 21 26 25 27 26 28 27 29 28 30 29 32 30 33 31 34 89 35 32 36
REMARK SMILES IDX 88 37 33 38 34 39 35 40 82 41 36 42 87 43 81 44 83 45 37 46
REMARK SMILES IDX 86 47 80 48 79 49 38 51 68 52 49 53 67 54 50 55 53 56 66 57
REMARK SMILES IDX 84 58 51 59 52 60 65 62 85 63 54 64 39 65 40 66 48 67 41 68
REMARK SMILES IDX 47 69 42 70 43 71 44 72 45 73 46 74 69 75 70 76 78 77 71 78
REMARK SMILES IDX 77 79 72 80 73 81 74 82 75 83 76 84 55 85 56 86 64 87 57 88
REMARK SMILES IDX 63 89 58 90 59 91 60 92 61 93 62 94
REMARK H PARENT 22 6 10 15 27 31 83 50 53 61
REMARK Flexibility Score: inf
ROOT
ATOM      1  C   UNL A   1      31.548  28.597  25.550  1.00  0.00     0.023 C 
ENDROOT
BRANCH   1   2
ATOM      2  C   UNL A   1      31.330  27.733  26.790  1.00  0.00     0.116 C 
BRANCH   2   3
ATOM      3  N   UNL A   1      31.827  26.385  26.618  1.00  0.00    -0.356 N 
ATOM      4  O   UNL A   1      29.764  25.372  26.504  1.00  0.00    -0.275 OA
ATOM      5  C   UNL A   1      30.987  25.306  26.418  1.00  0.00     0.224 C 
ATOM      6  H   UNL A   1      32.799  26.230  26.644  1.00  0.00     0.163 HD
BRANCH   5   7
ATOM      7  C   UNL A   1      31.716  24.022  26.038  1.00  0.00     0.137 C 
BRANCH   7   8
ATOM      8  C   UNL A   1      32.222  24.020  24.606  1.00  0.00    -0.015 A 
ATOM      9  C   UNL A   1      31.549  24.804  23.642  1.00  0.00     0.006 A 
ATOM     10  C   UNL A   1      33.392  23.331  24.216  1.00  0.00     0.042 A 
ATOM     11  C   UNL A   1      31.982  24.871  22.320  1.00  0.00     0.000 A 
ATOM     12  C   UNL A   1      33.791  23.389  22.869  1.00  0.00     0.026 A 
ATOM     13  C   UNL A   1      33.098  24.151  21.930  1.00  0.00     0.002 A 
BRANCH  10  14
ATOM     14  N   UNL A   1      34.187  22.648  25.165  1.00  0.00    -0.352 N 
ATOM     15  H   UNL A   1      33.930  22.800  26.104  1.00  0.00     0.167 HD
BRANCH  14  16
ATOM     16  C   UNL A   1      35.289  21.784  24.984  1.00  0.00     0.087 A 
ATOM     17  C   UNL A   1      36.571  22.374  24.983  1.00  0.00     0.147 A 
ATOM     18  C   UNL A   1      35.210  20.382  24.888  1.00  0.00     0.082 A 
ATOM     19  F   UNL A   1      36.673  23.712  25.038  1.00  0.00    -0.205 F 
ATOM     20  C   UNL A   1      37.742  21.626  24.950  1.00  0.00     0.041 A 
ATOM     21  C   UNL A   1      36.411  19.628  24.880  1.00  0.00     0.015 A 
ATOM     22  C   UNL A   1      37.663  20.241  24.917  1.00  0.00     0.004 A 
BRANCH  18  23
ATOM     23  C   UNL A   1      33.919  19.606  24.755  1.00  0.00     0.418 C 
ATOM     24  F   UNL A   1      34.157  18.286  24.482  1.00  0.00    -0.166 F 
ATOM     25  F   UNL A   1      33.197  19.596  25.911  1.00  0.00    -0.166 F 
ATOM     26  F   UNL A   1      33.081  20.015  23.767  1.00  0.00    -0.166 F 
ENDBRANCH  18  23
ENDBRANCH  14  16
ENDBRANCH  10  14
ENDBRANCH   7   8
ENDBRANCH   5   7
ENDBRANCH   2   3
ENDBRANCH   1   2
BRANCH   1  27
ATOM     27  C   UNL A   1      32.982  28.615  25.008  1.00  0.00     0.023 C 
BRANCH  27  28
ATOM     28  C   UNL A   1      34.050  29.086  25.990  1.00  0.00     0.116 C 
BRANCH  28  29
ATOM     29  N   UNL A   1      33.762  30.404  26.535  1.00  0.00    -0.352 N 
ATOM     30  C   UNL A   1      34.358  31.071  27.577  1.00  0.00     0.251 C 
ATOM     31  H   UNL A   1      33.029  30.889  26.092  1.00  0.00     0.163 HD
ATOM     32  O   UNL A   1      33.846  32.104  28.009  1.00  0.00    -0.269 OA
BRANCH  30  33
ATOM     33  C   UNL A   1      35.596  30.547  28.199  1.00  0.00     0.039 A 
ATOM     34  C   UNL A   1      36.831  30.900  27.648  1.00  0.00     0.014 A 
ATOM     35  C   UNL A   1      35.547  29.698  29.308  1.00  0.00     0.014 A 
ATOM     36  C   UNL A   1      38.014  30.461  28.251  1.00  0.00     0.010 A 
ATOM     37  C   UNL A   1      36.725  29.323  29.951  1.00  0.00     0.010 A 
ATOM     38  C   UNL A   1      37.974  29.700  29.431  1.00  0.00    -0.014 A 
BRANCH  38  39
ATOM     39  C   UNL A   1      39.221  29.305  30.140  1.00  0.00     0.031 A 
ATOM     40  C   UNL A   1      39.654  30.030  31.387  1.00  0.00     0.074 A 
ATOM     41  C   UNL A   1      39.999  28.330  29.627  1.00  0.00     0.049 A 
ATOM     42  N   UNL A   1      40.733  29.859  32.108  1.00  0.00    -0.248 NA
ATOM     43  C   UNL A   1      38.772  31.103  31.875  1.00  0.00     0.031 C 
ATOM     44  C   UNL A   1      39.713  27.571  28.407  1.00  0.00     0.029 A 
ATOM     45  N   UNL A   1      41.195  27.813  30.064  1.00  0.00    -0.354 N 
ATOM     46  C   UNL A   1      40.669  30.808  33.121  1.00  0.00     0.074 A 
ATOM     47  C   UNL A   1      39.470  31.586  32.894  1.00  0.00     0.031 C 
ATOM     48  C   UNL A   1      40.687  26.668  28.210  1.00  0.00     0.029 A 
ATOM     49  C   UNL A   1      41.691  26.813  29.261  1.00  0.00     0.049 A 
ATOM     50  H   UNL A   1      41.653  28.129  30.876  1.00  0.00     0.167 HD
ATOM     51  C   UNL A   1      41.521  31.007  34.157  1.00  0.00     0.031 A 
ATOM     52  C   UNL A   1      42.829  26.096  29.350  1.00  0.00     0.031 A 
ATOM     53  C   UNL A   1      42.711  30.230  34.384  1.00  0.00     0.049 A 
ATOM     54  C   UNL A   1      43.772  26.351  30.494  1.00  0.00     0.074 A 
ATOM     55  C   UNL A   1      43.606  30.317  35.436  1.00  0.00     0.029 A 
ATOM     56  N   UNL A   1      43.179  29.229  33.545  1.00  0.00    -0.354 N 
ATOM     57  N   UNL A   1      43.656  27.207  31.481  1.00  0.00    -0.248 NA
ATOM     58  C   UNL A   1      44.991  25.534  30.544  1.00  0.00     0.031 C 
ATOM     59  C   UNL A   1      44.649  29.415  35.200  1.00  0.00     0.029 A 
ATOM     60  C   UNL A   1      44.367  28.714  34.039  1.00  0.00     0.049 A 
ATOM     61  H   UNL A   1      42.733  28.930  32.720  1.00  0.00     0.167 HD
ATOM     62  C   UNL A   1      44.774  27.011  32.284  1.00  0.00     0.074 A 
ATOM     63  C   UNL A   1      45.544  25.946  31.677  1.00  0.00     0.031 C 
ATOM     64  C   UNL A   1      45.128  27.655  33.425  1.00  0.00     0.031 A 
BRANCH  51  65
ATOM     65  C   UNL A   1      41.202  32.123  35.121  1.00  0.00    -0.014 A 
ATOM     66  C   UNL A   1      40.460  31.887  36.293  1.00  0.00     0.010 A 
ATOM     67  C   UNL A   1      41.689  33.420  34.871  1.00  0.00     0.010 A 
ATOM     68  C   UNL A   1      40.171  32.935  37.171  1.00  0.00     0.020 A 
ATOM     69  C   UNL A   1      41.430  34.463  35.764  1.00  0.00     0.020 A 
ATOM     70  C   UNL A   1      40.657  34.217  36.900  1.00  0.00     0.054 A 
BRANCH  70  71
ATOM     71  S   UNL A   1      40.280  35.554  38.068  1.00  0.00     0.124 S 
ATOM     72  O   UNL A   1      39.109  35.025  38.763  1.00  0.00    -0.237 OA
ATOM     73  O   UNL A   1      41.501  35.633  38.866  1.00  0.00    -0.237 OA
ATOM     74  O   UNL A   1      40.026  36.706  37.207  1.00  0.00    -0.744 OA
ENDBRANCH  70  71
ENDBRANCH  51  65
BRANCH  52  75
ATOM     75  C   UNL A   1      43.134  25.055  28.328  1.00  0.00    -0.014 A 
ATOM     76  C   UNL A   1      43.806  25.395  27.141  1.00  0.00     0.010 A 
ATOM     77  C   UNL A   1      42.764  23.714  28.542  1.00  0.00     0.010 A 
ATOM     78  C   UNL A   1      44.087  24.419  26.180  1.00  0.00     0.020 A 
ATOM     79  C   UNL A   1      43.071  22.730  27.599  1.00  0.00     0.020 A 
ATOM     80  C   UNL A   1      43.722  23.091  26.417  1.00  0.00     0.054 A 
BRANCH  80  81
ATOM     81  S   UNL A   1      44.148  21.833  25.181  1.00  0.00     0.124 S 
ATOM     82  O   UNL A   1      45.518  21.494  25.552  1.00  0.00    -0.237 OA
ATOM     83  O   UNL A   1      43.148  20.798  25.428  1.00  0.00    -0.237 OA
ATOM     84  O   UNL A   1      44.000  22.541  23.910  1.00  0.00    -0.744 OA
ENDBRANCH  80  81
ENDBRANCH  52  75
BRANCH  64  85
ATOM     85  C   UNL A   1      46.387  27.201  34.119  1.00  0.00    -0.014 A 
ATOM     86  C   UNL A   1      47.629  27.801  33.851  1.00  0.00     0.010 A 
ATOM     87  C   UNL A   1      46.311  26.193  35.098  1.00  0.00     0.010 A 
ATOM     88  C   UNL A   1      48.779  27.378  34.525  1.00  0.00     0.020 A 
ATOM     89  C   UNL A   1      47.451  25.789  35.797  1.00  0.00     0.020 A 
ATOM     90  C   UNL A   1      48.682  26.376  35.495  1.00  0.00     0.054 A 
BRANCH  90  91
ATOM     91  S   UNL A   1      50.181  25.877  36.388  1.00  0.00     0.124 S 
ATOM     92  O   UNL A   1      50.185  24.430  36.191  1.00  0.00    -0.237 OA
ATOM     93  O   UNL A   1      51.230  26.610  35.686  1.00  0.00    -0.237 OA
ATOM     94  O   UNL A   1      49.930  26.318  37.758  1.00  0.00    -0.744 OA
ENDBRANCH  90  91
ENDBRANCH  64  85
ENDBRANCH  38  39
ENDBRANCH  30  33
ENDBRANCH  28  29
ENDBRANCH  27  28
ENDBRANCH   1  27
TORSDOF 18
ENDMDL
