MODEL 1
REMARK VINA RESULT:     -11.9      0.000      0.000
REMARK SMILES CC(C)N(c1cc2c(cc1Cl)C=C(C(=O)NCCCCNC(=O)c1ccc(-c3c4nc(c(-c5ccc(S(=O)(=O)[O-])cc5)c5ccc([nH]5)c(-c5ccc(S(=O)(=O)[O-])cc5)c5nc(c(-c6ccc(S(=O)(=O)[O-])cc6)c6ccc3[nH]6)C=C5)C=C4)cc1)[C@@H](C(F)(F)F)O2)C(C)C
REMARK SMILES IDX 19 1 18 2 17 3 16 4 14 5 15 6 13 8 5 9 6 10 10 11 7 12 9 13
REMARK SMILES IDX 11 14 8 15 89 16 12 17 84 18 4 19 2 20 1 21 3 22 90 23 91 24
REMARK SMILES IDX 92 25 85 26 86 27 87 28 88 29 20 30 21 31 22 32 23 34 24 35
REMARK SMILES IDX 25 36 83 37 26 38 82 39 27 40 28 41 29 42 76 43 30 44 81 45
REMARK SMILES IDX 75 46 77 47 31 48 80 49 74 50 73 51 32 53 62 54 43 55 61 56
REMARK SMILES IDX 44 57 47 58 60 59 78 60 45 61 46 62 59 64 79 65 48 66 33 67
REMARK SMILES IDX 34 68 42 69 35 70 41 71 36 72 37 73 38 74 39 75 40 76 63 77
REMARK SMILES IDX 64 78 72 79 65 80 71 81 66 82 67 83 68 84 69 85 70 86 49 87
REMARK SMILES IDX 50 88 58 89 51 90 57 91 52 92 53 93 54 94 55 95 56 96
REMARK H PARENT 16 7 21 33 77 52 47 63
REMARK Flexibility Score: inf
ROOT
ATOM      1  C   UNL A   1      37.787  23.223  25.565  1.00  0.00     0.023 C 
ENDROOT
BRANCH   1   2
ATOM      2  C   UNL A   1      36.983  21.961  25.884  1.00  0.00     0.023 C 
BRANCH   2   3
ATOM      3  C   UNL A   1      37.020  20.901  24.788  1.00  0.00     0.116 C 
BRANCH   3   4
ATOM      4  N   UNL A   1      35.891  19.991  24.871  1.00  0.00    -0.352 N 
ATOM      5  C   UNL A   1      34.545  20.095  24.964  1.00  0.00     0.251 C 
ATOM      6  O   UNL A   1      33.935  19.024  25.014  1.00  0.00    -0.270 OA
ATOM      7  H   UNL A   1      36.181  19.051  24.856  1.00  0.00     0.163 HD
BRANCH   5   8
ATOM      8  C   UNL A   1      33.780  21.377  25.005  1.00  0.00     0.067 C 
ATOM      9  C   UNL A   1      31.900  25.979  24.001  1.00  0.00     0.060 A 
ATOM     10  C   UNL A   1      31.533  24.909  24.838  1.00  0.00     0.074 A 
ATOM     11  C   UNL A   1      33.003  25.765  23.141  1.00  0.00     0.065 A 
ATOM     12  C   UNL A   1      32.244  23.709  24.845  1.00  0.00     0.130 A 
ATOM     13  C   UNL A   1      33.683  24.535  23.112  1.00  0.00     0.034 A 
ATOM     14  Cl  UNL A   1      33.661  27.015  22.134  1.00  0.00    -0.082 Cl
ATOM     15  C   UNL A   1      33.308  23.506  23.971  1.00  0.00     0.019 A 
ATOM     16  O   UNL A   1      31.834  22.750  25.727  1.00  0.00    -0.475 OA
ATOM     17  C   UNL A   1      33.991  22.218  23.974  1.00  0.00     0.025 C 
ATOM     18  C   UNL A   1      32.857  21.787  26.118  1.00  0.00     0.314 C 
BRANCH   9  19
ATOM     19  N   UNL A   1      31.174  27.186  24.075  1.00  0.00    -0.365 N 
BRANCH  19  20
ATOM     20  C   UNL A   1      30.017  27.322  23.163  1.00  0.00     0.076 C 
ATOM     21  C   UNL A   1      28.724  26.762  23.756  1.00  0.00     0.030 C 
ATOM     22  C   UNL A   1      29.810  28.748  22.660  1.00  0.00     0.030 C 
ENDBRANCH  19  20
BRANCH  19  23
ATOM     23  C   UNL A   1      31.539  28.104  25.177  1.00  0.00     0.076 C 
ATOM     24  C   UNL A   1      31.364  27.468  26.553  1.00  0.00     0.030 C 
ATOM     25  C   UNL A   1      32.924  28.726  25.024  1.00  0.00     0.030 C 
ENDBRANCH  19  23
ENDBRANCH   9  19
BRANCH  18  26
ATOM     26  C   UNL A   1      33.620  22.313  27.352  1.00  0.00     0.429 C 
ATOM     27  F   UNL A   1      32.756  22.600  28.358  1.00  0.00    -0.167 F 
ATOM     28  F   UNL A   1      34.496  21.406  27.845  1.00  0.00    -0.167 F 
ATOM     29  F   UNL A   1      34.325  23.438  27.092  1.00  0.00    -0.167 F 
ENDBRANCH  18  26
ENDBRANCH   5   8
ENDBRANCH   3   4
ENDBRANCH   2   3
ENDBRANCH   1   2
BRANCH   1  30
ATOM     30  C   UNL A   1      38.816  23.628  26.618  1.00  0.00     0.116 C 
BRANCH  30  31
ATOM     31  N   UNL A   1      40.189  23.663  26.131  1.00  0.00    -0.352 N 
ATOM     32  C   UNL A   1      41.157  24.599  26.417  1.00  0.00     0.251 C 
ATOM     33  H   UNL A   1      40.455  22.931  25.528  1.00  0.00     0.163 HD
ATOM     34  O   UNL A   1      42.263  24.545  25.889  1.00  0.00    -0.269 OA
BRANCH  32  35
ATOM     35  C   UNL A   1      40.808  25.701  27.332  1.00  0.00     0.039 A 
ATOM     36  C   UNL A   1      41.477  26.923  27.233  1.00  0.00     0.014 A 
ATOM     37  C   UNL A   1      39.903  25.461  28.368  1.00  0.00     0.014 A 
ATOM     38  C   UNL A   1      41.367  27.842  28.268  1.00  0.00     0.010 A 
ATOM     39  C   UNL A   1      39.739  26.421  29.370  1.00  0.00     0.010 A 
ATOM     40  C   UNL A   1      40.512  27.593  29.355  1.00  0.00    -0.014 A 
BRANCH  40  41
ATOM     41  C   UNL A   1      40.452  28.568  30.472  1.00  0.00     0.031 A 
ATOM     42  C   UNL A   1      41.488  28.551  31.563  1.00  0.00     0.074 A 
ATOM     43  C   UNL A   1      39.495  29.514  30.460  1.00  0.00     0.049 A 
ATOM     44  N   UNL A   1      41.598  29.344  32.598  1.00  0.00    -0.248 NA
ATOM     45  C   UNL A   1      42.536  27.519  31.487  1.00  0.00     0.031 C 
ATOM     46  C   UNL A   1      38.459  29.645  29.433  1.00  0.00     0.029 A 
ATOM     47  N   UNL A   1      39.256  30.561  31.312  1.00  0.00    -0.354 N 
ATOM     48  C   UNL A   1      42.709  28.898  33.306  1.00  0.00     0.074 A 
ATOM     49  C   UNL A   1      43.232  27.753  32.594  1.00  0.00     0.031 C 
ATOM     50  C   UNL A   1      37.738  30.747  29.678  1.00  0.00     0.029 A 
ATOM     51  C   UNL A   1      38.211  31.361  30.915  1.00  0.00     0.049 A 
ATOM     52  H   UNL A   1      39.782  30.724  32.128  1.00  0.00     0.167 HD
ATOM     53  C   UNL A   1      43.245  29.405  34.440  1.00  0.00     0.031 A 
ATOM     54  C   UNL A   1      37.680  32.460  31.484  1.00  0.00     0.031 A 
ATOM     55  C   UNL A   1      42.729  30.557  35.132  1.00  0.00     0.049 A 
ATOM     56  C   UNL A   1      38.259  32.972  32.768  1.00  0.00     0.074 A 
ATOM     57  C   UNL A   1      43.220  31.156  36.279  1.00  0.00     0.029 A 
ATOM     58  N   UNL A   1      41.614  31.285  34.745  1.00  0.00    -0.354 N 
ATOM     59  N   UNL A   1      39.299  32.525  33.430  1.00  0.00    -0.248 NA
ATOM     60  C   UNL A   1      37.589  34.119  33.393  1.00  0.00     0.031 C 
ATOM     61  C   UNL A   1      42.371  32.214  36.615  1.00  0.00     0.029 A 
ATOM     62  C   UNL A   1      41.383  32.308  35.648  1.00  0.00     0.049 A 
ATOM     63  H   UNL A   1      41.068  31.101  33.947  1.00  0.00     0.167 HD
ATOM     64  C   UNL A   1      39.404  33.331  34.557  1.00  0.00     0.074 A 
ATOM     65  C   UNL A   1      38.337  34.308  34.474  1.00  0.00     0.031 C 
ATOM     66  C   UNL A   1      40.302  33.258  35.568  1.00  0.00     0.031 A 
BRANCH  53  67
ATOM     67  C   UNL A   1      44.449  28.719  35.028  1.00  0.00    -0.014 A 
ATOM     68  C   UNL A   1      44.271  27.706  35.989  1.00  0.00     0.010 A 
ATOM     69  C   UNL A   1      45.751  29.143  34.715  1.00  0.00     0.010 A 
ATOM     70  C   UNL A   1      45.371  27.143  36.640  1.00  0.00     0.020 A 
ATOM     71  C   UNL A   1      46.857  28.568  35.349  1.00  0.00     0.020 A 
ATOM     72  C   UNL A   1      46.658  27.584  36.323  1.00  0.00     0.054 A 
BRANCH  72  73
ATOM     73  S   UNL A   1      48.080  26.846  37.175  1.00  0.00     0.124 S 
ATOM     74  O   UNL A   1      49.207  27.442  36.467  1.00  0.00    -0.237 OA
ATOM     75  O   UNL A   1      47.894  27.290  38.556  1.00  0.00    -0.237 OA
ATOM     76  O   UNL A   1      47.893  25.412  36.965  1.00  0.00    -0.744 OA
ENDBRANCH  72  73
ENDBRANCH  53  67
BRANCH  54  77
ATOM     77  C   UNL A   1      36.534  33.127  30.812  1.00  0.00    -0.014 A 
ATOM     78  C   UNL A   1      36.749  33.912  29.664  1.00  0.00     0.010 A 
ATOM     79  C   UNL A   1      35.256  33.093  31.392  1.00  0.00     0.010 A 
ATOM     80  C   UNL A   1      35.725  34.710  29.150  1.00  0.00     0.020 A 
ATOM     81  C   UNL A   1      34.221  33.873  30.864  1.00  0.00     0.020 A 
ATOM     82  C   UNL A   1      34.474  34.702  29.769  1.00  0.00     0.054 A 
BRANCH  82  83
ATOM     83  S   UNL A   1      33.181  35.811  29.144  1.00  0.00     0.124 S 
ATOM     84  O   UNL A   1      32.314  34.882  28.426  1.00  0.00    -0.237 OA
ATOM     85  O   UNL A   1      32.621  36.378  30.368  1.00  0.00    -0.237 OA
ATOM     86  O   UNL A   1      33.920  36.753  28.306  1.00  0.00    -0.744 OA
ENDBRANCH  82  83
ENDBRANCH  54  77
BRANCH  66  87
ATOM     87  C   UNL A   1      40.168  34.239  36.700  1.00  0.00    -0.014 A 
ATOM     88  C   UNL A   1      39.254  33.990  37.739  1.00  0.00     0.010 A 
ATOM     89  C   UNL A   1      40.852  35.466  36.660  1.00  0.00     0.010 A 
ATOM     90  C   UNL A   1      39.000  34.967  38.704  1.00  0.00     0.020 A 
ATOM     91  C   UNL A   1      40.616  36.438  37.637  1.00  0.00     0.020 A 
ATOM     92  C   UNL A   1      39.672  36.190  38.637  1.00  0.00     0.054 A 
BRANCH  92  93
ATOM     93  S   UNL A   1      39.304  37.464  39.876  1.00  0.00     0.124 S 
ATOM     94  O   UNL A   1      38.345  38.309  39.171  1.00  0.00    -0.237 OA
ATOM     95  O   UNL A   1      38.760  36.686  40.988  1.00  0.00    -0.237 OA
ATOM     96  O   UNL A   1      40.606  38.074  40.134  1.00  0.00    -0.744 OA
ENDBRANCH  92  93
ENDBRANCH  66  87
ENDBRANCH  40  41
ENDBRANCH  32  35
ENDBRANCH  30  31
ENDBRANCH   1  30
TORSDOF 18
ENDMDL
MODEL 2
REMARK VINA RESULT:     -11.9      1.515      2.109
REMARK SMILES CC(C)N(c1cc2c(cc1Cl)C=C(C(=O)NCCCCNC(=O)c1ccc(-c3c4nc(c(-c5ccc(S(=O)(=O)[O-])cc5)c5ccc([nH]5)c(-c5ccc(S(=O)(=O)[O-])cc5)c5nc(c(-c6ccc(S(=O)(=O)[O-])cc6)c6ccc3[nH]6)C=C5)C=C4)cc1)[C@@H](C(F)(F)F)O2)C(C)C
REMARK SMILES IDX 19 1 18 2 17 3 16 4 14 5 15 6 13 8 5 9 6 10 10 11 7 12 9 13
REMARK SMILES IDX 11 14 8 15 89 16 12 17 84 18 4 19 2 20 1 21 3 22 90 23 91 24
REMARK SMILES IDX 92 25 85 26 86 27 87 28 88 29 20 30 21 31 22 32 23 34 24 35
REMARK SMILES IDX 25 36 83 37 26 38 82 39 27 40 28 41 29 42 76 43 30 44 81 45
REMARK SMILES IDX 75 46 77 47 31 48 80 49 74 50 73 51 32 53 62 54 43 55 61 56
REMARK SMILES IDX 44 57 47 58 60 59 78 60 45 61 46 62 59 64 79 65 48 66 33 67
REMARK SMILES IDX 34 68 42 69 35 70 41 71 36 72 37 73 38 74 39 75 40 76 63 77
REMARK SMILES IDX 64 78 72 79 65 80 71 81 66 82 67 83 68 84 69 85 70 86 49 87
REMARK SMILES IDX 50 88 58 89 51 90 57 91 52 92 53 93 54 94 55 95 56 96
REMARK H PARENT 16 7 21 33 77 52 47 63
REMARK Flexibility Score: inf
ROOT
ATOM      1  C   UNL A   1      39.681  22.017  26.686  1.00  0.00     0.023 C 
ENDROOT
BRANCH   1   2
ATOM      2  C   UNL A   1      38.406  22.644  26.119  1.00  0.00     0.023 C 
BRANCH   2   3
ATOM      3  C   UNL A   1      37.742  21.826  25.016  1.00  0.00     0.116 C 
BRANCH   3   4
ATOM      4  N   UNL A   1      36.546  21.149  25.484  1.00  0.00    -0.352 N 
ATOM      5  C   UNL A   1      35.218  21.408  25.526  1.00  0.00     0.251 C 
ATOM      6  O   UNL A   1      34.523  20.523  26.032  1.00  0.00    -0.270 OA
ATOM      7  H   UNL A   1      36.756  20.270  25.874  1.00  0.00     0.163 HD
BRANCH   5   8
ATOM      8  C   UNL A   1      34.565  22.649  25.014  1.00  0.00     0.067 C 
ATOM      9  C   UNL A   1      32.245  27.142  24.618  1.00  0.00     0.060 A 
ATOM     10  C   UNL A   1      32.940  26.294  23.736  1.00  0.00     0.074 A 
ATOM     11  C   UNL A   1      32.212  26.756  25.979  1.00  0.00     0.065 A 
ATOM     12  C   UNL A   1      33.536  25.112  24.177  1.00  0.00     0.130 A 
ATOM     13  C   UNL A   1      32.861  25.594  26.428  1.00  0.00     0.034 A 
ATOM     14  Cl  UNL A   1      31.300  27.621  27.175  1.00  0.00    -0.082 Cl
ATOM     15  C   UNL A   1      33.519  24.764  25.524  1.00  0.00     0.019 A 
ATOM     16  O   UNL A   1      34.148  24.337  23.232  1.00  0.00    -0.475 OA
ATOM     17  C   UNL A   1      34.201  23.548  25.950  1.00  0.00     0.025 C 
ATOM     18  C   UNL A   1      34.258  22.922  23.568  1.00  0.00     0.314 C 
BRANCH   9  19
ATOM     19  N   UNL A   1      31.618  28.297  24.105  1.00  0.00    -0.365 N 
BRANCH  19  20
ATOM     20  C   UNL A   1      32.194  29.599  24.507  1.00  0.00     0.076 C 
ATOM     21  C   UNL A   1      31.273  30.396  25.431  1.00  0.00     0.030 C 
ATOM     22  C   UNL A   1      33.592  29.481  25.106  1.00  0.00     0.030 C 
ENDBRANCH  19  20
BRANCH  19  23
ATOM     23  C   UNL A   1      30.572  28.076  23.083  1.00  0.00     0.076 C 
ATOM     24  C   UNL A   1      29.264  27.564  23.681  1.00  0.00     0.030 C 
ATOM     25  C   UNL A   1      30.334  29.279  22.176  1.00  0.00     0.030 C 
ENDBRANCH  19  23
ENDBRANCH   9  19
BRANCH  18  26
ATOM     26  C   UNL A   1      33.001  22.172  23.081  1.00  0.00     0.429 C 
ATOM     27  F   UNL A   1      33.120  20.842  23.318  1.00  0.00    -0.167 F 
ATOM     28  F   UNL A   1      31.877  22.578  23.718  1.00  0.00    -0.167 F 
ATOM     29  F   UNL A   1      32.778  22.328  21.756  1.00  0.00    -0.167 F 
ENDBRANCH  18  26
ENDBRANCH   5   8
ENDBRANCH   3   4
ENDBRANCH   2   3
ENDBRANCH   1   2
BRANCH   1  30
ATOM     30  C   UNL A   1      40.799  23.000  27.026  1.00  0.00     0.116 C 
BRANCH  30  31
ATOM     31  N   UNL A   1      41.147  23.911  25.943  1.00  0.00    -0.352 N 
ATOM     32  C   UNL A   1      41.382  25.264  26.028  1.00  0.00     0.251 C 
ATOM     33  H   UNL A   1      41.222  23.511  25.046  1.00  0.00     0.163 HD
ATOM     34  O   UNL A   1      41.606  25.930  25.023  1.00  0.00    -0.269 OA
BRANCH  32  35
ATOM     35  C   UNL A   1      41.297  25.902  27.355  1.00  0.00     0.039 A 
ATOM     36  C   UNL A   1      40.115  25.816  28.092  1.00  0.00     0.014 A 
ATOM     37  C   UNL A   1      42.362  26.691  27.796  1.00  0.00     0.014 A 
ATOM     38  C   UNL A   1      39.934  26.655  29.184  1.00  0.00     0.010 A 
ATOM     39  C   UNL A   1      42.202  27.479  28.939  1.00  0.00     0.010 A 
ATOM     40  C   UNL A   1      40.967  27.507  29.607  1.00  0.00    -0.014 A 
BRANCH  40  41
ATOM     41  C   UNL A   1      40.730  28.430  30.744  1.00  0.00     0.031 A 
ATOM     42  C   UNL A   1      41.630  28.410  31.950  1.00  0.00     0.074 A 
ATOM     43  C   UNL A   1      39.737  29.334  30.654  1.00  0.00     0.049 A 
ATOM     44  N   UNL A   1      41.579  29.161  33.021  1.00  0.00    -0.248 NA
ATOM     45  C   UNL A   1      42.727  27.428  31.962  1.00  0.00     0.031 C 
ATOM     46  C   UNL A   1      38.825  29.465  29.516  1.00  0.00     0.029 A 
ATOM     47  N   UNL A   1      39.351  30.333  31.510  1.00  0.00    -0.354 N 
ATOM     48  C   UNL A   1      42.618  28.733  33.839  1.00  0.00     0.074 A 
ATOM     49  C   UNL A   1      43.275  27.643  33.152  1.00  0.00     0.031 C 
ATOM     50  C   UNL A   1      38.028  30.524  29.715  1.00  0.00     0.029 A 
ATOM     51  C   UNL A   1      38.323  31.104  31.022  1.00  0.00     0.049 A 
ATOM     52  H   UNL A   1      39.768  30.482  32.389  1.00  0.00     0.167 HD
ATOM     53  C   UNL A   1      42.992  29.213  35.048  1.00  0.00     0.031 A 
ATOM     54  C   UNL A   1      37.677  32.154  31.564  1.00  0.00     0.031 A 
ATOM     55  C   UNL A   1      42.345  30.311  35.715  1.00  0.00     0.049 A 
ATOM     56  C   UNL A   1      38.075  32.635  32.926  1.00  0.00     0.074 A 
ATOM     57  C   UNL A   1      42.668  30.881  36.935  1.00  0.00     0.029 A 
ATOM     58  N   UNL A   1      41.250  31.007  35.226  1.00  0.00    -0.354 N 
ATOM     59  N   UNL A   1      39.050  32.204  33.691  1.00  0.00    -0.248 NA
ATOM     60  C   UNL A   1      37.283  33.724  33.510  1.00  0.00     0.031 C 
ATOM     61  C   UNL A   1      41.737  31.886  37.207  1.00  0.00     0.029 A 
ATOM     62  C   UNL A   1      40.866  31.980  36.133  1.00  0.00     0.049 A 
ATOM     63  H   UNL A   1      40.811  30.835  34.362  1.00  0.00     0.167 HD
ATOM     64  C   UNL A   1      38.984  32.964  34.851  1.00  0.00     0.074 A 
ATOM     65  C   UNL A   1      37.888  33.898  34.678  1.00  0.00     0.031 C 
ATOM     66  C   UNL A   1      39.758  32.886  35.959  1.00  0.00     0.031 A 
BRANCH  53  67
ATOM     67  C   UNL A   1      44.150  28.554  35.749  1.00  0.00    -0.014 A 
ATOM     68  C   UNL A   1      43.906  27.509  36.660  1.00  0.00     0.010 A 
ATOM     69  C   UNL A   1      45.461  29.033  35.593  1.00  0.00     0.010 A 
ATOM     70  C   UNL A   1      44.949  26.967  37.415  1.00  0.00     0.020 A 
ATOM     71  C   UNL A   1      46.511  28.480  36.333  1.00  0.00     0.020 A 
ATOM     72  C   UNL A   1      46.244  27.462  37.254  1.00  0.00     0.054 A 
BRANCH  72  73
ATOM     73  S   UNL A   1      47.591  26.751  38.241  1.00  0.00     0.124 S 
ATOM     74  O   UNL A   1      48.747  26.952  37.374  1.00  0.00    -0.237 OA
ATOM     75  O   UNL A   1      47.563  27.563  39.456  1.00  0.00    -0.237 OA
ATOM     76  O   UNL A   1      47.177  25.362  38.426  1.00  0.00    -0.744 OA
ENDBRANCH  72  73
ENDBRANCH  53  67
BRANCH  54  77
ATOM     77  C   UNL A   1      36.588  32.800  30.785  1.00  0.00    -0.014 A 
ATOM     78  C   UNL A   1      36.890  33.817  29.859  1.00  0.00     0.010 A 
ATOM     79  C   UNL A   1      35.244  32.501  31.064  1.00  0.00     0.010 A 
ATOM     80  C   UNL A   1      35.869  34.573  29.281  1.00  0.00     0.020 A 
ATOM     81  C   UNL A   1      34.218  33.241  30.467  1.00  0.00     0.020 A 
ATOM     82  C   UNL A   1      34.540  34.294  29.607  1.00  0.00     0.054 A 
BRANCH  82  83
ATOM     83  S   UNL A   1      33.231  35.344  28.918  1.00  0.00     0.124 S 
ATOM     84  O   UNL A   1      32.506  34.398  28.074  1.00  0.00    -0.237 OA
ATOM     85  O   UNL A   1      32.520  35.800  30.109  1.00  0.00    -0.237 OA
ATOM     86  O   UNL A   1      33.971  36.381  28.203  1.00  0.00    -0.744 OA
ENDBRANCH  82  83
ENDBRANCH  54  77
BRANCH  66  87
ATOM     87  C   UNL A   1      39.446  33.810  37.103  1.00  0.00    -0.014 A 
ATOM     88  C   UNL A   1      40.044  35.082  37.161  1.00  0.00     0.010 A 
ATOM     89  C   UNL A   1      38.664  33.364  38.183  1.00  0.00     0.010 A 
ATOM     90  C   UNL A   1      39.893  35.881  38.297  1.00  0.00     0.020 A 
ATOM     91  C   UNL A   1      38.495  34.170  39.312  1.00  0.00     0.020 A 
ATOM     92  C   UNL A   1      39.132  35.412  39.371  1.00  0.00     0.054 A 
BRANCH  92  93
ATOM     93  S   UNL A   1      38.976  36.445  40.855  1.00  0.00     0.124 S 
ATOM     94  O   UNL A   1      38.553  37.725  40.295  1.00  0.00    -0.237 OA
ATOM     95  O   UNL A   1      37.967  35.736  41.638  1.00  0.00    -0.237 OA
ATOM     96  O   UNL A   1      40.321  36.425  41.426  1.00  0.00    -0.744 OA
ENDBRANCH  92  93
ENDBRANCH  66  87
ENDBRANCH  40  41
ENDBRANCH  32  35
ENDBRANCH  30  31
ENDBRANCH   1  30
TORSDOF 18
ENDMDL
MODEL 3
REMARK VINA RESULT:     -11.6      6.060     11.639
REMARK SMILES CC(C)N(c1cc2c(cc1Cl)C=C(C(=O)NCCCCNC(=O)c1ccc(-c3c4nc(c(-c5ccc(S(=O)(=O)[O-])cc5)c5ccc([nH]5)c(-c5ccc(S(=O)(=O)[O-])cc5)c5nc(c(-c6ccc(S(=O)(=O)[O-])cc6)c6ccc3[nH]6)C=C5)C=C4)cc1)[C@@H](C(F)(F)F)O2)C(C)C
REMARK SMILES IDX 19 1 18 2 17 3 16 4 14 5 15 6 13 8 5 9 6 10 10 11 7 12 9 13
REMARK SMILES IDX 11 14 8 15 89 16 12 17 84 18 4 19 2 20 1 21 3 22 90 23 91 24
REMARK SMILES IDX 92 25 85 26 86 27 87 28 88 29 20 30 21 31 22 32 23 34 24 35
REMARK SMILES IDX 25 36 83 37 26 38 82 39 27 40 28 41 29 42 76 43 30 44 81 45
REMARK SMILES IDX 75 46 77 47 31 48 80 49 74 50 73 51 32 53 62 54 43 55 61 56
REMARK SMILES IDX 44 57 47 58 60 59 78 60 45 61 46 62 59 64 79 65 48 66 33 67
REMARK SMILES IDX 34 68 42 69 35 70 41 71 36 72 37 73 38 74 39 75 40 76 63 77
REMARK SMILES IDX 64 78 72 79 65 80 71 81 66 82 67 83 68 84 69 85 70 86 49 87
REMARK SMILES IDX 50 88 58 89 51 90 57 91 52 92 53 93 54 94 55 95 56 96
REMARK H PARENT 16 7 21 33 77 52 47 63
REMARK Flexibility Score: inf
ROOT
ATOM      1  C   UNL A   1      34.234  31.457  27.940  1.00  0.00     0.023 C 
ENDROOT
BRANCH   1   2
ATOM      2  C   UNL A   1      33.731  30.467  26.888  1.00  0.00     0.023 C 
BRANCH   2   3
ATOM      3  C   UNL A   1      32.317  29.952  27.138  1.00  0.00     0.116 C 
BRANCH   3   4
ATOM      4  N   UNL A   1      31.458  30.132  25.981  1.00  0.00    -0.352 N 
ATOM      5  C   UNL A   1      31.101  29.408  24.896  1.00  0.00     0.251 C 
ATOM      6  O   UNL A   1      30.313  29.965  24.125  1.00  0.00    -0.270 OA
ATOM      7  H   UNL A   1      31.022  31.014  25.988  1.00  0.00     0.163 HD
BRANCH   5   8
ATOM      8  C   UNL A   1      31.578  28.028  24.584  1.00  0.00     0.067 C 
ATOM      9  C   UNL A   1      32.889  23.135  24.848  1.00  0.00     0.060 A 
ATOM     10  C   UNL A   1      32.644  24.051  23.808  1.00  0.00     0.074 A 
ATOM     11  C   UNL A   1      32.655  23.593  26.167  1.00  0.00     0.065 A 
ATOM     12  C   UNL A   1      32.226  25.356  24.067  1.00  0.00     0.130 A 
ATOM     13  C   UNL A   1      32.181  24.892  26.420  1.00  0.00     0.034 A 
ATOM     14  Cl  UNL A   1      33.020  22.637  27.568  1.00  0.00    -0.082 Cl
ATOM     15  C   UNL A   1      31.973  25.780  25.367  1.00  0.00     0.019 A 
ATOM     16  O   UNL A   1      32.061  26.180  22.988  1.00  0.00    -0.475 OA
ATOM     17  C   UNL A   1      31.486  27.136  25.590  1.00  0.00     0.025 C 
ATOM     18  C   UNL A   1      32.178  27.605  23.272  1.00  0.00     0.314 C 
BRANCH   9  19
ATOM     19  N   UNL A   1      33.360  21.845  24.528  1.00  0.00    -0.365 N 
BRANCH  19  20
ATOM     20  C   UNL A   1      32.338  20.828  24.200  1.00  0.00     0.076 C 
ATOM     21  C   UNL A   1      32.124  20.665  22.695  1.00  0.00     0.030 C 
ATOM     22  C   UNL A   1      32.596  19.478  24.861  1.00  0.00     0.030 C 
ENDBRANCH  19  20
BRANCH  19  23
ATOM     23  C   UNL A   1      34.825  21.700  24.381  1.00  0.00     0.076 C 
ATOM     24  C   UNL A   1      35.445  22.818  23.547  1.00  0.00     0.030 C 
ATOM     25  C   UNL A   1      35.561  21.521  25.705  1.00  0.00     0.030 C 
ENDBRANCH  19  23
ENDBRANCH   9  19
BRANCH  18  26
ATOM     26  C   UNL A   1      33.649  28.044  23.129  1.00  0.00     0.429 C 
ATOM     27  F   UNL A   1      34.300  27.244  22.249  1.00  0.00    -0.167 F 
ATOM     28  F   UNL A   1      33.770  29.309  22.661  1.00  0.00    -0.167 F 
ATOM     29  F   UNL A   1      34.328  27.993  24.299  1.00  0.00    -0.167 F 
ENDBRANCH  18  26
ENDBRANCH   5   8
ENDBRANCH   3   4
ENDBRANCH   2   3
ENDBRANCH   1   2
BRANCH   1  30
ATOM     30  C   UNL A   1      35.571  31.102  28.587  1.00  0.00     0.116 C 
BRANCH  30  31
ATOM     31  N   UNL A   1      35.524  30.996  30.040  1.00  0.00    -0.352 N 
ATOM     32  C   UNL A   1      36.431  30.371  30.865  1.00  0.00     0.251 C 
ATOM     33  H   UNL A   1      34.754  31.422  30.482  1.00  0.00     0.163 HD
ATOM     34  O   UNL A   1      36.240  30.301  32.074  1.00  0.00    -0.269 OA
BRANCH  32  35
ATOM     35  C   UNL A   1      37.610  29.736  30.246  1.00  0.00     0.039 A 
ATOM     36  C   UNL A   1      38.450  28.933  31.019  1.00  0.00     0.014 A 
ATOM     37  C   UNL A   1      37.937  30.056  28.927  1.00  0.00     0.014 A 
ATOM     38  C   UNL A   1      39.702  28.589  30.524  1.00  0.00     0.010 A 
ATOM     39  C   UNL A   1      39.167  29.645  28.407  1.00  0.00     0.010 A 
ATOM     40  C   UNL A   1      40.080  28.957  29.223  1.00  0.00    -0.014 A 
BRANCH  40  41
ATOM     41  C   UNL A   1      41.442  28.621  28.738  1.00  0.00     0.031 A 
ATOM     42  C   UNL A   1      42.556  29.629  28.817  1.00  0.00     0.074 A 
ATOM     43  C   UNL A   1      41.685  27.376  28.289  1.00  0.00     0.049 A 
ATOM     44  N   UNL A   1      43.808  29.494  28.460  1.00  0.00    -0.248 NA
ATOM     45  C   UNL A   1      42.231  30.957  29.365  1.00  0.00     0.031 C 
ATOM     46  C   UNL A   1      40.687  26.308  28.200  1.00  0.00     0.029 A 
ATOM     47  N   UNL A   1      42.845  26.787  27.857  1.00  0.00    -0.354 N 
ATOM     48  C   UNL A   1      44.414  30.718  28.720  1.00  0.00     0.074 A 
ATOM     49  C   UNL A   1      43.391  31.593  29.249  1.00  0.00     0.031 C 
ATOM     50  C   UNL A   1      41.290  25.178  27.805  1.00  0.00     0.029 A 
ATOM     51  C   UNL A   1      42.699  25.456  27.544  1.00  0.00     0.049 A 
ATOM     52  H   UNL A   1      43.699  27.271  27.777  1.00  0.00     0.167 HD
ATOM     53  C   UNL A   1      45.708  31.073  28.541  1.00  0.00     0.031 A 
ATOM     54  C   UNL A   1      43.592  24.558  27.086  1.00  0.00     0.031 A 
ATOM     55  C   UNL A   1      46.724  30.189  28.033  1.00  0.00     0.049 A 
ATOM     56  C   UNL A   1      45.007  24.988  26.847  1.00  0.00     0.074 A 
ATOM     57  C   UNL A   1      48.068  30.455  27.837  1.00  0.00     0.029 A 
ATOM     58  N   UNL A   1      46.515  28.876  27.643  1.00  0.00    -0.354 N 
ATOM     59  N   UNL A   1      45.556  26.156  27.083  1.00  0.00    -0.248 NA
ATOM     60  C   UNL A   1      45.919  23.996  26.265  1.00  0.00     0.031 C 
ATOM     61  C   UNL A   1      48.660  29.319  27.279  1.00  0.00     0.029 A 
ATOM     62  C   UNL A   1      47.698  28.327  27.179  1.00  0.00     0.049 A 
ATOM     63  H   UNL A   1      45.653  28.403  27.690  1.00  0.00     0.167 HD
ATOM     64  C   UNL A   1      46.878  26.042  26.670  1.00  0.00     0.074 A 
ATOM     65  C   UNL A   1      47.052  24.685  26.192  1.00  0.00     0.031 C 
ATOM     66  C   UNL A   1      47.851  26.983  26.682  1.00  0.00     0.031 A 
BRANCH  53  67
ATOM     67  C   UNL A   1      46.114  32.482  28.882  1.00  0.00    -0.014 A 
ATOM     68  C   UNL A   1      46.078  33.475  27.885  1.00  0.00     0.010 A 
ATOM     69  C   UNL A   1      46.632  32.802  30.148  1.00  0.00     0.010 A 
ATOM     70  C   UNL A   1      46.567  34.758  28.142  1.00  0.00     0.020 A 
ATOM     71  C   UNL A   1      47.104  34.091  30.416  1.00  0.00     0.020 A 
ATOM     72  C   UNL A   1      47.087  35.055  29.404  1.00  0.00     0.054 A 
BRANCH  72  73
ATOM     73  S   UNL A   1      47.721  36.725  29.726  1.00  0.00     0.124 S 
ATOM     74  O   UNL A   1      49.137  36.473  29.977  1.00  0.00    -0.237 OA
ATOM     75  O   UNL A   1      47.416  37.431  28.483  1.00  0.00    -0.237 OA
ATOM     76  O   UNL A   1      46.946  37.164  30.884  1.00  0.00    -0.744 OA
ENDBRANCH  72  73
ENDBRANCH  53  67
BRANCH  54  77
ATOM     77  C   UNL A   1      43.136  23.165  26.837  1.00  0.00    -0.014 A 
ATOM     78  C   UNL A   1      42.811  22.324  27.917  1.00  0.00     0.010 A 
ATOM     79  C   UNL A   1      43.159  22.635  25.536  1.00  0.00     0.010 A 
ATOM     80  C   UNL A   1      42.588  20.961  27.712  1.00  0.00     0.020 A 
ATOM     81  C   UNL A   1      42.911  21.275  25.324  1.00  0.00     0.020 A 
ATOM     82  C   UNL A   1      42.663  20.442  26.418  1.00  0.00     0.054 A 
BRANCH  82  83
ATOM     83  S   UNL A   1      42.460  18.655  26.179  1.00  0.00     0.124 S 
ATOM     84  O   UNL A   1      43.422  18.387  25.114  1.00  0.00    -0.237 OA
ATOM     85  O   UNL A   1      42.804  18.112  27.490  1.00  0.00    -0.237 OA
ATOM     86  O   UNL A   1      41.055  18.522  25.802  1.00  0.00    -0.744 OA
ENDBRANCH  82  83
ENDBRANCH  54  77
BRANCH  66  87
ATOM     87  C   UNL A   1      49.201  26.606  26.135  1.00  0.00    -0.014 A 
ATOM     88  C   UNL A   1      50.172  26.049  26.986  1.00  0.00     0.010 A 
ATOM     89  C   UNL A   1      49.544  26.927  24.811  1.00  0.00     0.010 A 
ATOM     90  C   UNL A   1      51.478  25.851  26.531  1.00  0.00     0.020 A 
ATOM     91  C   UNL A   1      50.845  26.711  24.346  1.00  0.00     0.020 A 
ATOM     92  C   UNL A   1      51.808  26.197  25.218  1.00  0.00     0.054 A 
BRANCH  92  93
ATOM     93  S   UNL A   1      53.518  25.969  24.653  1.00  0.00     0.124 S 
ATOM     94  O   UNL A   1      53.662  24.516  24.693  1.00  0.00    -0.237 OA
ATOM     95  O   UNL A   1      53.499  26.564  23.318  1.00  0.00    -0.237 OA
ATOM     96  O   UNL A   1      54.304  26.704  25.641  1.00  0.00    -0.744 OA
ENDBRANCH  92  93
ENDBRANCH  66  87
ENDBRANCH  40  41
ENDBRANCH  32  35
ENDBRANCH  30  31
ENDBRANCH   1  30
TORSDOF 18
ENDMDL
