MODEL 1
REMARK VINA RESULT:     -10.7      0.000      0.000
REMARK SMILES COC(=O)C[C@@H](NC(=O)c1ccccc1C(=O)NCCCCNC(=O)c1ccc(-c2c3nc(c(-c4ccc(S(=O)(=O)[O-])cc4)c4ccc([nH]4)c(-c4ccc(S(=O)(=O)[O-])cc4)c4nc(c(-c5ccc(S(=O)(=O)[O-])cc5)c5ccc2[nH]5)C=C4)C=C3)cc1)c1cccc(C)c1C
REMARK SMILES IDX 19 1 18 2 16 3 17 4 15 6 10 7 11 8 12 9 14 10 13 11 8 12
REMARK SMILES IDX 7 13 9 15 6 16 5 17 3 18 4 19 2 20 1 21 86 22 87 23 92 24
REMARK SMILES IDX 88 25 90 26 93 27 89 28 91 29 20 30 21 31 22 32 23 33 24 34
REMARK SMILES IDX 25 36 26 37 27 38 85 39 28 40 84 41 29 42 30 43 31 44 78 45
REMARK SMILES IDX 32 46 83 47 77 48 79 49 33 50 82 51 76 52 75 53 34 55 64 56
REMARK SMILES IDX 45 57 63 58 46 59 49 60 62 61 80 62 47 63 48 64 61 66 81 67
REMARK SMILES IDX 50 68 35 69 36 70 44 71 37 72 43 73 38 74 39 75 40 76 41 77
REMARK SMILES IDX 42 78 65 79 66 80 74 81 67 82 73 83 68 84 69 85 70 86 71 87
REMARK SMILES IDX 72 88 51 89 52 90 60 91 53 92 59 93 54 94 55 95 56 96 57 97
REMARK SMILES IDX 58 98
REMARK H PARENT 18 5 7 14 23 35 79 54 49 65
REMARK Flexibility Score: inf
ROOT
ATOM      1  C   UNL A   1      33.726  23.352  23.651  1.00  0.00     0.116 C 
ENDROOT
BRANCH   1   2
ATOM      2  N   UNL A   1      33.533  23.474  22.228  1.00  0.00    -0.352 N 
ATOM      3  C   UNL A   1      33.186  24.579  21.488  1.00  0.00     0.252 C 
ATOM      4  O   UNL A   1      33.099  24.432  20.266  1.00  0.00    -0.269 OA
ATOM      5  H   UNL A   1      33.669  22.647  21.712  1.00  0.00     0.163 HD
BRANCH   3   6
ATOM      6  C   UNL A   1      32.834  25.906  22.078  1.00  0.00     0.052 A 
ATOM      7  C   UNL A   1      31.769  26.222  22.932  1.00  0.00     0.052 A 
ATOM      8  C   UNL A   1      31.542  27.572  23.289  1.00  0.00     0.014 A 
ATOM      9  C   UNL A   1      32.417  28.586  22.909  1.00  0.00     0.001 A 
ATOM     10  C   UNL A   1      33.728  26.949  21.729  1.00  0.00     0.014 A 
ATOM     11  C   UNL A   1      33.533  28.268  22.151  1.00  0.00     0.001 A 
BRANCH   7  12
ATOM     12  C   UNL A   1      30.785  25.302  23.540  1.00  0.00     0.252 C 
ATOM     13  N   UNL A   1      30.834  24.864  24.839  1.00  0.00    -0.345 N 
ATOM     14  H   UNL A   1      30.023  24.387  25.125  1.00  0.00     0.164 HD
ATOM     15  O   UNL A   1      29.814  24.970  22.857  1.00  0.00    -0.269 OA
BRANCH  13  16
ATOM     16  C   UNL A   1      31.856  24.966  25.887  1.00  0.00     0.124 C 
BRANCH  16  17
ATOM     17  C   UNL A   1      31.534  24.127  27.128  1.00  0.00     0.152 C 
BRANCH  17  18
ATOM     18  C   UNL A   1      31.913  22.681  26.954  1.00  0.00     0.307 C 
ATOM     19  O   UNL A   1      31.550  21.982  26.025  1.00  0.00    -0.252 OA
BRANCH  18  20
ATOM     20  O   UNL A   1      32.726  22.296  27.980  1.00  0.00    -0.469 OA
ATOM     21  C   UNL A   1      34.128  22.506  27.782  1.00  0.00     0.282 C 
ENDBRANCH  18  20
ENDBRANCH  17  18
ENDBRANCH  16  17
BRANCH  16  22
ATOM     22  C   UNL A   1      32.120  26.405  26.308  1.00  0.00    -0.022 A 
ATOM     23  C   UNL A   1      31.053  27.074  26.941  1.00  0.00     0.006 A 
ATOM     24  C   UNL A   1      33.375  27.055  26.184  1.00  0.00    -0.043 A 
ATOM     25  C   UNL A   1      31.240  28.308  27.549  1.00  0.00     0.001 A 
ATOM     26  C   UNL A   1      33.570  28.284  26.858  1.00  0.00    -0.048 A 
ATOM     27  C   UNL A   1      34.530  26.443  25.425  1.00  0.00     0.045 C 
ATOM     28  C   UNL A   1      32.497  28.895  27.530  1.00  0.00     0.004 A 
ATOM     29  C   UNL A   1      34.912  28.961  26.960  1.00  0.00     0.044 C 
ENDBRANCH  16  22
ENDBRANCH  13  16
ENDBRANCH   7  12
ENDBRANCH   3   6
ENDBRANCH   1   2
BRANCH   1  30
ATOM     30  C   UNL A   1      34.897  22.497  24.098  1.00  0.00     0.023 C 
BRANCH  30  31
ATOM     31  C   UNL A   1      36.282  23.009  23.708  1.00  0.00     0.023 C 
BRANCH  31  32
ATOM     32  C   UNL A   1      37.148  23.582  24.828  1.00  0.00     0.116 C 
BRANCH  32  33
ATOM     33  N   UNL A   1      38.198  22.685  25.296  1.00  0.00    -0.352 N 
ATOM     34  C   UNL A   1      39.260  22.930  26.139  1.00  0.00     0.251 C 
ATOM     35  H   UNL A   1      38.138  21.761  24.958  1.00  0.00     0.163 HD
ATOM     36  O   UNL A   1      40.074  22.041  26.376  1.00  0.00    -0.269 OA
BRANCH  34  37
ATOM     37  C   UNL A   1      39.439  24.268  26.745  1.00  0.00     0.039 A 
ATOM     38  C   UNL A   1      38.916  24.508  28.019  1.00  0.00     0.014 A 
ATOM     39  C   UNL A   1      40.148  25.269  26.079  1.00  0.00     0.014 A 
ATOM     40  C   UNL A   1      39.201  25.711  28.667  1.00  0.00     0.010 A 
ATOM     41  C   UNL A   1      40.494  26.434  26.750  1.00  0.00     0.010 A 
ATOM     42  C   UNL A   1      40.039  26.657  28.056  1.00  0.00    -0.014 A 
BRANCH  42  43
ATOM     43  C   UNL A   1      40.523  27.854  28.782  1.00  0.00     0.031 A 
ATOM     44  C   UNL A   1      41.874  27.851  29.437  1.00  0.00     0.074 A 
ATOM     45  C   UNL A   1      39.682  28.893  28.949  1.00  0.00     0.049 A 
ATOM     46  N   UNL A   1      42.444  28.787  30.150  1.00  0.00    -0.248 NA
ATOM     47  C   UNL A   1      42.675  26.624  29.301  1.00  0.00     0.031 C 
ATOM     48  C   UNL A   1      38.313  28.964  28.428  1.00  0.00     0.029 A 
ATOM     49  N   UNL A   1      39.842  30.080  29.616  1.00  0.00    -0.354 N 
ATOM     50  C   UNL A   1      43.666  28.262  30.554  1.00  0.00     0.074 A 
ATOM     51  C   UNL A   1      43.727  26.905  30.058  1.00  0.00     0.031 C 
ATOM     52  C   UNL A   1      37.770  30.141  28.774  1.00  0.00     0.029 A 
ATOM     53  C   UNL A   1      38.734  30.892  29.569  1.00  0.00     0.049 A 
ATOM     54  H   UNL A   1      40.672  30.327  30.083  1.00  0.00     0.167 HD
ATOM     55  C   UNL A   1      44.652  28.865  31.259  1.00  0.00     0.031 A 
ATOM     56  C   UNL A   1      38.518  32.107  30.109  1.00  0.00     0.031 A 
ATOM     57  C   UNL A   1      44.564  30.210  31.763  1.00  0.00     0.049 A 
ATOM     58  C   UNL A   1      39.628  32.762  30.881  1.00  0.00     0.074 A 
ATOM     59  C   UNL A   1      45.527  30.947  32.429  1.00  0.00     0.029 A 
ATOM     60  N   UNL A   1      43.437  31.016  31.670  1.00  0.00    -0.354 N 
ATOM     61  N   UNL A   1      40.823  32.295  31.160  1.00  0.00    -0.248 NA
ATOM     62  C   UNL A   1      39.371  34.113  31.394  1.00  0.00     0.031 C 
ATOM     63  C   UNL A   1      44.962  32.173  32.794  1.00  0.00     0.029 A 
ATOM     64  C   UNL A   1      43.669  32.231  32.294  1.00  0.00     0.049 A 
ATOM     65  H   UNL A   1      42.596  30.763  31.225  1.00  0.00     0.167 HD
ATOM     66  C   UNL A   1      41.470  33.305  31.860  1.00  0.00     0.074 A 
ATOM     67  C   UNL A   1      40.540  34.414  31.947  1.00  0.00     0.031 C 
ATOM     68  C   UNL A   1      42.723  33.317  32.382  1.00  0.00     0.031 A 
BRANCH  55  69
ATOM     69  C   UNL A   1      45.900  28.063  31.534  1.00  0.00    -0.014 A 
ATOM     70  C   UNL A   1      45.955  27.142  32.598  1.00  0.00     0.010 A 
ATOM     71  C   UNL A   1      47.030  28.217  30.710  1.00  0.00     0.010 A 
ATOM     72  C   UNL A   1      47.131  26.436  32.867  1.00  0.00     0.020 A 
ATOM     73  C   UNL A   1      48.198  27.487  30.955  1.00  0.00     0.020 A 
ATOM     74  C   UNL A   1      48.247  26.618  32.046  1.00  0.00     0.054 A 
BRANCH  74  75
ATOM     75  S   UNL A   1      49.758  25.685  32.419  1.00  0.00     0.124 S 
ATOM     76  O   UNL A   1      49.916  24.873  31.214  1.00  0.00    -0.237 OA
ATOM     77  O   UNL A   1      50.751  26.742  32.596  1.00  0.00    -0.237 OA
ATOM     78  O   UNL A   1      49.418  24.942  33.630  1.00  0.00    -0.744 OA
ENDBRANCH  74  75
ENDBRANCH  55  69
BRANCH  56  79
ATOM     79  C   UNL A   1      37.211  32.785  29.894  1.00  0.00    -0.014 A 
ATOM     80  C   UNL A   1      36.194  32.695  30.862  1.00  0.00     0.010 A 
ATOM     81  C   UNL A   1      36.994  33.572  28.748  1.00  0.00     0.010 A 
ATOM     82  C   UNL A   1      34.985  33.375  30.686  1.00  0.00     0.020 A 
ATOM     83  C   UNL A   1      35.797  34.277  28.583  1.00  0.00     0.020 A 
ATOM     84  C   UNL A   1      34.798  34.168  29.550  1.00  0.00     0.054 A 
BRANCH  84  85
ATOM     85  S   UNL A   1      33.251  35.101  29.384  1.00  0.00     0.124 S 
ATOM     86  O   UNL A   1      33.723  36.389  28.887  1.00  0.00    -0.237 OA
ATOM     87  O   UNL A   1      32.497  34.292  28.430  1.00  0.00    -0.237 OA
ATOM     88  O   UNL A   1      32.710  35.114  30.742  1.00  0.00    -0.744 OA
ENDBRANCH  84  85
ENDBRANCH  56  79
BRANCH  68  89
ATOM     89  C   UNL A   1      43.170  34.578  33.073  1.00  0.00    -0.014 A 
ATOM     90  C   UNL A   1      43.659  35.676  32.344  1.00  0.00     0.010 A 
ATOM     91  C   UNL A   1      43.048  34.682  34.470  1.00  0.00     0.010 A 
ATOM     92  C   UNL A   1      44.052  36.843  33.005  1.00  0.00     0.020 A 
ATOM     93  C   UNL A   1      43.407  35.858  35.131  1.00  0.00     0.020 A 
ATOM     94  C   UNL A   1      43.922  36.927  34.395  1.00  0.00     0.054 A 
BRANCH  94  95
ATOM     95  S   UNL A   1      44.398  38.467  35.224  1.00  0.00     0.124 S 
ATOM     96  O   UNL A   1      43.672  39.468  34.447  1.00  0.00    -0.237 OA
ATOM     97  O   UNL A   1      43.916  38.259  36.587  1.00  0.00    -0.237 OA
ATOM     98  O   UNL A   1      45.851  38.504  35.081  1.00  0.00    -0.744 OA
ENDBRANCH  94  95
ENDBRANCH  68  89
ENDBRANCH  42  43
ENDBRANCH  34  37
ENDBRANCH  32  33
ENDBRANCH  31  32
ENDBRANCH  30  31
ENDBRANCH   1  30
TORSDOF 20
ENDMDL
MODEL 2
REMARK VINA RESULT:     -10.0      2.482      7.441
REMARK SMILES COC(=O)C[C@@H](NC(=O)c1ccccc1C(=O)NCCCCNC(=O)c1ccc(-c2c3nc(c(-c4ccc(S(=O)(=O)[O-])cc4)c4ccc([nH]4)c(-c4ccc(S(=O)(=O)[O-])cc4)c4nc(c(-c5ccc(S(=O)(=O)[O-])cc5)c5ccc2[nH]5)C=C4)C=C3)cc1)c1cccc(C)c1C
REMARK SMILES IDX 19 1 18 2 16 3 17 4 15 6 10 7 11 8 12 9 14 10 13 11 8 12
REMARK SMILES IDX 7 13 9 15 6 16 5 17 3 18 4 19 2 20 1 21 86 22 87 23 92 24
REMARK SMILES IDX 88 25 90 26 93 27 89 28 91 29 20 30 21 31 22 32 23 33 24 34
REMARK SMILES IDX 25 36 26 37 27 38 85 39 28 40 84 41 29 42 30 43 31 44 78 45
REMARK SMILES IDX 32 46 83 47 77 48 79 49 33 50 82 51 76 52 75 53 34 55 64 56
REMARK SMILES IDX 45 57 63 58 46 59 49 60 62 61 80 62 47 63 48 64 61 66 81 67
REMARK SMILES IDX 50 68 35 69 36 70 44 71 37 72 43 73 38 74 39 75 40 76 41 77
REMARK SMILES IDX 42 78 65 79 66 80 74 81 67 82 73 83 68 84 69 85 70 86 71 87
REMARK SMILES IDX 72 88 51 89 52 90 60 91 53 92 59 93 54 94 55 95 56 96 57 97
REMARK SMILES IDX 58 98
REMARK H PARENT 18 5 7 14 23 35 79 54 49 65
REMARK Flexibility Score: inf
ROOT
ATOM      1  C   UNL A   1      34.204  25.303  25.763  1.00  0.00     0.116 C 
ENDROOT
BRANCH   1   2
ATOM      2  N   UNL A   1      35.352  24.856  25.016  1.00  0.00    -0.352 N 
ATOM      3  C   UNL A   1      35.516  23.709  24.277  1.00  0.00     0.252 C 
ATOM      4  O   UNL A   1      36.600  23.558  23.707  1.00  0.00    -0.269 OA
ATOM      5  H   UNL A   1      36.130  25.458  25.038  1.00  0.00     0.163 HD
BRANCH   3   6
ATOM      6  C   UNL A   1      34.504  22.613  24.193  1.00  0.00     0.052 A 
ATOM      7  C   UNL A   1      33.361  22.546  23.386  1.00  0.00     0.052 A 
ATOM      8  C   UNL A   1      32.463  21.463  23.541  1.00  0.00     0.014 A 
ATOM      9  C   UNL A   1      32.742  20.399  24.394  1.00  0.00     0.001 A 
ATOM     10  C   UNL A   1      34.782  21.505  25.032  1.00  0.00     0.014 A 
ATOM     11  C   UNL A   1      33.921  20.405  25.120  1.00  0.00     0.001 A 
BRANCH   7  12
ATOM     12  C   UNL A   1      32.924  23.499  22.344  1.00  0.00     0.252 C 
ATOM     13  N   UNL A   1      32.144  24.601  22.581  1.00  0.00    -0.345 N 
ATOM     14  H   UNL A   1      32.078  25.211  21.812  1.00  0.00     0.164 HD
ATOM     15  O   UNL A   1      33.355  23.334  21.200  1.00  0.00    -0.269 OA
BRANCH  13  16
ATOM     16  C   UNL A   1      31.389  25.054  23.755  1.00  0.00     0.124 C 
BRANCH  16  17
ATOM     17  C   UNL A   1      30.687  23.913  24.499  1.00  0.00     0.152 C 
BRANCH  17  18
ATOM     18  C   UNL A   1      30.836  24.029  25.992  1.00  0.00     0.307 C 
ATOM     19  O   UNL A   1      30.720  25.068  26.617  1.00  0.00    -0.252 OA
BRANCH  18  20
ATOM     20  O   UNL A   1      31.101  22.799  26.519  1.00  0.00    -0.469 OA
ATOM     21  C   UNL A   1      32.273  22.706  27.337  1.00  0.00     0.282 C 
ENDBRANCH  18  20
ENDBRANCH  17  18
ENDBRANCH  16  17
BRANCH  16  22
ATOM     22  C   UNL A   1      30.369  26.133  23.413  1.00  0.00    -0.022 A 
ATOM     23  C   UNL A   1      29.040  25.881  23.808  1.00  0.00     0.006 A 
ATOM     24  C   UNL A   1      30.696  27.380  22.819  1.00  0.00    -0.043 A 
ATOM     25  C   UNL A   1      28.071  26.871  23.736  1.00  0.00     0.001 A 
ATOM     26  C   UNL A   1      29.716  28.400  22.806  1.00  0.00    -0.048 A 
ATOM     27  C   UNL A   1      32.074  27.678  22.275  1.00  0.00     0.045 C 
ATOM     28  C   UNL A   1      28.415  28.130  23.263  1.00  0.00     0.004 A 
ATOM     29  C   UNL A   1      30.010  29.816  22.385  1.00  0.00     0.044 C 
ENDBRANCH  16  22
ENDBRANCH  13  16
ENDBRANCH   7  12
ENDBRANCH   3   6
ENDBRANCH   1   2
BRANCH   1  30
ATOM     30  C   UNL A   1      33.594  26.624  25.329  1.00  0.00     0.023 C 
BRANCH  30  31
ATOM     31  C   UNL A   1      34.102  27.863  26.061  1.00  0.00     0.023 C 
BRANCH  31  32
ATOM     32  C   UNL A   1      33.353  28.273  27.329  1.00  0.00     0.116 C 
BRANCH  32  33
ATOM     33  N   UNL A   1      33.350  29.708  27.588  1.00  0.00    -0.352 N 
ATOM     34  C   UNL A   1      34.372  30.535  27.998  1.00  0.00     0.251 C 
ATOM     35  H   UNL A   1      32.483  30.155  27.447  1.00  0.00     0.163 HD
ATOM     36  O   UNL A   1      34.152  31.725  28.211  1.00  0.00    -0.269 OA
BRANCH  34  37
ATOM     37  C   UNL A   1      35.733  29.993  28.208  1.00  0.00     0.039 A 
ATOM     38  C   UNL A   1      36.664  30.087  27.170  1.00  0.00     0.014 A 
ATOM     39  C   UNL A   1      36.101  29.427  29.430  1.00  0.00     0.014 A 
ATOM     40  C   UNL A   1      37.991  29.717  27.398  1.00  0.00     0.010 A 
ATOM     41  C   UNL A   1      37.433  29.129  29.680  1.00  0.00     0.010 A 
ATOM     42  C   UNL A   1      38.393  29.288  28.673  1.00  0.00    -0.014 A 
BRANCH  42  43
ATOM     43  C   UNL A   1      39.819  29.073  29.010  1.00  0.00     0.031 A 
ATOM     44  C   UNL A   1      40.484  27.763  28.702  1.00  0.00     0.074 A 
ATOM     45  C   UNL A   1      40.469  30.026  29.706  1.00  0.00     0.049 A 
ATOM     46  N   UNL A   1      41.706  27.380  28.963  1.00  0.00    -0.248 NA
ATOM     47  C   UNL A   1      39.657  26.737  28.046  1.00  0.00     0.031 C 
ATOM     48  C   UNL A   1      39.890  31.304  30.134  1.00  0.00     0.029 A 
ATOM     49  N   UNL A   1      41.751  30.065  30.192  1.00  0.00    -0.354 N 
ATOM     50  C   UNL A   1      41.795  26.068  28.511  1.00  0.00     0.074 A 
ATOM     51  C   UNL A   1      40.486  25.703  28.016  1.00  0.00     0.031 C 
ATOM     52  C   UNL A   1      40.820  32.009  30.796  1.00  0.00     0.029 A 
ATOM     53  C   UNL A   1      42.046  31.223  30.872  1.00  0.00     0.049 A 
ATOM     54  H   UNL A   1      42.397  29.333  30.067  1.00  0.00     0.167 HD
ATOM     55  C   UNL A   1      42.876  25.252  28.496  1.00  0.00     0.031 A 
ATOM     56  C   UNL A   1      43.179  31.609  31.489  1.00  0.00     0.031 A 
ATOM     57  C   UNL A   1      44.165  25.627  29.013  1.00  0.00     0.049 A 
ATOM     58  C   UNL A   1      44.369  30.691  31.454  1.00  0.00     0.074 A 
ATOM     59  C   UNL A   1      45.347  24.908  28.987  1.00  0.00     0.029 A 
ATOM     60  N   UNL A   1      44.437  26.821  29.667  1.00  0.00    -0.354 N 
ATOM     61  N   UNL A   1      44.470  29.496  30.922  1.00  0.00    -0.248 NA
ATOM     62  C   UNL A   1      45.602  31.181  32.082  1.00  0.00     0.031 C 
ATOM     63  C   UNL A   1      46.317  25.640  29.681  1.00  0.00     0.029 A 
ATOM     64  C   UNL A   1      45.760  26.847  30.077  1.00  0.00     0.049 A 
ATOM     65  H   UNL A   1      43.786  27.545  29.816  1.00  0.00     0.167 HD
ATOM     66  C   UNL A   1      45.785  29.099  31.129  1.00  0.00     0.074 A 
ATOM     67  C   UNL A   1      46.445  30.190  31.820  1.00  0.00     0.031 C 
ATOM     68  C   UNL A   1      46.394  27.938  30.777  1.00  0.00     0.031 A 
BRANCH  55  69
ATOM     69  C   UNL A   1      42.696  23.872  27.912  1.00  0.00    -0.014 A 
ATOM     70  C   UNL A   1      42.779  23.652  26.523  1.00  0.00     0.010 A 
ATOM     71  C   UNL A   1      42.457  22.776  28.760  1.00  0.00     0.010 A 
ATOM     72  C   UNL A   1      42.570  22.377  25.991  1.00  0.00     0.020 A 
ATOM     73  C   UNL A   1      42.280  21.492  28.234  1.00  0.00     0.020 A 
ATOM     74  C   UNL A   1      42.316  21.306  26.851  1.00  0.00     0.054 A 
BRANCH  74  75
ATOM     75  S   UNL A   1      42.051  19.661  26.132  1.00  0.00     0.124 S 
ATOM     76  O   UNL A   1      43.021  19.650  25.040  1.00  0.00    -0.237 OA
ATOM     77  O   UNL A   1      42.354  18.770  27.248  1.00  0.00    -0.237 OA
ATOM     78  O   UNL A   1      40.649  19.685  25.718  1.00  0.00    -0.744 OA
ENDBRANCH  74  75
ENDBRANCH  55  69
BRANCH  56  79
ATOM     79  C   UNL A   1      43.240  32.940  32.151  1.00  0.00    -0.014 A 
ATOM     80  C   UNL A   1      43.604  34.084  31.418  1.00  0.00     0.010 A 
ATOM     81  C   UNL A   1      42.877  33.083  33.504  1.00  0.00     0.010 A 
ATOM     82  C   UNL A   1      43.609  35.344  32.026  1.00  0.00     0.020 A 
ATOM     83  C   UNL A   1      42.853  34.344  34.107  1.00  0.00     0.020 A 
ATOM     84  C   UNL A   1      43.226  35.466  33.365  1.00  0.00     0.054 A 
BRANCH  84  85
ATOM     85  S   UNL A   1      43.167  37.120  34.107  1.00  0.00     0.124 S 
ATOM     86  O   UNL A   1      44.268  37.066  35.063  1.00  0.00    -0.237 OA
ATOM     87  O   UNL A   1      43.373  37.990  32.952  1.00  0.00    -0.237 OA
ATOM     88  O   UNL A   1      41.830  37.185  34.694  1.00  0.00    -0.744 OA
ENDBRANCH  84  85
ENDBRANCH  56  79
BRANCH  68  89
ATOM     89  C   UNL A   1      47.855  27.798  31.112  1.00  0.00    -0.014 A 
ATOM     90  C   UNL A   1      48.275  27.238  32.331  1.00  0.00     0.010 A 
ATOM     91  C   UNL A   1      48.822  28.186  30.167  1.00  0.00     0.010 A 
ATOM     92  C   UNL A   1      49.638  27.102  32.613  1.00  0.00     0.020 A 
ATOM     93  C   UNL A   1      50.183  28.021  30.430  1.00  0.00     0.020 A 
ATOM     94  C   UNL A   1      50.583  27.493  31.659  1.00  0.00     0.054 A 
BRANCH  94  95
ATOM     95  S   UNL A   1      52.342  27.266  32.032  1.00  0.00     0.124 S 
ATOM     96  O   UNL A   1      52.304  26.822  33.422  1.00  0.00    -0.237 OA
ATOM     97  O   UNL A   1      52.747  26.254  31.059  1.00  0.00    -0.237 OA
ATOM     98  O   UNL A   1      52.916  28.592  31.818  1.00  0.00    -0.744 OA
ENDBRANCH  94  95
ENDBRANCH  68  89
ENDBRANCH  42  43
ENDBRANCH  34  37
ENDBRANCH  32  33
ENDBRANCH  31  32
ENDBRANCH  30  31
ENDBRANCH   1  30
TORSDOF 20
ENDMDL
MODEL 3
REMARK VINA RESULT:     -10.0      2.784      8.742
REMARK SMILES COC(=O)C[C@@H](NC(=O)c1ccccc1C(=O)NCCCCNC(=O)c1ccc(-c2c3nc(c(-c4ccc(S(=O)(=O)[O-])cc4)c4ccc([nH]4)c(-c4ccc(S(=O)(=O)[O-])cc4)c4nc(c(-c5ccc(S(=O)(=O)[O-])cc5)c5ccc2[nH]5)C=C4)C=C3)cc1)c1cccc(C)c1C
REMARK SMILES IDX 19 1 18 2 16 3 17 4 15 6 10 7 11 8 12 9 14 10 13 11 8 12
REMARK SMILES IDX 7 13 9 15 6 16 5 17 3 18 4 19 2 20 1 21 86 22 87 23 92 24
REMARK SMILES IDX 88 25 90 26 93 27 89 28 91 29 20 30 21 31 22 32 23 33 24 34
REMARK SMILES IDX 25 36 26 37 27 38 85 39 28 40 84 41 29 42 30 43 31 44 78 45
REMARK SMILES IDX 32 46 83 47 77 48 79 49 33 50 82 51 76 52 75 53 34 55 64 56
REMARK SMILES IDX 45 57 63 58 46 59 49 60 62 61 80 62 47 63 48 64 61 66 81 67
REMARK SMILES IDX 50 68 35 69 36 70 44 71 37 72 43 73 38 74 39 75 40 76 41 77
REMARK SMILES IDX 42 78 65 79 66 80 74 81 67 82 73 83 68 84 69 85 70 86 71 87
REMARK SMILES IDX 72 88 51 89 52 90 60 91 53 92 59 93 54 94 55 95 56 96 57 97
REMARK SMILES IDX 58 98
REMARK H PARENT 18 5 7 14 23 35 79 54 49 65
REMARK Flexibility Score: inf
ROOT
ATOM      1  C   UNL A   1      34.226  25.182  25.599  1.00  0.00     0.116 C 
ENDROOT
BRANCH   1   2
ATOM      2  N   UNL A   1      34.778  24.999  24.280  1.00  0.00    -0.352 N 
ATOM      3  C   UNL A   1      34.858  23.856  23.521  1.00  0.00     0.252 C 
ATOM      4  O   UNL A   1      35.365  23.960  22.401  1.00  0.00    -0.269 OA
ATOM      5  H   UNL A   1      35.151  25.809  23.863  1.00  0.00     0.163 HD
BRANCH   3   6
ATOM      6  C   UNL A   1      34.448  22.502  23.999  1.00  0.00     0.052 A 
ATOM      7  C   UNL A   1      33.278  21.792  23.700  1.00  0.00     0.052 A 
ATOM      8  C   UNL A   1      33.026  20.561  24.351  1.00  0.00     0.014 A 
ATOM      9  C   UNL A   1      33.964  19.976  25.197  1.00  0.00     0.001 A 
ATOM     10  C   UNL A   1      35.401  21.873  24.839  1.00  0.00     0.014 A 
ATOM     11  C   UNL A   1      35.170  20.620  25.418  1.00  0.00     0.001 A 
BRANCH   7  12
ATOM     12  C   UNL A   1      32.201  22.165  22.758  1.00  0.00     0.252 C 
ATOM     13  N   UNL A   1      31.369  23.243  22.922  1.00  0.00    -0.345 N 
ATOM     14  H   UNL A   1      30.817  23.439  22.132  1.00  0.00     0.164 HD
ATOM     15  O   UNL A   1      32.097  21.510  21.719  1.00  0.00    -0.269 OA
BRANCH  13  16
ATOM     16  C   UNL A   1      31.139  24.164  24.041  1.00  0.00     0.124 C 
BRANCH  16  17
ATOM     17  C   UNL A   1      30.378  23.520  25.206  1.00  0.00     0.152 C 
BRANCH  17  18
ATOM     18  C   UNL A   1      31.143  23.597  26.500  1.00  0.00     0.307 C 
ATOM     19  O   UNL A   1      31.044  24.506  27.304  1.00  0.00    -0.252 OA
BRANCH  18  20
ATOM     20  O   UNL A   1      31.937  22.495  26.624  1.00  0.00    -0.469 OA
ATOM     21  C   UNL A   1      32.843  22.497  27.733  1.00  0.00     0.282 C 
ENDBRANCH  18  20
ENDBRANCH  17  18
ENDBRANCH  16  17
BRANCH  16  22
ATOM     22  C   UNL A   1      30.419  25.436  23.613  1.00  0.00    -0.022 A 
ATOM     23  C   UNL A   1      29.098  25.590  24.077  1.00  0.00     0.006 A 
ATOM     24  C   UNL A   1      31.025  26.483  22.872  1.00  0.00    -0.043 A 
ATOM     25  C   UNL A   1      28.420  26.791  23.925  1.00  0.00     0.001 A 
ATOM     26  C   UNL A   1      30.349  27.722  22.776  1.00  0.00    -0.048 A 
ATOM     27  C   UNL A   1      32.397  26.346  22.253  1.00  0.00     0.045 C 
ATOM     28  C   UNL A   1      29.053  27.858  23.302  1.00  0.00     0.004 A 
ATOM     29  C   UNL A   1      30.978  28.958  22.188  1.00  0.00     0.044 C 
ENDBRANCH  16  22
ENDBRANCH  13  16
ENDBRANCH   7  12
ENDBRANCH   3   6
ENDBRANCH   1   2
BRANCH   1  30
ATOM     30  C   UNL A   1      33.269  26.347  25.770  1.00  0.00     0.023 C 
BRANCH  30  31
ATOM     31  C   UNL A   1      33.908  27.683  26.143  1.00  0.00     0.023 C 
BRANCH  31  32
ATOM     32  C   UNL A   1      33.212  28.504  27.227  1.00  0.00     0.116 C 
BRANCH  32  33
ATOM     33  N   UNL A   1      33.401  29.945  27.105  1.00  0.00    -0.352 N 
ATOM     34  C   UNL A   1      34.482  30.728  27.449  1.00  0.00     0.251 C 
ATOM     35  H   UNL A   1      32.640  30.434  26.716  1.00  0.00     0.163 HD
ATOM     36  O   UNL A   1      34.427  31.947  27.311  1.00  0.00    -0.269 OA
BRANCH  34  37
ATOM     37  C   UNL A   1      35.704  30.108  28.009  1.00  0.00     0.039 A 
ATOM     38  C   UNL A   1      36.857  30.059  27.220  1.00  0.00     0.014 A 
ATOM     39  C   UNL A   1      35.726  29.611  29.313  1.00  0.00     0.014 A 
ATOM     40  C   UNL A   1      38.057  29.615  27.780  1.00  0.00     0.010 A 
ATOM     41  C   UNL A   1      36.931  29.240  29.891  1.00  0.00     0.010 A 
ATOM     42  C   UNL A   1      38.111  29.256  29.136  1.00  0.00    -0.014 A 
BRANCH  42  43
ATOM     43  C   UNL A   1      39.394  28.967  29.816  1.00  0.00     0.031 A 
ATOM     44  C   UNL A   1      39.849  29.810  30.971  1.00  0.00     0.074 A 
ATOM     45  C   UNL A   1      40.199  28.017  29.300  1.00  0.00     0.049 A 
ATOM     46  N   UNL A   1      40.959  29.734  31.658  1.00  0.00    -0.248 NA
ATOM     47  C   UNL A   1      38.956  30.903  31.388  1.00  0.00     0.031 C 
ATOM     48  C   UNL A   1      39.892  27.196  28.124  1.00  0.00     0.029 A 
ATOM     49  N   UNL A   1      41.445  27.591  29.684  1.00  0.00    -0.354 N 
ATOM     50  C   UNL A   1      40.902  30.771  32.582  1.00  0.00     0.074 A 
ATOM     51  C   UNL A   1      39.678  31.497  32.327  1.00  0.00     0.031 C 
ATOM     52  C   UNL A   1      40.910  26.351  27.899  1.00  0.00     0.029 A 
ATOM     53  C   UNL A   1      41.954  26.593  28.888  1.00  0.00     0.049 A 
ATOM     54  H   UNL A   1      41.928  27.965  30.455  1.00  0.00     0.167 HD
ATOM     55  C   UNL A   1      41.785  31.076  33.563  1.00  0.00     0.031 A 
ATOM     56  C   UNL A   1      43.133  25.944  28.948  1.00  0.00     0.031 A 
ATOM     57  C   UNL A   1      43.009  30.353  33.788  1.00  0.00     0.049 A 
ATOM     58  C   UNL A   1      44.094  26.292  30.049  1.00  0.00     0.074 A 
ATOM     59  C   UNL A   1      43.942  30.529  34.793  1.00  0.00     0.029 A 
ATOM     60  N   UNL A   1      43.479  29.326  32.981  1.00  0.00    -0.354 N 
ATOM     61  N   UNL A   1      43.975  27.202  30.987  1.00  0.00    -0.248 NA
ATOM     62  C   UNL A   1      45.337  25.514  30.114  1.00  0.00     0.031 C 
ATOM     63  C   UNL A   1      45.007  29.652  34.558  1.00  0.00     0.029 A 
ATOM     64  C   UNL A   1      44.704  28.878  33.447  1.00  0.00     0.049 A 
ATOM     65  H   UNL A   1      43.010  28.966  32.193  1.00  0.00     0.167 HD
ATOM     66  C   UNL A   1      45.117  27.090  31.770  1.00  0.00     0.074 A 
ATOM     67  C   UNL A   1      45.905  26.013  31.205  1.00  0.00     0.031 C 
ATOM     68  C   UNL A   1      45.480  27.812  32.860  1.00  0.00     0.031 A 
BRANCH  55  69
ATOM     69  C   UNL A   1      41.455  32.249  34.454  1.00  0.00    -0.014 A 
ATOM     70  C   UNL A   1      41.824  33.561  34.097  1.00  0.00     0.010 A 
ATOM     71  C   UNL A   1      40.754  32.043  35.656  1.00  0.00     0.010 A 
ATOM     72  C   UNL A   1      41.549  34.632  34.951  1.00  0.00     0.020 A 
ATOM     73  C   UNL A   1      40.447  33.118  36.497  1.00  0.00     0.020 A 
ATOM     74  C   UNL A   1      40.867  34.403  36.148  1.00  0.00     0.054 A 
BRANCH  74  75
ATOM     75  S   UNL A   1      40.523  35.815  37.234  1.00  0.00     0.124 S 
ATOM     76  O   UNL A   1      39.618  35.225  38.218  1.00  0.00    -0.237 OA
ATOM     77  O   UNL A   1      41.850  36.165  37.735  1.00  0.00    -0.237 OA
ATOM     78  O   UNL A   1      39.916  36.800  36.342  1.00  0.00    -0.744 OA
ENDBRANCH  74  75
ENDBRANCH  55  69
BRANCH  56  79
ATOM     79  C   UNL A   1      43.436  24.878  27.954  1.00  0.00    -0.014 A 
ATOM     80  C   UNL A   1      44.101  25.190  26.755  1.00  0.00     0.010 A 
ATOM     81  C   UNL A   1      43.115  23.535  28.228  1.00  0.00     0.010 A 
ATOM     82  C   UNL A   1      44.434  24.181  25.845  1.00  0.00     0.020 A 
ATOM     83  C   UNL A   1      43.472  22.521  27.334  1.00  0.00     0.020 A 
ATOM     84  C   UNL A   1      44.124  22.852  26.145  1.00  0.00     0.054 A 
BRANCH  84  85
ATOM     85  S   UNL A   1      44.636  21.554  24.985  1.00  0.00     0.124 S 
ATOM     86  O   UNL A   1      44.506  22.227  23.697  1.00  0.00    -0.237 OA
ATOM     87  O   UNL A   1      46.003  21.269  25.416  1.00  0.00    -0.237 OA
ATOM     88  O   UNL A   1      43.678  20.478  25.229  1.00  0.00    -0.744 OA
ENDBRANCH  84  85
ENDBRANCH  56  79
BRANCH  68  89
ATOM     89  C   UNL A   1      46.777  27.442  33.530  1.00  0.00    -0.014 A 
ATOM     90  C   UNL A   1      46.825  26.465  34.540  1.00  0.00     0.010 A 
ATOM     91  C   UNL A   1      47.973  28.048  33.105  1.00  0.00     0.010 A 
ATOM     92  C   UNL A   1      48.043  26.126  35.136  1.00  0.00     0.020 A 
ATOM     93  C   UNL A   1      49.196  27.687  33.674  1.00  0.00     0.020 A 
ATOM     94  C   UNL A   1      49.221  26.738  34.697  1.00  0.00     0.054 A 
BRANCH  94  95
ATOM     95  S   UNL A   1      50.793  26.249  35.456  1.00  0.00     0.124 S 
ATOM     96  O   UNL A   1      51.343  27.536  35.873  1.00  0.00    -0.237 OA
ATOM     97  O   UNL A   1      50.364  25.368  36.540  1.00  0.00    -0.237 OA
ATOM     98  O   UNL A   1      51.512  25.587  34.371  1.00  0.00    -0.744 OA
ENDBRANCH  94  95
ENDBRANCH  68  89
ENDBRANCH  42  43
ENDBRANCH  34  37
ENDBRANCH  32  33
ENDBRANCH  31  32
ENDBRANCH  30  31
ENDBRANCH   1  30
TORSDOF 20
ENDMDL
