MODEL 1
REMARK VINA RESULT:     -11.6      0.000      0.000
REMARK SMILES O=C(NCCCCNC(=O)c1ccc(-c2c3nc(c(-c4ccc(S(=O)(=O)[O-])cc4)c4ccc([nH]4)c(-c4ccc(S(=O)(=O)[O-])cc4)c4nc(c(-c5ccc(S(=O)(=O)[O-])cc5)c5ccc2[nH]5)C=C4)C=C3)cc1)C1=Cc2cc(Cl)cc(Cl)c2O[C@@H]1C(F)(F)F
REMARK SMILES IDX 6 1 5 2 4 3 3 4 1 5 2 6 71 8 72 9 82 10 73 11 81 12 74 13
REMARK SMILES IDX 80 14 75 15 78 16 76 17 77 18 79 19 83 20 84 21 85 22 86 23
REMARK SMILES IDX 7 24 8 25 9 26 10 28 11 29 12 30 70 31 13 32 69 33 14 34
REMARK SMILES IDX 15 35 16 36 63 37 17 38 68 39 62 40 64 41 18 42 67 43 61 44
REMARK SMILES IDX 60 45 19 47 49 48 30 49 48 50 31 51 34 52 47 53 65 54 32 55
REMARK SMILES IDX 33 56 46 58 66 59 35 60 20 61 21 62 29 63 22 64 28 65 23 66
REMARK SMILES IDX 24 67 25 68 26 69 27 70 50 71 51 72 59 73 52 74 58 75 53 76
REMARK SMILES IDX 54 77 55 78 56 79 57 80 36 81 37 82 45 83 38 84 44 85 39 86
REMARK SMILES IDX 40 87 41 88 42 89 43 90
REMARK H PARENT 3 7 8 27 64 46 34 57
REMARK Flexibility Score: inf
ROOT
ATOM      1  C   UNL A   1      32.357  28.441  26.261  1.00  0.00     0.023 C 
ENDROOT
BRANCH   1   2
ATOM      2  C   UNL A   1      31.262  27.470  26.685  1.00  0.00     0.023 C 
BRANCH   2   3
ATOM      3  C   UNL A   1      31.201  26.149  25.931  1.00  0.00     0.116 C 
BRANCH   3   4
ATOM      4  N   UNL A   1      31.511  24.965  26.714  1.00  0.00    -0.352 N 
ATOM      5  O   UNL A   1      32.643  23.124  27.335  1.00  0.00    -0.270 OA
ATOM      6  C   UNL A   1      32.412  23.965  26.467  1.00  0.00     0.251 C 
ATOM      7  H   UNL A   1      30.996  24.868  27.547  1.00  0.00     0.163 HD
BRANCH   6   8
ATOM      8  C   UNL A   1      33.200  23.898  25.201  1.00  0.00     0.067 C 
ATOM      9  C   UNL A   1      34.469  24.337  25.126  1.00  0.00     0.025 C 
ATOM     10  C   UNL A   1      32.750  22.792  24.275  1.00  0.00     0.314 C 
ATOM     11  C   UNL A   1      35.423  23.208  24.980  1.00  0.00     0.020 A 
ATOM     12  O   UNL A   1      33.659  21.661  24.321  1.00  0.00    -0.474 OA
ATOM     13  C   UNL A   1      36.742  23.408  25.408  1.00  0.00     0.032 A 
ATOM     14  C   UNL A   1      34.957  21.912  24.700  1.00  0.00     0.146 A 
ATOM     15  C   UNL A   1      37.563  22.307  25.640  1.00  0.00     0.043 A 
ATOM     16  C   UNL A   1      35.807  20.819  24.916  1.00  0.00     0.085 A 
ATOM     17  Cl  UNL A   1      39.126  22.550  26.311  1.00  0.00    -0.084 Cl
ATOM     18  C   UNL A   1      37.099  21.014  25.409  1.00  0.00     0.045 A 
ATOM     19  Cl  UNL A   1      35.254  19.201  24.683  1.00  0.00    -0.080 Cl
BRANCH  10  20
ATOM     20  C   UNL A   1      32.550  23.290  22.833  1.00  0.00     0.429 C 
ATOM     21  F   UNL A   1      31.342  23.879  22.672  1.00  0.00    -0.167 F 
ATOM     22  F   UNL A   1      33.485  24.205  22.484  1.00  0.00    -0.167 F 
ATOM     23  F   UNL A   1      32.626  22.282  21.929  1.00  0.00    -0.167 F 
ENDBRANCH  10  20
ENDBRANCH   6   8
ENDBRANCH   3   4
ENDBRANCH   2   3
ENDBRANCH   1   2
BRANCH   1  24
ATOM     24  C   UNL A   1      33.463  28.722  27.278  1.00  0.00     0.116 C 
BRANCH  24  25
ATOM     25  N   UNL A   1      33.548  30.102  27.736  1.00  0.00    -0.352 N 
ATOM     26  C   UNL A   1      34.632  30.797  28.235  1.00  0.00     0.251 C 
ATOM     27  H   UNL A   1      32.708  30.614  27.683  1.00  0.00     0.163 HD
ATOM     28  O   UNL A   1      34.504  31.966  28.571  1.00  0.00    -0.269 OA
BRANCH  26  29
ATOM     29  C   UNL A   1      35.933  30.107  28.415  1.00  0.00     0.039 A 
ATOM     30  C   UNL A   1      36.857  30.139  27.367  1.00  0.00     0.014 A 
ATOM     31  C   UNL A   1      36.267  29.488  29.622  1.00  0.00     0.014 A 
ATOM     32  C   UNL A   1      38.151  29.653  27.571  1.00  0.00     0.010 A 
ATOM     33  C   UNL A   1      37.581  29.080  29.850  1.00  0.00     0.010 A 
ATOM     34  C   UNL A   1      38.543  29.175  28.833  1.00  0.00    -0.014 A 
BRANCH  34  35
ATOM     35  C   UNL A   1      39.964  28.833  29.110  1.00  0.00     0.031 A 
ATOM     36  C   UNL A   1      40.882  29.815  29.786  1.00  0.00     0.074 A 
ATOM     37  C   UNL A   1      40.447  27.642  28.697  1.00  0.00     0.049 A 
ATOM     38  N   UNL A   1      42.132  29.659  30.143  1.00  0.00    -0.248 NA
ATOM     39  C   UNL A   1      40.337  31.149  30.075  1.00  0.00     0.031 C 
ATOM     40  C   UNL A   1      39.686  26.627  27.962  1.00  0.00     0.029 A 
ATOM     41  N   UNL A   1      41.690  27.079  28.843  1.00  0.00    -0.354 N 
ATOM     42  C   UNL A   1      42.527  30.879  30.682  1.00  0.00     0.074 A 
ATOM     43  C   UNL A   1      41.399  31.776  30.559  1.00  0.00     0.031 C 
ATOM     44  C   UNL A   1      40.460  25.547  27.771  1.00  0.00     0.029 A 
ATOM     45  C   UNL A   1      41.778  25.800  28.342  1.00  0.00     0.049 A 
ATOM     46  H   UNL A   1      42.447  27.545  29.266  1.00  0.00     0.167 HD
ATOM     47  C   UNL A   1      43.713  31.216  31.245  1.00  0.00     0.031 A 
ATOM     48  C   UNL A   1      42.798  24.919  28.359  1.00  0.00     0.031 A 
ATOM     49  C   UNL A   1      44.832  30.321  31.379  1.00  0.00     0.049 A 
ATOM     50  C   UNL A   1      44.090  25.302  29.024  1.00  0.00     0.074 A 
ATOM     51  C   UNL A   1      46.045  30.545  32.005  1.00  0.00     0.029 A 
ATOM     52  N   UNL A   1      44.877  29.031  30.871  1.00  0.00    -0.354 N 
ATOM     53  N   UNL A   1      44.410  26.428  29.615  1.00  0.00    -0.248 NA
ATOM     54  C   UNL A   1      45.149  24.286  29.040  1.00  0.00     0.031 C 
ATOM     55  C   UNL A   1      46.842  29.405  31.837  1.00  0.00     0.029 A 
ATOM     56  C   UNL A   1      46.105  28.455  31.149  1.00  0.00     0.049 A 
ATOM     57  H   UNL A   1      44.144  28.591  30.384  1.00  0.00     0.167 HD
ATOM     58  C   UNL A   1      45.701  26.247  30.098  1.00  0.00     0.074 A 
ATOM     59  C   UNL A   1      46.093  24.897  29.742  1.00  0.00     0.031 C 
ATOM     60  C   UNL A   1      46.490  27.116  30.778  1.00  0.00     0.031 A 
BRANCH  47  61
ATOM     61  C   UNL A   1      43.854  32.627  31.757  1.00  0.00    -0.014 A 
ATOM     62  C   UNL A   1      43.385  32.989  33.033  1.00  0.00     0.010 A 
ATOM     63  C   UNL A   1      44.475  33.601  30.956  1.00  0.00     0.010 A 
ATOM     64  C   UNL A   1      43.482  34.309  33.476  1.00  0.00     0.020 A 
ATOM     65  C   UNL A   1      44.599  34.920  31.406  1.00  0.00     0.020 A 
ATOM     66  C   UNL A   1      44.081  35.269  32.655  1.00  0.00     0.054 A 
BRANCH  66  67
ATOM     67  S   UNL A   1      44.192  36.980  33.250  1.00  0.00     0.124 S 
ATOM     68  O   UNL A   1      43.393  36.924  34.471  1.00  0.00    -0.237 OA
ATOM     69  O   UNL A   1      45.628  37.159  33.448  1.00  0.00    -0.237 OA
ATOM     70  O   UNL A   1      43.614  37.763  32.161  1.00  0.00    -0.744 OA
ENDBRANCH  66  67
ENDBRANCH  47  61
BRANCH  48  71
ATOM     71  C   UNL A   1      42.614  23.560  27.782  1.00  0.00    -0.014 A 
ATOM     72  C   UNL A   1      43.013  23.294  26.460  1.00  0.00     0.010 A 
ATOM     73  C   UNL A   1      42.059  22.522  28.552  1.00  0.00     0.010 A 
ATOM     74  C   UNL A   1      42.848  22.019  25.913  1.00  0.00     0.020 A 
ATOM     75  C   UNL A   1      41.916  21.239  28.016  1.00  0.00     0.020 A 
ATOM     76  C   UNL A   1      42.303  20.998  26.695  1.00  0.00     0.054 A 
BRANCH  76  77
ATOM     77  S   UNL A   1      42.158  19.334  25.987  1.00  0.00     0.124 S 
ATOM     78  O   UNL A   1      42.715  18.502  27.048  1.00  0.00    -0.237 OA
ATOM     79  O   UNL A   1      40.719  19.205  25.770  1.00  0.00    -0.237 OA
ATOM     80  O   UNL A   1      42.958  19.413  24.767  1.00  0.00    -0.744 OA
ENDBRANCH  76  77
ENDBRANCH  48  71
BRANCH  60  81
ATOM     81  C   UNL A   1      47.846  26.619  31.201  1.00  0.00    -0.014 A 
ATOM     82  C   UNL A   1      48.957  26.713  30.345  1.00  0.00     0.010 A 
ATOM     83  C   UNL A   1      48.008  26.050  32.478  1.00  0.00     0.010 A 
ATOM     84  C   UNL A   1      50.196  26.197  30.738  1.00  0.00     0.020 A 
ATOM     85  C   UNL A   1      49.251  25.558  32.883  1.00  0.00     0.020 A 
ATOM     86  C   UNL A   1      50.331  25.613  32.000  1.00  0.00     0.054 A 
BRANCH  86  87
ATOM     87  S   UNL A   1      51.945  24.947  32.491  1.00  0.00     0.124 S 
ATOM     88  O   UNL A   1      51.760  23.514  32.274  1.00  0.00    -0.237 OA
ATOM     89  O   UNL A   1      52.864  25.608  31.567  1.00  0.00    -0.237 OA
ATOM     90  O   UNL A   1      52.076  25.355  33.887  1.00  0.00    -0.744 OA
ENDBRANCH  86  87
ENDBRANCH  60  81
ENDBRANCH  34  35
ENDBRANCH  26  29
ENDBRANCH  24  25
ENDBRANCH   1  24
TORSDOF 15
ENDMDL
MODEL 2
REMARK VINA RESULT:     -11.4      3.205      9.464
REMARK SMILES O=C(NCCCCNC(=O)c1ccc(-c2c3nc(c(-c4ccc(S(=O)(=O)[O-])cc4)c4ccc([nH]4)c(-c4ccc(S(=O)(=O)[O-])cc4)c4nc(c(-c5ccc(S(=O)(=O)[O-])cc5)c5ccc2[nH]5)C=C4)C=C3)cc1)C1=Cc2cc(Cl)cc(Cl)c2O[C@@H]1C(F)(F)F
REMARK SMILES IDX 6 1 5 2 4 3 3 4 1 5 2 6 71 8 72 9 82 10 73 11 81 12 74 13
REMARK SMILES IDX 80 14 75 15 78 16 76 17 77 18 79 19 83 20 84 21 85 22 86 23
REMARK SMILES IDX 7 24 8 25 9 26 10 28 11 29 12 30 70 31 13 32 69 33 14 34
REMARK SMILES IDX 15 35 16 36 63 37 17 38 68 39 62 40 64 41 18 42 67 43 61 44
REMARK SMILES IDX 60 45 19 47 49 48 30 49 48 50 31 51 34 52 47 53 65 54 32 55
REMARK SMILES IDX 33 56 46 58 66 59 35 60 20 61 21 62 29 63 22 64 28 65 23 66
REMARK SMILES IDX 24 67 25 68 26 69 27 70 50 71 51 72 59 73 52 74 58 75 53 76
REMARK SMILES IDX 54 77 55 78 56 79 57 80 36 81 37 82 45 83 38 84 44 85 39 86
REMARK SMILES IDX 40 87 41 88 42 89 43 90
REMARK H PARENT 3 7 8 27 64 46 34 57
REMARK Flexibility Score: inf
ROOT
ATOM      1  C   UNL A   1      36.517  23.062  23.826  1.00  0.00     0.023 C 
ENDROOT
BRANCH   1   2
ATOM      2  C   UNL A   1      35.240  22.243  23.968  1.00  0.00     0.023 C 
BRANCH   2   3
ATOM      3  C   UNL A   1      33.931  22.990  23.752  1.00  0.00     0.116 C 
BRANCH   3   4
ATOM      4  N   UNL A   1      34.043  24.267  23.068  1.00  0.00    -0.352 N 
ATOM      5  O   UNL A   1      33.982  26.501  22.819  1.00  0.00    -0.270 OA
ATOM      6  C   UNL A   1      33.655  25.515  23.478  1.00  0.00     0.251 C 
ATOM      7  H   UNL A   1      34.460  24.230  22.178  1.00  0.00     0.163 HD
BRANCH   6   8
ATOM      8  C   UNL A   1      32.912  25.739  24.752  1.00  0.00     0.067 C 
ATOM      9  C   UNL A   1      33.498  26.284  25.833  1.00  0.00     0.025 C 
ATOM     10  C   UNL A   1      31.426  25.920  24.553  1.00  0.00     0.314 C 
ATOM     11  C   UNL A   1      32.990  27.657  26.089  1.00  0.00     0.020 A 
ATOM     12  O   UNL A   1      31.045  27.318  24.660  1.00  0.00    -0.474 OA
ATOM     13  C   UNL A   1      33.817  28.538  26.795  1.00  0.00     0.032 A 
ATOM     14  C   UNL A   1      31.860  28.138  25.404  1.00  0.00     0.146 A 
ATOM     15  C   UNL A   1      33.566  29.907  26.742  1.00  0.00     0.043 A 
ATOM     16  C   UNL A   1      31.611  29.516  25.383  1.00  0.00     0.085 A 
ATOM     17  Cl  UNL A   1      34.672  30.995  27.482  1.00  0.00    -0.084 Cl
ATOM     18  C   UNL A   1      32.476  30.402  26.030  1.00  0.00     0.045 A 
ATOM     19  Cl  UNL A   1      30.296  30.169  24.476  1.00  0.00    -0.080 Cl
BRANCH  10  20
ATOM     20  C   UNL A   1      30.602  25.042  25.510  1.00  0.00     0.429 C 
ATOM     21  F   UNL A   1      30.397  23.805  24.999  1.00  0.00    -0.167 F 
ATOM     22  F   UNL A   1      31.223  24.879  26.702  1.00  0.00    -0.167 F 
ATOM     23  F   UNL A   1      29.381  25.574  25.770  1.00  0.00    -0.167 F 
ENDBRANCH  10  20
ENDBRANCH   6   8
ENDBRANCH   3   4
ENDBRANCH   2   3
ENDBRANCH   1   2
BRANCH   1  24
ATOM     24  C   UNL A   1      37.248  23.432  25.116  1.00  0.00     0.116 C 
BRANCH  24  25
ATOM     25  N   UNL A   1      38.435  22.637  25.406  1.00  0.00    -0.352 N 
ATOM     26  C   UNL A   1      39.534  22.951  26.180  1.00  0.00     0.251 C 
ATOM     27  H   UNL A   1      38.454  21.745  24.989  1.00  0.00     0.163 HD
ATOM     28  O   UNL A   1      40.442  22.141  26.306  1.00  0.00    -0.269 OA
BRANCH  26  29
ATOM     29  C   UNL A   1      39.639  24.291  26.807  1.00  0.00     0.039 A 
ATOM     30  C   UNL A   1      39.089  24.478  28.078  1.00  0.00     0.014 A 
ATOM     31  C   UNL A   1      40.322  25.336  26.182  1.00  0.00     0.014 A 
ATOM     32  C   UNL A   1      39.325  25.672  28.765  1.00  0.00     0.010 A 
ATOM     33  C   UNL A   1      40.627  26.493  26.900  1.00  0.00     0.010 A 
ATOM     34  C   UNL A   1      40.147  26.666  28.207  1.00  0.00    -0.014 A 
BRANCH  34  35
ATOM     35  C   UNL A   1      40.555  27.853  29.006  1.00  0.00     0.031 A 
ATOM     36  C   UNL A   1      41.905  27.918  29.667  1.00  0.00     0.074 A 
ATOM     37  C   UNL A   1      39.675  28.861  29.182  1.00  0.00     0.049 A 
ATOM     38  N   UNL A   1      42.436  28.896  30.357  1.00  0.00    -0.248 NA
ATOM     39  C   UNL A   1      42.758  26.725  29.562  1.00  0.00     0.031 C 
ATOM     40  C   UNL A   1      38.305  28.893  28.661  1.00  0.00     0.029 A 
ATOM     41  N   UNL A   1      39.803  30.059  29.841  1.00  0.00    -0.354 N 
ATOM     42  C   UNL A   1      43.675  28.431  30.782  1.00  0.00     0.074 A 
ATOM     43  C   UNL A   1      43.794  27.067  30.313  1.00  0.00     0.031 C 
ATOM     44  C   UNL A   1      37.742  30.071  28.972  1.00  0.00     0.029 A 
ATOM     45  C   UNL A   1      38.695  30.866  29.738  1.00  0.00     0.049 A 
ATOM     46  H   UNL A   1      40.613  30.316  30.340  1.00  0.00     0.167 HD
ATOM     47  C   UNL A   1      44.635  29.084  31.481  1.00  0.00     0.031 A 
ATOM     48  C   UNL A   1      38.474  32.117  30.189  1.00  0.00     0.031 A 
ATOM     49  C   UNL A   1      44.523  30.444  31.937  1.00  0.00     0.049 A 
ATOM     50  C   UNL A   1      39.568  32.835  30.928  1.00  0.00     0.074 A 
ATOM     51  C   UNL A   1      45.471  31.218  32.584  1.00  0.00     0.029 A 
ATOM     52  N   UNL A   1      43.390  31.232  31.802  1.00  0.00    -0.354 N 
ATOM     53  N   UNL A   1      40.770  32.412  31.236  1.00  0.00    -0.248 NA
ATOM     54  C   UNL A   1      39.279  34.208  31.362  1.00  0.00     0.031 C 
ATOM     55  C   UNL A   1      44.895  32.461  32.879  1.00  0.00     0.029 A 
ATOM     56  C   UNL A   1      43.606  32.476  32.372  1.00  0.00     0.049 A 
ATOM     57  H   UNL A   1      42.554  30.949  31.366  1.00  0.00     0.167 HD
ATOM     58  C   UNL A   1      41.393  33.477  31.878  1.00  0.00     0.074 A 
ATOM     59  C   UNL A   1      40.437  34.567  31.898  1.00  0.00     0.031 C 
ATOM     60  C   UNL A   1      42.643  33.548  32.400  1.00  0.00     0.031 A 
BRANCH  47  61
ATOM     61  C   UNL A   1      45.895  28.320  31.798  1.00  0.00    -0.014 A 
ATOM     62  C   UNL A   1      47.004  28.356  30.933  1.00  0.00     0.010 A 
ATOM     63  C   UNL A   1      45.975  27.565  32.981  1.00  0.00     0.010 A 
ATOM     64  C   UNL A   1      48.148  27.607  31.217  1.00  0.00     0.020 A 
ATOM     65  C   UNL A   1      47.130  26.835  33.284  1.00  0.00     0.020 A 
ATOM     66  C   UNL A   1      48.200  26.843  32.387  1.00  0.00     0.054 A 
BRANCH  66  67
ATOM     67  S   UNL A   1      49.695  25.875  32.732  1.00  0.00     0.124 S 
ATOM     68  O   UNL A   1      49.773  25.014  31.555  1.00  0.00    -0.237 OA
ATOM     69  O   UNL A   1      50.729  26.903  32.827  1.00  0.00    -0.237 OA
ATOM     70  O   UNL A   1      49.384  25.193  33.985  1.00  0.00    -0.744 OA
ENDBRANCH  66  67
ENDBRANCH  47  61
BRANCH  48  71
ATOM     71  C   UNL A   1      37.184  32.795  29.894  1.00  0.00    -0.014 A 
ATOM     72  C   UNL A   1      36.110  32.694  30.797  1.00  0.00     0.010 A 
ATOM     73  C   UNL A   1      37.025  33.560  28.725  1.00  0.00     0.010 A 
ATOM     74  C   UNL A   1      34.896  33.332  30.530  1.00  0.00     0.020 A 
ATOM     75  C   UNL A   1      35.820  34.221  28.467  1.00  0.00     0.020 A 
ATOM     76  C   UNL A   1      34.760  34.095  29.368  1.00  0.00     0.054 A 
BRANCH  76  77
ATOM     77  S   UNL A   1      33.197  34.969  29.073  1.00  0.00     0.124 S 
ATOM     78  O   UNL A   1      32.567  34.133  28.057  1.00  0.00    -0.237 OA
ATOM     79  O   UNL A   1      32.567  34.947  30.391  1.00  0.00    -0.237 OA
ATOM     80  O   UNL A   1      33.627  36.290  28.620  1.00  0.00    -0.744 OA
ENDBRANCH  76  77
ENDBRANCH  48  71
BRANCH  60  81
ATOM     81  C   UNL A   1      43.051  34.860  33.013  1.00  0.00    -0.014 A 
ATOM     82  C   UNL A   1      43.626  35.881  32.235  1.00  0.00     0.010 A 
ATOM     83  C   UNL A   1      42.854  35.074  34.389  1.00  0.00     0.010 A 
ATOM     84  C   UNL A   1      44.047  37.072  32.834  1.00  0.00     0.020 A 
ATOM     85  C   UNL A   1      43.249  36.273  34.986  1.00  0.00     0.020 A 
ATOM     86  C   UNL A   1      43.865  37.255  34.208  1.00  0.00     0.054 A 
BRANCH  86  87
ATOM     87  S   UNL A   1      44.420  38.807  34.967  1.00  0.00     0.124 S 
ATOM     88  O   UNL A   1      45.847  38.802  34.656  1.00  0.00    -0.237 OA
ATOM     89  O   UNL A   1      43.627  39.814  34.266  1.00  0.00    -0.237 OA
ATOM     90  O   UNL A   1      44.088  38.637  36.380  1.00  0.00    -0.744 OA
ENDBRANCH  86  87
ENDBRANCH  60  81
ENDBRANCH  34  35
ENDBRANCH  26  29
ENDBRANCH  24  25
ENDBRANCH   1  24
TORSDOF 15
ENDMDL
MODEL 3
REMARK VINA RESULT:     -11.3      4.399      6.846
REMARK SMILES O=C(NCCCCNC(=O)c1ccc(-c2c3nc(c(-c4ccc(S(=O)(=O)[O-])cc4)c4ccc([nH]4)c(-c4ccc(S(=O)(=O)[O-])cc4)c4nc(c(-c5ccc(S(=O)(=O)[O-])cc5)c5ccc2[nH]5)C=C4)C=C3)cc1)C1=Cc2cc(Cl)cc(Cl)c2O[C@@H]1C(F)(F)F
REMARK SMILES IDX 6 1 5 2 4 3 3 4 1 5 2 6 71 8 72 9 82 10 73 11 81 12 74 13
REMARK SMILES IDX 80 14 75 15 78 16 76 17 77 18 79 19 83 20 84 21 85 22 86 23
REMARK SMILES IDX 7 24 8 25 9 26 10 28 11 29 12 30 70 31 13 32 69 33 14 34
REMARK SMILES IDX 15 35 16 36 63 37 17 38 68 39 62 40 64 41 18 42 67 43 61 44
REMARK SMILES IDX 60 45 19 47 49 48 30 49 48 50 31 51 34 52 47 53 65 54 32 55
REMARK SMILES IDX 33 56 46 58 66 59 35 60 20 61 21 62 29 63 22 64 28 65 23 66
REMARK SMILES IDX 24 67 25 68 26 69 27 70 50 71 51 72 59 73 52 74 58 75 53 76
REMARK SMILES IDX 54 77 55 78 56 79 57 80 36 81 37 82 45 83 38 84 44 85 39 86
REMARK SMILES IDX 40 87 41 88 42 89 43 90
REMARK H PARENT 3 7 8 27 64 46 34 57
REMARK Flexibility Score: inf
ROOT
ATOM      1  C   UNL A   1      33.098  33.489  27.967  1.00  0.00     0.023 C 
ENDROOT
BRANCH   1   2
ATOM      2  C   UNL A   1      33.285  34.705  28.866  1.00  0.00     0.023 C 
BRANCH   2   3
ATOM      3  C   UNL A   1      34.130  34.500  30.115  1.00  0.00     0.116 C 
BRANCH   3   4
ATOM      4  N   UNL A   1      35.566  34.444  29.897  1.00  0.00    -0.352 N 
ATOM      5  O   UNL A   1      37.696  33.816  30.249  1.00  0.00    -0.270 OA
ATOM      6  C   UNL A   1      36.549  33.904  30.683  1.00  0.00     0.251 C 
ATOM      7  H   UNL A   1      35.879  34.857  29.061  1.00  0.00     0.163 HD
BRANCH   6   8
ATOM      8  C   UNL A   1      36.265  33.333  32.033  1.00  0.00     0.067 C 
ATOM      9  C   UNL A   1      36.450  32.031  32.309  1.00  0.00     0.025 C 
ATOM     10  C   UNL A   1      36.390  34.345  33.147  1.00  0.00     0.314 C 
ATOM     11  C   UNL A   1      37.609  31.829  33.217  1.00  0.00     0.020 A 
ATOM     12  O   UNL A   1      37.633  34.175  33.880  1.00  0.00    -0.474 OA
ATOM     13  C   UNL A   1      38.255  30.588  33.186  1.00  0.00     0.032 A 
ATOM     14  C   UNL A   1      38.208  32.925  33.862  1.00  0.00     0.146 A 
ATOM     15  C   UNL A   1      39.536  30.467  33.719  1.00  0.00     0.043 A 
ATOM     16  C   UNL A   1      39.487  32.777  34.414  1.00  0.00     0.085 A 
ATOM     17  Cl  UNL A   1      40.386  28.984  33.541  1.00  0.00    -0.084 Cl
ATOM     18  C   UNL A   1      40.161  31.557  34.321  1.00  0.00     0.045 A 
ATOM     19  Cl  UNL A   1      40.309  34.116  35.129  1.00  0.00    -0.080 Cl
BRANCH  10  20
ATOM     20  C   UNL A   1      35.177  34.318  34.092  1.00  0.00     0.429 C 
ATOM     21  F   UNL A   1      34.674  35.558  34.293  1.00  0.00    -0.167 F 
ATOM     22  F   UNL A   1      34.171  33.560  33.597  1.00  0.00    -0.167 F 
ATOM     23  F   UNL A   1      35.489  33.812  35.312  1.00  0.00    -0.167 F 
ENDBRANCH  10  20
ENDBRANCH   6   8
ENDBRANCH   3   4
ENDBRANCH   2   3
ENDBRANCH   1   2
BRANCH   1  24
ATOM     24  C   UNL A   1      34.157  32.391  28.061  1.00  0.00     0.116 C 
BRANCH  24  25
ATOM     25  N   UNL A   1      33.688  31.048  27.749  1.00  0.00    -0.352 N 
ATOM     26  C   UNL A   1      34.359  29.844  27.824  1.00  0.00     0.251 C 
ATOM     27  H   UNL A   1      32.755  30.991  27.438  1.00  0.00     0.163 HD
ATOM     28  O   UNL A   1      33.788  28.808  27.515  1.00  0.00    -0.269 OA
BRANCH  26  29
ATOM     29  C   UNL A   1      35.788  29.817  28.221  1.00  0.00     0.039 A 
ATOM     30  C   UNL A   1      36.111  29.430  29.525  1.00  0.00     0.014 A 
ATOM     31  C   UNL A   1      36.803  30.109  27.308  1.00  0.00     0.014 A 
ATOM     32  C   UNL A   1      37.449  29.226  29.874  1.00  0.00     0.010 A 
ATOM     33  C   UNL A   1      38.130  29.825  27.632  1.00  0.00     0.010 A 
ATOM     34  C   UNL A   1      38.466  29.362  28.914  1.00  0.00    -0.014 A 
BRANCH  34  35
ATOM     35  C   UNL A   1      39.865  28.966  29.226  1.00  0.00     0.031 A 
ATOM     36  C   UNL A   1      40.797  29.903  29.944  1.00  0.00     0.074 A 
ATOM     37  C   UNL A   1      40.316  27.764  28.810  1.00  0.00     0.049 A 
ATOM     38  N   UNL A   1      42.030  29.697  30.335  1.00  0.00    -0.248 NA
ATOM     39  C   UNL A   1      40.292  31.253  30.237  1.00  0.00     0.031 C 
ATOM     40  C   UNL A   1      39.542  26.788  28.037  1.00  0.00     0.029 A 
ATOM     41  N   UNL A   1      41.534  27.153  28.983  1.00  0.00    -0.354 N 
ATOM     42  C   UNL A   1      42.452  30.894  30.904  1.00  0.00     0.074 A 
ATOM     43  C   UNL A   1      41.361  31.833  30.762  1.00  0.00     0.031 C 
ATOM     44  C   UNL A   1      40.282  25.683  27.853  1.00  0.00     0.029 A 
ATOM     45  C   UNL A   1      41.591  25.880  28.466  1.00  0.00     0.049 A 
ATOM     46  H   UNL A   1      42.294  27.585  29.436  1.00  0.00     0.167 HD
ATOM     47  C   UNL A   1      43.631  31.180  31.507  1.00  0.00     0.031 A 
ATOM     48  C   UNL A   1      42.577  24.962  28.499  1.00  0.00     0.031 A 
ATOM     49  C   UNL A   1      44.713  30.242  31.660  1.00  0.00     0.049 A 
ATOM     50  C   UNL A   1      43.861  25.288  29.208  1.00  0.00     0.074 A 
ATOM     51  C   UNL A   1      45.915  30.413  32.325  1.00  0.00     0.029 A 
ATOM     52  N   UNL A   1      44.727  28.960  31.134  1.00  0.00    -0.354 N 
ATOM     53  N   UNL A   1      44.205  26.393  29.825  1.00  0.00    -0.248 NA
ATOM     54  C   UNL A   1      44.883  24.234  29.240  1.00  0.00     0.031 C 
ATOM     55  C   UNL A   1      46.674  29.248  32.163  1.00  0.00     0.029 A 
ATOM     56  C   UNL A   1      45.924  28.334  31.439  1.00  0.00     0.049 A 
ATOM     57  H   UNL A   1      43.994  28.553  30.619  1.00  0.00     0.167 HD
ATOM     58  C   UNL A   1      45.473  26.158  30.343  1.00  0.00     0.074 A 
ATOM     59  C   UNL A   1      45.827  24.800  29.979  1.00  0.00     0.031 C 
ATOM     60  C   UNL A   1      46.272  26.988  31.059  1.00  0.00     0.031 A 
BRANCH  47  61
ATOM     61  C   UNL A   1      43.808  32.577  32.044  1.00  0.00    -0.014 A 
ATOM     62  C   UNL A   1      43.485  32.890  33.377  1.00  0.00     0.010 A 
ATOM     63  C   UNL A   1      44.315  33.588  31.208  1.00  0.00     0.010 A 
ATOM     64  C   UNL A   1      43.612  34.199  33.848  1.00  0.00     0.020 A 
ATOM     65  C   UNL A   1      44.469  34.894  31.683  1.00  0.00     0.020 A 
ATOM     66  C   UNL A   1      44.094  35.195  32.994  1.00  0.00     0.054 A 
BRANCH  66  67
ATOM     67  S   UNL A   1      44.246  36.889  33.627  1.00  0.00     0.124 S 
ATOM     68  O   UNL A   1      44.673  37.617  32.435  1.00  0.00    -0.237 OA
ATOM     69  O   UNL A   1      42.891  37.182  34.090  1.00  0.00    -0.237 OA
ATOM     70  O   UNL A   1      45.250  36.775  34.682  1.00  0.00    -0.744 OA
ENDBRANCH  66  67
ENDBRANCH  47  61
BRANCH  48  71
ATOM     71  C   UNL A   1      42.361  23.619  27.897  1.00  0.00    -0.014 A 
ATOM     72  C   UNL A   1      42.815  23.348  26.594  1.00  0.00     0.010 A 
ATOM     73  C   UNL A   1      41.721  22.599  28.625  1.00  0.00     0.010 A 
ATOM     74  C   UNL A   1      42.621  22.088  26.022  1.00  0.00     0.020 A 
ATOM     75  C   UNL A   1      41.548  21.330  28.066  1.00  0.00     0.020 A 
ATOM     76  C   UNL A   1      41.991  21.085  26.763  1.00  0.00     0.054 A 
BRANCH  76  77
ATOM     77  S   UNL A   1      41.808  19.436  26.027  1.00  0.00     0.124 S 
ATOM     78  O   UNL A   1      40.375  19.381  25.759  1.00  0.00    -0.237 OA
ATOM     79  O   UNL A   1      42.670  19.517  24.851  1.00  0.00    -0.237 OA
ATOM     80  O   UNL A   1      42.284  18.540  27.078  1.00  0.00    -0.744 OA
ENDBRANCH  76  77
ENDBRANCH  48  71
BRANCH  60  81
ATOM     81  C   UNL A   1      47.596  26.436  31.514  1.00  0.00    -0.014 A 
ATOM     82  C   UNL A   1      48.731  26.485  30.686  1.00  0.00     0.010 A 
ATOM     83  C   UNL A   1      47.704  25.860  32.793  1.00  0.00     0.010 A 
ATOM     84  C   UNL A   1      49.937  25.919  31.107  1.00  0.00     0.020 A 
ATOM     85  C   UNL A   1      48.915  25.317  33.228  1.00  0.00     0.020 A 
ATOM     86  C   UNL A   1      50.018  25.329  32.372  1.00  0.00     0.054 A 
BRANCH  86  87
ATOM     87  S   UNL A   1      51.591  24.597  32.901  1.00  0.00     0.124 S 
ATOM     88  O   UNL A   1      51.429  24.549  34.351  1.00  0.00    -0.237 OA
ATOM     89  O   UNL A   1      51.591  23.302  32.225  1.00  0.00    -0.237 OA
ATOM     90  O   UNL A   1      52.592  25.545  32.415  1.00  0.00    -0.744 OA
ENDBRANCH  86  87
ENDBRANCH  60  81
ENDBRANCH  34  35
ENDBRANCH  26  29
ENDBRANCH  24  25
ENDBRANCH   1  24
TORSDOF 15
ENDMDL
