MODEL 1
REMARK VINA RESULT:     -12.3      0.000      0.000
REMARK SMILES O=C(NCCCCNC(=O)c1ccc(-c2c3nc(c(-c4ccc(S(=O)(=O)[O-])cc4)c4ccc([nH]4)c(-c4ccc(S(=O)(=O)[O-])cc4)c4nc(c(-c5ccc(S(=O)(=O)[O-])cc5)c5ccc2[nH]5)C=C4)C=C3)cc1)c1ccc(NS(=O)(=O)C2=Cc3ccccc3CC2)cc1
REMARK SMILES IDX 5 1 4 2 3 3 1 4 2 5 71 7 72 8 90 9 73 10 89 11 74 12 75 13
REMARK SMILES IDX 76 15 77 16 78 17 79 18 80 19 88 20 81 21 87 22 82 23 86 24
REMARK SMILES IDX 83 25 85 26 84 27 6 28 7 29 8 30 9 31 10 33 11 34 12 35
REMARK SMILES IDX 70 36 13 37 69 38 14 39 15 40 16 41 63 42 17 43 68 44 62 45
REMARK SMILES IDX 64 46 18 47 67 48 61 49 60 50 19 52 49 53 30 54 48 55 31 56
REMARK SMILES IDX 34 57 47 58 65 59 32 60 33 61 46 63 66 64 35 65 20 66 21 67
REMARK SMILES IDX 29 68 22 69 28 70 23 71 24 72 25 73 26 74 27 75 50 76 51 77
REMARK SMILES IDX 59 78 52 79 58 80 53 81 54 82 55 83 56 84 57 85 36 86 37 87
REMARK SMILES IDX 45 88 38 89 44 90 39 91 40 92 41 93 42 94 43 95
REMARK H PARENT 3 6 75 14 8 32 64 51 34 62
REMARK Flexibility Score: inf
ROOT
ATOM      1  C   UNL A   1      35.445  21.832  26.407  1.00  0.00     0.023 C 
ENDROOT
BRANCH   1   2
ATOM      2  C   UNL A   1      34.126  21.464  27.079  1.00  0.00     0.116 C 
BRANCH   2   3
ATOM      3  N   UNL A   1      33.545  20.253  26.526  1.00  0.00    -0.352 N 
ATOM      4  O   UNL A   1      32.091  19.043  25.292  1.00  0.00    -0.269 OA
ATOM      5  C   UNL A   1      32.625  20.123  25.517  1.00  0.00     0.251 C 
ATOM      6  H   UNL A   1      33.854  19.411  26.931  1.00  0.00     0.163 HD
BRANCH   5   7
ATOM      7  C   UNL A   1      32.280  21.291  24.680  1.00  0.00     0.039 A 
ATOM      8  C   UNL A   1      31.450  22.296  25.181  1.00  0.00     0.016 A 
ATOM      9  C   UNL A   1      32.871  21.438  23.422  1.00  0.00     0.016 A 
ATOM     10  C   UNL A   1      31.182  23.425  24.411  1.00  0.00     0.027 A 
ATOM     11  C   UNL A   1      32.589  22.569  22.646  1.00  0.00     0.027 A 
ATOM     12  C   UNL A   1      31.728  23.560  23.134  1.00  0.00     0.049 A 
BRANCH  12  13
ATOM     13  N   UNL A   1      31.582  24.788  22.415  1.00  0.00    -0.280 N 
ATOM     14  H   UNL A   1      30.738  24.982  21.947  1.00  0.00     0.180 HD
BRANCH  13  15
ATOM     15  S   UNL A   1      32.855  25.917  22.358  1.00  0.00     0.258 S 
ATOM     16  O   UNL A   1      33.730  25.515  23.446  1.00  0.00    -0.202 OA
ATOM     17  O   UNL A   1      33.358  25.852  21.001  1.00  0.00    -0.202 OA
BRANCH  15  18
ATOM     18  C   UNL A   1      32.203  27.531  22.662  1.00  0.00     0.066 C 
ATOM     19  C   UNL A   1      31.392  27.661  23.736  1.00  0.00     0.026 C 
ATOM     20  C   UNL A   1      33.176  28.661  22.426  1.00  0.00     0.055 C 
ATOM     21  C   UNL A   1      32.104  28.025  24.995  1.00  0.00    -0.021 A 
ATOM     22  C   UNL A   1      34.109  28.812  23.635  1.00  0.00     0.041 C 
ATOM     23  C   UNL A   1      31.465  27.825  26.222  1.00  0.00     0.008 A 
ATOM     24  C   UNL A   1      33.411  28.557  24.956  1.00  0.00    -0.040 A 
ATOM     25  C   UNL A   1      32.140  28.099  27.412  1.00  0.00     0.001 A 
ATOM     26  C   UNL A   1      34.084  28.805  26.158  1.00  0.00     0.004 A 
ATOM     27  C   UNL A   1      33.452  28.571  27.380  1.00  0.00     0.000 A 
ENDBRANCH  15  18
ENDBRANCH  13  15
ENDBRANCH  12  13
ENDBRANCH   5   7
ENDBRANCH   2   3
ENDBRANCH   1   2
BRANCH   1  28
ATOM     28  C   UNL A   1      35.475  23.204  25.736  1.00  0.00     0.023 C 
BRANCH  28  29
ATOM     29  C   UNL A   1      36.810  23.602  25.118  1.00  0.00     0.116 C 
BRANCH  29  30
ATOM     30  N   UNL A   1      37.873  22.647  25.392  1.00  0.00    -0.352 N 
ATOM     31  C   UNL A   1      39.066  22.841  26.050  1.00  0.00     0.251 C 
ATOM     32  H   UNL A   1      37.717  21.733  25.059  1.00  0.00     0.163 HD
ATOM     33  O   UNL A   1      39.904  21.945  26.079  1.00  0.00    -0.269 OA
BRANCH  31  34
ATOM     34  C   UNL A   1      39.342  24.145  26.690  1.00  0.00     0.039 A 
ATOM     35  C   UNL A   1      38.917  24.361  28.002  1.00  0.00     0.014 A 
ATOM     36  C   UNL A   1      40.054  25.136  26.007  1.00  0.00     0.014 A 
ATOM     37  C   UNL A   1      39.275  25.540  28.659  1.00  0.00     0.010 A 
ATOM     38  C   UNL A   1      40.473  26.275  26.687  1.00  0.00     0.010 A 
ATOM     39  C   UNL A   1      40.092  26.488  28.022  1.00  0.00    -0.014 A 
BRANCH  39  40
ATOM     40  C   UNL A   1      40.564  27.709  28.724  1.00  0.00     0.031 A 
ATOM     41  C   UNL A   1      41.930  27.729  29.356  1.00  0.00     0.074 A 
ATOM     42  C   UNL A   1      39.737  28.765  28.867  1.00  0.00     0.049 A 
ATOM     43  N   UNL A   1      42.479  28.653  30.102  1.00  0.00    -0.248 NA
ATOM     44  C   UNL A   1      42.777  26.544  29.144  1.00  0.00     0.031 C 
ATOM     45  C   UNL A   1      38.374  28.856  28.339  1.00  0.00     0.029 A 
ATOM     46  N   UNL A   1      39.921  29.962  29.516  1.00  0.00    -0.354 N 
ATOM     47  C   UNL A   1      43.721  28.149  30.471  1.00  0.00     0.074 A 
ATOM     48  C   UNL A   1      43.828  26.824  29.901  1.00  0.00     0.031 C 
ATOM     49  C   UNL A   1      37.854  30.050  28.667  1.00  0.00     0.029 A 
ATOM     50  C   UNL A   1      38.827  30.793  29.462  1.00  0.00     0.049 A 
ATOM     51  H   UNL A   1      40.757  30.202  29.975  1.00  0.00     0.167 HD
ATOM     52  C   UNL A   1      44.694  28.742  31.204  1.00  0.00     0.031 A 
ATOM     53  C   UNL A   1      38.625  32.012  29.999  1.00  0.00     0.031 A 
ATOM     54  C   UNL A   1      44.598  30.070  31.748  1.00  0.00     0.049 A 
ATOM     55  C   UNL A   1      39.725  32.656  30.798  1.00  0.00     0.074 A 
ATOM     56  C   UNL A   1      45.553  30.780  32.456  1.00  0.00     0.029 A 
ATOM     57  N   UNL A   1      43.487  30.891  31.640  1.00  0.00    -0.354 N 
ATOM     58  N   UNL A   1      40.912  32.184  31.091  1.00  0.00    -0.248 NA
ATOM     59  C   UNL A   1      39.461  34.001  31.330  1.00  0.00     0.031 C 
ATOM     60  C   UNL A   1      45.004  32.017  32.807  1.00  0.00     0.029 A 
ATOM     61  C   UNL A   1      43.727  32.097  32.276  1.00  0.00     0.049 A 
ATOM     62  H   UNL A   1      42.651  30.652  31.178  1.00  0.00     0.167 HD
ATOM     63  C   UNL A   1      41.549  33.187  31.813  1.00  0.00     0.074 A 
ATOM     64  C   UNL A   1      40.619  34.293  31.906  1.00  0.00     0.031 C 
ATOM     65  C   UNL A   1      42.794  33.192  32.349  1.00  0.00     0.031 A 
BRANCH  52  66
ATOM     66  C   UNL A   1      45.950  27.954  31.458  1.00  0.00    -0.014 A 
ATOM     67  C   UNL A   1      47.044  28.030  30.577  1.00  0.00     0.010 A 
ATOM     68  C   UNL A   1      46.053  27.155  32.612  1.00  0.00     0.010 A 
ATOM     69  C   UNL A   1      48.202  27.289  30.823  1.00  0.00     0.020 A 
ATOM     70  C   UNL A   1      47.221  26.432  32.873  1.00  0.00     0.020 A 
ATOM     71  C   UNL A   1      48.281  26.491  31.967  1.00  0.00     0.054 A 
BRANCH  71  72
ATOM     72  S   UNL A   1      49.806  25.556  32.272  1.00  0.00     0.124 S 
ATOM     73  O   UNL A   1      49.389  24.641  33.332  1.00  0.00    -0.237 OA
ATOM     74  O   UNL A   1      50.068  24.938  30.976  1.00  0.00    -0.237 OA
ATOM     75  O   UNL A   1      50.765  26.582  32.676  1.00  0.00    -0.744 OA
ENDBRANCH  71  72
ENDBRANCH  52  66
BRANCH  53  76
ATOM     76  C   UNL A   1      37.330  32.715  29.787  1.00  0.00    -0.014 A 
ATOM     77  C   UNL A   1      36.283  32.572  30.715  1.00  0.00     0.010 A 
ATOM     78  C   UNL A   1      37.138  33.533  28.658  1.00  0.00     0.010 A 
ATOM     79  C   UNL A   1      35.060  33.216  30.507  1.00  0.00     0.020 A 
ATOM     80  C   UNL A   1      35.924  34.198  28.461  1.00  0.00     0.020 A 
ATOM     81  C   UNL A   1      34.887  34.024  29.380  1.00  0.00     0.054 A 
BRANCH  81  82
ATOM     82  S   UNL A   1      33.307  34.886  29.154  1.00  0.00     0.124 S 
ATOM     83  O   UNL A   1      33.741  36.187  28.656  1.00  0.00    -0.237 OA
ATOM     84  O   UNL A   1      32.616  34.036  28.188  1.00  0.00    -0.237 OA
ATOM     85  O   UNL A   1      32.726  34.889  30.495  1.00  0.00    -0.744 OA
ENDBRANCH  81  82
ENDBRANCH  53  76
BRANCH  65  86
ATOM     86  C   UNL A   1      43.247  34.447  33.044  1.00  0.00    -0.014 A 
ATOM     87  C   UNL A   1      43.964  35.442  32.359  1.00  0.00     0.010 A 
ATOM     88  C   UNL A   1      42.890  34.658  34.389  1.00  0.00     0.010 A 
ATOM     89  C   UNL A   1      44.335  36.620  33.014  1.00  0.00     0.020 A 
ATOM     90  C   UNL A   1      43.239  35.843  35.039  1.00  0.00     0.020 A 
ATOM     91  C   UNL A   1      43.970  36.812  34.350  1.00  0.00     0.054 A 
BRANCH  91  92
ATOM     92  S   UNL A   1      44.415  38.372  35.163  1.00  0.00     0.124 S 
ATOM     93  O   UNL A   1      43.517  39.321  34.511  1.00  0.00    -0.237 OA
ATOM     94  O   UNL A   1      44.126  38.097  36.569  1.00  0.00    -0.237 OA
ATOM     95  O   UNL A   1      45.832  38.535  34.846  1.00  0.00    -0.744 OA
ENDBRANCH  91  92
ENDBRANCH  65  86
ENDBRANCH  39  40
ENDBRANCH  31  34
ENDBRANCH  29  30
ENDBRANCH  28  29
ENDBRANCH   1  28
TORSDOF 17
ENDMDL
MODEL 2
REMARK VINA RESULT:     -12.0      2.556      9.212
REMARK SMILES O=C(NCCCCNC(=O)c1ccc(-c2c3nc(c(-c4ccc(S(=O)(=O)[O-])cc4)c4ccc([nH]4)c(-c4ccc(S(=O)(=O)[O-])cc4)c4nc(c(-c5ccc(S(=O)(=O)[O-])cc5)c5ccc2[nH]5)C=C4)C=C3)cc1)c1ccc(NS(=O)(=O)C2=Cc3ccccc3CC2)cc1
REMARK SMILES IDX 5 1 4 2 3 3 1 4 2 5 71 7 72 8 90 9 73 10 89 11 74 12 75 13
REMARK SMILES IDX 76 15 77 16 78 17 79 18 80 19 88 20 81 21 87 22 82 23 86 24
REMARK SMILES IDX 83 25 85 26 84 27 6 28 7 29 8 30 9 31 10 33 11 34 12 35
REMARK SMILES IDX 70 36 13 37 69 38 14 39 15 40 16 41 63 42 17 43 68 44 62 45
REMARK SMILES IDX 64 46 18 47 67 48 61 49 60 50 19 52 49 53 30 54 48 55 31 56
REMARK SMILES IDX 34 57 47 58 65 59 32 60 33 61 46 63 66 64 35 65 20 66 21 67
REMARK SMILES IDX 29 68 22 69 28 70 23 71 24 72 25 73 26 74 27 75 50 76 51 77
REMARK SMILES IDX 59 78 52 79 58 80 53 81 54 82 55 83 56 84 57 85 36 86 37 87
REMARK SMILES IDX 45 88 38 89 44 90 39 91 40 92 41 93 42 94 43 95
REMARK H PARENT 3 6 75 14 8 32 64 51 34 62
REMARK Flexibility Score: inf
ROOT
ATOM      1  C   UNL A   1      33.275  29.365  24.664  1.00  0.00     0.023 C 
ENDROOT
BRANCH   1   2
ATOM      2  C   UNL A   1      33.251  29.010  23.180  1.00  0.00     0.116 C 
BRANCH   2   3
ATOM      3  N   UNL A   1      32.034  29.460  22.527  1.00  0.00    -0.352 N 
ATOM      4  O   UNL A   1      29.993  29.225  21.588  1.00  0.00    -0.269 OA
ATOM      5  C   UNL A   1      30.863  28.773  22.323  1.00  0.00     0.251 C 
ATOM      6  H   UNL A   1      32.051  30.381  22.183  1.00  0.00     0.163 HD
BRANCH   5   7
ATOM      7  C   UNL A   1      30.638  27.482  23.006  1.00  0.00     0.039 A 
ATOM      8  C   UNL A   1      31.037  26.288  22.403  1.00  0.00     0.016 A 
ATOM      9  C   UNL A   1      30.119  27.469  24.303  1.00  0.00     0.016 A 
ATOM     10  C   UNL A   1      30.880  25.081  23.081  1.00  0.00     0.027 A 
ATOM     11  C   UNL A   1      29.952  26.251  24.976  1.00  0.00     0.027 A 
ATOM     12  C   UNL A   1      30.319  25.050  24.358  1.00  0.00     0.049 A 
BRANCH  12  13
ATOM     13  N   UNL A   1      30.309  23.834  25.111  1.00  0.00    -0.280 N 
ATOM     14  H   UNL A   1      29.451  23.421  25.359  1.00  0.00     0.180 HD
BRANCH  13  15
ATOM     15  S   UNL A   1      31.767  23.095  25.584  1.00  0.00     0.258 S 
ATOM     16  O   UNL A   1      32.691  24.206  25.735  1.00  0.00    -0.202 OA
ATOM     17  O   UNL A   1      31.430  22.308  26.753  1.00  0.00    -0.202 OA
BRANCH  15  18
ATOM     18  C   UNL A   1      32.311  22.019  24.293  1.00  0.00     0.066 C 
ATOM     19  C   UNL A   1      33.252  22.509  23.456  1.00  0.00     0.026 C 
ATOM     20  C   UNL A   1      32.474  20.574  24.700  1.00  0.00     0.055 C 
ATOM     21  C   UNL A   1      34.652  22.230  23.886  1.00  0.00    -0.021 A 
ATOM     22  C   UNL A   1      33.814  20.380  25.423  1.00  0.00     0.041 C 
ATOM     23  C   UNL A   1      35.697  22.980  23.338  1.00  0.00     0.008 A 
ATOM     24  C   UNL A   1      34.927  21.227  24.840  1.00  0.00    -0.040 A 
ATOM     25  C   UNL A   1      37.005  22.777  23.776  1.00  0.00     0.001 A 
ATOM     26  C   UNL A   1      36.242  21.050  25.288  1.00  0.00     0.004 A 
ATOM     27  C   UNL A   1      37.274  21.827  24.761  1.00  0.00     0.000 A 
ENDBRANCH  15  18
ENDBRANCH  13  15
ENDBRANCH  12  13
ENDBRANCH   5   7
ENDBRANCH   2   3
ENDBRANCH   1   2
BRANCH   1  28
ATOM     28  C   UNL A   1      33.710  28.236  25.597  1.00  0.00     0.023 C 
BRANCH  28  29
ATOM     29  C   UNL A   1      33.439  28.470  27.078  1.00  0.00     0.116 C 
BRANCH  29  30
ATOM     30  N   UNL A   1      33.360  29.880  27.428  1.00  0.00    -0.352 N 
ATOM     31  C   UNL A   1      34.304  30.678  28.033  1.00  0.00     0.251 C 
ATOM     32  H   UNL A   1      32.512  30.326  27.201  1.00  0.00     0.163 HD
ATOM     33  O   UNL A   1      34.017  31.824  28.367  1.00  0.00    -0.269 OA
BRANCH  31  34
ATOM     34  C   UNL A   1      35.652  30.135  28.307  1.00  0.00     0.039 A 
ATOM     35  C   UNL A   1      36.628  30.205  27.311  1.00  0.00     0.014 A 
ATOM     36  C   UNL A   1      35.959  29.594  29.559  1.00  0.00     0.014 A 
ATOM     37  C   UNL A   1      37.935  29.806  27.596  1.00  0.00     0.010 A 
ATOM     38  C   UNL A   1      37.278  29.268  29.863  1.00  0.00     0.010 A 
ATOM     39  C   UNL A   1      38.281  29.374  28.886  1.00  0.00    -0.014 A 
BRANCH  39  40
ATOM     40  C   UNL A   1      39.681  29.029  29.245  1.00  0.00     0.031 A 
ATOM     41  C   UNL A   1      40.562  30.058  29.898  1.00  0.00     0.074 A 
ATOM     42  C   UNL A   1      40.183  27.824  28.908  1.00  0.00     0.049 A 
ATOM     43  N   UNL A   1      41.836  29.988  30.187  1.00  0.00    -0.248 NA
ATOM     44  C   UNL A   1      39.937  31.345  30.246  1.00  0.00     0.031 C 
ATOM     45  C   UNL A   1      39.446  26.752  28.235  1.00  0.00     0.029 A 
ATOM     46  N   UNL A   1      41.443  27.303  29.076  1.00  0.00    -0.354 N 
ATOM     47  C   UNL A   1      42.169  31.227  30.723  1.00  0.00     0.074 A 
ATOM     48  C   UNL A   1      40.976  32.042  30.682  1.00  0.00     0.031 C 
ATOM     49  C   UNL A   1      40.260  25.697  28.065  1.00  0.00     0.029 A 
ATOM     50  C   UNL A   1      41.585  26.028  28.579  1.00  0.00     0.049 A 
ATOM     51  H   UNL A   1      42.175  27.795  29.511  1.00  0.00     0.167 HD
ATOM     52  C   UNL A   1      43.358  31.644  31.221  1.00  0.00     0.031 A 
ATOM     53  C   UNL A   1      42.663  25.221  28.532  1.00  0.00     0.031 A 
ATOM     54  C   UNL A   1      44.538  30.825  31.287  1.00  0.00     0.049 A 
ATOM     55  C   UNL A   1      43.968  25.701  29.104  1.00  0.00     0.074 A 
ATOM     56  C   UNL A   1      45.774  31.139  31.826  1.00  0.00     0.029 A 
ATOM     57  N   UNL A   1      44.629  29.528  30.805  1.00  0.00    -0.354 N 
ATOM     58  N   UNL A   1      44.249  26.858  29.655  1.00  0.00    -0.248 NA
ATOM     59  C   UNL A   1      45.100  24.764  29.058  1.00  0.00     0.031 C 
ATOM     60  C   UNL A   1      46.623  30.044  31.637  1.00  0.00     0.029 A 
ATOM     61  C   UNL A   1      45.902  29.031  31.024  1.00  0.00     0.049 A 
ATOM     62  H   UNL A   1      43.896  29.034  30.372  1.00  0.00     0.167 HD
ATOM     63  C   UNL A   1      45.579  26.775  30.050  1.00  0.00     0.074 A 
ATOM     64  C   UNL A   1      46.045  25.454  29.682  1.00  0.00     0.031 C 
ATOM     65  C   UNL A   1      46.345  27.710  30.664  1.00  0.00     0.031 A 
BRANCH  52  66
ATOM     66  C   UNL A   1      43.437  33.056  31.737  1.00  0.00    -0.014 A 
ATOM     67  C   UNL A   1      43.068  33.366  33.058  1.00  0.00     0.010 A 
ATOM     68  C   UNL A   1      43.924  34.079  30.903  1.00  0.00     0.010 A 
ATOM     69  C   UNL A   1      43.142  34.681  33.523  1.00  0.00     0.020 A 
ATOM     70  C   UNL A   1      44.024  35.392  31.373  1.00  0.00     0.020 A 
ATOM     71  C   UNL A   1      43.615  35.687  32.675  1.00  0.00     0.054 A 
BRANCH  71  72
ATOM     72  S   UNL A   1      43.721  37.382  33.312  1.00  0.00     0.124 S 
ATOM     73  O   UNL A   1      43.736  38.165  32.078  1.00  0.00    -0.237 OA
ATOM     74  O   UNL A   1      42.508  37.500  34.115  1.00  0.00    -0.237 OA
ATOM     75  O   UNL A   1      44.971  37.389  34.070  1.00  0.00    -0.744 OA
ENDBRANCH  71  72
ENDBRANCH  52  66
BRANCH  53  76
ATOM     76  C   UNL A   1      42.550  23.862  27.934  1.00  0.00    -0.014 A 
ATOM     77  C   UNL A   1      42.262  22.750  28.746  1.00  0.00     0.010 A 
ATOM     78  C   UNL A   1      42.728  23.673  26.551  1.00  0.00     0.010 A 
ATOM     79  C   UNL A   1      42.176  21.471  28.189  1.00  0.00     0.020 A 
ATOM     80  C   UNL A   1      42.617  22.399  25.988  1.00  0.00     0.020 A 
ATOM     81  C   UNL A   1      42.355  21.303  26.814  1.00  0.00     0.054 A 
BRANCH  81  82
ATOM     82  S   UNL A   1      42.193  19.640  26.105  1.00  0.00     0.124 S 
ATOM     83  O   UNL A   1      42.585  18.794  27.227  1.00  0.00    -0.237 OA
ATOM     84  O   UNL A   1      40.781  19.589  25.735  1.00  0.00    -0.237 OA
ATOM     85  O   UNL A   1      43.124  19.660  24.978  1.00  0.00    -0.744 OA
ENDBRANCH  81  82
ENDBRANCH  53  76
BRANCH  65  86
ATOM     86  C   UNL A   1      47.755  27.326  31.023  1.00  0.00    -0.014 A 
ATOM     87  C   UNL A   1      48.827  27.595  30.156  1.00  0.00     0.010 A 
ATOM     88  C   UNL A   1      48.013  26.748  32.280  1.00  0.00     0.010 A 
ATOM     89  C   UNL A   1      50.134  27.270  30.531  1.00  0.00     0.020 A 
ATOM     90  C   UNL A   1      49.320  26.444  32.667  1.00  0.00     0.020 A 
ATOM     91  C   UNL A   1      50.372  26.697  31.785  1.00  0.00     0.054 A 
BRANCH  91  92
ATOM     92  S   UNL A   1      52.082  26.335  32.272  1.00  0.00     0.124 S 
ATOM     93  O   UNL A   1      51.937  26.046  33.696  1.00  0.00    -0.237 OA
ATOM     94  O   UNL A   1      52.422  25.191  31.429  1.00  0.00    -0.237 OA
ATOM     95  O   UNL A   1      52.799  27.568  31.957  1.00  0.00    -0.744 OA
ENDBRANCH  91  92
ENDBRANCH  65  86
ENDBRANCH  39  40
ENDBRANCH  31  34
ENDBRANCH  29  30
ENDBRANCH  28  29
ENDBRANCH   1  28
TORSDOF 17
ENDMDL
MODEL 3
REMARK VINA RESULT:     -11.5      1.197      2.165
REMARK SMILES O=C(NCCCCNC(=O)c1ccc(-c2c3nc(c(-c4ccc(S(=O)(=O)[O-])cc4)c4ccc([nH]4)c(-c4ccc(S(=O)(=O)[O-])cc4)c4nc(c(-c5ccc(S(=O)(=O)[O-])cc5)c5ccc2[nH]5)C=C4)C=C3)cc1)c1ccc(NS(=O)(=O)C2=Cc3ccccc3CC2)cc1
REMARK SMILES IDX 5 1 4 2 3 3 1 4 2 5 71 7 72 8 90 9 73 10 89 11 74 12 75 13
REMARK SMILES IDX 76 15 77 16 78 17 79 18 80 19 88 20 81 21 87 22 82 23 86 24
REMARK SMILES IDX 83 25 85 26 84 27 6 28 7 29 8 30 9 31 10 33 11 34 12 35
REMARK SMILES IDX 70 36 13 37 69 38 14 39 15 40 16 41 63 42 17 43 68 44 62 45
REMARK SMILES IDX 64 46 18 47 67 48 61 49 60 50 19 52 49 53 30 54 48 55 31 56
REMARK SMILES IDX 34 57 47 58 65 59 32 60 33 61 46 63 66 64 35 65 20 66 21 67
REMARK SMILES IDX 29 68 22 69 28 70 23 71 24 72 25 73 26 74 27 75 50 76 51 77
REMARK SMILES IDX 59 78 52 79 58 80 53 81 54 82 55 83 56 84 57 85 36 86 37 87
REMARK SMILES IDX 45 88 38 89 44 90 39 91 40 92 41 93 42 94 43 95
REMARK H PARENT 3 6 75 14 8 32 64 51 34 62
REMARK Flexibility Score: inf
ROOT
ATOM      1  C   UNL A   1      35.300  21.336  25.938  1.00  0.00     0.023 C 
ENDROOT
BRANCH   1   2
ATOM      2  C   UNL A   1      35.356  20.151  24.977  1.00  0.00     0.116 C 
BRANCH   2   3
ATOM      3  N   UNL A   1      34.241  19.238  25.165  1.00  0.00    -0.352 N 
ATOM      4  O   UNL A   1      32.073  18.661  25.429  1.00  0.00    -0.269 OA
ATOM      5  C   UNL A   1      32.896  19.488  25.054  1.00  0.00     0.251 C 
ATOM      6  H   UNL A   1      34.483  18.316  25.405  1.00  0.00     0.163 HD
BRANCH   5   7
ATOM      7  C   UNL A   1      32.431  20.760  24.464  1.00  0.00     0.039 A 
ATOM      8  C   UNL A   1      32.473  20.953  23.082  1.00  0.00     0.016 A 
ATOM      9  C   UNL A   1      31.851  21.731  25.286  1.00  0.00     0.016 A 
ATOM     10  C   UNL A   1      31.972  22.129  22.528  1.00  0.00     0.027 A 
ATOM     11  C   UNL A   1      31.360  22.918  24.725  1.00  0.00     0.027 A 
ATOM     12  C   UNL A   1      31.435  23.126  23.343  1.00  0.00     0.049 A 
BRANCH  12  13
ATOM     13  N   UNL A   1      30.778  24.255  22.761  1.00  0.00    -0.280 N 
ATOM     14  H   UNL A   1      29.880  24.151  22.373  1.00  0.00     0.180 HD
BRANCH  13  15
ATOM     15  S   UNL A   1      31.536  25.779  22.729  1.00  0.00     0.258 S 
ATOM     16  O   UNL A   1      32.950  25.471  22.865  1.00  0.00    -0.202 OA
ATOM     17  O   UNL A   1      31.076  26.404  21.506  1.00  0.00    -0.202 OA
BRANCH  15  18
ATOM     18  C   UNL A   1      30.979  26.725  24.113  1.00  0.00     0.066 C 
ATOM     19  C   UNL A   1      31.106  28.067  24.016  1.00  0.00     0.026 C 
ATOM     20  C   UNL A   1      29.706  26.224  24.751  1.00  0.00     0.055 C 
ATOM     21  C   UNL A   1      29.913  28.750  23.436  1.00  0.00    -0.021 A 
ATOM     22  C   UNL A   1      28.491  26.698  23.941  1.00  0.00     0.041 C 
ATOM     23  C   UNL A   1      30.046  30.049  22.938  1.00  0.00     0.008 A 
ATOM     24  C   UNL A   1      28.665  28.095  23.378  1.00  0.00    -0.040 A 
ATOM     25  C   UNL A   1      28.957  30.679  22.334  1.00  0.00     0.001 A 
ATOM     26  C   UNL A   1      27.588  28.729  22.747  1.00  0.00     0.004 A 
ATOM     27  C   UNL A   1      27.737  30.013  22.223  1.00  0.00     0.000 A 
ENDBRANCH  15  18
ENDBRANCH  13  15
ENDBRANCH  12  13
ENDBRANCH   5   7
ENDBRANCH   2   3
ENDBRANCH   1   2
BRANCH   1  28
ATOM     28  C   UNL A   1      35.641  22.691  25.320  1.00  0.00     0.023 C 
BRANCH  28  29
ATOM     29  C   UNL A   1      36.825  23.417  25.948  1.00  0.00     0.116 C 
BRANCH  29  30
ATOM     30  N   UNL A   1      38.043  22.621  25.959  1.00  0.00    -0.352 N 
ATOM     31  C   UNL A   1      39.312  22.981  26.352  1.00  0.00     0.251 C 
ATOM     32  H   UNL A   1      37.946  21.694  25.640  1.00  0.00     0.163 HD
ATOM     33  O   UNL A   1      40.251  22.212  26.174  1.00  0.00    -0.269 OA
BRANCH  31  34
ATOM     34  C   UNL A   1      39.538  24.312  26.956  1.00  0.00     0.039 A 
ATOM     35  C   UNL A   1      39.132  24.537  28.273  1.00  0.00     0.014 A 
ATOM     36  C   UNL A   1      40.186  25.319  26.236  1.00  0.00     0.014 A 
ATOM     37  C   UNL A   1      39.447  25.747  28.896  1.00  0.00     0.010 A 
ATOM     38  C   UNL A   1      40.564  26.493  26.881  1.00  0.00     0.010 A 
ATOM     39  C   UNL A   1      40.202  26.718  28.219  1.00  0.00    -0.014 A 
BRANCH  39  40
ATOM     40  C   UNL A   1      40.629  27.977  28.883  1.00  0.00     0.031 A 
ATOM     41  C   UNL A   1      41.990  28.062  29.520  1.00  0.00     0.074 A 
ATOM     42  C   UNL A   1      39.767  29.008  28.988  1.00  0.00     0.049 A 
ATOM     43  N   UNL A   1      42.504  29.027  30.239  1.00  0.00    -0.248 NA
ATOM     44  C   UNL A   1      42.878  26.900  29.351  1.00  0.00     0.031 C 
ATOM     45  C   UNL A   1      38.405  29.037  28.450  1.00  0.00     0.029 A 
ATOM     46  N   UNL A   1      39.907  30.231  29.597  1.00  0.00    -0.354 N 
ATOM     47  C   UNL A   1      43.760  28.578  30.629  1.00  0.00     0.074 A 
ATOM     48  C   UNL A   1      43.914  27.240  30.104  1.00  0.00     0.031 C 
ATOM     49  C   UNL A   1      37.843  30.223  28.737  1.00  0.00     0.029 A 
ATOM     50  C   UNL A   1      38.787  31.023  29.512  1.00  0.00     0.049 A 
ATOM     51  H   UNL A   1      40.732  30.513  30.053  1.00  0.00     0.167 HD
ATOM     52  C   UNL A   1      44.708  29.227  31.347  1.00  0.00     0.031 A 
ATOM     53  C   UNL A   1      38.541  32.252  30.008  1.00  0.00     0.031 A 
ATOM     54  C   UNL A   1      44.565  30.568  31.847  1.00  0.00     0.049 A 
ATOM     55  C   UNL A   1      39.615  32.957  30.790  1.00  0.00     0.074 A 
ATOM     56  C   UNL A   1      45.492  31.332  32.536  1.00  0.00     0.029 A 
ATOM     57  N   UNL A   1      43.428  31.347  31.706  1.00  0.00    -0.354 N 
ATOM     58  N   UNL A   1      40.816  32.535  31.104  1.00  0.00    -0.248 NA
ATOM     59  C   UNL A   1      39.304  34.309  31.276  1.00  0.00     0.031 C 
ATOM     60  C   UNL A   1      44.901  32.561  32.844  1.00  0.00     0.029 A 
ATOM     61  C   UNL A   1      43.624  32.580  32.304  1.00  0.00     0.049 A 
ATOM     62  H   UNL A   1      42.603  31.066  31.249  1.00  0.00     0.167 HD
ATOM     63  C   UNL A   1      41.415  33.582  31.795  1.00  0.00     0.074 A 
ATOM     64  C   UNL A   1      40.448  34.659  31.848  1.00  0.00     0.031 C 
ATOM     65  C   UNL A   1      42.656  33.645  32.337  1.00  0.00     0.031 A 
BRANCH  52  66
ATOM     66  C   UNL A   1      45.988  28.489  31.632  1.00  0.00    -0.014 A 
ATOM     67  C   UNL A   1      46.136  27.719  32.799  1.00  0.00     0.010 A 
ATOM     68  C   UNL A   1      47.044  28.535  30.703  1.00  0.00     0.010 A 
ATOM     69  C   UNL A   1      47.332  27.043  33.054  1.00  0.00     0.020 A 
ATOM     70  C   UNL A   1      48.232  27.838  30.942  1.00  0.00     0.020 A 
ATOM     71  C   UNL A   1      48.374  27.111  32.125  1.00  0.00     0.054 A 
BRANCH  71  72
ATOM     72  S   UNL A   1      49.908  26.205  32.470  1.00  0.00     0.124 S 
ATOM     73  O   UNL A   1      50.629  26.345  31.207  1.00  0.00    -0.237 OA
ATOM     74  O   UNL A   1      50.469  26.942  33.599  1.00  0.00    -0.237 OA
ATOM     75  O   UNL A   1      49.448  24.853  32.779  1.00  0.00    -0.744 OA
ENDBRANCH  71  72
ENDBRANCH  52  66
BRANCH  53  76
ATOM     76  C   UNL A   1      37.225  32.904  29.767  1.00  0.00    -0.014 A 
ATOM     77  C   UNL A   1      36.274  32.988  30.799  1.00  0.00     0.010 A 
ATOM     78  C   UNL A   1      36.917  33.446  28.505  1.00  0.00     0.010 A 
ATOM     79  C   UNL A   1      35.030  33.582  30.569  1.00  0.00     0.020 A 
ATOM     80  C   UNL A   1      35.683  34.063  28.280  1.00  0.00     0.020 A 
ATOM     81  C   UNL A   1      34.742  34.115  29.310  1.00  0.00     0.054 A 
BRANCH  81  82
ATOM     82  S   UNL A   1      33.138  34.923  29.046  1.00  0.00     0.124 S 
ATOM     83  O   UNL A   1      32.544  34.859  30.377  1.00  0.00    -0.237 OA
ATOM     84  O   UNL A   1      33.525  36.255  28.587  1.00  0.00    -0.237 OA
ATOM     85  O   UNL A   1      32.499  34.086  28.032  1.00  0.00    -0.744 OA
ENDBRANCH  81  82
ENDBRANCH  53  76
BRANCH  65  86
ATOM     86  C   UNL A   1      43.063  34.936  32.993  1.00  0.00    -0.014 A 
ATOM     87  C   UNL A   1      42.854  35.154  34.365  1.00  0.00     0.010 A 
ATOM     88  C   UNL A   1      43.726  35.917  32.233  1.00  0.00     0.010 A 
ATOM     89  C   UNL A   1      43.281  36.344  34.962  1.00  0.00     0.020 A 
ATOM     90  C   UNL A   1      44.175  37.097  32.831  1.00  0.00     0.020 A 
ATOM     91  C   UNL A   1      43.939  37.307  34.191  1.00  0.00     0.054 A 
BRANCH  91  92
ATOM     92  S   UNL A   1      44.534  38.819  34.999  1.00  0.00     0.124 S 
ATOM     93  O   UNL A   1      43.613  39.824  34.478  1.00  0.00    -0.237 OA
ATOM     94  O   UNL A   1      44.386  38.505  36.418  1.00  0.00    -0.237 OA
ATOM     95  O   UNL A   1      45.914  38.939  34.535  1.00  0.00    -0.744 OA
ENDBRANCH  91  92
ENDBRANCH  65  86
ENDBRANCH  39  40
ENDBRANCH  31  34
ENDBRANCH  29  30
ENDBRANCH  28  29
ENDBRANCH   1  28
TORSDOF 17
ENDMDL
