MODEL 1
REMARK VINA RESULT:     -10.5      0.000      0.000
REMARK SMILES CCN(CCC(=O)NCCCCNC(=O)c1ccc(-c2c3nc(c(-c4ccc(S(=O)(=O)[O-])cc4)c4ccc([nH]4)c(-c4ccc(S(=O)(=O)[O-])cc4)c4nc(c(-c5ccc(S(=O)(=O)[O-])cc5)c5ccc2[nH]5)C=C4)C=C3)cc1)C(=O)c1cc(Cl)ccc1F
REMARK SMILES IDX 10 1 9 2 8 3 6 4 7 5 5 7 4 8 3 9 2 10 1 11 76 12 77 13 78 14
REMARK SMILES IDX 79 15 84 16 80 17 83 18 85 19 81 20 82 21 11 22 12 23 13 24
REMARK SMILES IDX 14 25 15 27 16 28 17 29 75 30 18 31 74 32 19 33 20 34 21 35
REMARK SMILES IDX 68 36 22 37 73 38 67 39 69 40 23 41 72 42 66 43 65 44 24 46
REMARK SMILES IDX 54 47 35 48 53 49 36 50 39 51 52 52 70 53 37 54 38 55 51 57
REMARK SMILES IDX 71 58 40 59 25 60 26 61 34 62 27 63 33 64 28 65 29 66 30 67
REMARK SMILES IDX 31 68 32 69 55 70 56 71 64 72 57 73 63 74 58 75 59 76 60 77
REMARK SMILES IDX 61 78 62 79 41 80 42 81 50 82 43 83 49 84 44 85 45 86 46 87
REMARK SMILES IDX 47 88 48 89
REMARK H PARENT 8 6 13 26 69 45 39 56
REMARK Flexibility Score: inf
ROOT
ATOM      1  C   UNL A   1      33.247  28.617  24.629  1.00  0.00     0.023 C 
ENDROOT
BRANCH   1   2
ATOM      2  C   UNL A   1      32.372  27.747  23.741  1.00  0.00     0.116 C 
BRANCH   2   3
ATOM      3  N   UNL A   1      33.081  27.108  22.648  1.00  0.00    -0.356 N 
ATOM      4  C   UNL A   1      33.056  25.810  22.227  1.00  0.00     0.221 C 
ATOM      5  O   UNL A   1      33.477  25.559  21.093  1.00  0.00    -0.275 OA
ATOM      6  H   UNL A   1      33.671  27.702  22.130  1.00  0.00     0.163 HD
BRANCH   4   7
ATOM      7  C   UNL A   1      32.532  24.693  23.108  1.00  0.00     0.121 C 
BRANCH   7   8
ATOM      8  C   UNL A   1      33.395  24.317  24.331  1.00  0.00     0.129 C 
BRANCH   8   9
ATOM      9  N   UNL A   1      34.132  23.046  24.236  1.00  0.00    -0.338 N 
BRANCH   9  10
ATOM     10  C   UNL A   1      35.334  23.141  23.363  1.00  0.00     0.116 C 
ATOM     11  C   UNL A   1      36.689  22.596  23.792  1.00  0.00     0.027 C 
ENDBRANCH   9  10
BRANCH   9  12
ATOM     12  C   UNL A   1      33.820  21.840  24.915  1.00  0.00     0.256 C 
ATOM     13  O   UNL A   1      33.969  21.780  26.141  1.00  0.00    -0.269 OA
BRANCH  12  14
ATOM     14  C   UNL A   1      33.382  20.526  24.297  1.00  0.00     0.077 A 
ATOM     15  C   UNL A   1      34.075  19.370  24.735  1.00  0.00     0.037 A 
ATOM     16  C   UNL A   1      32.465  20.311  23.271  1.00  0.00     0.136 A 
ATOM     17  C   UNL A   1      33.817  18.099  24.201  1.00  0.00     0.042 A 
ATOM     18  C   UNL A   1      32.177  19.041  22.754  1.00  0.00     0.041 A 
ATOM     19  F   UNL A   1      31.823  21.297  22.665  1.00  0.00    -0.206 F 
ATOM     20  Cl  UNL A   1      34.722  16.739  24.736  1.00  0.00    -0.084 Cl
ATOM     21  C   UNL A   1      32.850  17.926  23.222  1.00  0.00     0.023 A 
ENDBRANCH  12  14
ENDBRANCH   9  12
ENDBRANCH   8   9
ENDBRANCH   7   8
ENDBRANCH   4   7
ENDBRANCH   2   3
ENDBRANCH   1   2
BRANCH   1  22
ATOM     22  C   UNL A   1      33.962  27.953  25.794  1.00  0.00     0.023 C 
BRANCH  22  23
ATOM     23  C   UNL A   1      33.454  28.363  27.161  1.00  0.00     0.116 C 
BRANCH  23  24
ATOM     24  N   UNL A   1      33.461  29.805  27.373  1.00  0.00    -0.352 N 
ATOM     25  C   UNL A   1      34.454  30.624  27.855  1.00  0.00     0.251 C 
ATOM     26  H   UNL A   1      32.623  30.264  27.133  1.00  0.00     0.163 HD
ATOM     27  O   UNL A   1      34.216  31.805  28.068  1.00  0.00    -0.269 OA
BRANCH  25  28
ATOM     28  C   UNL A   1      35.792  30.064  28.140  1.00  0.00     0.039 A 
ATOM     29  C   UNL A   1      36.765  30.081  27.137  1.00  0.00     0.014 A 
ATOM     30  C   UNL A   1      36.098  29.551  29.400  1.00  0.00     0.014 A 
ATOM     31  C   UNL A   1      38.061  29.648  27.426  1.00  0.00     0.010 A 
ATOM     32  C   UNL A   1      37.412  29.245  29.721  1.00  0.00     0.010 A 
ATOM     33  C   UNL A   1      38.405  29.269  28.734  1.00  0.00    -0.014 A 
BRANCH  33  34
ATOM     34  C   UNL A   1      39.785  28.863  29.097  1.00  0.00     0.031 A 
ATOM     35  C   UNL A   1      40.688  29.844  29.802  1.00  0.00     0.074 A 
ATOM     36  C   UNL A   1      40.249  27.654  28.723  1.00  0.00     0.049 A 
ATOM     37  N   UNL A   1      41.947  29.718  30.128  1.00  0.00    -0.248 NA
ATOM     38  C   UNL A   1      40.111  31.157  30.152  1.00  0.00     0.031 C 
ATOM     39  C   UNL A   1      39.487  26.638  27.990  1.00  0.00     0.029 A 
ATOM     40  N   UNL A   1      41.478  27.071  28.906  1.00  0.00    -0.354 N 
ATOM     41  C   UNL A   1      42.319  30.938  30.682  1.00  0.00     0.074 A 
ATOM     42  C   UNL A   1      41.172  31.812  30.599  1.00  0.00     0.031 C 
ATOM     43  C   UNL A   1      40.249  25.545  27.826  1.00  0.00     0.029 A 
ATOM     44  C   UNL A   1      41.569  25.797  28.395  1.00  0.00     0.049 A 
ATOM     45  H   UNL A   1      42.225  27.523  29.361  1.00  0.00     0.167 HD
ATOM     46  C   UNL A   1      43.503  31.292  31.233  1.00  0.00     0.031 A 
ATOM     47  C   UNL A   1      42.602  24.933  28.382  1.00  0.00     0.031 A 
ATOM     48  C   UNL A   1      44.624  30.401  31.351  1.00  0.00     0.049 A 
ATOM     49  C   UNL A   1      43.904  25.351  29.011  1.00  0.00     0.074 A 
ATOM     50  C   UNL A   1      45.838  30.629  31.974  1.00  0.00     0.029 A 
ATOM     51  N   UNL A   1      44.669  29.114  30.839  1.00  0.00    -0.354 N 
ATOM     52  N   UNL A   1      44.206  26.478  29.611  1.00  0.00    -0.248 NA
ATOM     53  C   UNL A   1      45.001  24.374  28.973  1.00  0.00     0.031 C 
ATOM     54  C   UNL A   1      46.642  29.502  31.781  1.00  0.00     0.029 A 
ATOM     55  C   UNL A   1      45.902  28.547  31.102  1.00  0.00     0.049 A 
ATOM     56  H   UNL A   1      43.932  28.670  30.359  1.00  0.00     0.167 HD
ATOM     57  C   UNL A   1      45.518  26.332  30.051  1.00  0.00     0.074 A 
ATOM     58  C   UNL A   1      45.942  25.002  29.665  1.00  0.00     0.031 C 
ATOM     59  C   UNL A   1      46.300  27.217  30.717  1.00  0.00     0.031 A 
BRANCH  46  60
ATOM     60  C   UNL A   1      43.652  32.700  31.748  1.00  0.00    -0.014 A 
ATOM     61  C   UNL A   1      43.979  33.766  30.889  1.00  0.00     0.010 A 
ATOM     62  C   UNL A   1      43.400  32.971  33.105  1.00  0.00     0.010 A 
ATOM     63  C   UNL A   1      44.080  35.068  31.383  1.00  0.00     0.020 A 
ATOM     64  C   UNL A   1      43.468  34.277  33.598  1.00  0.00     0.020 A 
ATOM     65  C   UNL A   1      43.820  35.316  32.735  1.00  0.00     0.054 A 
BRANCH  65  66
ATOM     66  S   UNL A   1      43.909  37.025  33.336  1.00  0.00     0.124 S 
ATOM     67  O   UNL A   1      42.659  37.148  34.081  1.00  0.00    -0.237 OA
ATOM     68  O   UNL A   1      45.124  37.016  34.145  1.00  0.00    -0.237 OA
ATOM     69  O   UNL A   1      43.984  37.819  32.111  1.00  0.00    -0.744 OA
ENDBRANCH  65  66
ENDBRANCH  46  60
BRANCH  47  70
ATOM     70  C   UNL A   1      42.451  23.582  27.770  1.00  0.00    -0.014 A 
ATOM     71  C   UNL A   1      41.720  22.578  28.433  1.00  0.00     0.010 A 
ATOM     72  C   UNL A   1      43.051  23.281  26.535  1.00  0.00     0.010 A 
ATOM     73  C   UNL A   1      41.629  21.292  27.894  1.00  0.00     0.020 A 
ATOM     74  C   UNL A   1      42.934  22.006  25.975  1.00  0.00     0.020 A 
ATOM     75  C   UNL A   1      42.239  21.012  26.668  1.00  0.00     0.054 A 
BRANCH  75  76
ATOM     76  S   UNL A   1      42.098  19.338  25.983  1.00  0.00     0.124 S 
ATOM     77  O   UNL A   1      42.844  19.456  24.735  1.00  0.00    -0.237 OA
ATOM     78  O   UNL A   1      42.722  18.520  27.021  1.00  0.00    -0.237 OA
ATOM     79  O   UNL A   1      40.656  19.150  25.835  1.00  0.00    -0.744 OA
ENDBRANCH  75  76
ENDBRANCH  47  70
BRANCH  59  80
ATOM     80  C   UNL A   1      47.679  26.763  31.112  1.00  0.00    -0.014 A 
ATOM     81  C   UNL A   1      48.805  27.070  30.328  1.00  0.00     0.010 A 
ATOM     82  C   UNL A   1      47.855  26.070  32.324  1.00  0.00     0.010 A 
ATOM     83  C   UNL A   1      50.078  26.664  30.733  1.00  0.00     0.020 A 
ATOM     84  C   UNL A   1      49.130  25.692  32.749  1.00  0.00     0.020 A 
ATOM     85  C   UNL A   1      50.233  25.979  31.943  1.00  0.00     0.054 A 
BRANCH  85  86
ATOM     86  S   UNL A   1      51.902  25.506  32.469  1.00  0.00     0.124 S 
ATOM     87  O   UNL A   1      52.096  26.342  33.650  1.00  0.00    -0.237 OA
ATOM     88  O   UNL A   1      51.761  24.075  32.727  1.00  0.00    -0.237 OA
ATOM     89  O   UNL A   1      52.738  25.846  31.320  1.00  0.00    -0.744 OA
ENDBRANCH  85  86
ENDBRANCH  59  80
ENDBRANCH  33  34
ENDBRANCH  25  28
ENDBRANCH  23  24
ENDBRANCH  22  23
ENDBRANCH   1  22
TORSDOF 19
ENDMDL
MODEL 2
REMARK VINA RESULT:     -10.3      2.775      3.758
REMARK SMILES CCN(CCC(=O)NCCCCNC(=O)c1ccc(-c2c3nc(c(-c4ccc(S(=O)(=O)[O-])cc4)c4ccc([nH]4)c(-c4ccc(S(=O)(=O)[O-])cc4)c4nc(c(-c5ccc(S(=O)(=O)[O-])cc5)c5ccc2[nH]5)C=C4)C=C3)cc1)C(=O)c1cc(Cl)ccc1F
REMARK SMILES IDX 10 1 9 2 8 3 6 4 7 5 5 7 4 8 3 9 2 10 1 11 76 12 77 13 78 14
REMARK SMILES IDX 79 15 84 16 80 17 83 18 85 19 81 20 82 21 11 22 12 23 13 24
REMARK SMILES IDX 14 25 15 27 16 28 17 29 75 30 18 31 74 32 19 33 20 34 21 35
REMARK SMILES IDX 68 36 22 37 73 38 67 39 69 40 23 41 72 42 66 43 65 44 24 46
REMARK SMILES IDX 54 47 35 48 53 49 36 50 39 51 52 52 70 53 37 54 38 55 51 57
REMARK SMILES IDX 71 58 40 59 25 60 26 61 34 62 27 63 33 64 28 65 29 66 30 67
REMARK SMILES IDX 31 68 32 69 55 70 56 71 64 72 57 73 63 74 58 75 59 76 60 77
REMARK SMILES IDX 61 78 62 79 41 80 42 81 50 82 43 83 49 84 44 85 45 86 46 87
REMARK SMILES IDX 47 88 48 89
REMARK H PARENT 8 6 13 26 69 45 39 56
REMARK Flexibility Score: inf
ROOT
ATOM      1  C   UNL A   1      32.048  27.524  26.407  1.00  0.00     0.023 C 
ENDROOT
BRANCH   1   2
ATOM      2  C   UNL A   1      31.650  26.262  25.658  1.00  0.00     0.116 C 
BRANCH   2   3
ATOM      3  N   UNL A   1      31.159  25.194  26.509  1.00  0.00    -0.356 N 
ATOM      4  C   UNL A   1      31.585  23.903  26.630  1.00  0.00     0.221 C 
ATOM      5  O   UNL A   1      31.245  23.270  27.635  1.00  0.00    -0.275 OA
ATOM      6  H   UNL A   1      30.403  25.439  27.090  1.00  0.00     0.163 HD
BRANCH   4   7
ATOM      7  C   UNL A   1      32.451  23.244  25.574  1.00  0.00     0.121 C 
BRANCH   7   8
ATOM      8  C   UNL A   1      33.101  21.898  25.957  1.00  0.00     0.129 C 
BRANCH   8   9
ATOM      9  N   UNL A   1      34.176  21.423  25.070  1.00  0.00    -0.338 N 
BRANCH   9  10
ATOM     10  C   UNL A   1      34.055  19.976  24.741  1.00  0.00     0.116 C 
ATOM     11  C   UNL A   1      32.755  19.210  24.936  1.00  0.00     0.027 C 
ENDBRANCH   9  10
BRANCH   9  12
ATOM     12  C   UNL A   1      35.213  22.211  24.509  1.00  0.00     0.256 C 
ATOM     13  O   UNL A   1      35.128  22.572  23.329  1.00  0.00    -0.269 OA
BRANCH  12  14
ATOM     14  C   UNL A   1      36.513  22.624  25.172  1.00  0.00     0.077 A 
ATOM     15  C   UNL A   1      37.506  21.618  25.277  1.00  0.00     0.037 A 
ATOM     16  C   UNL A   1      36.826  23.829  25.795  1.00  0.00     0.136 A 
ATOM     17  C   UNL A   1      38.730  21.843  25.924  1.00  0.00     0.042 A 
ATOM     18  C   UNL A   1      38.059  24.074  26.415  1.00  0.00     0.041 A 
ATOM     19  F   UNL A   1      35.966  24.830  25.895  1.00  0.00    -0.206 F 
ATOM     20  Cl  UNL A   1      39.877  20.571  26.064  1.00  0.00    -0.084 Cl
ATOM     21  C   UNL A   1      39.020  23.080  26.477  1.00  0.00     0.023 A 
ENDBRANCH  12  14
ENDBRANCH   9  12
ENDBRANCH   8   9
ENDBRANCH   7   8
ENDBRANCH   4   7
ENDBRANCH   2   3
ENDBRANCH   1   2
BRANCH   1  22
ATOM     22  C   UNL A   1      33.528  27.784  26.630  1.00  0.00     0.023 C 
BRANCH  22  23
ATOM     23  C   UNL A   1      34.078  28.976  25.874  1.00  0.00     0.116 C 
BRANCH  23  24
ATOM     24  N   UNL A   1      33.756  30.254  26.495  1.00  0.00    -0.352 N 
ATOM     25  C   UNL A   1      34.380  30.920  27.524  1.00  0.00     0.251 C 
ATOM     26  H   UNL A   1      32.969  30.712  26.119  1.00  0.00     0.163 HD
ATOM     27  O   UNL A   1      33.878  31.939  27.980  1.00  0.00    -0.269 OA
BRANCH  25  28
ATOM     28  C   UNL A   1      35.637  30.385  28.089  1.00  0.00     0.039 A 
ATOM     29  C   UNL A   1      36.858  30.823  27.570  1.00  0.00     0.014 A 
ATOM     30  C   UNL A   1      35.614  29.476  29.146  1.00  0.00     0.014 A 
ATOM     31  C   UNL A   1      38.050  30.402  28.162  1.00  0.00     0.010 A 
ATOM     32  C   UNL A   1      36.788  29.163  29.813  1.00  0.00     0.010 A 
ATOM     33  C   UNL A   1      38.021  29.603  29.318  1.00  0.00    -0.014 A 
BRANCH  33  34
ATOM     34  C   UNL A   1      39.263  29.186  30.015  1.00  0.00     0.031 A 
ATOM     35  C   UNL A   1      39.686  29.901  31.274  1.00  0.00     0.074 A 
ATOM     36  C   UNL A   1      40.045  28.229  29.477  1.00  0.00     0.049 A 
ATOM     37  N   UNL A   1      40.773  29.749  31.982  1.00  0.00    -0.248 NA
ATOM     38  C   UNL A   1      38.787  30.955  31.782  1.00  0.00     0.031 C 
ATOM     39  C   UNL A   1      39.769  27.501  28.234  1.00  0.00     0.029 A 
ATOM     40  N   UNL A   1      41.238  27.702  29.905  1.00  0.00    -0.354 N 
ATOM     41  C   UNL A   1      40.706  30.706  32.988  1.00  0.00     0.074 A 
ATOM     42  C   UNL A   1      39.502  31.472  32.770  1.00  0.00     0.031 C 
ATOM     43  C   UNL A   1      40.737  26.596  28.026  1.00  0.00     0.029 A 
ATOM     44  C   UNL A   1      41.731  26.711  29.088  1.00  0.00     0.049 A 
ATOM     45  H   UNL A   1      41.698  28.007  30.720  1.00  0.00     0.167 HD
ATOM     46  C   UNL A   1      41.560  30.914  34.018  1.00  0.00     0.031 A 
ATOM     47  C   UNL A   1      42.859  25.981  29.184  1.00  0.00     0.031 A 
ATOM     48  C   UNL A   1      42.733  30.117  34.252  1.00  0.00     0.049 A 
ATOM     49  C   UNL A   1      43.785  26.227  30.346  1.00  0.00     0.074 A 
ATOM     50  C   UNL A   1      43.615  30.183  35.316  1.00  0.00     0.029 A 
ATOM     51  N   UNL A   1      43.186  29.110  33.415  1.00  0.00    -0.354 N 
ATOM     52  N   UNL A   1      43.657  27.076  31.338  1.00  0.00    -0.248 NA
ATOM     53  C   UNL A   1      45.002  25.406  30.408  1.00  0.00     0.031 C 
ATOM     54  C   UNL A   1      44.639  29.259  35.087  1.00  0.00     0.029 A 
ATOM     55  C   UNL A   1      44.354  28.569  33.919  1.00  0.00     0.049 A 
ATOM     56  H   UNL A   1      42.741  28.823  32.584  1.00  0.00     0.167 HD
ATOM     57  C   UNL A   1      44.759  26.868  32.159  1.00  0.00     0.074 A 
ATOM     58  C   UNL A   1      45.533  25.801  31.557  1.00  0.00     0.031 C 
ATOM     59  C   UNL A   1      45.102  27.500  33.308  1.00  0.00     0.031 A 
BRANCH  46  60
ATOM     60  C   UNL A   1      41.263  32.045  34.968  1.00  0.00    -0.014 A 
ATOM     61  C   UNL A   1      41.669  33.363  34.690  1.00  0.00     0.010 A 
ATOM     62  C   UNL A   1      40.510  31.793  36.129  1.00  0.00     0.010 A 
ATOM     63  C   UNL A   1      41.354  34.401  35.571  1.00  0.00     0.020 A 
ATOM     64  C   UNL A   1      40.165  32.833  36.996  1.00  0.00     0.020 A 
ATOM     65  C   UNL A   1      40.601  34.129  36.717  1.00  0.00     0.054 A 
BRANCH  65  66
ATOM     66  S   UNL A   1      40.163  35.507  37.813  1.00  0.00     0.124 S 
ATOM     67  O   UNL A   1      38.925  35.028  38.421  1.00  0.00    -0.237 OA
ATOM     68  O   UNL A   1      41.315  35.580  38.708  1.00  0.00    -0.237 OA
ATOM     69  O   UNL A   1      40.011  36.640  36.902  1.00  0.00    -0.744 OA
ENDBRANCH  65  66
ENDBRANCH  46  60
BRANCH  47  70
ATOM     70  C   UNL A   1      43.174  24.938  28.167  1.00  0.00    -0.014 A 
ATOM     71  C   UNL A   1      42.747  23.609  28.353  1.00  0.00     0.010 A 
ATOM     72  C   UNL A   1      43.920  25.256  27.018  1.00  0.00     0.010 A 
ATOM     73  C   UNL A   1      43.094  22.616  27.434  1.00  0.00     0.020 A 
ATOM     74  C   UNL A   1      44.240  24.272  26.078  1.00  0.00     0.020 A 
ATOM     75  C   UNL A   1      43.841  22.953  26.302  1.00  0.00     0.054 A 
BRANCH  75  76
ATOM     76  S   UNL A   1      44.271  21.647  25.118  1.00  0.00     0.124 S 
ATOM     77  O   UNL A   1      45.612  21.273  25.552  1.00  0.00    -0.237 OA
ATOM     78  O   UNL A   1      43.226  20.653  25.353  1.00  0.00    -0.237 OA
ATOM     79  O   UNL A   1      44.197  22.322  23.823  1.00  0.00    -0.744 OA
ENDBRANCH  75  76
ENDBRANCH  47  70
BRANCH  59  80
ATOM     80  C   UNL A   1      46.341  27.026  34.018  1.00  0.00    -0.014 A 
ATOM     81  C   UNL A   1      46.314  25.911  34.874  1.00  0.00     0.010 A 
ATOM     82  C   UNL A   1      47.566  27.672  33.771  1.00  0.00     0.010 A 
ATOM     83  C   UNL A   1      47.485  25.472  35.497  1.00  0.00     0.020 A 
ATOM     84  C   UNL A   1      48.744  27.216  34.365  1.00  0.00     0.020 A 
ATOM     85  C   UNL A   1      48.693  26.126  35.236  1.00  0.00     0.054 A 
BRANCH  85  86
ATOM     86  S   UNL A   1      50.206  25.506  36.019  1.00  0.00     0.124 S 
ATOM     87  O   UNL A   1      50.623  26.652  36.823  1.00  0.00    -0.237 OA
ATOM     88  O   UNL A   1      49.725  24.350  36.772  1.00  0.00    -0.237 OA
ATOM     89  O   UNL A   1      51.076  25.188  34.890  1.00  0.00    -0.744 OA
ENDBRANCH  85  86
ENDBRANCH  59  80
ENDBRANCH  33  34
ENDBRANCH  25  28
ENDBRANCH  23  24
ENDBRANCH  22  23
ENDBRANCH   1  22
TORSDOF 19
ENDMDL
MODEL 3
REMARK VINA RESULT:     -10.2      1.391      2.440
REMARK SMILES CCN(CCC(=O)NCCCCNC(=O)c1ccc(-c2c3nc(c(-c4ccc(S(=O)(=O)[O-])cc4)c4ccc([nH]4)c(-c4ccc(S(=O)(=O)[O-])cc4)c4nc(c(-c5ccc(S(=O)(=O)[O-])cc5)c5ccc2[nH]5)C=C4)C=C3)cc1)C(=O)c1cc(Cl)ccc1F
REMARK SMILES IDX 10 1 9 2 8 3 6 4 7 5 5 7 4 8 3 9 2 10 1 11 76 12 77 13 78 14
REMARK SMILES IDX 79 15 84 16 80 17 83 18 85 19 81 20 82 21 11 22 12 23 13 24
REMARK SMILES IDX 14 25 15 27 16 28 17 29 75 30 18 31 74 32 19 33 20 34 21 35
REMARK SMILES IDX 68 36 22 37 73 38 67 39 69 40 23 41 72 42 66 43 65 44 24 46
REMARK SMILES IDX 54 47 35 48 53 49 36 50 39 51 52 52 70 53 37 54 38 55 51 57
REMARK SMILES IDX 71 58 40 59 25 60 26 61 34 62 27 63 33 64 28 65 29 66 30 67
REMARK SMILES IDX 31 68 32 69 55 70 56 71 64 72 57 73 63 74 58 75 59 76 60 77
REMARK SMILES IDX 61 78 62 79 41 80 42 81 50 82 43 83 49 84 44 85 45 86 46 87
REMARK SMILES IDX 47 88 48 89
REMARK H PARENT 8 6 13 26 69 45 39 56
REMARK Flexibility Score: inf
ROOT
ATOM      1  C   UNL A   1      32.776  26.885  24.692  1.00  0.00     0.023 C 
ENDROOT
BRANCH   1   2
ATOM      2  C   UNL A   1      32.000  25.640  24.292  1.00  0.00     0.116 C 
BRANCH   2   3
ATOM      3  N   UNL A   1      31.140  25.114  25.334  1.00  0.00    -0.356 N 
ATOM      4  C   UNL A   1      31.365  24.115  26.237  1.00  0.00     0.221 C 
ATOM      5  O   UNL A   1      30.634  24.054  27.231  1.00  0.00    -0.275 OA
ATOM      6  H   UNL A   1      30.257  25.544  25.402  1.00  0.00     0.163 HD
BRANCH   4   7
ATOM      7  C   UNL A   1      32.474  23.099  26.045  1.00  0.00     0.121 C 
BRANCH   7   8
ATOM      8  C   UNL A   1      32.213  21.979  25.016  1.00  0.00     0.129 C 
BRANCH   8   9
ATOM      9  N   UNL A   1      32.849  22.148  23.700  1.00  0.00    -0.338 N 
BRANCH   9  10
ATOM     10  C   UNL A   1      32.080  21.502  22.601  1.00  0.00     0.116 C 
ATOM     11  C   UNL A   1      32.110  19.998  22.371  1.00  0.00     0.027 C 
ENDBRANCH   9  10
BRANCH   9  12
ATOM     12  C   UNL A   1      34.034  22.879  23.426  1.00  0.00     0.256 C 
ATOM     13  O   UNL A   1      34.072  23.620  22.437  1.00  0.00    -0.269 OA
BRANCH  12  14
ATOM     14  C   UNL A   1      35.350  22.808  24.175  1.00  0.00     0.077 A 
ATOM     15  C   UNL A   1      35.996  21.546  24.183  1.00  0.00     0.037 A 
ATOM     16  C   UNL A   1      35.959  23.787  24.956  1.00  0.00     0.136 A 
ATOM     17  C   UNL A   1      37.186  21.322  24.890  1.00  0.00     0.042 A 
ATOM     18  C   UNL A   1      37.165  23.582  25.640  1.00  0.00     0.041 A 
ATOM     19  F   UNL A   1      35.424  24.981  25.155  1.00  0.00    -0.206 F 
ATOM     20  Cl  UNL A   1      37.899  19.758  24.903  1.00  0.00    -0.084 Cl
ATOM     21  C   UNL A   1      37.787  22.347  25.605  1.00  0.00     0.023 A 
ENDBRANCH  12  14
ENDBRANCH   9  12
ENDBRANCH   8   9
ENDBRANCH   7   8
ENDBRANCH   4   7
ENDBRANCH   2   3
ENDBRANCH   1   2
BRANCH   1  22
ATOM     22  C   UNL A   1      33.011  27.133  26.173  1.00  0.00     0.023 C 
BRANCH  22  23
ATOM     23  C   UNL A   1      34.167  28.063  26.480  1.00  0.00     0.116 C 
BRANCH  23  24
ATOM     24  N   UNL A   1      33.746  29.407  26.851  1.00  0.00    -0.352 N 
ATOM     25  C   UNL A   1      34.382  30.353  27.621  1.00  0.00     0.251 C 
ATOM     26  H   UNL A   1      32.869  29.681  26.496  1.00  0.00     0.163 HD
ATOM     27  O   UNL A   1      33.800  31.389  27.913  1.00  0.00    -0.269 OA
BRANCH  25  28
ATOM     28  C   UNL A   1      35.753  30.097  28.112  1.00  0.00     0.039 A 
ATOM     29  C   UNL A   1      35.931  29.608  29.409  1.00  0.00     0.014 A 
ATOM     30  C   UNL A   1      36.858  30.310  27.289  1.00  0.00     0.014 A 
ATOM     31  C   UNL A   1      37.212  29.268  29.847  1.00  0.00     0.010 A 
ATOM     32  C   UNL A   1      38.107  29.852  27.677  1.00  0.00     0.010 A 
ATOM     33  C   UNL A   1      38.305  29.345  28.967  1.00  0.00    -0.014 A 
BRANCH  33  34
ATOM     34  C   UNL A   1      39.671  28.933  29.374  1.00  0.00     0.031 A 
ATOM     35  C   UNL A   1      40.537  29.892  30.151  1.00  0.00     0.074 A 
ATOM     36  C   UNL A   1      40.157  27.739  28.978  1.00  0.00     0.049 A 
ATOM     37  N   UNL A   1      41.782  29.760  30.526  1.00  0.00    -0.248 NA
ATOM     38  C   UNL A   1      39.939  31.189  30.523  1.00  0.00     0.031 C 
ATOM     39  C   UNL A   1      39.432  26.747  28.177  1.00  0.00     0.029 A 
ATOM     40  N   UNL A   1      41.380  27.156  29.193  1.00  0.00    -0.354 N 
ATOM     41  C   UNL A   1      42.123  30.960  31.137  1.00  0.00     0.074 A 
ATOM     42  C   UNL A   1      40.976  31.832  31.037  1.00  0.00     0.031 C 
ATOM     43  C   UNL A   1      40.207  25.664  28.008  1.00  0.00     0.029 A 
ATOM     44  C   UNL A   1      41.500  25.901  28.641  1.00  0.00     0.049 A 
ATOM     45  H   UNL A   1      42.105  27.594  29.695  1.00  0.00     0.167 HD
ATOM     46  C   UNL A   1      43.281  31.300  31.750  1.00  0.00     0.031 A 
ATOM     47  C   UNL A   1      42.538  25.042  28.641  1.00  0.00     0.031 A 
ATOM     48  C   UNL A   1      44.401  30.410  31.885  1.00  0.00     0.049 A 
ATOM     49  C   UNL A   1      43.810  25.443  29.340  1.00  0.00     0.074 A 
ATOM     50  C   UNL A   1      45.586  30.621  32.567  1.00  0.00     0.029 A 
ATOM     51  N   UNL A   1      44.475  29.142  31.330  1.00  0.00    -0.354 N 
ATOM     52  N   UNL A   1      44.080  26.549  29.991  1.00  0.00    -0.248 NA
ATOM     53  C   UNL A   1      44.913  24.473  29.314  1.00  0.00     0.031 C 
ATOM     54  C   UNL A   1      46.404  29.505  32.369  1.00  0.00     0.029 A 
ATOM     55  C   UNL A   1      45.699  28.571  31.625  1.00  0.00     0.049 A 
ATOM     56  H   UNL A   1      43.762  28.712  30.804  1.00  0.00     0.167 HD
ATOM     57  C   UNL A   1      45.372  26.394  30.481  1.00  0.00     0.074 A 
ATOM     58  C   UNL A   1      45.821  25.080  30.067  1.00  0.00     0.031 C 
ATOM     59  C   UNL A   1      46.121  27.257  31.211  1.00  0.00     0.031 A 
BRANCH  46  60
ATOM     60  C   UNL A   1      43.400  32.690  32.321  1.00  0.00    -0.014 A 
ATOM     61  C   UNL A   1      43.072  32.963  33.661  1.00  0.00     0.010 A 
ATOM     62  C   UNL A   1      43.905  33.727  31.516  1.00  0.00     0.010 A 
ATOM     63  C   UNL A   1      43.220  34.253  34.177  1.00  0.00     0.020 A 
ATOM     64  C   UNL A   1      44.086  35.011  32.037  1.00  0.00     0.020 A 
ATOM     65  C   UNL A   1      43.730  35.269  33.361  1.00  0.00     0.054 A 
BRANCH  65  66
ATOM     66  S   UNL A   1      43.960  36.920  34.075  1.00  0.00     0.124 S 
ATOM     67  O   UNL A   1      44.854  36.643  35.196  1.00  0.00    -0.237 OA
ATOM     68  O   UNL A   1      44.552  37.666  32.968  1.00  0.00    -0.237 OA
ATOM     69  O   UNL A   1      42.606  37.329  34.446  1.00  0.00    -0.744 OA
ENDBRANCH  65  66
ENDBRANCH  46  60
BRANCH  47  70
ATOM     70  C   UNL A   1      42.420  23.713  27.977  1.00  0.00    -0.014 A 
ATOM     71  C   UNL A   1      41.958  22.595  28.696  1.00  0.00     0.010 A 
ATOM     72  C   UNL A   1      42.789  23.548  26.630  1.00  0.00     0.010 A 
ATOM     73  C   UNL A   1      41.906  21.334  28.096  1.00  0.00     0.020 A 
ATOM     74  C   UNL A   1      42.706  22.295  26.014  1.00  0.00     0.020 A 
ATOM     75  C   UNL A   1      42.283  21.192  26.757  1.00  0.00     0.054 A 
BRANCH  75  76
ATOM     76  S   UNL A   1      42.197  19.547  25.996  1.00  0.00     0.124 S 
ATOM     77  O   UNL A   1      43.104  19.689  24.862  1.00  0.00    -0.237 OA
ATOM     78  O   UNL A   1      42.662  18.677  27.074  1.00  0.00    -0.237 OA
ATOM     79  O   UNL A   1      40.784  19.402  25.654  1.00  0.00    -0.744 OA
ENDBRANCH  75  76
ENDBRANCH  47  70
BRANCH  59  80
ATOM     80  C   UNL A   1      47.484  26.795  31.648  1.00  0.00    -0.014 A 
ATOM     81  C   UNL A   1      47.701  26.263  32.931  1.00  0.00     0.010 A 
ATOM     82  C   UNL A   1      48.552  26.837  30.733  1.00  0.00     0.010 A 
ATOM     83  C   UNL A   1      48.970  25.812  33.303  1.00  0.00     0.020 A 
ATOM     84  C   UNL A   1      49.814  26.356  31.089  1.00  0.00     0.020 A 
ATOM     85  C   UNL A   1      50.018  25.860  32.378  1.00  0.00     0.054 A 
BRANCH  85  86
ATOM     86  S   UNL A   1      51.643  25.224  32.869  1.00  0.00     0.124 S 
ATOM     87  O   UNL A   1      51.471  25.028  34.305  1.00  0.00    -0.237 OA
ATOM     88  O   UNL A   1      51.760  24.002  32.076  1.00  0.00    -0.237 OA
ATOM     89  O   UNL A   1      52.563  26.294  32.492  1.00  0.00    -0.744 OA
ENDBRANCH  85  86
ENDBRANCH  59  80
ENDBRANCH  33  34
ENDBRANCH  25  28
ENDBRANCH  23  24
ENDBRANCH  22  23
ENDBRANCH   1  22
TORSDOF 19
ENDMDL
