MODEL 1
REMARK VINA RESULT:     -12.7      0.000      0.000
REMARK SMILES C[C@H]1OCC[C@@H]1C(=O)Nc1sc2c(c1C(=O)NCCCCNC(=O)c1ccc(-c3c4nc(c(-c5ccc(S(=O)(=O)[O-])cc5)c5ccc([nH]5)c(-c5ccc(S(=O)(=O)[O-])cc5)c5nc(c(-c6ccc(S(=O)(=O)[O-])cc6)c6ccc3[nH]6)C=C5)C=C4)cc1)CCC2
REMARK SMILES IDX 20 1 19 2 18 3 17 4 15 5 16 6 14 8 10 9 11 10 12 11 13 12
REMARK SMILES IDX 87 13 85 14 86 15 9 16 7 17 8 18 6 20 1 21 2 22 3 23 4 24
REMARK SMILES IDX 5 25 21 26 22 27 23 28 24 30 25 31 26 32 84 33 27 34 83 35
REMARK SMILES IDX 28 36 29 37 30 38 77 39 31 40 82 41 76 42 78 43 32 44 81 45
REMARK SMILES IDX 75 46 74 47 33 49 63 50 44 51 62 52 45 53 48 54 61 55 79 56
REMARK SMILES IDX 46 57 47 58 60 60 80 61 49 62 34 63 35 64 43 65 36 66 42 67
REMARK SMILES IDX 37 68 38 69 39 70 40 71 41 72 64 73 65 74 73 75 66 76 72 77
REMARK SMILES IDX 67 78 68 79 69 80 70 81 71 82 50 83 51 84 59 85 52 86 58 87
REMARK SMILES IDX 53 88 54 89 55 90 56 91 57 92
REMARK H PARENT 17 7 9 19 22 29 78 48 48 59
REMARK Flexibility Score: inf
ROOT
ATOM      1  C   UNL A   1      39.125  22.712  26.544  1.00  0.00     0.023 C 
ENDROOT
BRANCH   1   2
ATOM      2  C   UNL A   1      38.504  21.590  25.700  1.00  0.00     0.023 C 
BRANCH   2   3
ATOM      3  C   UNL A   1      37.014  21.727  25.379  1.00  0.00     0.116 C 
BRANCH   3   4
ATOM      4  N   UNL A   1      36.174  22.159  26.464  1.00  0.00    -0.352 N 
ATOM      5  C   UNL A   1      34.818  22.309  26.604  1.00  0.00     0.254 C 
ATOM      6  O   UNL A   1      34.433  22.258  27.775  1.00  0.00    -0.269 OA
ATOM      7  H   UNL A   1      36.677  22.397  27.277  1.00  0.00     0.163 HD
BRANCH   5   8
ATOM      8  C   UNL A   1      33.863  22.553  25.516  1.00  0.00     0.078 A 
ATOM      9  C   UNL A   1      32.919  21.568  25.186  1.00  0.00     0.108 A 
ATOM     10  S   UNL A   1      32.261  21.734  23.609  1.00  0.00    -0.122 S 
ATOM     11  C   UNL A   1      32.944  23.242  23.482  1.00  0.00     0.011 A 
ATOM     12  C   UNL A   1      33.735  23.609  24.544  1.00  0.00    -0.019 A 
ATOM     13  C   UNL A   1      32.899  24.209  22.362  1.00  0.00     0.047 C 
ATOM     14  C   UNL A   1      34.322  24.947  24.245  1.00  0.00     0.038 C 
ATOM     15  C   UNL A   1      33.472  25.466  23.051  1.00  0.00     0.010 C 
BRANCH   9  16
ATOM     16  N   UNL A   1      32.513  20.382  25.753  1.00  0.00    -0.317 N 
ATOM     17  C   UNL A   1      32.686  19.098  25.343  1.00  0.00     0.230 C 
ATOM     18  O   UNL A   1      32.318  18.217  26.137  1.00  0.00    -0.274 OA
ATOM     19  H   UNL A   1      32.015  20.480  26.595  1.00  0.00     0.170 HD
BRANCH  17  20
ATOM     20  C   UNL A   1      33.405  18.637  24.081  1.00  0.00     0.110 C 
ATOM     21  C   UNL A   1      32.532  18.444  21.719  1.00  0.00     0.039 C 
ATOM     22  C   UNL A   1      32.538  17.836  23.121  1.00  0.00     0.127 C 
ATOM     23  O   UNL A   1      33.114  16.523  23.042  1.00  0.00    -0.378 OA
ATOM     24  C   UNL A   1      34.499  16.631  23.379  1.00  0.00     0.161 C 
ATOM     25  C   UNL A   1      34.670  17.841  24.263  1.00  0.00     0.044 C 
ENDBRANCH  17  20
ENDBRANCH   9  16
ENDBRANCH   5   8
ENDBRANCH   3   4
ENDBRANCH   2   3
ENDBRANCH   1   2
BRANCH   1  26
ATOM     26  C   UNL A   1      40.387  22.322  27.312  1.00  0.00     0.116 C 
BRANCH  26  27
ATOM     27  N   UNL A   1      41.582  22.208  26.460  1.00  0.00    -0.352 N 
ATOM     28  C   UNL A   1      42.287  23.214  25.804  1.00  0.00     0.251 C 
ATOM     29  H   UNL A   1      41.929  21.295  26.338  1.00  0.00     0.163 HD
ATOM     30  O   UNL A   1      43.025  22.970  24.870  1.00  0.00    -0.269 OA
BRANCH  28  31
ATOM     31  C   UNL A   1      42.145  24.585  26.321  1.00  0.00     0.039 A 
ATOM     32  C   UNL A   1      41.249  25.533  25.820  1.00  0.00     0.014 A 
ATOM     33  C   UNL A   1      42.927  24.862  27.429  1.00  0.00     0.014 A 
ATOM     34  C   UNL A   1      41.112  26.741  26.509  1.00  0.00     0.010 A 
ATOM     35  C   UNL A   1      42.566  25.878  28.253  1.00  0.00     0.010 A 
ATOM     36  C   UNL A   1      41.779  26.890  27.732  1.00  0.00    -0.014 A 
BRANCH  36  37
ATOM     37  C   UNL A   1      41.727  28.085  28.555  1.00  0.00     0.031 A 
ATOM     38  C   UNL A   1      42.786  29.090  28.283  1.00  0.00     0.074 A 
ATOM     39  C   UNL A   1      40.592  28.370  29.236  1.00  0.00     0.049 A 
ATOM     40  N   UNL A   1      43.719  29.480  29.084  1.00  0.00    -0.248 NA
ATOM     41  C   UNL A   1      42.916  29.633  26.919  1.00  0.00     0.031 C 
ATOM     42  C   UNL A   1      39.319  27.624  29.267  1.00  0.00     0.029 A 
ATOM     43  N   UNL A   1      40.273  29.493  29.917  1.00  0.00    -0.354 N 
ATOM     44  C   UNL A   1      44.437  30.460  28.403  1.00  0.00     0.074 A 
ATOM     45  C   UNL A   1      44.022  30.373  27.026  1.00  0.00     0.031 C 
ATOM     46  C   UNL A   1      38.324  28.439  29.683  1.00  0.00     0.029 A 
ATOM     47  C   UNL A   1      38.911  29.693  30.116  1.00  0.00     0.049 A 
ATOM     48  H   UNL A   1      40.953  30.123  30.247  1.00  0.00     0.167 HD
ATOM     49  C   UNL A   1      45.158  31.410  29.065  1.00  0.00     0.031 A 
ATOM     50  C   UNL A   1      38.319  30.837  30.548  1.00  0.00     0.031 A 
ATOM     51  C   UNL A   1      45.222  31.122  30.475  1.00  0.00     0.049 A 
ATOM     52  C   UNL A   1      39.391  31.635  31.204  1.00  0.00     0.074 A 
ATOM     53  C   UNL A   1      45.750  30.090  31.225  1.00  0.00     0.029 A 
ATOM     54  N   UNL A   1      44.287  31.740  31.279  1.00  0.00    -0.354 N 
ATOM     55  N   UNL A   1      40.026  31.228  32.272  1.00  0.00    -0.248 NA
ATOM     56  C   UNL A   1      40.113  32.602  30.388  1.00  0.00     0.031 C 
ATOM     57  C   UNL A   1      44.764  29.829  32.220  1.00  0.00     0.029 A 
ATOM     58  C   UNL A   1      43.744  30.775  32.089  1.00  0.00     0.049 A 
ATOM     59  H   UNL A   1      44.054  32.697  31.272  1.00  0.00     0.167 HD
ATOM     60  C   UNL A   1      41.362  31.535  32.038  1.00  0.00     0.074 A 
ATOM     61  C   UNL A   1      41.342  32.456  30.898  1.00  0.00     0.031 C 
ATOM     62  C   UNL A   1      42.375  30.787  32.574  1.00  0.00     0.031 A 
BRANCH  49  63
ATOM     63  C   UNL A   1      45.507  32.772  28.527  1.00  0.00    -0.014 A 
ATOM     64  C   UNL A   1      46.668  33.409  29.012  1.00  0.00     0.010 A 
ATOM     65  C   UNL A   1      44.618  33.554  27.763  1.00  0.00     0.010 A 
ATOM     66  C   UNL A   1      46.891  34.776  28.803  1.00  0.00     0.020 A 
ATOM     67  C   UNL A   1      44.851  34.909  27.514  1.00  0.00     0.020 A 
ATOM     68  C   UNL A   1      45.969  35.520  28.068  1.00  0.00     0.054 A 
BRANCH  68  69
ATOM     69  S   UNL A   1      46.207  37.306  27.906  1.00  0.00     0.124 S 
ATOM     70  O   UNL A   1      47.637  37.445  28.161  1.00  0.00    -0.237 OA
ATOM     71  O   UNL A   1      45.782  37.552  26.531  1.00  0.00    -0.237 OA
ATOM     72  O   UNL A   1      45.331  37.863  28.933  1.00  0.00    -0.744 OA
ENDBRANCH  68  69
ENDBRANCH  49  63
BRANCH  50  73
ATOM     73  C   UNL A   1      37.028  31.411  30.071  1.00  0.00    -0.014 A 
ATOM     74  C   UNL A   1      36.019  31.813  30.968  1.00  0.00     0.010 A 
ATOM     75  C   UNL A   1      36.892  31.817  28.725  1.00  0.00     0.010 A 
ATOM     76  C   UNL A   1      34.955  32.636  30.545  1.00  0.00     0.020 A 
ATOM     77  C   UNL A   1      35.836  32.632  28.296  1.00  0.00     0.020 A 
ATOM     78  C   UNL A   1      34.883  33.060  29.216  1.00  0.00     0.054 A 
BRANCH  78  79
ATOM     79  S   UNL A   1      33.623  34.277  28.722  1.00  0.00     0.124 S 
ATOM     80  O   UNL A   1      32.780  33.503  27.815  1.00  0.00    -0.237 OA
ATOM     81  O   UNL A   1      33.014  34.639  29.999  1.00  0.00    -0.237 OA
ATOM     82  O   UNL A   1      34.401  35.340  28.089  1.00  0.00    -0.744 OA
ENDBRANCH  78  79
ENDBRANCH  50  73
BRANCH  62  83
ATOM     83  C   UNL A   1      42.035  29.718  33.595  1.00  0.00    -0.014 A 
ATOM     84  C   UNL A   1      41.609  28.415  33.257  1.00  0.00     0.010 A 
ATOM     85  C   UNL A   1      42.365  29.979  34.934  1.00  0.00     0.010 A 
ATOM     86  C   UNL A   1      41.503  27.413  34.237  1.00  0.00     0.020 A 
ATOM     87  C   UNL A   1      42.280  28.983  35.910  1.00  0.00     0.020 A 
ATOM     88  C   UNL A   1      41.841  27.706  35.560  1.00  0.00     0.054 A 
BRANCH  88  89
ATOM     89  S   UNL A   1      41.756  26.400  36.819  1.00  0.00     0.124 S 
ATOM     90  O   UNL A   1      40.431  26.604  37.398  1.00  0.00    -0.237 OA
ATOM     91  O   UNL A   1      41.918  25.179  36.035  1.00  0.00    -0.237 OA
ATOM     92  O   UNL A   1      42.873  26.705  37.713  1.00  0.00    -0.744 OA
ENDBRANCH  88  89
ENDBRANCH  62  83
ENDBRANCH  36  37
ENDBRANCH  28  31
ENDBRANCH  26  27
ENDBRANCH   1  26
TORSDOF 16
ENDMDL
MODEL 2
REMARK VINA RESULT:     -12.5      3.027      9.134
REMARK SMILES C[C@H]1OCC[C@@H]1C(=O)Nc1sc2c(c1C(=O)NCCCCNC(=O)c1ccc(-c3c4nc(c(-c5ccc(S(=O)(=O)[O-])cc5)c5ccc([nH]5)c(-c5ccc(S(=O)(=O)[O-])cc5)c5nc(c(-c6ccc(S(=O)(=O)[O-])cc6)c6ccc3[nH]6)C=C5)C=C4)cc1)CCC2
REMARK SMILES IDX 20 1 19 2 18 3 17 4 15 5 16 6 14 8 10 9 11 10 12 11 13 12
REMARK SMILES IDX 87 13 85 14 86 15 9 16 7 17 8 18 6 20 1 21 2 22 3 23 4 24
REMARK SMILES IDX 5 25 21 26 22 27 23 28 24 30 25 31 26 32 84 33 27 34 83 35
REMARK SMILES IDX 28 36 29 37 30 38 77 39 31 40 82 41 76 42 78 43 32 44 81 45
REMARK SMILES IDX 75 46 74 47 33 49 63 50 44 51 62 52 45 53 48 54 61 55 79 56
REMARK SMILES IDX 46 57 47 58 60 60 80 61 49 62 34 63 35 64 43 65 36 66 42 67
REMARK SMILES IDX 37 68 38 69 39 70 40 71 41 72 64 73 65 74 73 75 66 76 72 77
REMARK SMILES IDX 67 78 68 79 69 80 70 81 71 82 50 83 51 84 59 85 52 86 58 87
REMARK SMILES IDX 53 88 54 89 55 90 56 91 57 92
REMARK H PARENT 17 7 9 19 22 29 78 48 48 59
REMARK Flexibility Score: inf
ROOT
ATOM      1  C   UNL A   1      34.334  31.178  27.565  1.00  0.00     0.023 C 
ENDROOT
BRANCH   1   2
ATOM      2  C   UNL A   1      35.064  29.889  27.161  1.00  0.00     0.023 C 
BRANCH   2   3
ATOM      3  C   UNL A   1      34.180  28.686  26.821  1.00  0.00     0.116 C 
BRANCH   3   4
ATOM      4  N   UNL A   1      32.913  28.626  27.500  1.00  0.00    -0.352 N 
ATOM      5  C   UNL A   1      31.766  27.905  27.291  1.00  0.00     0.254 C 
ATOM      6  O   UNL A   1      31.072  27.773  28.303  1.00  0.00    -0.269 OA
ATOM      7  H   UNL A   1      32.857  29.230  28.277  1.00  0.00     0.163 HD
BRANCH   5   8
ATOM      8  C   UNL A   1      31.319  27.351  26.006  1.00  0.00     0.078 A 
ATOM      9  C   UNL A   1      31.157  25.964  25.866  1.00  0.00     0.108 A 
ATOM     10  S   UNL A   1      31.175  25.422  24.238  1.00  0.00    -0.122 S 
ATOM     11  C   UNL A   1      31.066  26.993  23.712  1.00  0.00     0.011 A 
ATOM     12  C   UNL A   1      31.108  27.939  24.707  1.00  0.00    -0.019 A 
ATOM     13  C   UNL A   1      31.019  27.528  22.332  1.00  0.00     0.047 C 
ATOM     14  C   UNL A   1      31.069  29.286  24.069  1.00  0.00     0.038 C 
ATOM     15  C   UNL A   1      30.619  28.992  22.610  1.00  0.00     0.010 C 
BRANCH   9  16
ATOM     16  N   UNL A   1      31.164  24.893  26.729  1.00  0.00    -0.317 N 
ATOM     17  C   UNL A   1      31.978  23.806  26.787  1.00  0.00     0.230 C 
ATOM     18  O   UNL A   1      31.824  23.061  27.768  1.00  0.00    -0.274 OA
ATOM     19  H   UNL A   1      30.463  24.917  27.419  1.00  0.00     0.170 HD
BRANCH  17  20
ATOM     20  C   UNL A   1      33.140  23.491  25.853  1.00  0.00     0.110 C 
ATOM     21  C   UNL A   1      33.577  21.416  24.482  1.00  0.00     0.039 C 
ATOM     22  C   UNL A   1      33.590  22.038  25.878  1.00  0.00     0.127 C 
ATOM     23  O   UNL A   1      34.942  22.033  26.362  1.00  0.00    -0.378 OA
ATOM     24  C   UNL A   1      35.513  23.313  26.083  1.00  0.00     0.161 C 
ATOM     25  C   UNL A   1      34.389  24.317  26.007  1.00  0.00     0.044 C 
ENDBRANCH  17  20
ENDBRANCH   9  16
ENDBRANCH   5   8
ENDBRANCH   3   4
ENDBRANCH   2   3
ENDBRANCH   1   2
BRANCH   1  26
ATOM     26  C   UNL A   1      35.226  32.268  28.157  1.00  0.00     0.116 C 
BRANCH  26  27
ATOM     27  N   UNL A   1      34.813  32.699  29.503  1.00  0.00    -0.352 N 
ATOM     28  C   UNL A   1      35.095  32.111  30.734  1.00  0.00     0.251 C 
ATOM     29  H   UNL A   1      34.261  33.514  29.537  1.00  0.00     0.163 HD
ATOM     30  O   UNL A   1      34.427  32.346  31.722  1.00  0.00    -0.269 OA
BRANCH  28  31
ATOM     31  C   UNL A   1      36.273  31.230  30.807  1.00  0.00     0.039 A 
ATOM     32  C   UNL A   1      36.234  29.839  30.680  1.00  0.00     0.014 A 
ATOM     33  C   UNL A   1      37.479  31.898  30.933  1.00  0.00     0.014 A 
ATOM     34  C   UNL A   1      37.445  29.148  30.613  1.00  0.00     0.010 A 
ATOM     35  C   UNL A   1      38.622  31.271  30.555  1.00  0.00     0.010 A 
ATOM     36  C   UNL A   1      38.633  29.887  30.546  1.00  0.00    -0.014 A 
BRANCH  36  37
ATOM     37  C   UNL A   1      39.960  29.305  30.470  1.00  0.00     0.031 A 
ATOM     38  C   UNL A   1      40.634  29.089  31.776  1.00  0.00     0.074 A 
ATOM     39  C   UNL A   1      40.352  28.699  29.324  1.00  0.00     0.049 A 
ATOM     40  N   UNL A   1      41.715  29.649  32.201  1.00  0.00    -0.248 NA
ATOM     41  C   UNL A   1      39.963  28.257  32.791  1.00  0.00     0.031 C 
ATOM     42  C   UNL A   1      39.597  28.513  28.071  1.00  0.00     0.029 A 
ATOM     43  N   UNL A   1      41.461  27.960  29.094  1.00  0.00    -0.354 N 
ATOM     44  C   UNL A   1      41.976  29.099  33.454  1.00  0.00     0.074 A 
ATOM     45  C   UNL A   1      40.777  28.402  33.841  1.00  0.00     0.031 C 
ATOM     46  C   UNL A   1      40.145  27.506  27.355  1.00  0.00     0.029 A 
ATOM     47  C   UNL A   1      41.378  27.102  28.002  1.00  0.00     0.049 A 
ATOM     48  H   UNL A   1      42.265  28.023  29.658  1.00  0.00     0.167 HD
ATOM     49  C   UNL A   1      43.235  29.080  33.979  1.00  0.00     0.031 A 
ATOM     50  C   UNL A   1      42.241  26.096  27.702  1.00  0.00     0.031 A 
ATOM     51  C   UNL A   1      44.144  29.858  33.176  1.00  0.00     0.049 A 
ATOM     52  C   UNL A   1      43.494  26.387  28.451  1.00  0.00     0.074 A 
ATOM     53  C   UNL A   1      44.225  31.192  32.833  1.00  0.00     0.029 A 
ATOM     54  N   UNL A   1      44.881  29.174  32.233  1.00  0.00    -0.354 N 
ATOM     55  N   UNL A   1      44.220  27.453  28.232  1.00  0.00    -0.248 NA
ATOM     56  C   UNL A   1      43.647  25.798  29.774  1.00  0.00     0.031 C 
ATOM     57  C   UNL A   1      44.564  31.186  31.448  1.00  0.00     0.029 A 
ATOM     58  C   UNL A   1      44.771  29.863  31.051  1.00  0.00     0.049 A 
ATOM     59  H   UNL A   1      45.391  28.344  32.380  1.00  0.00     0.167 HD
ATOM     60  C   UNL A   1      44.573  27.916  29.495  1.00  0.00     0.074 A 
ATOM     61  C   UNL A   1      44.262  26.808  30.402  1.00  0.00     0.031 C 
ATOM     62  C   UNL A   1      44.791  29.245  29.737  1.00  0.00     0.031 A 
BRANCH  49  63
ATOM     63  C   UNL A   1      43.739  28.094  35.000  1.00  0.00    -0.014 A 
ATOM     64  C   UNL A   1      44.067  28.568  36.287  1.00  0.00     0.010 A 
ATOM     65  C   UNL A   1      44.141  26.783  34.677  1.00  0.00     0.010 A 
ATOM     66  C   UNL A   1      44.821  27.794  37.178  1.00  0.00     0.020 A 
ATOM     67  C   UNL A   1      44.859  25.988  35.573  1.00  0.00     0.020 A 
ATOM     68  C   UNL A   1      45.226  26.513  36.806  1.00  0.00     0.054 A 
BRANCH  68  69
ATOM     69  S   UNL A   1      46.299  25.570  37.917  1.00  0.00     0.124 S 
ATOM     70  O   UNL A   1      45.331  24.793  38.684  1.00  0.00    -0.237 OA
ATOM     71  O   UNL A   1      47.123  24.810  36.981  1.00  0.00    -0.237 OA
ATOM     72  O   UNL A   1      47.008  26.604  38.667  1.00  0.00    -0.744 OA
ENDBRANCH  68  69
ENDBRANCH  49  63
BRANCH  50  73
ATOM     73  C   UNL A   1      41.891  24.753  27.154  1.00  0.00    -0.014 A 
ATOM     74  C   UNL A   1      42.685  24.123  26.176  1.00  0.00     0.010 A 
ATOM     75  C   UNL A   1      40.911  23.964  27.795  1.00  0.00     0.010 A 
ATOM     76  C   UNL A   1      42.542  22.748  25.898  1.00  0.00     0.020 A 
ATOM     77  C   UNL A   1      40.760  22.598  27.521  1.00  0.00     0.020 A 
ATOM     78  C   UNL A   1      41.595  21.989  26.590  1.00  0.00     0.054 A 
BRANCH  78  79
ATOM     79  S   UNL A   1      41.549  20.182  26.371  1.00  0.00     0.124 S 
ATOM     80  O   UNL A   1      40.154  19.948  26.010  1.00  0.00    -0.237 OA
ATOM     81  O   UNL A   1      42.524  19.967  25.305  1.00  0.00    -0.237 OA
ATOM     82  O   UNL A   1      41.946  19.666  27.680  1.00  0.00    -0.744 OA
ENDBRANCH  78  79
ENDBRANCH  50  73
BRANCH  62  83
ATOM     83  C   UNL A   1      44.830  30.206  28.564  1.00  0.00    -0.014 A 
ATOM     84  C   UNL A   1      43.679  30.706  27.918  1.00  0.00     0.010 A 
ATOM     85  C   UNL A   1      46.069  30.786  28.249  1.00  0.00     0.010 A 
ATOM     86  C   UNL A   1      43.774  31.743  26.973  1.00  0.00     0.020 A 
ATOM     87  C   UNL A   1      46.169  31.829  27.325  1.00  0.00     0.020 A 
ATOM     88  C   UNL A   1      45.022  32.299  26.684  1.00  0.00     0.054 A 
BRANCH  88  89
ATOM     89  S   UNL A   1      45.141  33.674  25.504  1.00  0.00     0.124 S 
ATOM     90  O   UNL A   1      46.575  33.950  25.484  1.00  0.00    -0.237 OA
ATOM     91  O   UNL A   1      44.593  33.101  24.278  1.00  0.00    -0.237 OA
ATOM     92  O   UNL A   1      44.320  34.723  26.109  1.00  0.00    -0.744 OA
ENDBRANCH  88  89
ENDBRANCH  62  83
ENDBRANCH  36  37
ENDBRANCH  28  31
ENDBRANCH  26  27
ENDBRANCH   1  26
TORSDOF 16
ENDMDL
MODEL 3
REMARK VINA RESULT:     -12.4      1.758      3.396
REMARK SMILES C[C@H]1OCC[C@@H]1C(=O)Nc1sc2c(c1C(=O)NCCCCNC(=O)c1ccc(-c3c4nc(c(-c5ccc(S(=O)(=O)[O-])cc5)c5ccc([nH]5)c(-c5ccc(S(=O)(=O)[O-])cc5)c5nc(c(-c6ccc(S(=O)(=O)[O-])cc6)c6ccc3[nH]6)C=C5)C=C4)cc1)CCC2
REMARK SMILES IDX 20 1 19 2 18 3 17 4 15 5 16 6 14 8 10 9 11 10 12 11 13 12
REMARK SMILES IDX 87 13 85 14 86 15 9 16 7 17 8 18 6 20 1 21 2 22 3 23 4 24
REMARK SMILES IDX 5 25 21 26 22 27 23 28 24 30 25 31 26 32 84 33 27 34 83 35
REMARK SMILES IDX 28 36 29 37 30 38 77 39 31 40 82 41 76 42 78 43 32 44 81 45
REMARK SMILES IDX 75 46 74 47 33 49 63 50 44 51 62 52 45 53 48 54 61 55 79 56
REMARK SMILES IDX 46 57 47 58 60 60 80 61 49 62 34 63 35 64 43 65 36 66 42 67
REMARK SMILES IDX 37 68 38 69 39 70 40 71 41 72 64 73 65 74 73 75 66 76 72 77
REMARK SMILES IDX 67 78 68 79 69 80 70 81 71 82 50 83 51 84 59 85 52 86 58 87
REMARK SMILES IDX 53 88 54 89 55 90 56 91 57 92
REMARK H PARENT 17 7 9 19 22 29 78 48 48 59
REMARK Flexibility Score: inf
ROOT
ATOM      1  C   UNL A   1      39.106  22.439  26.301  1.00  0.00     0.023 C 
ENDROOT
BRANCH   1   2
ATOM      2  C   UNL A   1      38.173  23.639  26.526  1.00  0.00     0.023 C 
BRANCH   2   3
ATOM      3  C   UNL A   1      36.894  23.670  25.686  1.00  0.00     0.116 C 
BRANCH   3   4
ATOM      4  N   UNL A   1      37.022  23.215  24.328  1.00  0.00    -0.352 N 
ATOM      5  C   UNL A   1      36.118  22.964  23.329  1.00  0.00     0.254 C 
ATOM      6  O   UNL A   1      36.601  23.027  22.195  1.00  0.00    -0.269 OA
ATOM      7  H   UNL A   1      37.955  23.047  24.058  1.00  0.00     0.163 HD
BRANCH   5   8
ATOM      8  C   UNL A   1      34.706  22.605  23.516  1.00  0.00     0.078 A 
ATOM      9  C   UNL A   1      33.703  23.410  22.954  1.00  0.00     0.108 A 
ATOM     10  S   UNL A   1      32.161  23.212  23.681  1.00  0.00    -0.122 S 
ATOM     11  C   UNL A   1      32.713  21.870  24.489  1.00  0.00     0.011 A 
ATOM     12  C   UNL A   1      34.049  21.600  24.315  1.00  0.00    -0.019 A 
ATOM     13  C   UNL A   1      32.005  20.977  25.434  1.00  0.00     0.047 C 
ATOM     14  C   UNL A   1      34.397  20.417  25.153  1.00  0.00     0.038 C 
ATOM     15  C   UNL A   1      33.015  19.814  25.535  1.00  0.00     0.010 C 
BRANCH   9  16
ATOM     16  N   UNL A   1      33.685  24.463  22.070  1.00  0.00    -0.317 N 
ATOM     17  C   UNL A   1      33.375  25.773  22.256  1.00  0.00     0.230 C 
ATOM     18  O   UNL A   1      33.577  26.525  21.289  1.00  0.00    -0.274 OA
ATOM     19  H   UNL A   1      33.938  24.229  21.148  1.00  0.00     0.170 HD
BRANCH  17  20
ATOM     20  C   UNL A   1      32.942  26.426  23.563  1.00  0.00     0.110 C 
ATOM     21  C   UNL A   1      30.617  26.951  24.398  1.00  0.00     0.039 C 
ATOM     22  C   UNL A   1      31.736  27.346  23.436  1.00  0.00     0.127 C 
ATOM     23  O   UNL A   1      32.186  28.665  23.783  1.00  0.00    -0.378 OA
ATOM     24  C   UNL A   1      33.330  28.531  24.628  1.00  0.00     0.161 C 
ATOM     25  C   UNL A   1      33.983  27.206  24.320  1.00  0.00     0.044 C 
ENDBRANCH  17  20
ENDBRANCH   9  16
ENDBRANCH   5   8
ENDBRANCH   3   4
ENDBRANCH   2   3
ENDBRANCH   1   2
BRANCH   1  26
ATOM     26  C   UNL A   1      40.368  22.431  27.162  1.00  0.00     0.116 C 
BRANCH  26  27
ATOM     27  N   UNL A   1      41.612  22.326  26.381  1.00  0.00    -0.352 N 
ATOM     28  C   UNL A   1      42.357  23.341  25.785  1.00  0.00     0.251 C 
ATOM     29  H   UNL A   1      41.964  21.414  26.265  1.00  0.00     0.163 HD
ATOM     30  O   UNL A   1      43.150  23.109  24.893  1.00  0.00    -0.269 OA
BRANCH  28  31
ATOM     31  C   UNL A   1      42.187  24.704  26.316  1.00  0.00     0.039 A 
ATOM     32  C   UNL A   1      41.251  25.628  25.844  1.00  0.00     0.014 A 
ATOM     33  C   UNL A   1      42.988  24.997  27.405  1.00  0.00     0.014 A 
ATOM     34  C   UNL A   1      41.096  26.826  26.545  1.00  0.00     0.010 A 
ATOM     35  C   UNL A   1      42.618  25.996  28.245  1.00  0.00     0.010 A 
ATOM     36  C   UNL A   1      41.788  26.988  27.751  1.00  0.00    -0.014 A 
BRANCH  36  37
ATOM     37  C   UNL A   1      41.721  28.175  28.585  1.00  0.00     0.031 A 
ATOM     38  C   UNL A   1      42.768  29.195  28.320  1.00  0.00     0.074 A 
ATOM     39  C   UNL A   1      40.583  28.440  29.268  1.00  0.00     0.049 A 
ATOM     40  N   UNL A   1      43.696  29.591  29.123  1.00  0.00    -0.248 NA
ATOM     41  C   UNL A   1      42.890  29.751  26.960  1.00  0.00     0.031 C 
ATOM     42  C   UNL A   1      39.320  27.677  29.293  1.00  0.00     0.029 A 
ATOM     43  N   UNL A   1      40.250  29.553  29.959  1.00  0.00    -0.354 N 
ATOM     44  C   UNL A   1      44.400  30.586  28.450  1.00  0.00     0.074 A 
ATOM     45  C   UNL A   1      43.986  30.505  27.074  1.00  0.00     0.031 C 
ATOM     46  C   UNL A   1      38.315  28.476  29.717  1.00  0.00     0.029 A 
ATOM     47  C   UNL A   1      38.885  29.734  30.159  1.00  0.00     0.049 A 
ATOM     48  H   UNL A   1      40.922  30.189  30.293  1.00  0.00     0.167 HD
ATOM     49  C   UNL A   1      45.109  31.539  29.120  1.00  0.00     0.031 A 
ATOM     50  C   UNL A   1      38.279  30.867  30.601  1.00  0.00     0.031 A 
ATOM     51  C   UNL A   1      45.179  31.241  30.528  1.00  0.00     0.049 A 
ATOM     52  C   UNL A   1      39.342  31.673  31.263  1.00  0.00     0.074 A 
ATOM     53  C   UNL A   1      45.720  30.210  31.269  1.00  0.00     0.029 A 
ATOM     54  N   UNL A   1      44.236  31.840  31.337  1.00  0.00    -0.354 N 
ATOM     55  N   UNL A   1      39.983  31.266  32.328  1.00  0.00    -0.248 NA
ATOM     56  C   UNL A   1      40.051  32.656  30.455  1.00  0.00     0.031 C 
ATOM     57  C   UNL A   1      44.737  29.928  32.262  1.00  0.00     0.029 A 
ATOM     58  C   UNL A   1      43.705  30.862  32.140  1.00  0.00     0.049 A 
ATOM     59  H   UNL A   1      43.990  32.794  31.338  1.00  0.00     0.167 HD
ATOM     60  C   UNL A   1      41.314  31.591  32.095  1.00  0.00     0.074 A 
ATOM     61  C   UNL A   1      41.282  32.522  30.963  1.00  0.00     0.031 C 
ATOM     62  C   UNL A   1      42.337  30.853  32.625  1.00  0.00     0.031 A 
BRANCH  49  63
ATOM     63  C   UNL A   1      45.441  32.910  28.593  1.00  0.00    -0.014 A 
ATOM     64  C   UNL A   1      46.609  33.546  29.061  1.00  0.00     0.010 A 
ATOM     65  C   UNL A   1      44.532  33.698  27.859  1.00  0.00     0.010 A 
ATOM     66  C   UNL A   1      46.822  34.917  28.866  1.00  0.00     0.020 A 
ATOM     67  C   UNL A   1      44.754  35.057  27.623  1.00  0.00     0.020 A 
ATOM     68  C   UNL A   1      45.881  35.666  28.161  1.00  0.00     0.054 A 
BRANCH  68  69
ATOM     69  S   UNL A   1      46.107  37.456  28.018  1.00  0.00     0.124 S 
ATOM     70  O   UNL A   1      47.545  37.595  28.225  1.00  0.00    -0.237 OA
ATOM     71  O   UNL A   1      45.633  37.721  26.662  1.00  0.00    -0.237 OA
ATOM     72  O   UNL A   1      45.266  37.994  29.084  1.00  0.00    -0.744 OA
ENDBRANCH  68  69
ENDBRANCH  49  63
BRANCH  50  73
ATOM     73  C   UNL A   1      36.981  31.428  30.129  1.00  0.00    -0.014 A 
ATOM     74  C   UNL A   1      36.059  32.013  31.019  1.00  0.00     0.010 A 
ATOM     75  C   UNL A   1      36.761  31.632  28.749  1.00  0.00     0.010 A 
ATOM     76  C   UNL A   1      35.001  32.817  30.547  1.00  0.00     0.020 A 
ATOM     77  C   UNL A   1      35.710  32.426  28.272  1.00  0.00     0.020 A 
ATOM     78  C   UNL A   1      34.847  33.037  29.176  1.00  0.00     0.054 A 
BRANCH  78  79
ATOM     79  S   UNL A   1      33.605  34.229  28.585  1.00  0.00     0.124 S 
ATOM     80  O   UNL A   1      32.921  34.604  29.820  1.00  0.00    -0.237 OA
ATOM     81  O   UNL A   1      34.428  35.271  27.977  1.00  0.00    -0.237 OA
ATOM     82  O   UNL A   1      32.802  33.452  27.644  1.00  0.00    -0.744 OA
ENDBRANCH  78  79
ENDBRANCH  50  73
BRANCH  62  83
ATOM     83  C   UNL A   1      42.011  29.770  33.637  1.00  0.00    -0.014 A 
ATOM     84  C   UNL A   1      41.662  28.448  33.290  1.00  0.00     0.010 A 
ATOM     85  C   UNL A   1      42.278  30.051  34.987  1.00  0.00     0.010 A 
ATOM     86  C   UNL A   1      41.568  27.444  34.270  1.00  0.00     0.020 A 
ATOM     87  C   UNL A   1      42.204  29.055  35.964  1.00  0.00     0.020 A 
ATOM     88  C   UNL A   1      41.841  27.757  35.603  1.00  0.00     0.054 A 
BRANCH  88  89
ATOM     89  S   UNL A   1      41.772  26.452  36.864  1.00  0.00     0.124 S 
ATOM     90  O   UNL A   1      42.922  26.766  37.708  1.00  0.00    -0.237 OA
ATOM     91  O   UNL A   1      40.464  26.660  37.479  1.00  0.00    -0.237 OA
ATOM     92  O   UNL A   1      41.894  25.215  36.091  1.00  0.00    -0.744 OA
ENDBRANCH  88  89
ENDBRANCH  62  83
ENDBRANCH  36  37
ENDBRANCH  28  31
ENDBRANCH  26  27
ENDBRANCH   1  26
TORSDOF 16
ENDMDL
