MODEL 1
REMARK VINA RESULT:     -12.0      0.000      0.000
REMARK SMILES CC(C)[C@H](NC(=O)Cn1ccc2c(Br)cccc21)C(=O)NCCCCNC(=O)c1ccc(-c2c3nc(c(-c4ccc(S(=O)(=O)[O-])cc4)c4ccc([nH]4)c(-c4ccc(S(=O)(=O)[O-])cc4)c4nc(c(-c5ccc(S(=O)(=O)[O-])cc5)c5ccc2[nH]5)C=C4)C=C3)cc1
REMARK SMILES IDX 23 1 22 2 21 3 19 4 20 5 4 7 2 8 1 9 3 10 5 11 6 12 7 14
REMARK SMILES IDX 8 15 9 16 10 17 18 18 11 19 12 20 17 21 13 22 16 23 14 24
REMARK SMILES IDX 15 25 24 26 25 27 26 28 27 29 28 31 29 32 30 33 88 34 31 35
REMARK SMILES IDX 87 36 32 37 33 38 34 39 81 40 35 41 86 42 80 43 82 44 36 45
REMARK SMILES IDX 85 46 79 47 78 48 37 50 67 51 48 52 66 53 49 54 52 55 65 56
REMARK SMILES IDX 83 57 50 58 51 59 64 61 84 62 53 63 38 64 39 65 47 66 40 67
REMARK SMILES IDX 46 68 41 69 42 70 43 71 44 72 45 73 68 74 69 75 77 76 70 77
REMARK SMILES IDX 76 78 71 79 72 80 73 81 74 82 75 83 54 84 55 85 63 86 56 87
REMARK SMILES IDX 62 88 57 89 58 90 59 91 60 92 61 93
REMARK H PARENT 21 6 5 13 26 30 82 49 52 60
REMARK Flexibility Score: inf
ROOT
ATOM      1  C   UNL A   1      38.766  22.660  26.121  1.00  0.00     0.023 C 
ENDROOT
BRANCH   1   2
ATOM      2  C   UNL A   1      37.292  22.511  25.592  1.00  0.00     0.116 C 
BRANCH   2   3
ATOM      3  N   UNL A   1      36.113  22.238  26.434  1.00  0.00    -0.354 N 
ATOM      4  C   UNL A   1      34.750  22.277  26.394  1.00  0.00     0.242 C 
ATOM      5  O   UNL A   1      34.139  21.910  27.402  1.00  0.00    -0.273 OA
ATOM      6  H   UNL A   1      36.407  21.922  27.320  1.00  0.00     0.163 HD
BRANCH   4   7
ATOM      7  C   UNL A   1      33.946  22.575  25.141  1.00  0.00     0.173 C 
BRANCH   7   8
ATOM      8  C   UNL A   1      33.390  21.166  24.746  1.00  0.00     0.015 C 
ATOM      9  C   UNL A   1      32.441  21.220  23.540  1.00  0.00     0.010 C 
ATOM     10  C   UNL A   1      34.400  20.035  24.630  1.00  0.00     0.010 C 
ENDBRANCH   7   8
BRANCH   7  11
ATOM     11  N   UNL A   1      34.621  23.395  24.127  1.00  0.00    -0.343 N 
ATOM     12  C   UNL A   1      34.042  24.554  23.594  1.00  0.00     0.240 C 
ATOM     13  H   UNL A   1      35.511  23.120  23.810  1.00  0.00     0.164 HD
ATOM     14  O   UNL A   1      33.950  24.659  22.370  1.00  0.00    -0.273 OA
BRANCH  12  15
ATOM     15  C   UNL A   1      33.882  25.744  24.525  1.00  0.00     0.222 C 
BRANCH  15  16
ATOM     16  N   UNL A   1      33.014  26.893  24.246  1.00  0.00    -0.338 N 
ATOM     17  C   UNL A   1      33.473  28.187  24.310  1.00  0.00     0.087 A 
ATOM     18  C   UNL A   1      31.614  26.948  24.224  1.00  0.00     0.050 A 
ATOM     19  C   UNL A   1      32.425  29.023  23.995  1.00  0.00     0.029 A 
ATOM     20  C   UNL A   1      31.259  28.234  23.806  1.00  0.00     0.014 A 
ATOM     21  C   UNL A   1      30.575  26.056  24.554  1.00  0.00     0.027 A 
ATOM     22  C   UNL A   1      29.912  28.485  23.442  1.00  0.00     0.027 A 
ATOM     23  C   UNL A   1      29.272  26.270  24.098  1.00  0.00     0.003 A 
ATOM     24  Br  UNL A   1      29.368  30.213  22.895  1.00  0.00    -0.050 Br
ATOM     25  C   UNL A   1      28.949  27.470  23.498  1.00  0.00     0.016 A 
ENDBRANCH  15  16
ENDBRANCH  12  15
ENDBRANCH   7  11
ENDBRANCH   4   7
ENDBRANCH   2   3
ENDBRANCH   1   2
BRANCH   1  26
ATOM     26  C   UNL A   1      39.760  21.522  26.509  1.00  0.00     0.023 C 
BRANCH  26  27
ATOM     27  C   UNL A   1      41.015  21.849  27.282  1.00  0.00     0.116 C 
BRANCH  27  28
ATOM     28  N   UNL A   1      42.154  22.082  26.411  1.00  0.00    -0.352 N 
ATOM     29  C   UNL A   1      42.634  23.279  25.910  1.00  0.00     0.251 C 
ATOM     30  H   UNL A   1      42.654  21.277  26.141  1.00  0.00     0.163 HD
ATOM     31  O   UNL A   1      43.303  23.285  24.893  1.00  0.00    -0.269 OA
BRANCH  29  32
ATOM     32  C   UNL A   1      42.324  24.533  26.626  1.00  0.00     0.039 A 
ATOM     33  C   UNL A   1      42.960  24.865  27.825  1.00  0.00     0.014 A 
ATOM     34  C   UNL A   1      41.358  25.378  26.089  1.00  0.00     0.014 A 
ATOM     35  C   UNL A   1      42.614  26.061  28.446  1.00  0.00     0.010 A 
ATOM     36  C   UNL A   1      41.220  26.654  26.546  1.00  0.00     0.010 A 
ATOM     37  C   UNL A   1      41.740  26.945  27.788  1.00  0.00    -0.014 A 
BRANCH  37  38
ATOM     38  C   UNL A   1      41.389  28.239  28.331  1.00  0.00     0.031 A 
ATOM     39  C   UNL A   1      42.374  29.283  27.995  1.00  0.00     0.074 A 
ATOM     40  C   UNL A   1      40.213  28.506  28.933  1.00  0.00     0.049 A 
ATOM     41  N   UNL A   1      43.378  29.629  28.725  1.00  0.00    -0.248 NA
ATOM     42  C   UNL A   1      42.398  29.828  26.630  1.00  0.00     0.031 C 
ATOM     43  C   UNL A   1      39.027  27.652  29.096  1.00  0.00     0.029 A 
ATOM     44  N   UNL A   1      39.816  29.671  29.502  1.00  0.00    -0.354 N 
ATOM     45  C   UNL A   1      44.005  30.642  28.024  1.00  0.00     0.074 A 
ATOM     46  C   UNL A   1      43.520  30.551  26.668  1.00  0.00     0.031 C 
ATOM     47  C   UNL A   1      37.991  28.389  29.565  1.00  0.00     0.029 A 
ATOM     48  C   UNL A   1      38.485  29.713  29.900  1.00  0.00     0.049 A 
ATOM     49  H   UNL A   1      40.427  30.434  29.625  1.00  0.00     0.167 HD
ATOM     50  C   UNL A   1      44.624  31.657  28.685  1.00  0.00     0.031 A 
ATOM     51  C   UNL A   1      37.867  30.751  30.519  1.00  0.00     0.031 A 
ATOM     52  C   UNL A   1      44.746  31.372  30.096  1.00  0.00     0.049 A 
ATOM     53  C   UNL A   1      38.949  31.517  31.186  1.00  0.00     0.074 A 
ATOM     54  C   UNL A   1      45.389  30.411  30.849  1.00  0.00     0.029 A 
ATOM     55  N   UNL A   1      43.752  31.892  30.896  1.00  0.00    -0.354 N 
ATOM     56  N   UNL A   1      39.662  31.041  32.168  1.00  0.00    -0.248 NA
ATOM     57  C   UNL A   1      39.530  32.649  30.483  1.00  0.00     0.031 C 
ATOM     58  C   UNL A   1      44.490  30.106  31.915  1.00  0.00     0.029 A 
ATOM     59  C   UNL A   1      43.374  30.939  31.807  1.00  0.00     0.049 A 
ATOM     60  H   UNL A   1      43.375  32.799  30.824  1.00  0.00     0.167 HD
ATOM     61  C   UNL A   1      40.944  31.518  31.938  1.00  0.00     0.074 A 
ATOM     62  C   UNL A   1      40.777  32.589  30.956  1.00  0.00     0.031 C 
ATOM     63  C   UNL A   1      42.040  30.825  32.363  1.00  0.00     0.031 A 
BRANCH  50  64
ATOM     64  C   UNL A   1      44.692  33.059  28.147  1.00  0.00    -0.014 A 
ATOM     65  C   UNL A   1      45.946  33.682  28.025  1.00  0.00     0.010 A 
ATOM     66  C   UNL A   1      43.548  33.874  28.004  1.00  0.00     0.010 A 
ATOM     67  C   UNL A   1      46.047  35.061  27.803  1.00  0.00     0.020 A 
ATOM     68  C   UNL A   1      43.637  35.240  27.739  1.00  0.00     0.020 A 
ATOM     69  C   UNL A   1      44.890  35.830  27.662  1.00  0.00     0.054 A 
BRANCH  69  70
ATOM     70  S   UNL A   1      45.034  37.621  27.461  1.00  0.00     0.124 S 
ATOM     71  O   UNL A   1      45.250  38.064  28.835  1.00  0.00    -0.237 OA
ATOM     72  O   UNL A   1      46.184  37.733  26.569  1.00  0.00    -0.237 OA
ATOM     73  O   UNL A   1      43.753  38.005  26.875  1.00  0.00    -0.744 OA
ENDBRANCH  69  70
ENDBRANCH  50  64
BRANCH  51  74
ATOM     74  C   UNL A   1      36.537  31.360  30.244  1.00  0.00    -0.014 A 
ATOM     75  C   UNL A   1      35.986  32.265  31.175  1.00  0.00     0.010 A 
ATOM     76  C   UNL A   1      35.981  31.334  28.950  1.00  0.00     0.010 A 
ATOM     77  C   UNL A   1      35.014  33.202  30.793  1.00  0.00     0.020 A 
ATOM     78  C   UNL A   1      34.999  32.259  28.566  1.00  0.00     0.020 A 
ATOM     79  C   UNL A   1      34.555  33.219  29.476  1.00  0.00     0.054 A 
BRANCH  79  80
ATOM     80  S   UNL A   1      33.466  34.574  28.940  1.00  0.00     0.124 S 
ATOM     81  O   UNL A   1      32.615  33.921  27.948  1.00  0.00    -0.237 OA
ATOM     82  O   UNL A   1      32.807  34.950  30.187  1.00  0.00    -0.237 OA
ATOM     83  O   UNL A   1      34.393  35.568  28.403  1.00  0.00    -0.744 OA
ENDBRANCH  79  80
ENDBRANCH  51  74
BRANCH  63  84
ATOM     84  C   UNL A   1      41.825  29.724  33.379  1.00  0.00    -0.014 A 
ATOM     85  C   UNL A   1      41.637  28.366  33.055  1.00  0.00     0.010 A 
ATOM     86  C   UNL A   1      41.970  30.077  34.731  1.00  0.00     0.010 A 
ATOM     87  C   UNL A   1      41.600  27.388  34.065  1.00  0.00     0.020 A 
ATOM     88  C   UNL A   1      41.949  29.111  35.738  1.00  0.00     0.020 A 
ATOM     89  C   UNL A   1      41.768  27.769  35.402  1.00  0.00     0.054 A 
BRANCH  89  90
ATOM     90  S   UNL A   1      41.780  26.502  36.704  1.00  0.00     0.124 S 
ATOM     91  O   UNL A   1      40.504  26.720  37.379  1.00  0.00    -0.237 OA
ATOM     92  O   UNL A   1      41.883  25.261  35.941  1.00  0.00    -0.237 OA
ATOM     93  O   UNL A   1      42.961  26.831  37.501  1.00  0.00    -0.744 OA
ENDBRANCH  89  90
ENDBRANCH  63  84
ENDBRANCH  37  38
ENDBRANCH  29  32
ENDBRANCH  27  28
ENDBRANCH  26  27
ENDBRANCH   1  26
TORSDOF 18
ENDMDL
MODEL 2
REMARK VINA RESULT:     -11.8      5.109     12.050
REMARK SMILES CC(C)[C@H](NC(=O)Cn1ccc2c(Br)cccc21)C(=O)NCCCCNC(=O)c1ccc(-c2c3nc(c(-c4ccc(S(=O)(=O)[O-])cc4)c4ccc([nH]4)c(-c4ccc(S(=O)(=O)[O-])cc4)c4nc(c(-c5ccc(S(=O)(=O)[O-])cc5)c5ccc2[nH]5)C=C4)C=C3)cc1
REMARK SMILES IDX 23 1 22 2 21 3 19 4 20 5 4 7 2 8 1 9 3 10 5 11 6 12 7 14
REMARK SMILES IDX 8 15 9 16 10 17 18 18 11 19 12 20 17 21 13 22 16 23 14 24
REMARK SMILES IDX 15 25 24 26 25 27 26 28 27 29 28 31 29 32 30 33 88 34 31 35
REMARK SMILES IDX 87 36 32 37 33 38 34 39 81 40 35 41 86 42 80 43 82 44 36 45
REMARK SMILES IDX 85 46 79 47 78 48 37 50 67 51 48 52 66 53 49 54 52 55 65 56
REMARK SMILES IDX 83 57 50 58 51 59 64 61 84 62 53 63 38 64 39 65 47 66 40 67
REMARK SMILES IDX 46 68 41 69 42 70 43 71 44 72 45 73 68 74 69 75 77 76 70 77
REMARK SMILES IDX 76 78 71 79 72 80 73 81 74 82 75 83 54 84 55 85 63 86 56 87
REMARK SMILES IDX 62 88 57 89 58 90 59 91 60 92 61 93
REMARK H PARENT 21 6 5 13 26 30 82 49 52 60
REMARK Flexibility Score: inf
ROOT
ATOM      1  C   UNL A   1      36.223  31.311  32.763  1.00  0.00     0.023 C 
ENDROOT
BRANCH   1   2
ATOM      2  C   UNL A   1      37.742  31.219  33.164  1.00  0.00     0.116 C 
BRANCH   2   3
ATOM      3  N   UNL A   1      38.255  30.613  34.407  1.00  0.00    -0.354 N 
ATOM      4  C   UNL A   1      38.916  30.945  35.552  1.00  0.00     0.242 C 
ATOM      5  O   UNL A   1      39.121  30.046  36.374  1.00  0.00    -0.273 OA
ATOM      6  H   UNL A   1      38.051  29.649  34.412  1.00  0.00     0.163 HD
BRANCH   4   7
ATOM      7  C   UNL A   1      39.259  32.369  35.953  1.00  0.00     0.173 C 
BRANCH   7   8
ATOM      8  C   UNL A   1      38.434  32.563  37.270  1.00  0.00     0.015 C 
ATOM      9  C   UNL A   1      39.303  33.015  38.452  1.00  0.00     0.010 C 
ATOM     10  C   UNL A   1      37.148  33.367  37.165  1.00  0.00     0.010 C 
ENDBRANCH   7   8
BRANCH   7  11
ATOM     11  N   UNL A   1      39.163  33.374  34.888  1.00  0.00    -0.343 N 
ATOM     12  C   UNL A   1      39.767  34.635  34.991  1.00  0.00     0.240 C 
ATOM     13  H   UNL A   1      38.657  33.156  34.072  1.00  0.00     0.164 HD
ATOM     14  O   UNL A   1      39.074  35.638  34.811  1.00  0.00    -0.273 OA
BRANCH  12  15
ATOM     15  C   UNL A   1      41.286  34.684  34.973  1.00  0.00     0.222 C 
BRANCH  15  16
ATOM     16  N   UNL A   1      42.080  35.116  33.819  1.00  0.00    -0.338 N 
ATOM     17  C   UNL A   1      42.971  36.160  33.895  1.00  0.00     0.087 A 
ATOM     18  C   UNL A   1      41.866  34.849  32.460  1.00  0.00     0.050 A 
ATOM     19  C   UNL A   1      43.551  36.311  32.656  1.00  0.00     0.029 A 
ATOM     20  C   UNL A   1      42.949  35.387  31.759  1.00  0.00     0.014 A 
ATOM     21  C   UNL A   1      40.842  34.235  31.713  1.00  0.00     0.027 A 
ATOM     22  C   UNL A   1      43.125  35.034  30.398  1.00  0.00     0.027 A 
ATOM     23  C   UNL A   1      41.069  33.802  30.403  1.00  0.00     0.003 A 
ATOM     24  Br  UNL A   1      44.556  35.756  29.392  1.00  0.00    -0.050 Br
ATOM     25  C   UNL A   1      42.234  34.163  29.759  1.00  0.00     0.016 A 
ENDBRANCH  15  16
ENDBRANCH  12  15
ENDBRANCH   7  11
ENDBRANCH   4   7
ENDBRANCH   2   3
ENDBRANCH   1   2
BRANCH   1  26
ATOM     26  C   UNL A   1      35.330  32.588  32.693  1.00  0.00     0.023 C 
BRANCH  26  27
ATOM     27  C   UNL A   1      35.335  33.444  31.449  1.00  0.00     0.116 C 
BRANCH  27  28
ATOM     28  N   UNL A   1      34.531  32.872  30.384  1.00  0.00    -0.352 N 
ATOM     29  C   UNL A   1      34.945  32.196  29.249  1.00  0.00     0.251 C 
ATOM     30  H   UNL A   1      33.557  32.980  30.481  1.00  0.00     0.163 HD
ATOM     31  O   UNL A   1      34.221  32.153  28.272  1.00  0.00    -0.269 OA
BRANCH  29  32
ATOM     32  C   UNL A   1      36.265  31.534  29.251  1.00  0.00     0.039 A 
ATOM     33  C   UNL A   1      37.451  32.270  29.299  1.00  0.00     0.014 A 
ATOM     34  C   UNL A   1      36.306  30.144  29.182  1.00  0.00     0.014 A 
ATOM     35  C   UNL A   1      38.658  31.578  29.293  1.00  0.00     0.010 A 
ATOM     36  C   UNL A   1      37.460  29.470  29.447  1.00  0.00     0.010 A 
ATOM     37  C   UNL A   1      38.641  30.174  29.369  1.00  0.00    -0.014 A 
BRANCH  37  38
ATOM     38  C   UNL A   1      39.852  29.385  29.443  1.00  0.00     0.031 A 
ATOM     39  C   UNL A   1      40.223  29.042  30.827  1.00  0.00     0.074 A 
ATOM     40  C   UNL A   1      40.482  28.874  28.366  1.00  0.00     0.049 A 
ATOM     41  N   UNL A   1      41.024  29.716  31.578  1.00  0.00    -0.248 NA
ATOM     42  C   UNL A   1      39.463  27.999  31.531  1.00  0.00     0.031 C 
ATOM     43  C   UNL A   1      40.085  28.894  26.950  1.00  0.00     0.029 A 
ATOM     44  N   UNL A   1      41.634  28.161  28.337  1.00  0.00    -0.354 N 
ATOM     45  C   UNL A   1      41.082  29.017  32.769  1.00  0.00     0.074 A 
ATOM     46  C   UNL A   1      39.940  28.134  32.771  1.00  0.00     0.031 C 
ATOM     47  C   UNL A   1      40.893  28.075  26.234  1.00  0.00     0.029 A 
ATOM     48  C   UNL A   1      41.964  27.616  27.101  1.00  0.00     0.049 A 
ATOM     49  H   UNL A   1      42.198  28.036  29.135  1.00  0.00     0.167 HD
ATOM     50  C   UNL A   1      42.227  28.999  33.503  1.00  0.00     0.031 A 
ATOM     51  C   UNL A   1      43.077  26.895  26.817  1.00  0.00     0.031 A 
ATOM     52  C   UNL A   1      43.182  29.968  33.016  1.00  0.00     0.049 A 
ATOM     53  C   UNL A   1      44.082  27.297  27.833  1.00  0.00     0.074 A 
ATOM     54  C   UNL A   1      43.209  31.342  32.900  1.00  0.00     0.029 A 
ATOM     55  N   UNL A   1      44.124  29.484  32.135  1.00  0.00    -0.354 N 
ATOM     56  N   UNL A   1      44.585  28.497  27.906  1.00  0.00    -0.248 NA
ATOM     57  C   UNL A   1      44.209  26.491  29.036  1.00  0.00     0.031 C 
ATOM     58  C   UNL A   1      43.866  31.601  31.660  1.00  0.00     0.029 A 
ATOM     59  C   UNL A   1      44.273  30.383  31.109  1.00  0.00     0.049 A 
ATOM     60  H   UNL A   1      44.610  28.633  32.226  1.00  0.00     0.167 HD
ATOM     61  C   UNL A   1      44.702  28.750  29.265  1.00  0.00     0.074 A 
ATOM     62  C   UNL A   1      44.563  27.442  29.904  1.00  0.00     0.031 C 
ATOM     63  C   UNL A   1      44.634  30.022  29.752  1.00  0.00     0.031 A 
BRANCH  50  64
ATOM     64  C   UNL A   1      42.645  27.817  34.334  1.00  0.00    -0.014 A 
ATOM     65  C   UNL A   1      42.832  27.989  35.716  1.00  0.00     0.010 A 
ATOM     66  C   UNL A   1      43.110  26.613  33.763  1.00  0.00     0.010 A 
ATOM     67  C   UNL A   1      43.483  27.014  36.482  1.00  0.00     0.020 A 
ATOM     68  C   UNL A   1      43.720  25.617  34.523  1.00  0.00     0.020 A 
ATOM     69  C   UNL A   1      43.923  25.835  35.878  1.00  0.00     0.054 A 
BRANCH  69  70
ATOM     70  S   UNL A   1      44.837  24.622  36.860  1.00  0.00     0.124 S 
ATOM     71  O   UNL A   1      46.213  25.086  36.710  1.00  0.00    -0.237 OA
ATOM     72  O   UNL A   1      44.247  24.800  38.184  1.00  0.00    -0.237 OA
ATOM     73  O   UNL A   1      44.531  23.352  36.209  1.00  0.00    -0.744 OA
ENDBRANCH  69  70
ENDBRANCH  50  64
BRANCH  51  74
ATOM     74  C   UNL A   1      43.212  25.628  26.047  1.00  0.00    -0.014 A 
ATOM     75  C   UNL A   1      44.386  25.396  25.300  1.00  0.00     0.010 A 
ATOM     76  C   UNL A   1      42.377  24.525  26.312  1.00  0.00     0.010 A 
ATOM     77  C   UNL A   1      44.782  24.096  24.950  1.00  0.00     0.020 A 
ATOM     78  C   UNL A   1      42.761  23.224  25.953  1.00  0.00     0.020 A 
ATOM     79  C   UNL A   1      43.984  23.012  25.316  1.00  0.00     0.054 A 
BRANCH  79  80
ATOM     80  S   UNL A   1      44.615  21.326  25.055  1.00  0.00     0.124 S 
ATOM     81  O   UNL A   1      44.563  21.191  23.602  1.00  0.00    -0.237 OA
ATOM     82  O   UNL A   1      45.953  21.405  25.634  1.00  0.00    -0.237 OA
ATOM     83  O   UNL A   1      43.670  20.488  25.789  1.00  0.00    -0.744 OA
ENDBRANCH  79  80
ENDBRANCH  51  74
BRANCH  63  84
ATOM     84  C   UNL A   1      44.778  31.162  28.767  1.00  0.00    -0.014 A 
ATOM     85  C   UNL A   1      45.958  31.910  28.582  1.00  0.00     0.010 A 
ATOM     86  C   UNL A   1      43.702  31.378  27.891  1.00  0.00     0.010 A 
ATOM     87  C   UNL A   1      46.053  32.848  27.539  1.00  0.00     0.020 A 
ATOM     88  C   UNL A   1      43.793  32.298  26.845  1.00  0.00     0.020 A 
ATOM     89  C   UNL A   1      44.970  33.027  26.669  1.00  0.00     0.054 A 
BRANCH  89  90
ATOM     90  S   UNL A   1      45.110  34.195  25.285  1.00  0.00     0.124 S 
ATOM     91  O   UNL A   1      44.589  33.426  24.158  1.00  0.00    -0.237 OA
ATOM     92  O   UNL A   1      44.276  35.311  25.724  1.00  0.00    -0.237 OA
ATOM     93  O   UNL A   1      46.541  34.489  25.219  1.00  0.00    -0.744 OA
ENDBRANCH  89  90
ENDBRANCH  63  84
ENDBRANCH  37  38
ENDBRANCH  29  32
ENDBRANCH  27  28
ENDBRANCH  26  27
ENDBRANCH   1  26
TORSDOF 18
ENDMDL
MODEL 3
REMARK VINA RESULT:     -11.6      3.031      9.764
REMARK SMILES CC(C)[C@H](NC(=O)Cn1ccc2c(Br)cccc21)C(=O)NCCCCNC(=O)c1ccc(-c2c3nc(c(-c4ccc(S(=O)(=O)[O-])cc4)c4ccc([nH]4)c(-c4ccc(S(=O)(=O)[O-])cc4)c4nc(c(-c5ccc(S(=O)(=O)[O-])cc5)c5ccc2[nH]5)C=C4)C=C3)cc1
REMARK SMILES IDX 23 1 22 2 21 3 19 4 20 5 4 7 2 8 1 9 3 10 5 11 6 12 7 14
REMARK SMILES IDX 8 15 9 16 10 17 18 18 11 19 12 20 17 21 13 22 16 23 14 24
REMARK SMILES IDX 15 25 24 26 25 27 26 28 27 29 28 31 29 32 30 33 88 34 31 35
REMARK SMILES IDX 87 36 32 37 33 38 34 39 81 40 35 41 86 42 80 43 82 44 36 45
REMARK SMILES IDX 85 46 79 47 78 48 37 50 67 51 48 52 66 53 49 54 52 55 65 56
REMARK SMILES IDX 83 57 50 58 51 59 64 61 84 62 53 63 38 64 39 65 47 66 40 67
REMARK SMILES IDX 46 68 41 69 42 70 43 71 44 72 45 73 68 74 69 75 77 76 70 77
REMARK SMILES IDX 76 78 71 79 72 80 73 81 74 82 75 83 54 84 55 85 63 86 56 87
REMARK SMILES IDX 62 88 57 89 58 90 59 91 60 92 61 93
REMARK H PARENT 21 6 5 13 26 30 82 49 52 60
REMARK Flexibility Score: inf
ROOT
ATOM      1  C   UNL A   1      33.768  29.312  27.382  1.00  0.00     0.023 C 
ENDROOT
BRANCH   1   2
ATOM      2  C   UNL A   1      34.036  28.272  26.232  1.00  0.00     0.116 C 
BRANCH   2   3
ATOM      3  N   UNL A   1      34.140  28.603  24.798  1.00  0.00    -0.354 N 
ATOM      4  C   UNL A   1      33.484  28.417  23.618  1.00  0.00     0.242 C 
ATOM      5  O   UNL A   1      33.970  28.935  22.607  1.00  0.00    -0.273 OA
ATOM      6  H   UNL A   1      34.954  29.136  24.642  1.00  0.00     0.163 HD
BRANCH   4   7
ATOM      7  C   UNL A   1      32.116  27.767  23.500  1.00  0.00     0.173 C 
BRANCH   7   8
ATOM      8  C   UNL A   1      31.155  29.001  23.424  1.00  0.00     0.015 C 
ATOM      9  C   UNL A   1      29.852  28.692  22.673  1.00  0.00     0.010 C 
ATOM     10  C   UNL A   1      30.905  29.760  24.717  1.00  0.00     0.010 C 
ENDBRANCH   7   8
BRANCH   7  11
ATOM     11  N   UNL A   1      31.834  26.691  24.458  1.00  0.00    -0.343 N 
ATOM     12  C   UNL A   1      31.139  25.530  24.096  1.00  0.00     0.240 C 
ATOM     13  H   UNL A   1      32.144  26.789  25.387  1.00  0.00     0.164 HD
ATOM     14  O   UNL A   1      30.153  25.201  24.758  1.00  0.00    -0.273 OA
BRANCH  12  15
ATOM     15  C   UNL A   1      31.832  24.571  23.143  1.00  0.00     0.222 C 
BRANCH  15  16
ATOM     16  N   UNL A   1      33.085  23.873  23.447  1.00  0.00    -0.338 N 
ATOM     17  C   UNL A   1      34.312  24.406  23.133  1.00  0.00     0.087 A 
ATOM     18  C   UNL A   1      33.282  22.517  23.745  1.00  0.00     0.050 A 
ATOM     19  C   UNL A   1      35.277  23.516  23.548  1.00  0.00     0.029 A 
ATOM     20  C   UNL A   1      34.634  22.359  24.065  1.00  0.00     0.014 A 
ATOM     21  C   UNL A   1      32.470  21.368  23.746  1.00  0.00     0.027 A 
ATOM     22  C   UNL A   1      35.056  21.144  24.661  1.00  0.00     0.027 A 
ATOM     23  C   UNL A   1      32.861  20.211  24.426  1.00  0.00     0.003 A 
ATOM     24  Br  UNL A   1      36.878  20.863  25.088  1.00  0.00    -0.050 Br
ATOM     25  C   UNL A   1      34.143  20.117  24.927  1.00  0.00     0.016 A 
ENDBRANCH  15  16
ENDBRANCH  12  15
ENDBRANCH   7  11
ENDBRANCH   4   7
ENDBRANCH   2   3
ENDBRANCH   1   2
BRANCH   1  26
ATOM     26  C   UNL A   1      33.717  30.867  27.270  1.00  0.00     0.023 C 
BRANCH  26  27
ATOM     27  C   UNL A   1      34.924  31.689  27.655  1.00  0.00     0.116 C 
BRANCH  27  28
ATOM     28  N   UNL A   1      34.823  32.216  29.005  1.00  0.00    -0.352 N 
ATOM     29  C   UNL A   1      35.524  31.841  30.138  1.00  0.00     0.251 C 
ATOM     30  H   UNL A   1      34.167  32.939  29.132  1.00  0.00     0.163 HD
ATOM     31  O   UNL A   1      35.055  32.059  31.240  1.00  0.00    -0.269 OA
BRANCH  29  32
ATOM     32  C   UNL A   1      36.837  31.183  29.984  1.00  0.00     0.039 A 
ATOM     33  C   UNL A   1      38.018  31.923  29.889  1.00  0.00     0.014 A 
ATOM     34  C   UNL A   1      36.874  29.794  29.914  1.00  0.00     0.014 A 
ATOM     35  C   UNL A   1      39.218  31.234  29.742  1.00  0.00     0.010 A 
ATOM     36  C   UNL A   1      38.054  29.123  30.041  1.00  0.00     0.010 A 
ATOM     37  C   UNL A   1      39.215  29.831  29.822  1.00  0.00    -0.014 A 
BRANCH  37  38
ATOM     38  C   UNL A   1      40.428  29.045  29.753  1.00  0.00     0.031 A 
ATOM     39  C   UNL A   1      41.043  28.832  31.074  1.00  0.00     0.074 A 
ATOM     40  C   UNL A   1      40.863  28.432  28.633  1.00  0.00     0.049 A 
ATOM     41  N   UNL A   1      41.957  29.570  31.605  1.00  0.00    -0.248 NA
ATOM     42  C   UNL A   1      40.432  27.864  31.997  1.00  0.00     0.031 C 
ATOM     43  C   UNL A   1      40.220  28.321  27.315  1.00  0.00     0.029 A 
ATOM     44  N   UNL A   1      42.000  27.712  28.467  1.00  0.00    -0.354 N 
ATOM     45  C   UNL A   1      42.233  28.985  32.827  1.00  0.00     0.074 A 
ATOM     46  C   UNL A   1      41.120  28.113  33.115  1.00  0.00     0.031 C 
ATOM     47  C   UNL A   1      40.898  27.433  26.547  1.00  0.00     0.029 A 
ATOM     48  C   UNL A   1      42.111  27.052  27.249  1.00  0.00     0.049 A 
ATOM     49  H   UNL A   1      42.697  27.661  29.160  1.00  0.00     0.167 HD
ATOM     50  C   UNL A   1      43.491  29.030  33.343  1.00  0.00     0.031 A 
ATOM     51  C   UNL A   1      43.164  26.301  26.840  1.00  0.00     0.031 A 
ATOM     52  C   UNL A   1      44.333  29.943  32.607  1.00  0.00     0.049 A 
ATOM     53  C   UNL A   1      44.329  26.791  27.619  1.00  0.00     0.074 A 
ATOM     54  C   UNL A   1      44.323  31.300  32.359  1.00  0.00     0.029 A 
ATOM     55  N   UNL A   1      45.109  29.374  31.620  1.00  0.00    -0.354 N 
ATOM     56  N   UNL A   1      44.823  27.990  27.488  1.00  0.00    -0.248 NA
ATOM     57  C   UNL A   1      44.677  26.101  28.850  1.00  0.00     0.031 C 
ATOM     58  C   UNL A   1      44.747  31.438  31.003  1.00  0.00     0.029 A 
ATOM     59  C   UNL A   1      45.063  30.171  30.506  1.00  0.00     0.049 A 
ATOM     60  H   UNL A   1      45.613  28.532  31.703  1.00  0.00     0.167 HD
ATOM     61  C   UNL A   1      45.176  28.369  28.775  1.00  0.00     0.074 A 
ATOM     62  C   UNL A   1      45.168  27.128  29.549  1.00  0.00     0.031 C 
ATOM     63  C   UNL A   1      45.181  29.682  29.146  1.00  0.00     0.031 A 
BRANCH  50  64
ATOM     64  C   UNL A   1      44.062  27.929  34.194  1.00  0.00    -0.014 A 
ATOM     65  C   UNL A   1      44.534  26.762  33.569  1.00  0.00     0.010 A 
ATOM     66  C   UNL A   1      43.911  27.896  35.597  1.00  0.00     0.010 A 
ATOM     67  C   UNL A   1      44.811  25.608  34.313  1.00  0.00     0.020 A 
ATOM     68  C   UNL A   1      44.224  26.768  36.352  1.00  0.00     0.020 A 
ATOM     69  C   UNL A   1      44.652  25.620  35.700  1.00  0.00     0.054 A 
BRANCH  69  70
ATOM     70  S   UNL A   1      44.929  24.099  36.639  1.00  0.00     0.124 S 
ATOM     71  O   UNL A   1      46.380  23.959  36.567  1.00  0.00    -0.237 OA
ATOM     72  O   UNL A   1      44.389  24.451  37.949  1.00  0.00    -0.237 OA
ATOM     73  O   UNL A   1      44.166  23.096  35.901  1.00  0.00    -0.744 OA
ENDBRANCH  69  70
ENDBRANCH  50  64
BRANCH  51  74
ATOM     74  C   UNL A   1      43.174  24.967  26.180  1.00  0.00    -0.014 A 
ATOM     75  C   UNL A   1      43.950  24.778  25.016  1.00  0.00     0.010 A 
ATOM     76  C   UNL A   1      42.724  23.818  26.859  1.00  0.00     0.010 A 
ATOM     77  C   UNL A   1      44.375  23.500  24.624  1.00  0.00     0.020 A 
ATOM     78  C   UNL A   1      43.134  22.536  26.463  1.00  0.00     0.020 A 
ATOM     79  C   UNL A   1      43.996  22.387  25.376  1.00  0.00     0.054 A 
BRANCH  79  80
ATOM     80  S   UNL A   1      44.732  20.770  24.988  1.00  0.00     0.124 S 
ATOM     81  O   UNL A   1      43.870  19.847  25.722  1.00  0.00    -0.237 OA
ATOM     82  O   UNL A   1      44.616  20.720  23.534  1.00  0.00    -0.237 OA
ATOM     83  O   UNL A   1      46.097  20.882  25.499  1.00  0.00    -0.744 OA
ENDBRANCH  79  80
ENDBRANCH  51  74
BRANCH  63  84
ATOM     84  C   UNL A   1      45.136  30.723  28.048  1.00  0.00    -0.014 A 
ATOM     85  C   UNL A   1      43.961  31.132  27.386  1.00  0.00     0.010 A 
ATOM     86  C   UNL A   1      46.329  31.417  27.788  1.00  0.00     0.010 A 
ATOM     87  C   UNL A   1      43.986  32.215  26.489  1.00  0.00     0.020 A 
ATOM     88  C   UNL A   1      46.359  32.501  26.909  1.00  0.00     0.020 A 
ATOM     89  C   UNL A   1      45.186  32.899  26.266  1.00  0.00     0.054 A 
BRANCH  89  90
ATOM     90  S   UNL A   1      45.211  34.335  25.152  1.00  0.00     0.124 S 
ATOM     91  O   UNL A   1      44.408  35.318  25.874  1.00  0.00    -0.237 OA
ATOM     92  O   UNL A   1      46.636  34.638  25.054  1.00  0.00    -0.237 OA
ATOM     93  O   UNL A   1      44.605  33.832  23.920  1.00  0.00    -0.744 OA
ENDBRANCH  89  90
ENDBRANCH  63  84
ENDBRANCH  37  38
ENDBRANCH  29  32
ENDBRANCH  27  28
ENDBRANCH  26  27
ENDBRANCH   1  26
TORSDOF 18
ENDMDL
