MODEL 1
REMARK VINA RESULT:     -11.4      0.000      0.000
REMARK SMILES O=C(NCCCCNC(=O)c1cc(S(=O)(=O)Nc2cccc(Cl)c2)ccc1O)c1ccc(-c2c3nc(c(-c4ccc(S(=O)(=O)[O-])cc4)c4ccc([nH]4)c(-c4ccc(S(=O)(=O)[O-])cc4)c4nc(c(-c5ccc(S(=O)(=O)[O-])cc5)c5ccc2[nH]5)C=C4)C=C3)cc1
REMARK SMILES IDX 5 1 4 2 3 3 1 4 2 5 29 7 30 8 88 9 31 10 87 11 32 12 33 13
REMARK SMILES IDX 34 14 81 15 35 16 86 17 80 18 82 19 36 20 85 21 79 22 78 23
REMARK SMILES IDX 37 25 67 26 48 27 66 28 49 29 52 30 65 31 83 32 50 33 51 34
REMARK SMILES IDX 64 36 84 37 53 38 38 39 39 40 47 41 40 42 46 43 41 44 42 45
REMARK SMILES IDX 43 46 44 47 45 48 68 49 69 50 77 51 70 52 76 53 71 54 72 55
REMARK SMILES IDX 73 56 74 57 75 58 54 59 55 60 63 61 56 62 62 63 57 64 58 65
REMARK SMILES IDX 59 66 60 67 61 68 6 69 7 70 8 71 9 72 10 74 11 75 12 76
REMARK SMILES IDX 27 77 13 78 26 79 25 80 28 81 14 83 15 84 16 85 17 86 18 88
REMARK SMILES IDX 19 89 24 90 20 91 22 92 21 93 23 94
REMARK H PARENT 3 6 82 24 52 35 8 73 28 82 17 87
REMARK Flexibility Score: inf
ROOT
ATOM      1  C   UNL A   1      32.713  27.187  25.994  1.00  0.00     0.023 C 
ENDROOT
BRANCH   1   2
ATOM      2  C   UNL A   1      33.713  27.945  26.855  1.00  0.00     0.116 C 
BRANCH   2   3
ATOM      3  N   UNL A   1      33.394  29.360  26.988  1.00  0.00    -0.352 N 
ATOM      4  O   UNL A   1      33.654  31.485  27.704  1.00  0.00    -0.269 OA
ATOM      5  C   UNL A   1      34.142  30.368  27.550  1.00  0.00     0.251 C 
ATOM      6  H   UNL A   1      32.521  29.632  26.624  1.00  0.00     0.163 HD
BRANCH   5   7
ATOM      7  C   UNL A   1      35.527  30.091  27.987  1.00  0.00     0.039 A 
ATOM      8  C   UNL A   1      36.594  30.256  27.101  1.00  0.00     0.014 A 
ATOM      9  C   UNL A   1      35.758  29.652  29.294  1.00  0.00     0.014 A 
ATOM     10  C   UNL A   1      37.869  29.843  27.470  1.00  0.00     0.010 A 
ATOM     11  C   UNL A   1      37.057  29.325  29.693  1.00  0.00     0.010 A 
ATOM     12  C   UNL A   1      38.119  29.395  28.778  1.00  0.00    -0.014 A 
BRANCH  12  13
ATOM     13  C   UNL A   1      39.515  29.103  29.191  1.00  0.00     0.031 A 
ATOM     14  C   UNL A   1      40.352  30.126  29.906  1.00  0.00     0.074 A 
ATOM     15  C   UNL A   1      40.020  27.887  28.905  1.00  0.00     0.049 A 
ATOM     16  N   UNL A   1      41.592  30.027  30.313  1.00  0.00    -0.248 NA
ATOM     17  C   UNL A   1      39.727  31.426  30.197  1.00  0.00     0.031 C 
ATOM     18  C   UNL A   1      39.300  26.816  28.206  1.00  0.00     0.029 A 
ATOM     19  N   UNL A   1      41.249  27.339  29.167  1.00  0.00    -0.354 N 
ATOM     20  C   UNL A   1      41.907  31.256  30.883  1.00  0.00     0.074 A 
ATOM     21  C   UNL A   1      40.730  32.089  30.761  1.00  0.00     0.031 C 
ATOM     22  C   UNL A   1      40.086  25.736  28.122  1.00  0.00     0.029 A 
ATOM     23  C   UNL A   1      41.389  26.055  28.694  1.00  0.00     0.049 A 
ATOM     24  H   UNL A   1      41.963  27.817  29.648  1.00  0.00     0.167 HD
ATOM     25  C   UNL A   1      43.073  31.647  31.452  1.00  0.00     0.031 A 
ATOM     26  C   UNL A   1      42.453  25.233  28.685  1.00  0.00     0.031 A 
ATOM     27  C   UNL A   1      44.235  30.804  31.573  1.00  0.00     0.049 A 
ATOM     28  C   UNL A   1      43.742  25.709  29.288  1.00  0.00     0.074 A 
ATOM     29  C   UNL A   1      45.442  31.089  32.189  1.00  0.00     0.029 A 
ATOM     30  N   UNL A   1      44.345  29.520  31.058  1.00  0.00    -0.354 N 
ATOM     31  N   UNL A   1      43.999  26.852  29.879  1.00  0.00    -0.248 NA
ATOM     32  C   UNL A   1      44.886  24.791  29.220  1.00  0.00     0.031 C 
ATOM     33  C   UNL A   1      46.302  30.005  31.990  1.00  0.00     0.029 A 
ATOM     34  C   UNL A   1      45.613  29.019  31.304  1.00  0.00     0.049 A 
ATOM     35  H   UNL A   1      43.627  29.038  30.586  1.00  0.00     0.167 HD
ATOM     36  C   UNL A   1      45.331  26.785  30.263  1.00  0.00     0.074 A 
ATOM     37  C   UNL A   1      45.820  25.482  29.860  1.00  0.00     0.031 C 
ATOM     38  C   UNL A   1      46.085  27.722  30.888  1.00  0.00     0.031 A 
BRANCH  25  39
ATOM     39  C   UNL A   1      43.177  33.061  31.962  1.00  0.00    -0.014 A 
ATOM     40  C   UNL A   1      42.958  33.371  33.315  1.00  0.00     0.010 A 
ATOM     41  C   UNL A   1      43.584  34.084  31.084  1.00  0.00     0.010 A 
ATOM     42  C   UNL A   1      43.121  34.682  33.776  1.00  0.00     0.020 A 
ATOM     43  C   UNL A   1      43.770  35.391  31.545  1.00  0.00     0.020 A 
ATOM     44  C   UNL A   1      43.525  35.684  32.887  1.00  0.00     0.054 A 
BRANCH  44  45
ATOM     45  S   UNL A   1      43.767  37.367  33.520  1.00  0.00     0.124 S 
ATOM     46  O   UNL A   1      43.933  38.132  32.287  1.00  0.00    -0.237 OA
ATOM     47  O   UNL A   1      42.526  37.616  34.249  1.00  0.00    -0.237 OA
ATOM     48  O   UNL A   1      44.963  37.258  34.352  1.00  0.00    -0.744 OA
ENDBRANCH  44  45
ENDBRANCH  25  39
BRANCH  26  49
ATOM     49  C   UNL A   1      42.350  23.898  28.037  1.00  0.00    -0.014 A 
ATOM     50  C   UNL A   1      42.852  23.685  26.742  1.00  0.00     0.010 A 
ATOM     51  C   UNL A   1      41.762  22.823  28.730  1.00  0.00     0.010 A 
ATOM     52  C   UNL A   1      42.749  22.424  26.145  1.00  0.00     0.020 A 
ATOM     53  C   UNL A   1      41.687  21.556  28.150  1.00  0.00     0.020 A 
ATOM     54  C   UNL A   1      42.168  21.368  26.853  1.00  0.00     0.054 A 
BRANCH  54  55
ATOM     55  S   UNL A   1      42.081  19.732  26.076  1.00  0.00     0.124 S 
ATOM     56  O   UNL A   1      42.541  18.861  27.153  1.00  0.00    -0.237 OA
ATOM     57  O   UNL A   1      40.667  19.620  25.730  1.00  0.00    -0.237 OA
ATOM     58  O   UNL A   1      42.986  19.848  24.934  1.00  0.00    -0.744 OA
ENDBRANCH  54  55
ENDBRANCH  26  49
BRANCH  38  59
ATOM     59  C   UNL A   1      47.515  27.368  31.189  1.00  0.00    -0.014 A 
ATOM     60  C   UNL A   1      48.541  27.669  30.277  1.00  0.00     0.010 A 
ATOM     61  C   UNL A   1      47.842  26.782  32.425  1.00  0.00     0.010 A 
ATOM     62  C   UNL A   1      49.871  27.373  30.589  1.00  0.00     0.020 A 
ATOM     63  C   UNL A   1      49.173  26.509  32.751  1.00  0.00     0.020 A 
ATOM     64  C   UNL A   1      50.179  26.798  31.826  1.00  0.00     0.054 A 
BRANCH  64  65
ATOM     65  S   UNL A   1      51.917  26.481  32.231  1.00  0.00     0.124 S 
ATOM     66  O   UNL A   1      51.816  25.886  33.560  1.00  0.00    -0.237 OA
ATOM     67  O   UNL A   1      52.334  25.572  31.166  1.00  0.00    -0.237 OA
ATOM     68  O   UNL A   1      52.531  27.807  32.186  1.00  0.00    -0.744 OA
ENDBRANCH  64  65
ENDBRANCH  38  59
ENDBRANCH  12  13
ENDBRANCH   5   7
ENDBRANCH   2   3
ENDBRANCH   1   2
BRANCH   1  69
ATOM     69  C   UNL A   1      31.386  26.871  26.671  1.00  0.00     0.023 C 
BRANCH  69  70
ATOM     70  C   UNL A   1      30.402  26.064  25.834  1.00  0.00     0.116 C 
BRANCH  70  71
ATOM     71  N   UNL A   1      29.707  25.013  26.562  1.00  0.00    -0.352 N 
ATOM     72  C   UNL A   1      30.152  23.735  26.840  1.00  0.00     0.255 C 
ATOM     73  H   UNL A   1      28.808  25.240  26.896  1.00  0.00     0.163 HD
ATOM     74  O   UNL A   1      29.456  22.946  27.471  1.00  0.00    -0.269 OA
BRANCH  72  75
ATOM     75  C   UNL A   1      31.434  23.282  26.256  1.00  0.00     0.082 A 
ATOM     76  C   UNL A   1      31.615  23.453  24.877  1.00  0.00     0.040 A 
ATOM     77  C   UNL A   1      32.493  22.837  27.049  1.00  0.00     0.128 A 
ATOM     78  C   UNL A   1      32.902  23.361  24.336  1.00  0.00     0.088 A 
ATOM     79  C   UNL A   1      33.782  22.838  26.532  1.00  0.00     0.048 A 
ATOM     80  C   UNL A   1      33.986  23.191  25.196  1.00  0.00     0.026 A 
BRANCH  77  81
ATOM     81  O   UNL A   1      32.286  22.482  28.350  1.00  0.00    -0.507 OA
ATOM     82  H   UNL A   1      31.425  22.529  28.717  1.00  0.00     0.293 HD
ENDBRANCH  77  81
BRANCH  78  83
ATOM     83  S   UNL A   1      33.084  23.556  22.578  1.00  0.00     0.261 S 
ATOM     84  O   UNL A   1      34.408  24.100  22.345  1.00  0.00    -0.201 OA
ATOM     85  O   UNL A   1      32.689  22.298  21.983  1.00  0.00    -0.201 OA
BRANCH  83  86
ATOM     86  N   UNL A   1      32.018  24.714  21.919  1.00  0.00    -0.280 N 
ATOM     87  H   UNL A   1      31.264  24.406  21.365  1.00  0.00     0.180 HD
BRANCH  86  88
ATOM     88  C   UNL A   1      32.182  26.112  22.145  1.00  0.00     0.050 A 
ATOM     89  C   UNL A   1      33.462  26.668  22.104  1.00  0.00     0.027 A 
ATOM     90  C   UNL A   1      31.076  26.905  22.469  1.00  0.00     0.047 A 
ATOM     91  C   UNL A   1      33.649  28.011  22.442  1.00  0.00     0.004 A 
ATOM     92  C   UNL A   1      31.272  28.249  22.790  1.00  0.00     0.043 A 
ATOM     93  C   UNL A   1      32.552  28.801  22.793  1.00  0.00     0.020 A 
ATOM     94  Cl  UNL A   1      29.924  29.227  23.222  1.00  0.00    -0.084 Cl
ENDBRANCH  86  88
ENDBRANCH  83  86
ENDBRANCH  78  83
ENDBRANCH  72  75
ENDBRANCH  70  71
ENDBRANCH  69  70
ENDBRANCH   1  69
TORSDOF 18
ENDMDL
MODEL 2
REMARK VINA RESULT:     -11.4      3.311      4.941
REMARK SMILES O=C(NCCCCNC(=O)c1cc(S(=O)(=O)Nc2cccc(Cl)c2)ccc1O)c1ccc(-c2c3nc(c(-c4ccc(S(=O)(=O)[O-])cc4)c4ccc([nH]4)c(-c4ccc(S(=O)(=O)[O-])cc4)c4nc(c(-c5ccc(S(=O)(=O)[O-])cc5)c5ccc2[nH]5)C=C4)C=C3)cc1
REMARK SMILES IDX 5 1 4 2 3 3 1 4 2 5 29 7 30 8 88 9 31 10 87 11 32 12 33 13
REMARK SMILES IDX 34 14 81 15 35 16 86 17 80 18 82 19 36 20 85 21 79 22 78 23
REMARK SMILES IDX 37 25 67 26 48 27 66 28 49 29 52 30 65 31 83 32 50 33 51 34
REMARK SMILES IDX 64 36 84 37 53 38 38 39 39 40 47 41 40 42 46 43 41 44 42 45
REMARK SMILES IDX 43 46 44 47 45 48 68 49 69 50 77 51 70 52 76 53 71 54 72 55
REMARK SMILES IDX 73 56 74 57 75 58 54 59 55 60 63 61 56 62 62 63 57 64 58 65
REMARK SMILES IDX 59 66 60 67 61 68 6 69 7 70 8 71 9 72 10 74 11 75 12 76
REMARK SMILES IDX 27 77 13 78 26 79 25 80 28 81 14 83 15 84 16 85 17 86 18 88
REMARK SMILES IDX 19 89 24 90 20 91 22 92 21 93 23 94
REMARK H PARENT 3 6 82 24 52 35 8 73 28 82 17 87
REMARK Flexibility Score: inf
ROOT
ATOM      1  C   UNL A   1      34.207  28.808  27.069  1.00  0.00     0.023 C 
ENDROOT
BRANCH   1   2
ATOM      2  C   UNL A   1      35.506  29.300  27.689  1.00  0.00     0.116 C 
BRANCH   2   3
ATOM      3  N   UNL A   1      35.350  29.733  29.071  1.00  0.00    -0.352 N 
ATOM      4  O   UNL A   1      35.942  30.032  31.228  1.00  0.00    -0.269 OA
ATOM      5  C   UNL A   1      36.286  29.771  30.078  1.00  0.00     0.251 C 
ATOM      6  H   UNL A   1      34.448  30.041  29.318  1.00  0.00     0.163 HD
BRANCH   5   7
ATOM      7  C   UNL A   1      37.700  29.472  29.770  1.00  0.00     0.039 A 
ATOM      8  C   UNL A   1      38.327  30.073  28.676  1.00  0.00     0.014 A 
ATOM      9  C   UNL A   1      38.404  28.574  30.578  1.00  0.00     0.014 A 
ATOM     10  C   UNL A   1      39.603  29.667  28.302  1.00  0.00     0.010 A 
ATOM     11  C   UNL A   1      39.721  28.237  30.253  1.00  0.00     0.010 A 
ATOM     12  C   UNL A   1      40.323  28.763  29.099  1.00  0.00    -0.014 A 
BRANCH  12  13
ATOM     13  C   UNL A   1      41.736  28.461  28.760  1.00  0.00     0.031 A 
ATOM     14  C   UNL A   1      42.795  29.527  28.789  1.00  0.00     0.074 A 
ATOM     15  C   UNL A   1      42.051  27.195  28.421  1.00  0.00     0.049 A 
ATOM     16  N   UNL A   1      44.067  29.423  28.499  1.00  0.00    -0.248 NA
ATOM     17  C   UNL A   1      42.378  30.882  29.184  1.00  0.00     0.031 C 
ATOM     18  C   UNL A   1      41.102  26.079  28.351  1.00  0.00     0.029 A 
ATOM     19  N   UNL A   1      43.251  26.628  28.076  1.00  0.00    -0.354 N 
ATOM     20  C   UNL A   1      44.599  30.699  28.650  1.00  0.00     0.074 A 
ATOM     21  C   UNL A   1      43.509  31.564  29.047  1.00  0.00     0.031 C 
ATOM     22  C   UNL A   1      41.758  24.960  28.017  1.00  0.00     0.029 A 
ATOM     23  C   UNL A   1      43.159  25.289  27.778  1.00  0.00     0.049 A 
ATOM     24  H   UNL A   1      44.097  27.131  28.045  1.00  0.00     0.167 HD
ATOM     25  C   UNL A   1      45.879  31.105  28.470  1.00  0.00     0.031 A 
ATOM     26  C   UNL A   1      44.084  24.423  27.327  1.00  0.00     0.031 A 
ATOM     27  C   UNL A   1      46.956  30.231  28.081  1.00  0.00     0.049 A 
ATOM     28  C   UNL A   1      45.484  24.912  27.101  1.00  0.00     0.074 A 
ATOM     29  C   UNL A   1      48.299  30.536  27.934  1.00  0.00     0.029 A 
ATOM     30  N   UNL A   1      46.817  28.888  27.763  1.00  0.00    -0.354 N 
ATOM     31  N   UNL A   1      45.980  26.108  27.311  1.00  0.00    -0.248 NA
ATOM     32  C   UNL A   1      46.449  23.939  26.572  1.00  0.00     0.031 C 
ATOM     33  C   UNL A   1      48.959  29.395  27.465  1.00  0.00     0.029 A 
ATOM     34  C   UNL A   1      48.040  28.363  27.378  1.00  0.00     0.049 A 
ATOM     35  H   UNL A   1      45.972  28.383  27.805  1.00  0.00     0.167 HD
ATOM     36  C   UNL A   1      47.318  26.029  26.950  1.00  0.00     0.074 A 
ATOM     37  C   UNL A   1      47.560  24.662  26.531  1.00  0.00     0.031 C 
ATOM     38  C   UNL A   1      48.261  27.002  26.958  1.00  0.00     0.031 A 
BRANCH  25  39
ATOM     39  C   UNL A   1      46.195  32.567  28.654  1.00  0.00    -0.014 A 
ATOM     40  C   UNL A   1      45.967  33.502  27.630  1.00  0.00     0.010 A 
ATOM     41  C   UNL A   1      46.649  33.023  29.906  1.00  0.00     0.010 A 
ATOM     42  C   UNL A   1      46.210  34.862  27.847  1.00  0.00     0.020 A 
ATOM     43  C   UNL A   1      46.872  34.385  30.134  1.00  0.00     0.020 A 
ATOM     44  C   UNL A   1      46.662  35.295  29.098  1.00  0.00     0.054 A 
BRANCH  44  45
ATOM     45  S   UNL A   1      46.931  37.070  29.363  1.00  0.00     0.124 S 
ATOM     46  O   UNL A   1      48.390  37.158  29.354  1.00  0.00    -0.237 OA
ATOM     47  O   UNL A   1      46.260  37.670  28.213  1.00  0.00    -0.237 OA
ATOM     48  O   UNL A   1      46.300  37.329  30.654  1.00  0.00    -0.744 OA
ENDBRANCH  44  45
ENDBRANCH  25  39
BRANCH  26  49
ATOM     49  C   UNL A   1      43.694  23.022  27.015  1.00  0.00    -0.014 A 
ATOM     50  C   UNL A   1      43.028  22.231  27.966  1.00  0.00     0.010 A 
ATOM     51  C   UNL A   1      43.974  22.480  25.746  1.00  0.00     0.010 A 
ATOM     52  C   UNL A   1      42.666  20.915  27.659  1.00  0.00     0.020 A 
ATOM     53  C   UNL A   1      43.585  21.178  25.425  1.00  0.00     0.020 A 
ATOM     54  C   UNL A   1      42.947  20.398  26.391  1.00  0.00     0.054 A 
BRANCH  54  55
ATOM     55  S   UNL A   1      42.433  18.704  25.999  1.00  0.00     0.124 S 
ATOM     56  O   UNL A   1      43.337  18.358  24.906  1.00  0.00    -0.237 OA
ATOM     57  O   UNL A   1      42.666  18.003  27.260  1.00  0.00    -0.237 OA
ATOM     58  O   UNL A   1      41.027  18.850  25.628  1.00  0.00    -0.744 OA
ENDBRANCH  54  55
ENDBRANCH  26  49
BRANCH  38  59
ATOM     59  C   UNL A   1      49.647  26.622  26.515  1.00  0.00    -0.014 A 
ATOM     60  C   UNL A   1      50.563  26.050  27.416  1.00  0.00     0.010 A 
ATOM     61  C   UNL A   1      50.016  26.783  25.168  1.00  0.00     0.010 A 
ATOM     62  C   UNL A   1      51.832  25.663  26.979  1.00  0.00     0.020 A 
ATOM     63  C   UNL A   1      51.275  26.373  24.722  1.00  0.00     0.020 A 
ATOM     64  C   UNL A   1      52.179  25.823  25.634  1.00  0.00     0.054 A 
BRANCH  64  65
ATOM     65  S   UNL A   1      53.809  25.255  25.080  1.00  0.00     0.124 S 
ATOM     66  O   UNL A   1      54.036  26.084  23.900  1.00  0.00    -0.237 OA
ATOM     67  O   UNL A   1      54.660  25.553  26.230  1.00  0.00    -0.237 OA
ATOM     68  O   UNL A   1      53.609  23.832  24.814  1.00  0.00    -0.744 OA
ENDBRANCH  64  65
ENDBRANCH  38  59
ENDBRANCH  12  13
ENDBRANCH   5   7
ENDBRANCH   2   3
ENDBRANCH   1   2
BRANCH   1  69
ATOM     69  C   UNL A   1      33.101  29.851  26.970  1.00  0.00     0.023 C 
BRANCH  69  70
ATOM     70  C   UNL A   1      32.426  29.959  25.610  1.00  0.00     0.116 C 
BRANCH  70  71
ATOM     71  N   UNL A   1      33.291  29.658  24.478  1.00  0.00    -0.352 N 
ATOM     72  C   UNL A   1      33.042  28.802  23.424  1.00  0.00     0.255 C 
ATOM     73  H   UNL A   1      34.160  30.121  24.463  1.00  0.00     0.163 HD
ATOM     74  O   UNL A   1      33.866  28.643  22.529  1.00  0.00    -0.269 OA
BRANCH  72  75
ATOM     75  C   UNL A   1      31.816  27.973  23.449  1.00  0.00     0.082 A 
ATOM     76  C   UNL A   1      31.774  26.904  24.354  1.00  0.00     0.040 A 
ATOM     77  C   UNL A   1      30.676  28.314  22.719  1.00  0.00     0.128 A 
ATOM     78  C   UNL A   1      30.545  26.309  24.659  1.00  0.00     0.088 A 
ATOM     79  C   UNL A   1      29.444  27.791  23.089  1.00  0.00     0.048 A 
ATOM     80  C   UNL A   1      29.379  26.855  24.124  1.00  0.00     0.026 A 
BRANCH  77  81
ATOM     81  O   UNL A   1      30.748  29.220  21.702  1.00  0.00    -0.507 OA
ATOM     82  H   UNL A   1      31.199  30.032  21.827  1.00  0.00     0.293 HD
ENDBRANCH  77  81
BRANCH  78  83
ATOM     83  S   UNL A   1      30.540  24.936  25.789  1.00  0.00     0.261 S 
ATOM     84  O   UNL A   1      29.424  25.134  26.694  1.00  0.00    -0.201 OA
ATOM     85  O   UNL A   1      30.631  23.740  24.981  1.00  0.00    -0.201 OA
BRANCH  83  86
ATOM     86  N   UNL A   1      31.915  24.897  26.799  1.00  0.00    -0.280 N 
ATOM     87  H   UNL A   1      32.003  25.574  27.509  1.00  0.00     0.180 HD
BRANCH  86  88
ATOM     88  C   UNL A   1      32.939  23.916  26.650  1.00  0.00     0.050 A 
ATOM     89  C   UNL A   1      32.841  22.710  27.347  1.00  0.00     0.027 A 
ATOM     90  C   UNL A   1      34.063  24.189  25.864  1.00  0.00     0.047 A 
ATOM     91  C   UNL A   1      33.894  21.793  27.304  1.00  0.00     0.004 A 
ATOM     92  C   UNL A   1      35.103  23.260  25.816  1.00  0.00     0.043 A 
ATOM     93  C   UNL A   1      35.031  22.072  26.543  1.00  0.00     0.020 A 
ATOM     94  Cl  UNL A   1      36.506  23.599  24.879  1.00  0.00    -0.084 Cl
ENDBRANCH  86  88
ENDBRANCH  83  86
ENDBRANCH  78  83
ENDBRANCH  72  75
ENDBRANCH  70  71
ENDBRANCH  69  70
ENDBRANCH   1  69
TORSDOF 18
ENDMDL
MODEL 3
REMARK VINA RESULT:     -11.1      1.727      3.209
REMARK SMILES O=C(NCCCCNC(=O)c1cc(S(=O)(=O)Nc2cccc(Cl)c2)ccc1O)c1ccc(-c2c3nc(c(-c4ccc(S(=O)(=O)[O-])cc4)c4ccc([nH]4)c(-c4ccc(S(=O)(=O)[O-])cc4)c4nc(c(-c5ccc(S(=O)(=O)[O-])cc5)c5ccc2[nH]5)C=C4)C=C3)cc1
REMARK SMILES IDX 5 1 4 2 3 3 1 4 2 5 29 7 30 8 88 9 31 10 87 11 32 12 33 13
REMARK SMILES IDX 34 14 81 15 35 16 86 17 80 18 82 19 36 20 85 21 79 22 78 23
REMARK SMILES IDX 37 25 67 26 48 27 66 28 49 29 52 30 65 31 83 32 50 33 51 34
REMARK SMILES IDX 64 36 84 37 53 38 38 39 39 40 47 41 40 42 46 43 41 44 42 45
REMARK SMILES IDX 43 46 44 47 45 48 68 49 69 50 77 51 70 52 76 53 71 54 72 55
REMARK SMILES IDX 73 56 74 57 75 58 54 59 55 60 63 61 56 62 62 63 57 64 58 65
REMARK SMILES IDX 59 66 60 67 61 68 6 69 7 70 8 71 9 72 10 74 11 75 12 76
REMARK SMILES IDX 27 77 13 78 26 79 25 80 28 81 14 83 15 84 16 85 17 86 18 88
REMARK SMILES IDX 19 89 24 90 20 91 22 92 21 93 23 94
REMARK H PARENT 3 6 82 24 52 35 8 73 28 82 17 87
REMARK Flexibility Score: inf
ROOT
ATOM      1  C   UNL A   1      32.860  27.229  26.466  1.00  0.00     0.023 C 
ENDROOT
BRANCH   1   2
ATOM      2  C   UNL A   1      34.057  28.162  26.582  1.00  0.00     0.116 C 
BRANCH   2   3
ATOM      3  N   UNL A   1      33.692  29.507  27.006  1.00  0.00    -0.352 N 
ATOM      4  O   UNL A   1      33.886  31.444  28.147  1.00  0.00    -0.269 OA
ATOM      5  C   UNL A   1      34.410  30.402  27.764  1.00  0.00     0.251 C 
ATOM      6  H   UNL A   1      32.807  29.819  26.707  1.00  0.00     0.163 HD
BRANCH   5   7
ATOM      7  C   UNL A   1      35.806  30.087  28.134  1.00  0.00     0.039 A 
ATOM      8  C   UNL A   1      36.841  30.282  27.216  1.00  0.00     0.014 A 
ATOM      9  C   UNL A   1      36.082  29.583  29.409  1.00  0.00     0.014 A 
ATOM     10  C   UNL A   1      38.123  29.837  27.516  1.00  0.00     0.010 A 
ATOM     11  C   UNL A   1      37.390  29.221  29.741  1.00  0.00     0.010 A 
ATOM     12  C   UNL A   1      38.417  29.323  28.789  1.00  0.00    -0.014 A 
BRANCH  12  13
ATOM     13  C   UNL A   1      39.823  28.995  29.134  1.00  0.00     0.031 A 
ATOM     14  C   UNL A   1      40.727  30.003  29.787  1.00  0.00     0.074 A 
ATOM     15  C   UNL A   1      40.276  27.760  28.842  1.00  0.00     0.049 A 
ATOM     16  N   UNL A   1      41.984  29.872  30.129  1.00  0.00    -0.248 NA
ATOM     17  C   UNL A   1      40.157  31.326  30.088  1.00  0.00     0.031 C 
ATOM     18  C   UNL A   1      39.489  26.701  28.200  1.00  0.00     0.029 A 
ATOM     19  N   UNL A   1      41.501  27.179  29.049  1.00  0.00    -0.354 N 
ATOM     20  C   UNL A   1      42.365  31.100  30.661  1.00  0.00     0.074 A 
ATOM     21  C   UNL A   1      41.208  31.966  30.587  1.00  0.00     0.031 C 
ATOM     22  C   UNL A   1      40.237  25.596  28.093  1.00  0.00     0.029 A 
ATOM     23  C   UNL A   1      41.577  25.884  28.591  1.00  0.00     0.049 A 
ATOM     24  H   UNL A   1      42.253  27.642  29.483  1.00  0.00     0.167 HD
ATOM     25  C   UNL A   1      43.570  31.463  31.162  1.00  0.00     0.031 A 
ATOM     26  C   UNL A   1      42.615  25.029  28.540  1.00  0.00     0.031 A 
ATOM     27  C   UNL A   1      44.711  30.587  31.236  1.00  0.00     0.049 A 
ATOM     28  C   UNL A   1      43.947  25.475  29.067  1.00  0.00     0.074 A 
ATOM     29  C   UNL A   1      45.957  30.845  31.783  1.00  0.00     0.029 A 
ATOM     30  N   UNL A   1      44.756  29.293  30.738  1.00  0.00    -0.354 N 
ATOM     31  N   UNL A   1      44.269  26.619  29.624  1.00  0.00    -0.248 NA
ATOM     32  C   UNL A   1      45.058  24.522  28.954  1.00  0.00     0.031 C 
ATOM     33  C   UNL A   1      46.773  29.732  31.558  1.00  0.00     0.029 A 
ATOM     34  C   UNL A   1      46.019  28.757  30.925  1.00  0.00     0.049 A 
ATOM     35  H   UNL A   1      44.000  28.826  30.313  1.00  0.00     0.167 HD
ATOM     36  C   UNL A   1      45.617  26.517  29.939  1.00  0.00     0.074 A 
ATOM     37  C   UNL A   1      46.045  25.194  29.532  1.00  0.00     0.031 C 
ATOM     38  C   UNL A   1      46.430  27.440  30.508  1.00  0.00     0.031 A 
BRANCH  25  39
ATOM     39  C   UNL A   1      43.743  32.881  31.642  1.00  0.00    -0.014 A 
ATOM     40  C   UNL A   1      44.159  33.905  30.772  1.00  0.00     0.010 A 
ATOM     41  C   UNL A   1      43.400  33.209  32.967  1.00  0.00     0.010 A 
ATOM     42  C   UNL A   1      44.253  35.224  31.227  1.00  0.00     0.020 A 
ATOM     43  C   UNL A   1      43.470  34.530  33.419  1.00  0.00     0.020 A 
ATOM     44  C   UNL A   1      43.908  35.529  32.548  1.00  0.00     0.054 A 
BRANCH  44  45
ATOM     45  S   UNL A   1      44.001  37.255  33.099  1.00  0.00     0.124 S 
ATOM     46  O   UNL A   1      43.874  37.981  31.837  1.00  0.00    -0.237 OA
ATOM     47  O   UNL A   1      42.859  37.365  34.003  1.00  0.00    -0.237 OA
ATOM     48  O   UNL A   1      45.311  37.346  33.740  1.00  0.00    -0.744 OA
ENDBRANCH  44  45
ENDBRANCH  25  39
BRANCH  26  49
ATOM     49  C   UNL A   1      42.438  23.689  27.921  1.00  0.00    -0.014 A 
ATOM     50  C   UNL A   1      42.530  23.520  26.529  1.00  0.00     0.010 A 
ATOM     51  C   UNL A   1      42.196  22.565  28.733  1.00  0.00     0.010 A 
ATOM     52  C   UNL A   1      42.363  22.254  25.960  1.00  0.00     0.020 A 
ATOM     53  C   UNL A   1      42.061  21.295  28.172  1.00  0.00     0.020 A 
ATOM     54  C   UNL A   1      42.129  21.149  26.785  1.00  0.00     0.054 A 
BRANCH  54  55
ATOM     55  S   UNL A   1      41.956  19.510  26.030  1.00  0.00     0.124 S 
ATOM     56  O   UNL A   1      42.805  19.630  24.849  1.00  0.00    -0.237 OA
ATOM     57  O   UNL A   1      42.452  18.624  27.080  1.00  0.00    -0.237 OA
ATOM     58  O   UNL A   1      40.522  19.406  25.765  1.00  0.00    -0.744 OA
ENDBRANCH  54  55
ENDBRANCH  26  49
BRANCH  38  59
ATOM     59  C   UNL A   1      47.863  27.047  30.739  1.00  0.00    -0.014 A 
ATOM     60  C   UNL A   1      48.864  27.386  29.811  1.00  0.00     0.010 A 
ATOM     61  C   UNL A   1      48.221  26.386  31.927  1.00  0.00     0.010 A 
ATOM     62  C   UNL A   1      50.197  27.051  30.061  1.00  0.00     0.020 A 
ATOM     63  C   UNL A   1      49.557  26.073  32.192  1.00  0.00     0.020 A 
ATOM     64  C   UNL A   1      50.536  26.400  31.251  1.00  0.00     0.054 A 
BRANCH  64  65
ATOM     65  S   UNL A   1      52.281  26.034  31.579  1.00  0.00     0.124 S 
ATOM     66  O   UNL A   1      52.626  27.052  32.567  1.00  0.00    -0.237 OA
ATOM     67  O   UNL A   1      52.232  24.662  32.081  1.00  0.00    -0.237 OA
ATOM     68  O   UNL A   1      52.920  26.190  30.274  1.00  0.00    -0.744 OA
ENDBRANCH  64  65
ENDBRANCH  38  59
ENDBRANCH  12  13
ENDBRANCH   5   7
ENDBRANCH   2   3
ENDBRANCH   1   2
BRANCH   1  69
ATOM     69  C   UNL A   1      31.762  27.701  25.522  1.00  0.00     0.023 C 
BRANCH  69  70
ATOM     70  C   UNL A   1      31.518  26.813  24.309  1.00  0.00     0.116 C 
BRANCH  70  71
ATOM     71  N   UNL A   1      32.420  27.054  23.191  1.00  0.00    -0.352 N 
ATOM     72  C   UNL A   1      33.068  26.121  22.406  1.00  0.00     0.255 C 
ATOM     73  H   UNL A   1      32.589  27.999  22.967  1.00  0.00     0.163 HD
ATOM     74  O   UNL A   1      33.804  26.467  21.487  1.00  0.00    -0.269 OA
BRANCH  72  75
ATOM     75  C   UNL A   1      32.967  24.689  22.767  1.00  0.00     0.082 A 
ATOM     76  C   UNL A   1      32.752  24.374  24.115  1.00  0.00     0.040 A 
ATOM     77  C   UNL A   1      32.932  23.682  21.801  1.00  0.00     0.128 A 
ATOM     78  C   UNL A   1      32.318  23.089  24.461  1.00  0.00     0.088 A 
ATOM     79  C   UNL A   1      32.412  22.437  22.129  1.00  0.00     0.048 A 
ATOM     80  C   UNL A   1      32.021  22.181  23.445  1.00  0.00     0.026 A 
BRANCH  77  81
ATOM     81  O   UNL A   1      33.326  23.935  20.519  1.00  0.00    -0.507 OA
ATOM     82  H   UNL A   1      32.760  23.720  19.804  1.00  0.00     0.293 HD
ENDBRANCH  77  81
BRANCH  78  83
ATOM     83  S   UNL A   1      32.086  22.722  26.185  1.00  0.00     0.261 S 
ATOM     84  O   UNL A   1      31.980  23.991  26.880  1.00  0.00    -0.201 OA
ATOM     85  O   UNL A   1      31.017  21.751  26.258  1.00  0.00    -0.201 OA
BRANCH  83  86
ATOM     86  N   UNL A   1      33.435  21.953  26.892  1.00  0.00    -0.280 N 
ATOM     87  H   UNL A   1      33.349  21.581  27.800  1.00  0.00     0.180 HD
BRANCH  86  88
ATOM     88  C   UNL A   1      34.682  21.830  26.212  1.00  0.00     0.050 A 
ATOM     89  C   UNL A   1      34.948  20.679  25.468  1.00  0.00     0.027 A 
ATOM     90  C   UNL A   1      35.655  22.827  26.344  1.00  0.00     0.047 A 
ATOM     91  C   UNL A   1      36.210  20.494  24.897  1.00  0.00     0.004 A 
ATOM     92  C   UNL A   1      36.907  22.639  25.758  1.00  0.00     0.043 A 
ATOM     93  C   UNL A   1      37.194  21.473  25.049  1.00  0.00     0.020 A 
ATOM     94  Cl  UNL A   1      38.123  23.843  25.942  1.00  0.00    -0.084 Cl
ENDBRANCH  86  88
ENDBRANCH  83  86
ENDBRANCH  78  83
ENDBRANCH  72  75
ENDBRANCH  70  71
ENDBRANCH  69  70
ENDBRANCH   1  69
TORSDOF 18
ENDMDL
