MODEL 1
REMARK VINA RESULT:     -11.3      0.000      0.000
REMARK SMILES Cn1cc(S(=O)(=O)NC[C@H]2CC[C@@H](C(=O)NCCCCNC(=O)c3ccc(-c4c5nc(c(-c6ccc(S(=O)(=O)[O-])cc6)c6ccc([nH]6)c(-c6ccc(S(=O)(=O)[O-])cc6)c6nc(c(-c7ccc(S(=O)(=O)[O-])cc7)c7ccc4[nH]7)C=C6)C=C5)cc3)CC2)cn1
REMARK SMILES IDX 18 1 17 2 16 3 14 4 15 5 13 7 10 8 11 9 85 10 12 11 84 12
REMARK SMILES IDX 9 13 8 14 5 16 6 17 7 18 4 19 1 20 2 21 3 22 87 23 86 24
REMARK SMILES IDX 19 25 20 26 21 27 22 28 23 30 24 31 25 32 83 33 26 34 82 35
REMARK SMILES IDX 27 36 28 37 29 38 76 39 30 40 81 41 75 42 77 43 31 44 80 45
REMARK SMILES IDX 74 46 73 47 32 49 62 50 43 51 61 52 44 53 47 54 60 55 78 56
REMARK SMILES IDX 45 57 46 58 59 60 79 61 48 62 33 63 34 64 42 65 35 66 41 67
REMARK SMILES IDX 36 68 37 69 38 70 39 71 40 72 63 73 64 74 72 75 65 76 71 77
REMARK SMILES IDX 66 78 67 79 68 80 69 81 70 82 49 83 50 84 58 85 51 86 57 87
REMARK SMILES IDX 52 88 53 89 54 90 55 91 56 92
REMARK H PARENT 16 6 8 15 21 29 77 48 47 59
REMARK Flexibility Score: inf
ROOT
ATOM      1  C   UNL A   1      31.690  27.946  27.204  1.00  0.00     0.023 C 
ENDROOT
BRANCH   1   2
ATOM      2  C   UNL A   1      31.197  26.964  26.134  1.00  0.00     0.116 C 
BRANCH   2   3
ATOM      3  N   UNL A   1      31.218  25.579  26.551  1.00  0.00    -0.356 N 
ATOM      4  C   UNL A   1      31.892  24.504  26.068  1.00  0.00     0.223 C 
ATOM      5  O   UNL A   1      32.026  23.555  26.853  1.00  0.00    -0.275 OA
ATOM      6  H   UNL A   1      30.642  25.380  27.324  1.00  0.00     0.163 HD
BRANCH   4   7
ATOM      7  C   UNL A   1      32.468  24.368  24.646  1.00  0.00     0.078 C 
ATOM      8  C   UNL A   1      32.696  26.709  22.754  1.00  0.00     0.004 C 
ATOM      9  C   UNL A   1      33.695  26.472  23.886  1.00  0.00     0.006 C 
ATOM     10  C   UNL A   1      31.427  25.844  22.776  1.00  0.00     0.006 C 
ATOM     11  C   UNL A   1      33.809  25.048  24.389  1.00  0.00     0.014 C 
ATOM     12  C   UNL A   1      31.518  24.484  23.462  1.00  0.00     0.014 C 
BRANCH   8  13
ATOM     13  C   UNL A   1      32.384  28.217  22.564  1.00  0.00     0.102 C 
BRANCH  13  14
ATOM     14  N   UNL A   1      30.994  28.561  22.155  1.00  0.00    -0.211 NA
ATOM     15  H   UNL A   1      31.075  29.263  21.418  1.00  0.00     0.141 HD
BRANCH  14  16
ATOM     16  S   UNL A   1      29.859  29.172  23.273  1.00  0.00     0.243 S 
ATOM     17  O   UNL A   1      30.530  29.693  24.433  1.00  0.00    -0.207 OA
ATOM     18  O   UNL A   1      28.833  28.159  23.404  1.00  0.00    -0.207 OA
BRANCH  16  19
ATOM     19  C   UNL A   1      29.040  30.502  22.600  1.00  0.00     0.120 A 
ATOM     20  C   UNL A   1      27.702  32.671  20.082  1.00  0.00     0.173 C 
ATOM     21  N   UNL A   1      28.151  31.954  21.250  1.00  0.00    -0.274 N 
ATOM     22  C   UNL A   1      28.804  30.760  21.269  1.00  0.00     0.130 A 
ATOM     23  N   UNL A   1      27.960  32.487  22.473  1.00  0.00    -0.180 NA
ATOM     24  C   UNL A   1      28.479  31.574  23.302  1.00  0.00     0.156 A 
ENDBRANCH  16  19
ENDBRANCH  14  16
ENDBRANCH  13  14
ENDBRANCH   8  13
ENDBRANCH   4   7
ENDBRANCH   2   3
ENDBRANCH   1   2
BRANCH   1  25
ATOM     25  C   UNL A   1      33.207  28.133  27.279  1.00  0.00     0.023 C 
BRANCH  25  26
ATOM     26  C   UNL A   1      33.735  29.456  26.722  1.00  0.00     0.116 C 
BRANCH  26  27
ATOM     27  N   UNL A   1      33.691  30.570  27.658  1.00  0.00    -0.352 N 
ATOM     28  C   UNL A   1      34.709  31.024  28.476  1.00  0.00     0.251 C 
ATOM     29  H   UNL A   1      32.838  31.057  27.714  1.00  0.00     0.163 HD
ATOM     30  O   UNL A   1      34.535  32.026  29.165  1.00  0.00    -0.269 OA
BRANCH  28  31
ATOM     31  C   UNL A   1      35.949  30.215  28.594  1.00  0.00     0.039 A 
ATOM     32  C   UNL A   1      36.863  30.254  27.536  1.00  0.00     0.014 A 
ATOM     33  C   UNL A   1      36.280  29.551  29.777  1.00  0.00     0.014 A 
ATOM     34  C   UNL A   1      38.151  29.739  27.714  1.00  0.00     0.010 A 
ATOM     35  C   UNL A   1      37.584  29.096  29.975  1.00  0.00     0.010 A 
ATOM     36  C   UNL A   1      38.544  29.218  28.958  1.00  0.00    -0.014 A 
BRANCH  36  37
ATOM     37  C   UNL A   1      39.964  28.874  29.233  1.00  0.00     0.031 A 
ATOM     38  C   UNL A   1      40.894  29.877  29.857  1.00  0.00     0.074 A 
ATOM     39  C   UNL A   1      40.440  27.669  28.851  1.00  0.00     0.049 A 
ATOM     40  N   UNL A   1      42.166  29.753  30.143  1.00  0.00    -0.248 NA
ATOM     41  C   UNL A   1      40.328  31.195  30.183  1.00  0.00     0.031 C 
ATOM     42  C   UNL A   1      39.659  26.621  28.186  1.00  0.00     0.029 A 
ATOM     43  N   UNL A   1      41.695  27.121  28.964  1.00  0.00    -0.354 N 
ATOM     44  C   UNL A   1      42.555  30.975  30.676  1.00  0.00     0.074 A 
ATOM     45  C   UNL A   1      41.395  31.842  30.630  1.00  0.00     0.031 C 
ATOM     46  C   UNL A   1      40.444  25.551  27.978  1.00  0.00     0.029 A 
ATOM     47  C   UNL A   1      41.789  25.844  28.462  1.00  0.00     0.049 A 
ATOM     48  H   UNL A   1      42.455  27.598  29.366  1.00  0.00     0.167 HD
ATOM     49  C   UNL A   1      43.760  31.341  31.176  1.00  0.00     0.031 A 
ATOM     50  C   UNL A   1      42.837  24.999  28.395  1.00  0.00     0.031 A 
ATOM     51  C   UNL A   1      44.916  30.483  31.221  1.00  0.00     0.049 A 
ATOM     52  C   UNL A   1      44.167  25.428  28.952  1.00  0.00     0.074 A 
ATOM     53  C   UNL A   1      46.166  30.752  31.750  1.00  0.00     0.029 A 
ATOM     54  N   UNL A   1      44.966  29.195  30.712  1.00  0.00    -0.354 N 
ATOM     55  N   UNL A   1      44.493  26.565  29.518  1.00  0.00    -0.248 NA
ATOM     56  C   UNL A   1      45.266  24.457  28.872  1.00  0.00     0.031 C 
ATOM     57  C   UNL A   1      46.985  29.639  31.525  1.00  0.00     0.029 A 
ATOM     58  C   UNL A   1      46.230  28.660  30.899  1.00  0.00     0.049 A 
ATOM     59  H   UNL A   1      44.213  28.728  30.280  1.00  0.00     0.167 HD
ATOM     60  C   UNL A   1      45.827  26.435  29.885  1.00  0.00     0.074 A 
ATOM     61  C   UNL A   1      46.244  25.106  29.489  1.00  0.00     0.031 C 
ATOM     62  C   UNL A   1      46.633  27.336  30.500  1.00  0.00     0.031 A 
BRANCH  49  63
ATOM     63  C   UNL A   1      43.884  32.740  31.718  1.00  0.00    -0.014 A 
ATOM     64  C   UNL A   1      43.871  32.980  33.105  1.00  0.00     0.010 A 
ATOM     65  C   UNL A   1      44.039  33.825  30.837  1.00  0.00     0.010 A 
ATOM     66  C   UNL A   1      43.960  34.284  33.598  1.00  0.00     0.020 A 
ATOM     67  C   UNL A   1      44.155  35.130  31.328  1.00  0.00     0.020 A 
ATOM     68  C   UNL A   1      44.094  35.351  32.706  1.00  0.00     0.054 A 
BRANCH  68  69
ATOM     69  S   UNL A   1      44.213  37.034  33.374  1.00  0.00     0.124 S 
ATOM     70  O   UNL A   1      45.082  36.836  34.532  1.00  0.00    -0.237 OA
ATOM     71  O   UNL A   1      44.805  37.779  32.267  1.00  0.00    -0.237 OA
ATOM     72  O   UNL A   1      42.830  37.382  33.686  1.00  0.00    -0.744 OA
ENDBRANCH  68  69
ENDBRANCH  49  63
BRANCH  50  73
ATOM     73  C   UNL A   1      42.664  23.644  27.805  1.00  0.00    -0.014 A 
ATOM     74  C   UNL A   1      42.212  22.574  28.599  1.00  0.00     0.010 A 
ATOM     75  C   UNL A   1      42.942  23.415  26.445  1.00  0.00     0.010 A 
ATOM     76  C   UNL A   1      42.057  21.299  28.050  1.00  0.00     0.020 A 
ATOM     77  C   UNL A   1      42.764  22.146  25.885  1.00  0.00     0.020 A 
ATOM     78  C   UNL A   1      42.333  21.093  26.695  1.00  0.00     0.054 A 
BRANCH  78  79
ATOM     79  S   UNL A   1      42.070  19.441  25.989  1.00  0.00     0.124 S 
ATOM     80  O   UNL A   1      40.625  19.423  25.786  1.00  0.00    -0.237 OA
ATOM     81  O   UNL A   1      42.880  19.484  24.773  1.00  0.00    -0.237 OA
ATOM     82  O   UNL A   1      42.571  18.544  27.029  1.00  0.00    -0.744 OA
ENDBRANCH  78  79
ENDBRANCH  50  73
BRANCH  62  83
ATOM     83  C   UNL A   1      48.040  26.903  30.815  1.00  0.00    -0.014 A 
ATOM     84  C   UNL A   1      49.099  27.162  29.925  1.00  0.00     0.010 A 
ATOM     85  C   UNL A   1      48.314  26.272  32.041  1.00  0.00     0.010 A 
ATOM     86  C   UNL A   1      50.401  26.769  30.245  1.00  0.00     0.020 A 
ATOM     87  C   UNL A   1      49.618  25.899  32.376  1.00  0.00     0.020 A 
ATOM     88  C   UNL A   1      50.653  26.137  31.468  1.00  0.00     0.054 A 
BRANCH  88  89
ATOM     89  S   UNL A   1      52.358  25.674  31.882  1.00  0.00     0.124 S 
ATOM     90  O   UNL A   1      53.058  25.947  30.630  1.00  0.00    -0.237 OA
ATOM     91  O   UNL A   1      52.676  26.572  32.990  1.00  0.00    -0.237 OA
ATOM     92  O   UNL A   1      52.254  24.262  32.243  1.00  0.00    -0.744 OA
ENDBRANCH  88  89
ENDBRANCH  62  83
ENDBRANCH  36  37
ENDBRANCH  28  31
ENDBRANCH  26  27
ENDBRANCH  25  26
ENDBRANCH   1  25
TORSDOF 18
ENDMDL
MODEL 2
REMARK VINA RESULT:     -11.0      0.757      8.158
REMARK SMILES Cn1cc(S(=O)(=O)NC[C@H]2CC[C@@H](C(=O)NCCCCNC(=O)c3ccc(-c4c5nc(c(-c6ccc(S(=O)(=O)[O-])cc6)c6ccc([nH]6)c(-c6ccc(S(=O)(=O)[O-])cc6)c6nc(c(-c7ccc(S(=O)(=O)[O-])cc7)c7ccc4[nH]7)C=C6)C=C5)cc3)CC2)cn1
REMARK SMILES IDX 18 1 17 2 16 3 14 4 15 5 13 7 10 8 11 9 85 10 12 11 84 12
REMARK SMILES IDX 9 13 8 14 5 16 6 17 7 18 4 19 1 20 2 21 3 22 87 23 86 24
REMARK SMILES IDX 19 25 20 26 21 27 22 28 23 30 24 31 25 32 83 33 26 34 82 35
REMARK SMILES IDX 27 36 28 37 29 38 76 39 30 40 81 41 75 42 77 43 31 44 80 45
REMARK SMILES IDX 74 46 73 47 32 49 62 50 43 51 61 52 44 53 47 54 60 55 78 56
REMARK SMILES IDX 45 57 46 58 59 60 79 61 48 62 33 63 34 64 42 65 35 66 41 67
REMARK SMILES IDX 36 68 37 69 38 70 39 71 40 72 63 73 64 74 72 75 65 76 71 77
REMARK SMILES IDX 66 78 67 79 68 80 69 81 70 82 49 83 50 84 58 85 51 86 57 87
REMARK SMILES IDX 52 88 53 89 54 90 55 91 56 92
REMARK H PARENT 16 6 8 15 21 29 77 48 47 59
REMARK Flexibility Score: inf
ROOT
ATOM      1  C   UNL A   1      31.897  26.832  26.190  1.00  0.00     0.023 C 
ENDROOT
BRANCH   1   2
ATOM      2  C   UNL A   1      33.129  26.016  25.783  1.00  0.00     0.116 C 
BRANCH   2   3
ATOM      3  N   UNL A   1      33.052  24.616  26.138  1.00  0.00    -0.356 N 
ATOM      4  C   UNL A   1      33.007  23.494  25.374  1.00  0.00     0.223 C 
ATOM      5  O   UNL A   1      33.345  22.444  25.938  1.00  0.00    -0.275 OA
ATOM      6  H   UNL A   1      33.028  24.444  27.108  1.00  0.00     0.163 HD
BRANCH   4   7
ATOM      7  C   UNL A   1      32.558  23.426  23.903  1.00  0.00     0.078 C 
ATOM      8  C   UNL A   1      32.031  25.895  22.248  1.00  0.00     0.004 C 
ATOM      9  C   UNL A   1      33.444  25.379  22.521  1.00  0.00     0.006 C 
ATOM     10  C   UNL A   1      30.902  25.246  23.061  1.00  0.00     0.006 C 
ATOM     11  C   UNL A   1      33.564  23.909  22.863  1.00  0.00     0.014 C 
ATOM     12  C   UNL A   1      31.128  23.821  23.560  1.00  0.00     0.014 C 
BRANCH   8  13
ATOM     13  C   UNL A   1      31.966  27.445  22.273  1.00  0.00     0.102 C 
BRANCH  13  14
ATOM     14  N   UNL A   1      30.639  28.059  21.990  1.00  0.00    -0.211 NA
ATOM     15  H   UNL A   1      30.803  28.796  21.304  1.00  0.00     0.141 HD
BRANCH  14  16
ATOM     16  S   UNL A   1      29.697  28.759  23.228  1.00  0.00     0.243 S 
ATOM     17  O   UNL A   1      30.539  29.222  24.298  1.00  0.00    -0.207 OA
ATOM     18  O   UNL A   1      28.614  27.834  23.486  1.00  0.00    -0.207 OA
BRANCH  16  19
ATOM     19  C   UNL A   1      28.917  30.153  22.644  1.00  0.00     0.120 A 
ATOM     20  C   UNL A   1      27.800  32.615  20.293  1.00  0.00     0.173 C 
ATOM     21  N   UNL A   1      28.139  31.757  21.402  1.00  0.00    -0.274 N 
ATOM     22  C   UNL A   1      28.823  30.582  21.340  1.00  0.00     0.130 A 
ATOM     23  N   UNL A   1      27.795  32.120  22.653  1.00  0.00    -0.180 NA
ATOM     24  C   UNL A   1      28.247  31.114  23.410  1.00  0.00     0.156 A 
ENDBRANCH  16  19
ENDBRANCH  14  16
ENDBRANCH  13  14
ENDBRANCH   8  13
ENDBRANCH   4   7
ENDBRANCH   2   3
ENDBRANCH   1   2
BRANCH   1  25
ATOM     25  C   UNL A   1      32.148  27.935  27.222  1.00  0.00     0.023 C 
BRANCH  25  26
ATOM     26  C   UNL A   1      33.403  28.778  26.990  1.00  0.00     0.116 C 
BRANCH  26  27
ATOM     27  N   UNL A   1      33.390  30.078  27.645  1.00  0.00    -0.352 N 
ATOM     28  C   UNL A   1      34.457  30.743  28.221  1.00  0.00     0.251 C 
ATOM     29  H   UNL A   1      32.520  30.539  27.681  1.00  0.00     0.163 HD
ATOM     30  O   UNL A   1      34.297  31.872  28.676  1.00  0.00    -0.269 OA
BRANCH  28  31
ATOM     31  C   UNL A   1      35.746  30.023  28.384  1.00  0.00     0.039 A 
ATOM     32  C   UNL A   1      36.638  30.021  27.308  1.00  0.00     0.014 A 
ATOM     33  C   UNL A   1      36.135  29.491  29.614  1.00  0.00     0.014 A 
ATOM     34  C   UNL A   1      37.958  29.602  27.503  1.00  0.00     0.010 A 
ATOM     35  C   UNL A   1      37.468  29.135  29.825  1.00  0.00     0.010 A 
ATOM     36  C   UNL A   1      38.402  29.220  28.781  1.00  0.00    -0.014 A 
BRANCH  36  37
ATOM     37  C   UNL A   1      39.845  28.989  29.054  1.00  0.00     0.031 A 
ATOM     38  C   UNL A   1      40.492  27.671  28.726  1.00  0.00     0.074 A 
ATOM     39  C   UNL A   1      40.565  29.951  29.669  1.00  0.00     0.049 A 
ATOM     40  N   UNL A   1      41.730  27.292  28.918  1.00  0.00    -0.248 NA
ATOM     41  C   UNL A   1      39.632  26.642  28.121  1.00  0.00     0.031 C 
ATOM     42  C   UNL A   1      40.049  31.257  30.093  1.00  0.00     0.029 A 
ATOM     43  N   UNL A   1      41.885  29.982  30.051  1.00  0.00    -0.354 N 
ATOM     44  C   UNL A   1      41.798  25.980  28.466  1.00  0.00     0.074 A 
ATOM     45  C   UNL A   1      40.465  25.615  28.033  1.00  0.00     0.031 C 
ATOM     46  C   UNL A   1      41.046  31.968  30.646  1.00  0.00     0.029 A 
ATOM     47  C   UNL A   1      42.262  31.161  30.649  1.00  0.00     0.049 A 
ATOM     48  H   UNL A   1      42.503  29.229  29.909  1.00  0.00     0.167 HD
ATOM     49  C   UNL A   1      42.873  25.158  28.399  1.00  0.00     0.031 A 
ATOM     50  C   UNL A   1      43.452  31.556  31.146  1.00  0.00     0.031 A 
ATOM     51  C   UNL A   1      44.199  25.517  28.832  1.00  0.00     0.049 A 
ATOM     52  C   UNL A   1      44.630  30.624  31.066  1.00  0.00     0.074 A 
ATOM     53  C   UNL A   1      45.360  24.765  28.761  1.00  0.00     0.029 A 
ATOM     54  N   UNL A   1      44.540  26.724  29.422  1.00  0.00    -0.354 N 
ATOM     55  N   UNL A   1      44.688  29.413  30.567  1.00  0.00    -0.248 NA
ATOM     56  C   UNL A   1      45.905  31.118  31.603  1.00  0.00     0.031 C 
ATOM     57  C   UNL A   1      46.395  25.504  29.346  1.00  0.00     0.029 A 
ATOM     58  C   UNL A   1      45.890  26.733  29.736  1.00  0.00     0.049 A 
ATOM     59  H   UNL A   1      43.915  27.465  29.594  1.00  0.00     0.167 HD
ATOM     60  C   UNL A   1      46.011  29.010  30.707  1.00  0.00     0.074 A 
ATOM     61  C   UNL A   1      46.722  30.110  31.325  1.00  0.00     0.031 C 
ATOM     62  C   UNL A   1      46.586  27.834  30.351  1.00  0.00     0.031 A 
BRANCH  49  63
ATOM     63  C   UNL A   1      42.652  23.781  27.832  1.00  0.00    -0.014 A 
ATOM     64  C   UNL A   1      42.328  22.699  28.671  1.00  0.00     0.010 A 
ATOM     65  C   UNL A   1      42.746  23.568  26.445  1.00  0.00     0.010 A 
ATOM     66  C   UNL A   1      42.150  21.419  28.139  1.00  0.00     0.020 A 
ATOM     67  C   UNL A   1      42.543  22.294  25.905  1.00  0.00     0.020 A 
ATOM     68  C   UNL A   1      42.267  21.223  26.760  1.00  0.00     0.054 A 
BRANCH  68  69
ATOM     69  S   UNL A   1      42.027  19.553  26.095  1.00  0.00     0.124 S 
ATOM     70  O   UNL A   1      40.587  19.534  25.846  1.00  0.00    -0.237 OA
ATOM     71  O   UNL A   1      42.869  19.556  24.902  1.00  0.00    -0.237 OA
ATOM     72  O   UNL A   1      42.483  18.681  27.174  1.00  0.00    -0.744 OA
ENDBRANCH  68  69
ENDBRANCH  49  63
BRANCH  50  73
ATOM     73  C   UNL A   1      43.598  32.913  31.738  1.00  0.00    -0.014 A 
ATOM     74  C   UNL A   1      43.365  33.119  33.111  1.00  0.00     0.010 A 
ATOM     75  C   UNL A   1      43.978  34.006  30.939  1.00  0.00     0.010 A 
ATOM     76  C   UNL A   1      43.493  34.393  33.669  1.00  0.00     0.020 A 
ATOM     77  C   UNL A   1      44.131  35.279  31.498  1.00  0.00     0.020 A 
ATOM     78  C   UNL A   1      43.878  35.466  32.858  1.00  0.00     0.054 A 
BRANCH  78  79
ATOM     79  S   UNL A   1      44.093  37.102  33.614  1.00  0.00     0.124 S 
ATOM     80  O   UNL A   1      43.769  37.994  32.506  1.00  0.00    -0.237 OA
ATOM     81  O   UNL A   1      43.125  37.075  34.709  1.00  0.00    -0.237 OA
ATOM     82  O   UNL A   1      45.494  37.101  34.033  1.00  0.00    -0.744 OA
ENDBRANCH  78  79
ENDBRANCH  50  73
BRANCH  62  83
ATOM     83  C   UNL A   1      48.065  27.687  30.589  1.00  0.00    -0.014 A 
ATOM     84  C   UNL A   1      48.565  27.257  31.831  1.00  0.00     0.010 A 
ATOM     85  C   UNL A   1      48.964  27.938  29.537  1.00  0.00     0.010 A 
ATOM     86  C   UNL A   1      49.941  27.109  32.025  1.00  0.00     0.020 A 
ATOM     87  C   UNL A   1      50.339  27.768  29.719  1.00  0.00     0.020 A 
ATOM     88  C   UNL A   1      50.821  27.368  30.968  1.00  0.00     0.054 A 
BRANCH  88  89
ATOM     89  S   UNL A   1      52.600  27.128  31.229  1.00  0.00     0.124 S 
ATOM     90  O   UNL A   1      53.176  27.965  30.180  1.00  0.00    -0.237 OA
ATOM     91  O   UNL A   1      52.793  27.610  32.595  1.00  0.00    -0.237 OA
ATOM     92  O   UNL A   1      52.784  25.690  31.051  1.00  0.00    -0.744 OA
ENDBRANCH  88  89
ENDBRANCH  62  83
ENDBRANCH  36  37
ENDBRANCH  28  31
ENDBRANCH  26  27
ENDBRANCH  25  26
ENDBRANCH   1  25
TORSDOF 18
ENDMDL
MODEL 3
REMARK VINA RESULT:     -10.7      1.757      8.425
REMARK SMILES Cn1cc(S(=O)(=O)NC[C@H]2CC[C@@H](C(=O)NCCCCNC(=O)c3ccc(-c4c5nc(c(-c6ccc(S(=O)(=O)[O-])cc6)c6ccc([nH]6)c(-c6ccc(S(=O)(=O)[O-])cc6)c6nc(c(-c7ccc(S(=O)(=O)[O-])cc7)c7ccc4[nH]7)C=C6)C=C5)cc3)CC2)cn1
REMARK SMILES IDX 18 1 17 2 16 3 14 4 15 5 13 7 10 8 11 9 85 10 12 11 84 12
REMARK SMILES IDX 9 13 8 14 5 16 6 17 7 18 4 19 1 20 2 21 3 22 87 23 86 24
REMARK SMILES IDX 19 25 20 26 21 27 22 28 23 30 24 31 25 32 83 33 26 34 82 35
REMARK SMILES IDX 27 36 28 37 29 38 76 39 30 40 81 41 75 42 77 43 31 44 80 45
REMARK SMILES IDX 74 46 73 47 32 49 62 50 43 51 61 52 44 53 47 54 60 55 78 56
REMARK SMILES IDX 45 57 46 58 59 60 79 61 48 62 33 63 34 64 42 65 35 66 41 67
REMARK SMILES IDX 36 68 37 69 38 70 39 71 40 72 63 73 64 74 72 75 65 76 71 77
REMARK SMILES IDX 66 78 67 79 68 80 69 81 70 82 49 83 50 84 58 85 51 86 57 87
REMARK SMILES IDX 52 88 53 89 54 90 55 91 56 92
REMARK H PARENT 16 6 8 15 21 29 77 48 47 59
REMARK Flexibility Score: inf
ROOT
ATOM      1  C   UNL A   1      31.114  27.240  26.676  1.00  0.00     0.023 C 
ENDROOT
BRANCH   1   2
ATOM      2  C   UNL A   1      31.396  25.825  26.158  1.00  0.00     0.116 C 
BRANCH   2   3
ATOM      3  N   UNL A   1      30.446  24.832  26.608  1.00  0.00    -0.356 N 
ATOM      4  C   UNL A   1      30.602  23.529  26.957  1.00  0.00     0.223 C 
ATOM      5  O   UNL A   1      29.708  23.051  27.670  1.00  0.00    -0.275 OA
ATOM      6  H   UNL A   1      29.519  25.158  26.674  1.00  0.00     0.163 HD
BRANCH   4   7
ATOM      7  C   UNL A   1      31.765  22.616  26.525  1.00  0.00     0.078 C 
ATOM      8  C   UNL A   1      33.965  23.547  24.681  1.00  0.00     0.004 C 
ATOM      9  C   UNL A   1      33.936  23.905  26.166  1.00  0.00     0.006 C 
ATOM     10  C   UNL A   1      32.693  22.901  24.113  1.00  0.00     0.006 C 
ATOM     11  C   UNL A   1      33.146  22.975  27.063  1.00  0.00     0.014 C 
ATOM     12  C   UNL A   1      31.808  22.125  25.084  1.00  0.00     0.014 C 
BRANCH   8  13
ATOM     13  C   UNL A   1      34.471  24.728  23.810  1.00  0.00     0.102 C 
BRANCH  13  14
ATOM     14  N   UNL A   1      34.124  24.683  22.363  1.00  0.00    -0.211 NA
ATOM     15  H   UNL A   1      34.953  24.996  21.857  1.00  0.00     0.141 HD
BRANCH  14  16
ATOM     16  S   UNL A   1      32.813  25.573  21.731  1.00  0.00     0.243 S 
ATOM     17  O   UNL A   1      31.571  24.907  22.017  1.00  0.00    -0.207 OA
ATOM     18  O   UNL A   1      33.173  25.917  20.372  1.00  0.00    -0.207 OA
BRANCH  16  19
ATOM     19  C   UNL A   1      32.701  27.076  22.519  1.00  0.00     0.120 A 
ATOM     20  C   UNL A   1      31.196  29.857  24.205  1.00  0.00     0.173 C 
ATOM     21  N   UNL A   1      32.004  28.859  23.547  1.00  0.00    -0.274 N 
ATOM     22  C   UNL A   1      31.584  27.651  23.082  1.00  0.00     0.130 A 
ATOM     23  N   UNL A   1      33.308  29.107  23.315  1.00  0.00    -0.180 NA
ATOM     24  C   UNL A   1      33.740  27.993  22.712  1.00  0.00     0.156 A 
ENDBRANCH  16  19
ENDBRANCH  14  16
ENDBRANCH  13  14
ENDBRANCH   8  13
ENDBRANCH   4   7
ENDBRANCH   2   3
ENDBRANCH   1   2
BRANCH   1  25
ATOM     25  C   UNL A   1      32.139  27.796  27.667  1.00  0.00     0.023 C 
BRANCH  25  26
ATOM     26  C   UNL A   1      33.206  28.711  27.065  1.00  0.00     0.116 C 
BRANCH  26  27
ATOM     27  N   UNL A   1      33.226  30.061  27.610  1.00  0.00    -0.352 N 
ATOM     28  C   UNL A   1      34.319  30.762  28.085  1.00  0.00     0.251 C 
ATOM     29  H   UNL A   1      32.361  30.530  27.643  1.00  0.00     0.163 HD
ATOM     30  O   UNL A   1      34.183  31.927  28.451  1.00  0.00    -0.269 OA
BRANCH  28  31
ATOM     31  C   UNL A   1      35.610  30.048  28.255  1.00  0.00     0.039 A 
ATOM     32  C   UNL A   1      36.497  30.025  27.174  1.00  0.00     0.014 A 
ATOM     33  C   UNL A   1      36.008  29.541  29.494  1.00  0.00     0.014 A 
ATOM     34  C   UNL A   1      37.818  29.612  27.370  1.00  0.00     0.010 A 
ATOM     35  C   UNL A   1      37.342  29.191  29.704  1.00  0.00     0.010 A 
ATOM     36  C   UNL A   1      38.270  29.257  28.653  1.00  0.00    -0.014 A 
BRANCH  36  37
ATOM     37  C   UNL A   1      39.715  29.033  28.923  1.00  0.00     0.031 A 
ATOM     38  C   UNL A   1      40.362  27.712  28.615  1.00  0.00     0.074 A 
ATOM     39  C   UNL A   1      40.437  30.009  29.515  1.00  0.00     0.049 A 
ATOM     40  N   UNL A   1      41.602  27.338  28.808  1.00  0.00    -0.248 NA
ATOM     41  C   UNL A   1      39.501  26.670  28.035  1.00  0.00     0.031 C 
ATOM     42  C   UNL A   1      39.920  31.321  29.917  1.00  0.00     0.029 A 
ATOM     43  N   UNL A   1      41.759  30.049  29.889  1.00  0.00    -0.354 N 
ATOM     44  C   UNL A   1      41.671  26.018  28.381  1.00  0.00     0.074 A 
ATOM     45  C   UNL A   1      40.336  25.643  27.962  1.00  0.00     0.031 C 
ATOM     46  C   UNL A   1      40.919  32.044  30.451  1.00  0.00     0.029 A 
ATOM     47  C   UNL A   1      42.136  31.240  30.462  1.00  0.00     0.049 A 
ATOM     48  H   UNL A   1      42.377  29.295  29.758  1.00  0.00     0.167 HD
ATOM     49  C   UNL A   1      42.747  25.197  28.323  1.00  0.00     0.031 A 
ATOM     50  C   UNL A   1      43.328  31.646  30.945  1.00  0.00     0.031 A 
ATOM     51  C   UNL A   1      44.074  25.566  28.742  1.00  0.00     0.049 A 
ATOM     52  C   UNL A   1      44.507  30.716  30.876  1.00  0.00     0.074 A 
ATOM     53  C   UNL A   1      45.236  24.816  28.679  1.00  0.00     0.029 A 
ATOM     54  N   UNL A   1      44.416  26.784  29.307  1.00  0.00    -0.354 N 
ATOM     55  N   UNL A   1      44.565  29.495  30.400  1.00  0.00    -0.248 NA
ATOM     56  C   UNL A   1      45.785  31.221  31.397  1.00  0.00     0.031 C 
ATOM     57  C   UNL A   1      46.273  25.567  29.243  1.00  0.00     0.029 A 
ATOM     58  C   UNL A   1      45.768  26.803  29.613  1.00  0.00     0.049 A 
ATOM     59  H   UNL A   1      43.790  27.528  29.468  1.00  0.00     0.167 HD
ATOM     60  C   UNL A   1      45.890  29.097  30.540  1.00  0.00     0.074 A 
ATOM     61  C   UNL A   1      46.602  30.211  31.133  1.00  0.00     0.031 C 
ATOM     62  C   UNL A   1      46.465  27.916  30.204  1.00  0.00     0.031 A 
BRANCH  49  63
ATOM     63  C   UNL A   1      42.525  23.809  27.783  1.00  0.00    -0.014 A 
ATOM     64  C   UNL A   1      42.278  22.729  28.650  1.00  0.00     0.010 A 
ATOM     65  C   UNL A   1      42.540  23.583  26.395  1.00  0.00     0.010 A 
ATOM     66  C   UNL A   1      42.100  21.439  28.142  1.00  0.00     0.020 A 
ATOM     67  C   UNL A   1      42.336  22.299  25.881  1.00  0.00     0.020 A 
ATOM     68  C   UNL A   1      42.138  21.232  26.760  1.00  0.00     0.054 A 
BRANCH  68  69
ATOM     69  S   UNL A   1      41.898  19.549  26.127  1.00  0.00     0.124 S 
ATOM     70  O   UNL A   1      42.784  19.537  24.965  1.00  0.00    -0.237 OA
ATOM     71  O   UNL A   1      42.326  18.718  27.248  1.00  0.00    -0.237 OA
ATOM     72  O   UNL A   1      40.471  19.493  25.823  1.00  0.00    -0.744 OA
ENDBRANCH  68  69
ENDBRANCH  49  63
BRANCH  50  73
ATOM     73  C   UNL A   1      43.475  33.015  31.511  1.00  0.00    -0.014 A 
ATOM     74  C   UNL A   1      43.930  34.073  30.703  1.00  0.00     0.010 A 
ATOM     75  C   UNL A   1      43.153  33.272  32.856  1.00  0.00     0.010 A 
ATOM     76  C   UNL A   1      44.077  35.358  31.233  1.00  0.00     0.020 A 
ATOM     77  C   UNL A   1      43.275  34.561  33.384  1.00  0.00     0.020 A 
ATOM     78  C   UNL A   1      43.746  35.594  32.571  1.00  0.00     0.054 A 
BRANCH  78  79
ATOM     79  S   UNL A   1      43.891  37.281  33.224  1.00  0.00     0.124 S 
ATOM     80  O   UNL A   1      43.682  38.089  32.027  1.00  0.00    -0.237 OA
ATOM     81  O   UNL A   1      42.819  37.330  34.216  1.00  0.00    -0.237 OA
ATOM     82  O   UNL A   1      45.243  37.317  33.779  1.00  0.00    -0.744 OA
ENDBRANCH  78  79
ENDBRANCH  50  73
BRANCH  62  83
ATOM     83  C   UNL A   1      47.946  27.776  30.435  1.00  0.00    -0.014 A 
ATOM     84  C   UNL A   1      48.877  28.172  29.458  1.00  0.00     0.010 A 
ATOM     85  C   UNL A   1      48.412  27.287  31.669  1.00  0.00     0.010 A 
ATOM     86  C   UNL A   1      50.248  28.051  29.700  1.00  0.00     0.020 A 
ATOM     87  C   UNL A   1      49.782  27.188  31.924  1.00  0.00     0.020 A 
ATOM     88  C   UNL A   1      50.693  27.557  30.932  1.00  0.00     0.054 A 
BRANCH  88  89
ATOM     89  S   UNL A   1      52.477  27.450  31.241  1.00  0.00     0.124 S 
ATOM     90  O   UNL A   1      53.027  27.595  29.896  1.00  0.00    -0.237 OA
ATOM     91  O   UNL A   1      52.717  28.575  32.142  1.00  0.00    -0.237 OA
ATOM     92  O   UNL A   1      52.644  26.130  31.844  1.00  0.00    -0.744 OA
ENDBRANCH  88  89
ENDBRANCH  62  83
ENDBRANCH  36  37
ENDBRANCH  28  31
ENDBRANCH  26  27
ENDBRANCH  25  26
ENDBRANCH   1  25
TORSDOF 18
ENDMDL
