MODEL 1
REMARK VINA RESULT:     -13.2      0.000      0.000
REMARK SMILES C[C@@H]1C(C(=O)NCCCCNC(=O)c2ccc(-c3c4nc(c(-c5ccc(S(=O)(=O)[O-])cc5)c5ccc([nH]5)c(-c5ccc(S(=O)(=O)[O-])cc5)c5nc(c(-c6ccc(S(=O)(=O)[O-])cc6)c6ccc3[nH]6)C=C5)C=C4)cc2)=NC2=C1C(=O)C[C@H](c1ccccc1)C2
REMARK SMILES IDX 9 1 8 2 7 3 6 4 4 5 5 6 3 8 1 9 2 10 76 11 74 12 75 13 77 14
REMARK SMILES IDX 87 15 78 16 79 17 80 18 81 19 82 20 86 21 83 22 85 23 84 24
REMARK SMILES IDX 10 25 11 26 12 27 13 29 14 30 15 31 73 32 16 33 72 34 17 35
REMARK SMILES IDX 18 36 19 37 66 38 20 39 71 40 65 41 67 42 21 43 70 44 64 45
REMARK SMILES IDX 63 46 22 48 52 49 33 50 51 51 34 52 37 53 50 54 68 55 35 56
REMARK SMILES IDX 36 57 49 59 69 60 38 61 23 62 24 63 32 64 25 65 31 66 26 67
REMARK SMILES IDX 27 68 28 69 29 70 30 71 53 72 54 73 62 74 55 75 61 76 56 77
REMARK SMILES IDX 57 78 58 79 59 80 60 81 39 82 40 83 48 84 41 85 47 86 42 87
REMARK SMILES IDX 43 88 44 89 45 90 46 91
REMARK H PARENT 6 7 11 28 67 47 37 58
REMARK Flexibility Score: inf
ROOT
ATOM      1  C   UNL A   1      36.350  22.809  24.852  1.00  0.00     0.023 C 
ENDROOT
BRANCH   1   2
ATOM      2  C   UNL A   1      35.505  23.984  25.337  1.00  0.00     0.023 C 
BRANCH   2   3
ATOM      3  C   UNL A   1      33.976  23.891  25.346  1.00  0.00     0.116 C 
BRANCH   3   4
ATOM      4  N   UNL A   1      33.220  24.750  26.236  1.00  0.00    -0.351 N 
ATOM      5  C   UNL A   1      31.936  25.272  26.079  1.00  0.00     0.266 C 
ATOM      6  O   UNL A   1      31.291  25.574  27.077  1.00  0.00    -0.268 OA
ATOM      7  H   UNL A   1      33.679  25.002  27.070  1.00  0.00     0.163 HD
BRANCH   5   8
ATOM      8  C   UNL A   1      31.374  25.647  24.707  1.00  0.00     0.113 C 
ATOM      9  C   UNL A   1      30.316  24.048  23.093  1.00  0.00     0.020 C 
ATOM     10  C   UNL A   1      31.574  24.835  23.455  1.00  0.00     0.076 C 
ATOM     11  C   UNL A   1      31.704  26.077  22.629  1.00  0.00     0.026 C 
ATOM     12  N   UNL A   1      30.756  26.787  24.508  1.00  0.00    -0.251 NA
ATOM     13  C   UNL A   1      30.987  27.064  23.178  1.00  0.00     0.049 C 
ATOM     14  C   UNL A   1      32.997  26.511  22.047  1.00  0.00     0.161 C 
ATOM     15  C   UNL A   1      31.146  28.481  22.713  1.00  0.00     0.065 C 
ATOM     16  O   UNL A   1      33.669  25.697  21.415  1.00  0.00    -0.294 OA
ATOM     17  C   UNL A   1      33.540  27.924  22.358  1.00  0.00     0.089 C 
ATOM     18  C   UNL A   1      32.575  28.925  23.074  1.00  0.00     0.033 C 
BRANCH  18  19
ATOM     19  C   UNL A   1      32.777  29.139  24.589  1.00  0.00    -0.044 A 
ATOM     20  C   UNL A   1      31.934  30.009  25.315  1.00  0.00     0.004 A 
ATOM     21  C   UNL A   1      33.793  28.502  25.314  1.00  0.00     0.004 A 
ATOM     22  C   UNL A   1      31.991  30.112  26.705  1.00  0.00     0.000 A 
ATOM     23  C   UNL A   1      33.870  28.626  26.710  1.00  0.00     0.000 A 
ATOM     24  C   UNL A   1      32.951  29.404  27.408  1.00  0.00     0.000 A 
ENDBRANCH  18  19
ENDBRANCH   5   8
ENDBRANCH   3   4
ENDBRANCH   2   3
ENDBRANCH   1   2
BRANCH   1  25
ATOM     25  C   UNL A   1      37.854  22.983  24.956  1.00  0.00     0.116 C 
BRANCH  25  26
ATOM     26  N   UNL A   1      38.537  21.988  25.782  1.00  0.00    -0.352 N 
ATOM     27  C   UNL A   1      39.627  22.207  26.622  1.00  0.00     0.251 C 
ATOM     28  H   UNL A   1      38.191  21.067  25.740  1.00  0.00     0.163 HD
ATOM     29  O   UNL A   1      40.313  21.287  27.022  1.00  0.00    -0.269 OA
BRANCH  27  30
ATOM     30  C   UNL A   1      39.929  23.603  27.007  1.00  0.00     0.039 A 
ATOM     31  C   UNL A   1      38.924  24.565  27.151  1.00  0.00     0.014 A 
ATOM     32  C   UNL A   1      41.250  23.906  27.313  1.00  0.00     0.014 A 
ATOM     33  C   UNL A   1      39.254  25.802  27.710  1.00  0.00     0.010 A 
ATOM     34  C   UNL A   1      41.533  25.042  28.023  1.00  0.00     0.010 A 
ATOM     35  C   UNL A   1      40.559  26.025  28.175  1.00  0.00    -0.014 A 
BRANCH  35  36
ATOM     36  C   UNL A   1      40.909  27.238  28.911  1.00  0.00     0.031 A 
ATOM     37  C   UNL A   1      42.003  28.062  28.321  1.00  0.00     0.074 A 
ATOM     38  C   UNL A   1      40.132  27.732  29.902  1.00  0.00     0.049 A 
ATOM     39  N   UNL A   1      43.155  28.337  28.837  1.00  0.00    -0.248 NA
ATOM     40  C   UNL A   1      41.836  28.563  26.946  1.00  0.00     0.031 C 
ATOM     41  C   UNL A   1      38.838  27.226  30.381  1.00  0.00     0.029 A 
ATOM     42  N   UNL A   1      40.261  28.899  30.585  1.00  0.00    -0.354 N 
ATOM     43  C   UNL A   1      43.781  29.210  27.952  1.00  0.00     0.074 A 
ATOM     44  C   UNL A   1      43.004  29.174  26.737  1.00  0.00     0.031 C 
ATOM     45  C   UNL A   1      38.188  28.209  31.038  1.00  0.00     0.029 A 
ATOM     46  C   UNL A   1      39.087  29.337  31.190  1.00  0.00     0.049 A 
ATOM     47  H   UNL A   1      41.110  29.393  30.646  1.00  0.00     0.167 HD
ATOM     48  C   UNL A   1      44.756  30.076  28.356  1.00  0.00     0.031 A 
ATOM     49  C   UNL A   1      38.852  30.561  31.727  1.00  0.00     0.031 A 
ATOM     50  C   UNL A   1      45.252  29.750  29.668  1.00  0.00     0.049 A 
ATOM     51  C   UNL A   1      40.180  31.161  32.015  1.00  0.00     0.074 A 
ATOM     52  C   UNL A   1      45.813  28.623  30.237  1.00  0.00     0.029 A 
ATOM     53  N   UNL A   1      44.813  30.521  30.722  1.00  0.00    -0.354 N 
ATOM     54  N   UNL A   1      41.013  30.669  32.893  1.00  0.00    -0.248 NA
ATOM     55  C   UNL A   1      40.780  32.017  31.003  1.00  0.00     0.031 C 
ATOM     56  C   UNL A   1      45.210  28.533  31.526  1.00  0.00     0.029 A 
ATOM     57  C   UNL A   1      44.394  29.653  31.699  1.00  0.00     0.049 A 
ATOM     58  H   UNL A   1      44.803  31.504  30.766  1.00  0.00     0.167 HD
ATOM     59  C   UNL A   1      42.263  30.780  32.300  1.00  0.00     0.074 A 
ATOM     60  C   UNL A   1      42.067  31.706  31.183  1.00  0.00     0.031 C 
ATOM     61  C   UNL A   1      43.272  29.902  32.582  1.00  0.00     0.031 A 
BRANCH  48  62
ATOM     62  C   UNL A   1      44.995  31.428  27.729  1.00  0.00    -0.014 A 
ATOM     63  C   UNL A   1      46.286  31.754  27.263  1.00  0.00     0.010 A 
ATOM     64  C   UNL A   1      44.067  32.484  27.827  1.00  0.00     0.010 A 
ATOM     65  C   UNL A   1      46.642  33.077  26.969  1.00  0.00     0.020 A 
ATOM     66  C   UNL A   1      44.397  33.799  27.492  1.00  0.00     0.020 A 
ATOM     67  C   UNL A   1      45.695  34.094  27.098  1.00  0.00     0.054 A 
BRANCH  67  68
ATOM     68  S   UNL A   1      46.188  35.812  26.813  1.00  0.00     0.124 S 
ATOM     69  O   UNL A   1      47.120  36.043  27.912  1.00  0.00    -0.237 OA
ATOM     70  O   UNL A   1      46.781  35.747  25.481  1.00  0.00    -0.237 OA
ATOM     71  O   UNL A   1      44.927  36.546  26.893  1.00  0.00    -0.744 OA
ENDBRANCH  67  68
ENDBRANCH  48  62
BRANCH  49  72
ATOM     72  C   UNL A   1      37.586  31.337  31.687  1.00  0.00    -0.014 A 
ATOM     73  C   UNL A   1      36.746  31.413  32.813  1.00  0.00     0.010 A 
ATOM     74  C   UNL A   1      37.329  32.231  30.625  1.00  0.00     0.010 A 
ATOM     75  C   UNL A   1      35.738  32.391  32.903  1.00  0.00     0.020 A 
ATOM     76  C   UNL A   1      36.319  33.200  30.701  1.00  0.00     0.020 A 
ATOM     77  C   UNL A   1      35.546  33.293  31.854  1.00  0.00     0.054 A 
BRANCH  77  78
ATOM     78  S   UNL A   1      34.381  34.674  32.059  1.00  0.00     0.124 S 
ATOM     79  O   UNL A   1      34.049  35.009  30.678  1.00  0.00    -0.237 OA
ATOM     80  O   UNL A   1      33.305  34.067  32.839  1.00  0.00    -0.237 OA
ATOM     81  O   UNL A   1      35.162  35.682  32.773  1.00  0.00    -0.744 OA
ENDBRANCH  77  78
ENDBRANCH  49  72
BRANCH  61  82
ATOM     82  C   UNL A   1      43.114  28.940  33.741  1.00  0.00    -0.014 A 
ATOM     83  C   UNL A   1      43.574  29.201  35.048  1.00  0.00     0.010 A 
ATOM     84  C   UNL A   1      42.306  27.807  33.537  1.00  0.00     0.010 A 
ATOM     85  C   UNL A   1      43.254  28.340  36.110  1.00  0.00     0.020 A 
ATOM     86  C   UNL A   1      41.966  26.957  34.593  1.00  0.00     0.020 A 
ATOM     87  C   UNL A   1      42.449  27.222  35.874  1.00  0.00     0.054 A 
BRANCH  87  88
ATOM     88  S   UNL A   1      41.993  26.138  37.257  1.00  0.00     0.124 S 
ATOM     89  O   UNL A   1      40.661  26.621  37.613  1.00  0.00    -0.237 OA
ATOM     90  O   UNL A   1      42.039  24.806  36.658  1.00  0.00    -0.237 OA
ATOM     91  O   UNL A   1      43.028  26.393  38.258  1.00  0.00    -0.744 OA
ENDBRANCH  87  88
ENDBRANCH  61  82
ENDBRANCH  35  36
ENDBRANCH  27  30
ENDBRANCH  25  26
ENDBRANCH   1  25
TORSDOF 15
ENDMDL
MODEL 2
REMARK VINA RESULT:     -13.1      1.574      2.241
REMARK SMILES C[C@@H]1C(C(=O)NCCCCNC(=O)c2ccc(-c3c4nc(c(-c5ccc(S(=O)(=O)[O-])cc5)c5ccc([nH]5)c(-c5ccc(S(=O)(=O)[O-])cc5)c5nc(c(-c6ccc(S(=O)(=O)[O-])cc6)c6ccc3[nH]6)C=C5)C=C4)cc2)=NC2=C1C(=O)C[C@H](c1ccccc1)C2
REMARK SMILES IDX 9 1 8 2 7 3 6 4 4 5 5 6 3 8 1 9 2 10 76 11 74 12 75 13 77 14
REMARK SMILES IDX 87 15 78 16 79 17 80 18 81 19 82 20 86 21 83 22 85 23 84 24
REMARK SMILES IDX 10 25 11 26 12 27 13 29 14 30 15 31 73 32 16 33 72 34 17 35
REMARK SMILES IDX 18 36 19 37 66 38 20 39 71 40 65 41 67 42 21 43 70 44 64 45
REMARK SMILES IDX 63 46 22 48 52 49 33 50 51 51 34 52 37 53 50 54 68 55 35 56
REMARK SMILES IDX 36 57 49 59 69 60 38 61 23 62 24 63 32 64 25 65 31 66 26 67
REMARK SMILES IDX 27 68 28 69 29 70 30 71 53 72 54 73 62 74 55 75 61 76 56 77
REMARK SMILES IDX 57 78 58 79 59 80 60 81 39 82 40 83 48 84 41 85 47 86 42 87
REMARK SMILES IDX 43 88 44 89 45 90 46 91
REMARK H PARENT 6 7 11 28 67 47 37 58
REMARK Flexibility Score: inf
ROOT
ATOM      1  C   UNL A   1      37.673  22.045  25.711  1.00  0.00     0.023 C 
ENDROOT
BRANCH   1   2
ATOM      2  C   UNL A   1      36.944  22.727  24.557  1.00  0.00     0.023 C 
BRANCH   2   3
ATOM      3  C   UNL A   1      35.944  23.855  24.827  1.00  0.00     0.116 C 
BRANCH   3   4
ATOM      4  N   UNL A   1      35.146  23.819  26.037  1.00  0.00    -0.351 N 
ATOM      5  C   UNL A   1      33.977  23.106  26.303  1.00  0.00     0.266 C 
ATOM      6  O   UNL A   1      33.701  22.825  27.464  1.00  0.00    -0.268 OA
ATOM      7  H   UNL A   1      35.477  24.377  26.778  1.00  0.00     0.163 HD
BRANCH   5   8
ATOM      8  C   UNL A   1      32.938  22.817  25.217  1.00  0.00     0.113 C 
ATOM      9  C   UNL A   1      32.591  20.599  24.104  1.00  0.00     0.020 C 
ATOM     10  C   UNL A   1      33.202  21.993  23.985  1.00  0.00     0.076 C 
ATOM     11  C   UNL A   1      32.348  22.901  23.155  1.00  0.00     0.026 C 
ATOM     12  N   UNL A   1      31.751  23.373  25.241  1.00  0.00    -0.251 NA
ATOM     13  C   UNL A   1      31.387  23.439  23.913  1.00  0.00     0.049 C 
ATOM     14  C   UNL A   1      32.920  23.823  22.146  1.00  0.00     0.161 C 
ATOM     15  C   UNL A   1      30.557  24.582  23.407  1.00  0.00     0.065 C 
ATOM     16  O   UNL A   1      33.724  23.384  21.323  1.00  0.00    -0.294 OA
ATOM     17  C   UNL A   1      32.609  25.335  22.227  1.00  0.00     0.089 C 
ATOM     18  C   UNL A   1      31.497  25.788  23.230  1.00  0.00     0.033 C 
BRANCH  18  19
ATOM     19  C   UNL A   1      31.961  26.395  24.571  1.00  0.00    -0.044 A 
ATOM     20  C   UNL A   1      33.335  26.580  24.843  1.00  0.00     0.004 A 
ATOM     21  C   UNL A   1      31.067  26.781  25.578  1.00  0.00     0.004 A 
ATOM     22  C   UNL A   1      33.785  27.260  25.975  1.00  0.00     0.000 A 
ATOM     23  C   UNL A   1      31.518  27.440  26.732  1.00  0.00     0.000 A 
ATOM     24  C   UNL A   1      32.871  27.708  26.915  1.00  0.00     0.000 A 
ENDBRANCH  18  19
ENDBRANCH   5   8
ENDBRANCH   3   4
ENDBRANCH   2   3
ENDBRANCH   1   2
BRANCH   1  25
ATOM     25  C   UNL A   1      38.941  22.725  26.192  1.00  0.00     0.116 C 
BRANCH  25  26
ATOM     26  N   UNL A   1      40.173  21.972  25.959  1.00  0.00    -0.352 N 
ATOM     27  C   UNL A   1      41.464  22.491  25.871  1.00  0.00     0.251 C 
ATOM     28  H   UNL A   1      40.082  20.997  25.854  1.00  0.00     0.163 HD
ATOM     29  O   UNL A   1      42.371  21.850  25.376  1.00  0.00    -0.269 OA
BRANCH  27  30
ATOM     30  C   UNL A   1      41.694  23.855  26.394  1.00  0.00     0.039 A 
ATOM     31  C   UNL A   1      41.144  24.985  25.781  1.00  0.00     0.014 A 
ATOM     32  C   UNL A   1      42.407  23.968  27.582  1.00  0.00     0.014 A 
ATOM     33  C   UNL A   1      41.230  26.215  26.437  1.00  0.00     0.010 A 
ATOM     34  C   UNL A   1      42.331  25.130  28.304  1.00  0.00     0.010 A 
ATOM     35  C   UNL A   1      41.800  26.276  27.718  1.00  0.00    -0.014 A 
BRANCH  35  36
ATOM     36  C   UNL A   1      41.767  27.504  28.509  1.00  0.00     0.031 A 
ATOM     37  C   UNL A   1      42.875  28.470  28.256  1.00  0.00     0.074 A 
ATOM     38  C   UNL A   1      40.680  27.877  29.221  1.00  0.00     0.049 A 
ATOM     39  N   UNL A   1      43.783  28.870  29.084  1.00  0.00    -0.248 NA
ATOM     40  C   UNL A   1      43.059  28.979  26.886  1.00  0.00     0.031 C 
ATOM     41  C   UNL A   1      39.374  27.206  29.306  1.00  0.00     0.029 A 
ATOM     42  N   UNL A   1      40.457  29.035  29.897  1.00  0.00    -0.354 N 
ATOM     43  C   UNL A   1      44.529  29.834  28.410  1.00  0.00     0.074 A 
ATOM     44  C   UNL A   1      44.152  29.732  27.022  1.00  0.00     0.031 C 
ATOM     45  C   UNL A   1      38.444  28.087  29.730  1.00  0.00     0.029 A 
ATOM     46  C   UNL A   1      39.113  29.312  30.124  1.00  0.00     0.049 A 
ATOM     47  H   UNL A   1      41.183  29.626  30.199  1.00  0.00     0.167 HD
ATOM     48  C   UNL A   1      45.227  30.801  29.071  1.00  0.00     0.031 A 
ATOM     49  C   UNL A   1      38.583  30.485  30.553  1.00  0.00     0.031 A 
ATOM     50  C   UNL A   1      45.353  30.507  30.476  1.00  0.00     0.049 A 
ATOM     51  C   UNL A   1      39.683  31.235  31.211  1.00  0.00     0.074 A 
ATOM     52  C   UNL A   1      45.857  29.444  31.199  1.00  0.00     0.029 A 
ATOM     53  N   UNL A   1      44.533  31.194  31.344  1.00  0.00    -0.354 N 
ATOM     54  N   UNL A   1      40.276  30.827  32.301  1.00  0.00    -0.248 NA
ATOM     55  C   UNL A   1      40.443  32.182  30.408  1.00  0.00     0.031 C 
ATOM     56  C   UNL A   1      44.919  29.250  32.255  1.00  0.00     0.029 A 
ATOM     57  C   UNL A   1      43.956  30.258  32.166  1.00  0.00     0.049 A 
ATOM     58  H   UNL A   1      44.390  32.167  31.370  1.00  0.00     0.167 HD
ATOM     59  C   UNL A   1      41.621  31.104  32.099  1.00  0.00     0.074 A 
ATOM     60  C   UNL A   1      41.649  32.026  30.963  1.00  0.00     0.031 C 
ATOM     61  C   UNL A   1      42.604  30.349  32.677  1.00  0.00     0.031 A 
BRANCH  48  62
ATOM     62  C   UNL A   1      45.472  32.187  28.525  1.00  0.00    -0.014 A 
ATOM     63  C   UNL A   1      46.787  32.693  28.490  1.00  0.00     0.010 A 
ATOM     64  C   UNL A   1      44.428  33.107  28.297  1.00  0.00     0.010 A 
ATOM     65  C   UNL A   1      47.038  34.059  28.297  1.00  0.00     0.020 A 
ATOM     66  C   UNL A   1      44.669  34.462  28.057  1.00  0.00     0.020 A 
ATOM     67  C   UNL A   1      45.973  34.936  28.094  1.00  0.00     0.054 A 
BRANCH  67  68
ATOM     68  S   UNL A   1      46.296  36.711  27.945  1.00  0.00     0.124 S 
ATOM     69  O   UNL A   1      47.089  36.973  29.142  1.00  0.00    -0.237 OA
ATOM     70  O   UNL A   1      47.016  36.790  26.677  1.00  0.00    -0.237 OA
ATOM     71  O   UNL A   1      44.960  37.302  27.934  1.00  0.00    -0.744 OA
ENDBRANCH  67  68
ENDBRANCH  48  62
BRANCH  49  72
ATOM     72  C   UNL A   1      37.298  31.103  30.133  1.00  0.00    -0.014 A 
ATOM     73  C   UNL A   1      36.363  31.549  31.084  1.00  0.00     0.010 A 
ATOM     74  C   UNL A   1      37.102  31.503  28.793  1.00  0.00     0.010 A 
ATOM     75  C   UNL A   1      35.317  32.418  30.722  1.00  0.00     0.020 A 
ATOM     76  C   UNL A   1      36.056  32.358  28.422  1.00  0.00     0.020 A 
ATOM     77  C   UNL A   1      35.184  32.836  29.396  1.00  0.00     0.054 A 
BRANCH  77  78
ATOM     78  S   UNL A   1      33.958  34.110  28.974  1.00  0.00     0.124 S 
ATOM     79  O   UNL A   1      33.371  34.421  30.274  1.00  0.00    -0.237 OA
ATOM     80  O   UNL A   1      34.785  35.162  28.386  1.00  0.00    -0.237 OA
ATOM     81  O   UNL A   1      33.066  33.435  28.034  1.00  0.00    -0.744 OA
ENDBRANCH  77  78
ENDBRANCH  49  72
BRANCH  61  82
ATOM     82  C   UNL A   1      42.232  29.347  33.751  1.00  0.00    -0.014 A 
ATOM     83  C   UNL A   1      41.748  28.050  33.483  1.00  0.00     0.010 A 
ATOM     84  C   UNL A   1      42.557  29.670  35.080  1.00  0.00     0.010 A 
ATOM     85  C   UNL A   1      41.576  27.116  34.518  1.00  0.00     0.020 A 
ATOM     86  C   UNL A   1      42.408  28.741  36.113  1.00  0.00     0.020 A 
ATOM     87  C   UNL A   1      41.908  27.470  35.829  1.00  0.00     0.054 A 
BRANCH  87  88
ATOM     88  S   UNL A   1      41.733  26.246  37.159  1.00  0.00     0.124 S 
ATOM     89  O   UNL A   1      41.817  24.979  36.437  1.00  0.00    -0.237 OA
ATOM     90  O   UNL A   1      42.863  26.549  38.033  1.00  0.00    -0.237 OA
ATOM     91  O   UNL A   1      40.421  26.542  37.735  1.00  0.00    -0.744 OA
ENDBRANCH  87  88
ENDBRANCH  61  82
ENDBRANCH  35  36
ENDBRANCH  27  30
ENDBRANCH  25  26
ENDBRANCH   1  25
TORSDOF 15
ENDMDL
MODEL 3
REMARK VINA RESULT:     -13.1      2.902      7.360
REMARK SMILES C[C@@H]1C(C(=O)NCCCCNC(=O)c2ccc(-c3c4nc(c(-c5ccc(S(=O)(=O)[O-])cc5)c5ccc([nH]5)c(-c5ccc(S(=O)(=O)[O-])cc5)c5nc(c(-c6ccc(S(=O)(=O)[O-])cc6)c6ccc3[nH]6)C=C5)C=C4)cc2)=NC2=C1C(=O)C[C@H](c1ccccc1)C2
REMARK SMILES IDX 9 1 8 2 7 3 6 4 4 5 5 6 3 8 1 9 2 10 76 11 74 12 75 13 77 14
REMARK SMILES IDX 87 15 78 16 79 17 80 18 81 19 82 20 86 21 83 22 85 23 84 24
REMARK SMILES IDX 10 25 11 26 12 27 13 29 14 30 15 31 73 32 16 33 72 34 17 35
REMARK SMILES IDX 18 36 19 37 66 38 20 39 71 40 65 41 67 42 21 43 70 44 64 45
REMARK SMILES IDX 63 46 22 48 52 49 33 50 51 51 34 52 37 53 50 54 68 55 35 56
REMARK SMILES IDX 36 57 49 59 69 60 38 61 23 62 24 63 32 64 25 65 31 66 26 67
REMARK SMILES IDX 27 68 28 69 29 70 30 71 53 72 54 73 62 74 55 75 61 76 56 77
REMARK SMILES IDX 57 78 58 79 59 80 60 81 39 82 40 83 48 84 41 85 47 86 42 87
REMARK SMILES IDX 43 88 44 89 45 90 46 91
REMARK H PARENT 6 7 11 28 67 47 37 58
REMARK Flexibility Score: inf
ROOT
ATOM      1  C   UNL A   1      37.815  19.926  24.998  1.00  0.00     0.023 C 
ENDROOT
BRANCH   1   2
ATOM      2  C   UNL A   1      36.843  21.081  24.774  1.00  0.00     0.023 C 
BRANCH   2   3
ATOM      3  C   UNL A   1      35.558  21.189  25.600  1.00  0.00     0.116 C 
BRANCH   3   4
ATOM      4  N   UNL A   1      35.156  22.482  26.117  1.00  0.00    -0.351 N 
ATOM      5  C   UNL A   1      33.889  23.064  26.149  1.00  0.00     0.266 C 
ATOM      6  O   UNL A   1      33.644  23.913  26.999  1.00  0.00    -0.268 OA
ATOM      7  H   UNL A   1      35.881  23.028  26.500  1.00  0.00     0.163 HD
BRANCH   5   8
ATOM      8  C   UNL A   1      32.852  22.813  25.052  1.00  0.00     0.113 C 
ATOM      9  C   UNL A   1      32.486  20.626  23.884  1.00  0.00     0.020 C 
ATOM     10  C   UNL A   1      33.113  22.016  23.802  1.00  0.00     0.076 C 
ATOM     11  C   UNL A   1      32.274  22.953  22.989  1.00  0.00     0.026 C 
ATOM     12  N   UNL A   1      31.671  23.382  25.083  1.00  0.00    -0.251 NA
ATOM     13  C   UNL A   1      31.315  23.483  23.755  1.00  0.00     0.049 C 
ATOM     14  C   UNL A   1      32.861  23.893  22.005  1.00  0.00     0.161 C 
ATOM     15  C   UNL A   1      30.500  24.647  23.273  1.00  0.00     0.065 C 
ATOM     16  O   UNL A   1      33.664  23.464  21.176  1.00  0.00    -0.294 OA
ATOM     17  C   UNL A   1      32.566  25.405  22.121  1.00  0.00     0.089 C 
ATOM     18  C   UNL A   1      31.454  25.846  23.129  1.00  0.00     0.033 C 
BRANCH  18  19
ATOM     19  C   UNL A   1      31.918  26.416  24.486  1.00  0.00    -0.044 A 
ATOM     20  C   UNL A   1      33.292  26.596  24.763  1.00  0.00     0.004 A 
ATOM     21  C   UNL A   1      31.023  26.772  25.504  1.00  0.00     0.004 A 
ATOM     22  C   UNL A   1      33.741  27.244  25.914  1.00  0.00     0.000 A 
ATOM     23  C   UNL A   1      31.474  27.399  26.676  1.00  0.00     0.000 A 
ATOM     24  C   UNL A   1      32.827  27.664  26.866  1.00  0.00     0.000 A 
ENDBRANCH  18  19
ENDBRANCH   5   8
ENDBRANCH   3   4
ENDBRANCH   2   3
ENDBRANCH   1   2
BRANCH   1  25
ATOM     25  C   UNL A   1      39.126  20.280  25.674  1.00  0.00     0.116 C 
BRANCH  25  26
ATOM     26  N   UNL A   1      40.100  19.192  25.745  1.00  0.00    -0.352 N 
ATOM     27  C   UNL A   1      41.469  19.311  25.980  1.00  0.00     0.251 C 
ATOM     28  H   UNL A   1      39.754  18.280  25.613  1.00  0.00     0.163 HD
ATOM     29  O   UNL A   1      42.238  18.407  25.718  1.00  0.00    -0.269 OA
BRANCH  27  30
ATOM     30  C   UNL A   1      41.960  20.583  26.553  1.00  0.00     0.039 A 
ATOM     31  C   UNL A   1      42.541  21.577  25.760  1.00  0.00     0.014 A 
ATOM     32  C   UNL A   1      41.737  20.797  27.908  1.00  0.00     0.014 A 
ATOM     33  C   UNL A   1      42.795  22.827  26.329  1.00  0.00     0.010 A 
ATOM     34  C   UNL A   1      41.817  22.068  28.411  1.00  0.00     0.010 A 
ATOM     35  C   UNL A   1      42.401  23.078  27.652  1.00  0.00    -0.014 A 
BRANCH  35  36
ATOM     36  C   UNL A   1      42.497  24.414  28.236  1.00  0.00     0.031 A 
ATOM     37  C   UNL A   1      41.321  25.305  28.016  1.00  0.00     0.074 A 
ATOM     38  C   UNL A   1      43.450  24.743  29.136  1.00  0.00     0.049 A 
ATOM     39  N   UNL A   1      41.284  26.424  27.372  1.00  0.00    -0.248 NA
ATOM     40  C   UNL A   1      40.002  24.848  28.484  1.00  0.00     0.031 C 
ATOM     41  C   UNL A   1      44.486  23.879  29.721  1.00  0.00     0.029 A 
ATOM     42  N   UNL A   1      43.592  25.891  29.849  1.00  0.00    -0.354 N 
ATOM     43  C   UNL A   1      39.992  26.920  27.524  1.00  0.00     0.074 A 
ATOM     44  C   UNL A   1      39.209  25.835  28.063  1.00  0.00     0.031 C 
ATOM     45  C   UNL A   1      44.933  24.429  30.870  1.00  0.00     0.029 A 
ATOM     46  C   UNL A   1      44.363  25.756  30.999  1.00  0.00     0.049 A 
ATOM     47  H   UNL A   1      43.183  26.744  29.577  1.00  0.00     0.167 HD
ATOM     48  C   UNL A   1      39.709  28.250  27.417  1.00  0.00     0.031 A 
ATOM     49  C   UNL A   1      44.479  26.650  32.014  1.00  0.00     0.031 A 
ATOM     50  C   UNL A   1      40.800  28.986  26.831  1.00  0.00     0.049 A 
ATOM     51  C   UNL A   1      44.069  27.969  31.469  1.00  0.00     0.074 A 
ATOM     52  C   UNL A   1      41.504  28.890  25.646  1.00  0.00     0.029 A 
ATOM     53  N   UNL A   1      41.597  29.723  27.679  1.00  0.00    -0.354 N 
ATOM     54  N   UNL A   1      44.726  28.589  30.525  1.00  0.00    -0.248 NA
ATOM     55  C   UNL A   1      42.681  28.376  31.628  1.00  0.00     0.031 C 
ATOM     56  C   UNL A   1      42.864  29.100  26.018  1.00  0.00     0.029 A 
ATOM     57  C   UNL A   1      42.897  29.400  27.381  1.00  0.00     0.049 A 
ATOM     58  H   UNL A   1      41.292  30.359  28.366  1.00  0.00     0.167 HD
ATOM     59  C   UNL A   1      43.746  29.122  29.700  1.00  0.00     0.074 A 
ATOM     60  C   UNL A   1      42.512  29.043  30.483  1.00  0.00     0.031 C 
ATOM     61  C   UNL A   1      43.959  29.314  28.363  1.00  0.00     0.031 A 
BRANCH  48  62
ATOM     62  C   UNL A   1      38.605  28.942  28.179  1.00  0.00    -0.014 A 
ATOM     63  C   UNL A   1      37.578  29.595  27.467  1.00  0.00     0.010 A 
ATOM     64  C   UNL A   1      38.685  29.201  29.563  1.00  0.00     0.010 A 
ATOM     65  C   UNL A   1      36.718  30.505  28.097  1.00  0.00     0.020 A 
ATOM     66  C   UNL A   1      37.804  30.070  30.210  1.00  0.00     0.020 A 
ATOM     67  C   UNL A   1      36.847  30.745  29.465  1.00  0.00     0.054 A 
BRANCH  67  68
ATOM     68  S   UNL A   1      35.800  31.994  30.253  1.00  0.00     0.124 S 
ATOM     69  O   UNL A   1      36.653  33.177  30.200  1.00  0.00    -0.237 OA
ATOM     70  O   UNL A   1      34.630  32.014  29.379  1.00  0.00    -0.237 OA
ATOM     71  O   UNL A   1      35.564  31.448  31.588  1.00  0.00    -0.744 OA
ENDBRANCH  67  68
ENDBRANCH  48  62
BRANCH  49  72
ATOM     72  C   UNL A   1      44.600  26.358  33.466  1.00  0.00    -0.014 A 
ATOM     73  C   UNL A   1      45.321  27.212  34.320  1.00  0.00     0.010 A 
ATOM     74  C   UNL A   1      43.779  25.380  34.069  1.00  0.00     0.010 A 
ATOM     75  C   UNL A   1      45.171  27.138  35.717  1.00  0.00     0.020 A 
ATOM     76  C   UNL A   1      43.634  25.291  35.460  1.00  0.00     0.020 A 
ATOM     77  C   UNL A   1      44.310  26.192  36.277  1.00  0.00     0.054 A 
BRANCH  77  78
ATOM     78  S   UNL A   1      43.970  26.233  38.062  1.00  0.00     0.124 S 
ATOM     79  O   UNL A   1      42.511  26.267  38.101  1.00  0.00    -0.237 OA
ATOM     80  O   UNL A   1      44.586  24.994  38.531  1.00  0.00    -0.237 OA
ATOM     81  O   UNL A   1      44.631  27.456  38.513  1.00  0.00    -0.744 OA
ENDBRANCH  77  78
ENDBRANCH  49  72
BRANCH  61  82
ATOM     82  C   UNL A   1      45.363  29.178  27.810  1.00  0.00    -0.014 A 
ATOM     83  C   UNL A   1      46.292  30.237  27.753  1.00  0.00     0.010 A 
ATOM     84  C   UNL A   1      45.817  27.883  27.506  1.00  0.00     0.010 A 
ATOM     85  C   UNL A   1      47.626  30.008  27.381  1.00  0.00     0.020 A 
ATOM     86  C   UNL A   1      47.148  27.643  27.153  1.00  0.00     0.020 A 
ATOM     87  C   UNL A   1      48.046  28.708  27.083  1.00  0.00     0.054 A 
BRANCH  87  88
ATOM     88  S   UNL A   1      49.783  28.404  26.651  1.00  0.00     0.124 S 
ATOM     89  O   UNL A   1      49.734  28.307  25.194  1.00  0.00    -0.237 OA
ATOM     90  O   UNL A   1      50.463  29.582  27.181  1.00  0.00    -0.237 OA
ATOM     91  O   UNL A   1      50.101  27.154  27.341  1.00  0.00    -0.744 OA
ENDBRANCH  87  88
ENDBRANCH  61  82
ENDBRANCH  35  36
ENDBRANCH  27  30
ENDBRANCH  25  26
ENDBRANCH   1  25
TORSDOF 15
ENDMDL
