MODEL 1
REMARK VINA RESULT:      -7.9      0.000      0.000
REMARK SMILES C[C@H](NC(=O)OC(C)(C)C)C(=O)N[C@@H](C)C(=O)N1CCC[C@H]1C(=O)NCCCCNC(=O)c1ccc(-c2c3nc(c(-c4ccc(S(=O)(=O)[O-])cc4)c4ccc([nH]4)c(-c4ccc(S(=O)(=O)[O-])cc4)c4nc(c(-c5ccc(S(=O)(=O)[O-])cc5)c5ccc2[nH]5)C=C4)C=C3)cc1
REMARK SMILES IDX 23 1 24 2 25 3 22 5 18 6 19 7 20 8 21 9 16 10 17 11 14 12
REMARK SMILES IDX 15 13 13 14 11 15 12 16 2 18 1 19 3 20 4 21 5 23 6 24 7 25
REMARK SMILES IDX 8 26 9 27 10 28 26 29 27 30 28 31 29 32 30 33 31 34 32 36
REMARK SMILES IDX 33 37 34 38 92 39 35 40 91 41 36 42 37 43 38 44 85 45 39 46
REMARK SMILES IDX 90 47 84 48 86 49 40 50 89 51 83 52 82 53 41 55 71 56 52 57
REMARK SMILES IDX 70 58 53 59 56 60 69 61 87 62 54 63 55 64 68 66 88 67 57 68
REMARK SMILES IDX 42 69 43 70 51 71 44 72 50 73 45 74 46 75 47 76 48 77 49 78
REMARK SMILES IDX 72 79 73 80 81 81 74 82 80 83 75 84 76 85 77 86 78 87 79 88
REMARK SMILES IDX 58 89 59 90 67 91 60 92 66 93 61 94 62 95 63 96 64 97 65 98
REMARK H PARENT 25 4 13 17 3 22 30 35 86 54 56 65
REMARK Flexibility Score: inf
ROOT
ATOM      1  C   UNL A   1      45.270  40.433  26.325  1.00  0.00     0.242 C 
ATOM      2  O   UNL A   1      45.354  39.505  25.512  1.00  0.00    -0.273 OA
ATOM      3  N   UNL A   1      46.363  40.670  27.102  1.00  0.00    -0.354 N 
ATOM      4  H   UNL A   1      47.033  39.949  27.101  1.00  0.00     0.163 HD
ENDROOT
BRANCH   1   5
ATOM      5  C   UNL A   1      44.024  41.346  26.337  1.00  0.00     0.174 C 
ATOM      6  N   UNL A   1      43.716  42.072  25.102  1.00  0.00    -0.329 N 
ATOM      7  C   UNL A   1      42.428  41.703  24.560  1.00  0.00     0.120 C 
ATOM      8  C   UNL A   1      41.671  41.119  25.739  1.00  0.00     0.024 C 
ATOM      9  C   UNL A   1      42.733  40.619  26.718  1.00  0.00     0.037 C 
BRANCH   6  10
ATOM     10  C   UNL A   1      44.515  43.146  24.787  1.00  0.00     0.245 C 
ATOM     11  O   UNL A   1      44.531  44.142  25.518  1.00  0.00    -0.272 OA
BRANCH  10  12
ATOM     12  C   UNL A   1      45.229  43.214  23.425  1.00  0.00     0.168 C 
ATOM     13  C   UNL A   1      46.613  42.569  23.495  1.00  0.00     0.041 C 
BRANCH  12  14
ATOM     14  N   UNL A   1      45.270  44.502  22.755  1.00  0.00    -0.343 N 
ATOM     15  C   UNL A   1      45.376  44.766  21.422  1.00  0.00     0.243 C 
ATOM     16  O   UNL A   1      45.419  45.957  21.095  1.00  0.00    -0.273 OA
ATOM     17  H   UNL A   1      45.214  45.290  23.342  1.00  0.00     0.164 HD
BRANCH  15  18
ATOM     18  C   UNL A   1      45.370  43.657  20.335  1.00  0.00     0.171 C 
ATOM     19  C   UNL A   1      46.323  44.002  19.198  1.00  0.00     0.042 C 
BRANCH  18  20
ATOM     20  N   UNL A   1      44.022  43.191  19.982  1.00  0.00    -0.310 N 
ATOM     21  C   UNL A   1      42.961  43.813  19.397  1.00  0.00     0.408 C 
ATOM     22  H   UNL A   1      43.854  42.249  20.213  1.00  0.00     0.167 HD
ATOM     23  O   UNL A   1      41.883  43.237  19.312  1.00  0.00    -0.225 OA
BRANCH  21  24
ATOM     24  O   UNL A   1      43.216  45.073  18.992  1.00  0.00    -0.444 OA
BRANCH  24  25
ATOM     25  C   UNL A   1      43.086  45.476  17.602  1.00  0.00     0.106 C 
ATOM     26  C   UNL A   1      43.378  44.308  16.657  1.00  0.00     0.056 C 
ATOM     27  C   UNL A   1      41.714  46.100  17.318  1.00  0.00     0.056 C 
ATOM     28  C   UNL A   1      44.162  46.553  17.399  1.00  0.00     0.056 C 
ENDBRANCH  24  25
ENDBRANCH  21  24
ENDBRANCH  18  20
ENDBRANCH  15  18
ENDBRANCH  12  14
ENDBRANCH  10  12
ENDBRANCH   6  10
ENDBRANCH   1   5
BRANCH   3  29
ATOM     29  C   UNL A   1      46.700  41.807  27.925  1.00  0.00     0.116 C 
BRANCH  29  30
ATOM     30  C   UNL A   1      46.604  41.508  29.414  1.00  0.00     0.023 C 
BRANCH  30  31
ATOM     31  C   UNL A   1      46.184  42.701  30.271  1.00  0.00     0.023 C 
BRANCH  31  32
ATOM     32  C   UNL A   1      45.919  42.388  31.739  1.00  0.00     0.116 C 
BRANCH  32  33
ATOM     33  N   UNL A   1      44.562  42.710  32.156  1.00  0.00    -0.352 N 
ATOM     34  C   UNL A   1      43.430  41.930  32.087  1.00  0.00     0.251 C 
ATOM     35  H   UNL A   1      44.436  43.608  32.540  1.00  0.00     0.163 HD
ATOM     36  O   UNL A   1      42.334  42.409  32.359  1.00  0.00    -0.269 OA
BRANCH  34  37
ATOM     37  C   UNL A   1      43.546  40.524  31.647  1.00  0.00     0.039 A 
ATOM     38  C   UNL A   1      43.242  40.199  30.324  1.00  0.00     0.014 A 
ATOM     39  C   UNL A   1      44.001  39.540  32.529  1.00  0.00     0.014 A 
ATOM     40  C   UNL A   1      43.466  38.899  29.866  1.00  0.00     0.010 A 
ATOM     41  C   UNL A   1      44.304  38.270  32.049  1.00  0.00     0.010 A 
ATOM     42  C   UNL A   1      44.040  37.934  30.712  1.00  0.00    -0.014 A 
BRANCH  42  43
ATOM     43  C   UNL A   1      44.377  36.575  30.217  1.00  0.00     0.031 A 
ATOM     44  C   UNL A   1      45.665  36.339  29.474  1.00  0.00     0.074 A 
ATOM     45  C   UNL A   1      43.499  35.565  30.382  1.00  0.00     0.049 A 
ATOM     46  N   UNL A   1      46.110  35.237  28.925  1.00  0.00    -0.248 NA
ATOM     47  C   UNL A   1      46.557  37.498  29.303  1.00  0.00     0.031 C 
ATOM     48  C   UNL A   1      42.201  35.672  31.053  1.00  0.00     0.029 A 
ATOM     49  N   UNL A   1      43.563  34.250  29.995  1.00  0.00    -0.354 N 
ATOM     50  C   UNL A   1      47.325  35.572  28.338  1.00  0.00     0.074 A 
ATOM     51  C   UNL A   1      47.516  36.991  28.542  1.00  0.00     0.031 C 
ATOM     52  C   UNL A   1      41.612  34.465  31.064  1.00  0.00     0.029 A 
ATOM     53  C   UNL A   1      42.462  33.511  30.360  1.00  0.00     0.049 A 
ATOM     54  H   UNL A   1      44.327  33.870  29.503  1.00  0.00     0.167 HD
ATOM     55  C   UNL A   1      48.215  34.769  27.708  1.00  0.00     0.031 A 
ATOM     56  C   UNL A   1      42.166  32.213  30.149  1.00  0.00     0.031 A 
ATOM     57  C   UNL A   1      48.019  33.357  27.502  1.00  0.00     0.049 A 
ATOM     58  C   UNL A   1      43.149  31.349  29.408  1.00  0.00     0.074 A 
ATOM     59  C   UNL A   1      48.878  32.447  26.910  1.00  0.00     0.029 A 
ATOM     60  N   UNL A   1      46.885  32.652  27.874  1.00  0.00    -0.354 N 
ATOM     61  N   UNL A   1      44.322  31.670  28.917  1.00  0.00    -0.248 NA
ATOM     62  C   UNL A   1      42.774  29.943  29.205  1.00  0.00     0.031 C 
ATOM     63  C   UNL A   1      48.236  31.206  26.869  1.00  0.00     0.029 A 
ATOM     64  C   UNL A   1      47.008  31.324  27.500  1.00  0.00     0.049 A 
ATOM     65  H   UNL A   1      46.106  33.038  28.336  1.00  0.00     0.167 HD
ATOM     66  C   UNL A   1      44.838  30.499  28.373  1.00  0.00     0.074 A 
ATOM     67  C   UNL A   1      43.856  29.460  28.610  1.00  0.00     0.031 C 
ATOM     68  C   UNL A   1      46.022  30.299  27.740  1.00  0.00     0.031 A 
BRANCH  55  69
ATOM     69  C   UNL A   1      49.478  35.407  27.186  1.00  0.00    -0.014 A 
ATOM     70  C   UNL A   1      50.609  35.561  28.009  1.00  0.00     0.010 A 
ATOM     71  C   UNL A   1      49.546  35.836  25.849  1.00  0.00     0.010 A 
ATOM     72  C   UNL A   1      51.762  36.181  27.522  1.00  0.00     0.020 A 
ATOM     73  C   UNL A   1      50.710  36.426  25.346  1.00  0.00     0.020 A 
ATOM     74  C   UNL A   1      51.804  36.614  26.193  1.00  0.00     0.054 A 
BRANCH  74  75
ATOM     75  S   UNL A   1      53.317  37.409  25.587  1.00  0.00     0.124 S 
ATOM     76  O   UNL A   1      52.780  38.541  24.835  1.00  0.00    -0.237 OA
ATOM     77  O   UNL A   1      54.015  37.751  26.824  1.00  0.00    -0.237 OA
ATOM     78  O   UNL A   1      53.955  36.373  24.779  1.00  0.00    -0.744 OA
ENDBRANCH  74  75
ENDBRANCH  55  69
BRANCH  56  79
ATOM     79  C   UNL A   1      40.887  31.647  30.666  1.00  0.00    -0.014 A 
ATOM     80  C   UNL A   1      39.721  31.689  29.881  1.00  0.00     0.010 A 
ATOM     81  C   UNL A   1      40.832  31.050  31.939  1.00  0.00     0.010 A 
ATOM     82  C   UNL A   1      38.521  31.161  30.365  1.00  0.00     0.020 A 
ATOM     83  C   UNL A   1      39.641  30.493  32.414  1.00  0.00     0.020 A 
ATOM     84  C   UNL A   1      38.489  30.562  31.627  1.00  0.00     0.054 A 
BRANCH  84  85
ATOM     85  S   UNL A   1      36.933  29.835  32.210  1.00  0.00     0.124 S 
ATOM     86  O   UNL A   1      36.353  29.326  30.970  1.00  0.00    -0.237 OA
ATOM     87  O   UNL A   1      37.394  28.822  33.157  1.00  0.00    -0.237 OA
ATOM     88  O   UNL A   1      36.230  30.966  32.811  1.00  0.00    -0.744 OA
ENDBRANCH  84  85
ENDBRANCH  56  79
BRANCH  68  89
ATOM     89  C   UNL A   1      46.343  28.898  27.289  1.00  0.00    -0.014 A 
ATOM     90  C   UNL A   1      46.914  27.957  28.165  1.00  0.00     0.010 A 
ATOM     91  C   UNL A   1      46.014  28.501  25.979  1.00  0.00     0.010 A 
ATOM     92  C   UNL A   1      47.180  26.656  27.727  1.00  0.00     0.020 A 
ATOM     93  C   UNL A   1      46.248  27.193  25.548  1.00  0.00     0.020 A 
ATOM     94  C   UNL A   1      46.842  26.281  26.424  1.00  0.00     0.054 A 
BRANCH  94  95
ATOM     95  S   UNL A   1      47.154  24.575  25.898  1.00  0.00     0.124 S 
ATOM     96  O   UNL A   1      48.594  24.449  26.106  1.00  0.00    -0.237 OA
ATOM     97  O   UNL A   1      46.317  23.802  26.812  1.00  0.00    -0.237 OA
ATOM     98  O   UNL A   1      46.723  24.556  24.501  1.00  0.00    -0.744 OA
ENDBRANCH  94  95
ENDBRANCH  68  89
ENDBRANCH  42  43
ENDBRANCH  34  37
ENDBRANCH  32  33
ENDBRANCH  31  32
ENDBRANCH  30  31
ENDBRANCH  29  30
ENDBRANCH   3  29
TORSDOF 21
ENDMDL
MODEL 2
REMARK VINA RESULT:      -7.9     10.505     18.332
REMARK SMILES C[C@H](NC(=O)OC(C)(C)C)C(=O)N[C@@H](C)C(=O)N1CCC[C@H]1C(=O)NCCCCNC(=O)c1ccc(-c2c3nc(c(-c4ccc(S(=O)(=O)[O-])cc4)c4ccc([nH]4)c(-c4ccc(S(=O)(=O)[O-])cc4)c4nc(c(-c5ccc(S(=O)(=O)[O-])cc5)c5ccc2[nH]5)C=C4)C=C3)cc1
REMARK SMILES IDX 23 1 24 2 25 3 22 5 18 6 19 7 20 8 21 9 16 10 17 11 14 12
REMARK SMILES IDX 15 13 13 14 11 15 12 16 2 18 1 19 3 20 4 21 5 23 6 24 7 25
REMARK SMILES IDX 8 26 9 27 10 28 26 29 27 30 28 31 29 32 30 33 31 34 32 36
REMARK SMILES IDX 33 37 34 38 92 39 35 40 91 41 36 42 37 43 38 44 85 45 39 46
REMARK SMILES IDX 90 47 84 48 86 49 40 50 89 51 83 52 82 53 41 55 71 56 52 57
REMARK SMILES IDX 70 58 53 59 56 60 69 61 87 62 54 63 55 64 68 66 88 67 57 68
REMARK SMILES IDX 42 69 43 70 51 71 44 72 50 73 45 74 46 75 47 76 48 77 49 78
REMARK SMILES IDX 72 79 73 80 81 81 74 82 80 83 75 84 76 85 77 86 78 87 79 88
REMARK SMILES IDX 58 89 59 90 67 91 60 92 66 93 61 94 62 95 63 96 64 97 65 98
REMARK H PARENT 25 4 13 17 3 22 30 35 86 54 56 65
REMARK Flexibility Score: inf
ROOT
ATOM      1  C   UNL A   1      44.846  25.364  33.370  1.00  0.00     0.242 C 
ATOM      2  O   UNL A   1      45.678  26.105  33.907  1.00  0.00    -0.273 OA
ATOM      3  N   UNL A   1      44.967  25.175  32.027  1.00  0.00    -0.354 N 
ATOM      4  H   UNL A   1      45.564  25.813  31.574  1.00  0.00     0.163 HD
ENDROOT
BRANCH   1   5
ATOM      5  C   UNL A   1      43.817  24.598  34.232  1.00  0.00     0.174 C 
ATOM      6  N   UNL A   1      44.320  23.929  35.434  1.00  0.00    -0.329 N 
ATOM      7  C   UNL A   1      43.715  24.449  36.640  1.00  0.00     0.120 C 
ATOM      8  C   UNL A   1      42.426  25.098  36.171  1.00  0.00     0.024 C 
ATOM      9  C   UNL A   1      42.645  25.461  34.702  1.00  0.00     0.037 C 
BRANCH   6  10
ATOM     10  C   UNL A   1      45.048  22.776  35.255  1.00  0.00     0.245 C 
ATOM     11  O   UNL A   1      44.519  21.781  34.749  1.00  0.00    -0.272 OA
BRANCH  10  12
ATOM     12  C   UNL A   1      46.452  22.637  35.873  1.00  0.00     0.168 C 
ATOM     13  C   UNL A   1      47.084  24.007  36.116  1.00  0.00     0.041 C 
BRANCH  12  14
ATOM     14  N   UNL A   1      47.379  21.725  35.226  1.00  0.00    -0.343 N 
ATOM     15  C   UNL A   1      47.779  20.487  35.634  1.00  0.00     0.243 C 
ATOM     16  O   UNL A   1      48.607  19.910  34.919  1.00  0.00    -0.273 OA
ATOM     17  H   UNL A   1      47.770  22.043  34.381  1.00  0.00     0.164 HD
BRANCH  15  18
ATOM     18  C   UNL A   1      47.193  19.774  36.882  1.00  0.00     0.171 C 
ATOM     19  C   UNL A   1      45.817  19.191  36.581  1.00  0.00     0.042 C 
BRANCH  18  20
ATOM     20  N   UNL A   1      47.356  20.540  38.124  1.00  0.00    -0.310 N 
ATOM     21  C   UNL A   1      48.126  20.341  39.229  1.00  0.00     0.408 C 
ATOM     22  H   UNL A   1      46.804  21.354  38.165  1.00  0.00     0.167 HD
ATOM     23  O   UNL A   1      48.001  21.071  40.205  1.00  0.00    -0.225 OA
BRANCH  21  24
ATOM     24  O   UNL A   1      48.956  19.282  39.139  1.00  0.00    -0.444 OA
BRANCH  24  25
ATOM     25  C   UNL A   1      50.399  19.438  39.076  1.00  0.00     0.106 C 
ATOM     26  C   UNL A   1      50.812  20.885  39.354  1.00  0.00     0.056 C 
ATOM     27  C   UNL A   1      51.117  18.458  40.013  1.00  0.00     0.056 C 
ATOM     28  C   UNL A   1      50.773  19.089  37.628  1.00  0.00     0.056 C 
ENDBRANCH  24  25
ENDBRANCH  21  24
ENDBRANCH  18  20
ENDBRANCH  15  18
ENDBRANCH  12  14
ENDBRANCH  10  12
ENDBRANCH   6  10
ENDBRANCH   1   5
BRANCH   3  29
ATOM     29  C   UNL A   1      44.363  24.192  31.160  1.00  0.00     0.116 C 
BRANCH  29  30
ATOM     30  C   UNL A   1      43.866  24.783  29.849  1.00  0.00     0.023 C 
BRANCH  30  31
ATOM     31  C   UNL A   1      43.559  23.749  28.768  1.00  0.00     0.023 C 
BRANCH  31  32
ATOM     32  C   UNL A   1      42.124  23.752  28.252  1.00  0.00     0.116 C 
BRANCH  32  33
ATOM     33  N   UNL A   1      42.000  24.299  26.908  1.00  0.00    -0.352 N 
ATOM     34  C   UNL A   1      41.584  25.552  26.522  1.00  0.00     0.251 C 
ATOM     35  H   UNL A   1      42.249  23.689  26.176  1.00  0.00     0.163 HD
ATOM     36  O   UNL A   1      41.408  25.804  25.334  1.00  0.00    -0.269 OA
BRANCH  34  37
ATOM     37  C   UNL A   1      41.316  26.576  27.553  1.00  0.00     0.039 A 
ATOM     38  C   UNL A   1      40.262  26.380  28.447  1.00  0.00     0.014 A 
ATOM     39  C   UNL A   1      42.135  27.703  27.664  1.00  0.00     0.014 A 
ATOM     40  C   UNL A   1      40.077  27.278  29.501  1.00  0.00     0.010 A 
ATOM     41  C   UNL A   1      42.002  28.547  28.762  1.00  0.00     0.010 A 
ATOM     42  C   UNL A   1      40.972  28.345  29.693  1.00  0.00    -0.014 A 
BRANCH  42  43
ATOM     43  C   UNL A   1      40.852  29.253  30.862  1.00  0.00     0.031 A 
ATOM     44  C   UNL A   1      39.777  30.306  30.895  1.00  0.00     0.074 A 
ATOM     45  C   UNL A   1      41.746  29.171  31.868  1.00  0.00     0.049 A 
ATOM     46  N   UNL A   1      39.544  31.219  31.804  1.00  0.00    -0.248 NA
ATOM     47  C   UNL A   1      38.859  30.356  29.745  1.00  0.00     0.031 C 
ATOM     48  C   UNL A   1      42.857  28.218  31.939  1.00  0.00     0.029 A 
ATOM     49  N   UNL A   1      41.866  29.903  33.023  1.00  0.00    -0.354 N 
ATOM     50  C   UNL A   1      38.463  31.955  31.331  1.00  0.00     0.074 A 
ATOM     51  C   UNL A   1      38.128  31.423  30.028  1.00  0.00     0.031 C 
ATOM     52  C   UNL A   1      43.518  28.399  33.094  1.00  0.00     0.029 A 
ATOM     53  C   UNL A   1      42.914  29.510  33.821  1.00  0.00     0.049 A 
ATOM     54  H   UNL A   1      41.257  30.641  33.257  1.00  0.00     0.167 HD
ATOM     55  C   UNL A   1      37.793  32.965  31.936  1.00  0.00     0.031 A 
ATOM     56  C   UNL A   1      43.345  29.991  35.005  1.00  0.00     0.031 A 
ATOM     57  C   UNL A   1      38.134  33.495  33.230  1.00  0.00     0.049 A 
ATOM     58  C   UNL A   1      42.612  31.142  35.638  1.00  0.00     0.074 A 
ATOM     59  C   UNL A   1      37.494  34.490  33.947  1.00  0.00     0.029 A 
ATOM     60  N   UNL A   1      39.210  33.078  33.998  1.00  0.00    -0.354 N 
ATOM     61  N   UNL A   1      41.552  31.783  35.205  1.00  0.00    -0.248 NA
ATOM     62  C   UNL A   1      43.126  31.627  36.926  1.00  0.00     0.031 C 
ATOM     63  C   UNL A   1      38.219  34.718  35.120  1.00  0.00     0.029 A 
ATOM     64  C   UNL A   1      39.270  33.816  35.169  1.00  0.00     0.049 A 
ATOM     65  H   UNL A   1      39.839  32.363  33.749  1.00  0.00     0.167 HD
ATOM     66  C   UNL A   1      41.255  32.726  36.183  1.00  0.00     0.074 A 
ATOM     67  C   UNL A   1      42.237  32.561  37.235  1.00  0.00     0.031 C 
ATOM     68  C   UNL A   1      40.255  33.643  36.210  1.00  0.00     0.031 A 
BRANCH  55  69
ATOM     69  C   UNL A   1      36.629  33.569  31.191  1.00  0.00    -0.014 A 
ATOM     70  C   UNL A   1      36.732  33.905  29.829  1.00  0.00     0.010 A 
ATOM     71  C   UNL A   1      35.407  33.781  31.853  1.00  0.00     0.010 A 
ATOM     72  C   UNL A   1      35.656  34.493  29.159  1.00  0.00     0.020 A 
ATOM     73  C   UNL A   1      34.315  34.336  31.177  1.00  0.00     0.020 A 
ATOM     74  C   UNL A   1      34.454  34.708  29.839  1.00  0.00     0.054 A 
BRANCH  74  75
ATOM     75  S   UNL A   1      33.073  35.465  28.941  1.00  0.00     0.124 S 
ATOM     76  O   UNL A   1      32.204  35.895  30.035  1.00  0.00    -0.237 OA
ATOM     77  O   UNL A   1      33.726  36.540  28.198  1.00  0.00    -0.237 OA
ATOM     78  O   UNL A   1      32.549  34.373  28.123  1.00  0.00    -0.744 OA
ENDBRANCH  74  75
ENDBRANCH  55  69
BRANCH  56  79
ATOM     79  C   UNL A   1      44.520  29.369  35.679  1.00  0.00    -0.014 A 
ATOM     80  C   UNL A   1      44.335  28.387  36.668  1.00  0.00     0.010 A 
ATOM     81  C   UNL A   1      45.829  29.744  35.326  1.00  0.00     0.010 A 
ATOM     82  C   UNL A   1      45.436  27.804  37.303  1.00  0.00     0.020 A 
ATOM     83  C   UNL A   1      46.933  29.142  35.937  1.00  0.00     0.020 A 
ATOM     84  C   UNL A   1      46.728  28.183  36.931  1.00  0.00     0.054 A 
BRANCH  84  85
ATOM     85  S   UNL A   1      48.140  27.372  37.731  1.00  0.00     0.124 S 
ATOM     86  O   UNL A   1      48.717  28.465  38.508  1.00  0.00    -0.237 OA
ATOM     87  O   UNL A   1      47.497  26.314  38.507  1.00  0.00    -0.237 OA
ATOM     88  O   UNL A   1      48.950  26.906  36.608  1.00  0.00    -0.744 OA
ENDBRANCH  84  85
ENDBRANCH  56  79
BRANCH  68  89
ATOM     89  C   UNL A   1      40.144  34.517  37.432  1.00  0.00    -0.014 A 
ATOM     90  C   UNL A   1      40.817  35.748  37.519  1.00  0.00     0.010 A 
ATOM     91  C   UNL A   1      39.303  34.121  38.490  1.00  0.00     0.010 A 
ATOM     92  C   UNL A   1      40.677  36.551  38.655  1.00  0.00     0.020 A 
ATOM     93  C   UNL A   1      39.135  34.935  39.612  1.00  0.00     0.020 A 
ATOM     94  C   UNL A   1      39.835  36.141  39.693  1.00  0.00     0.054 A 
BRANCH  94  95
ATOM     95  S   UNL A   1      39.634  37.223  41.133  1.00  0.00     0.124 S 
ATOM     96  O   UNL A   1      38.942  36.350  42.077  1.00  0.00    -0.237 OA
ATOM     97  O   UNL A   1      41.015  37.553  41.479  1.00  0.00    -0.237 OA
ATOM     98  O   UNL A   1      38.843  38.341  40.622  1.00  0.00    -0.744 OA
ENDBRANCH  94  95
ENDBRANCH  68  89
ENDBRANCH  42  43
ENDBRANCH  34  37
ENDBRANCH  32  33
ENDBRANCH  31  32
ENDBRANCH  30  31
ENDBRANCH  29  30
ENDBRANCH   3  29
TORSDOF 21
ENDMDL
MODEL 3
REMARK VINA RESULT:      -7.7      7.944     12.975
REMARK SMILES C[C@H](NC(=O)OC(C)(C)C)C(=O)N[C@@H](C)C(=O)N1CCC[C@H]1C(=O)NCCCCNC(=O)c1ccc(-c2c3nc(c(-c4ccc(S(=O)(=O)[O-])cc4)c4ccc([nH]4)c(-c4ccc(S(=O)(=O)[O-])cc4)c4nc(c(-c5ccc(S(=O)(=O)[O-])cc5)c5ccc2[nH]5)C=C4)C=C3)cc1
REMARK SMILES IDX 23 1 24 2 25 3 22 5 18 6 19 7 20 8 21 9 16 10 17 11 14 12
REMARK SMILES IDX 15 13 13 14 11 15 12 16 2 18 1 19 3 20 4 21 5 23 6 24 7 25
REMARK SMILES IDX 8 26 9 27 10 28 26 29 27 30 28 31 29 32 30 33 31 34 32 36
REMARK SMILES IDX 33 37 34 38 92 39 35 40 91 41 36 42 37 43 38 44 85 45 39 46
REMARK SMILES IDX 90 47 84 48 86 49 40 50 89 51 83 52 82 53 41 55 71 56 52 57
REMARK SMILES IDX 70 58 53 59 56 60 69 61 87 62 54 63 55 64 68 66 88 67 57 68
REMARK SMILES IDX 42 69 43 70 51 71 44 72 50 73 45 74 46 75 47 76 48 77 49 78
REMARK SMILES IDX 72 79 73 80 81 81 74 82 80 83 75 84 76 85 77 86 78 87 79 88
REMARK SMILES IDX 58 89 59 90 67 91 60 92 66 93 61 94 62 95 63 96 64 97 65 98
REMARK H PARENT 25 4 13 17 3 22 30 35 86 54 56 65
REMARK Flexibility Score: inf
ROOT
ATOM      1  C   UNL A   1      41.802  26.068  27.787  1.00  0.00     0.242 C 
ATOM      2  O   UNL A   1      42.577  25.763  28.701  1.00  0.00    -0.273 OA
ATOM      3  N   UNL A   1      40.805  26.943  28.093  1.00  0.00    -0.354 N 
ATOM      4  H   UNL A   1      40.659  27.080  29.057  1.00  0.00     0.163 HD
ENDROOT
BRANCH   1   5
ATOM      5  C   UNL A   1      42.063  25.570  26.348  1.00  0.00     0.174 C 
ATOM      6  N   UNL A   1      43.390  25.828  25.782  1.00  0.00    -0.329 N 
ATOM      7  C   UNL A   1      44.089  24.606  25.455  1.00  0.00     0.120 C 
ATOM      8  C   UNL A   1      42.994  23.564  25.322  1.00  0.00     0.024 C 
ATOM      9  C   UNL A   1      41.822  24.071  26.163  1.00  0.00     0.037 C 
BRANCH   6  10
ATOM     10  C   UNL A   1      43.672  27.119  25.401  1.00  0.00     0.245 C 
ATOM     11  O   UNL A   1      42.816  27.795  24.822  1.00  0.00    -0.272 OA
BRANCH  10  12
ATOM     12  C   UNL A   1      45.110  27.663  25.493  1.00  0.00     0.168 C 
ATOM     13  C   UNL A   1      45.180  28.879  26.417  1.00  0.00     0.041 C 
BRANCH  12  14
ATOM     14  N   UNL A   1      45.818  27.894  24.246  1.00  0.00    -0.343 N 
ATOM     15  C   UNL A   1      47.130  27.663  23.957  1.00  0.00     0.243 C 
ATOM     16  O   UNL A   1      47.509  27.970  22.821  1.00  0.00    -0.273 OA
ATOM     17  H   UNL A   1      45.279  28.267  23.513  1.00  0.00     0.164 HD
BRANCH  15  18
ATOM     18  C   UNL A   1      48.110  26.981  24.949  1.00  0.00     0.171 C 
ATOM     19  C   UNL A   1      49.483  26.791  24.316  1.00  0.00     0.042 C 
BRANCH  18  20
ATOM     20  N   UNL A   1      47.521  25.842  25.664  1.00  0.00    -0.310 N 
ATOM     21  C   UNL A   1      47.910  25.155  26.774  1.00  0.00     0.408 C 
ATOM     22  H   UNL A   1      46.684  25.512  25.265  1.00  0.00     0.167 HD
ATOM     23  O   UNL A   1      47.302  24.148  27.117  1.00  0.00    -0.225 OA
BRANCH  21  24
ATOM     24  O   UNL A   1      49.002  25.661  27.380  1.00  0.00    -0.444 OA
BRANCH  24  25
ATOM     25  C   UNL A   1      48.904  26.561  28.517  1.00  0.00     0.106 C 
ATOM     26  C   UNL A   1      47.466  27.046  28.716  1.00  0.00     0.056 C 
ATOM     27  C   UNL A   1      49.465  25.925  29.795  1.00  0.00     0.056 C 
ATOM     28  C   UNL A   1      49.782  27.765  28.146  1.00  0.00     0.056 C 
ENDBRANCH  24  25
ENDBRANCH  21  24
ENDBRANCH  18  20
ENDBRANCH  15  18
ENDBRANCH  12  14
ENDBRANCH  10  12
ENDBRANCH   6  10
ENDBRANCH   1   5
BRANCH   3  29
ATOM     29  C   UNL A   1      39.928  27.704  27.235  1.00  0.00     0.116 C 
BRANCH  29  30
ATOM     30  C   UNL A   1      39.402  28.969  27.897  1.00  0.00     0.023 C 
BRANCH  30  31
ATOM     31  C   UNL A   1      38.185  28.751  28.794  1.00  0.00     0.023 C 
BRANCH  31  32
ATOM     32  C   UNL A   1      37.954  29.825  29.852  1.00  0.00     0.116 C 
BRANCH  32  33
ATOM     33  N   UNL A   1      37.425  29.294  31.100  1.00  0.00    -0.352 N 
ATOM     34  C   UNL A   1      38.108  28.753  32.165  1.00  0.00     0.251 C 
ATOM     35  H   UNL A   1      36.446  29.326  31.196  1.00  0.00     0.163 HD
ATOM     36  O   UNL A   1      37.494  28.226  33.087  1.00  0.00    -0.269 OA
BRANCH  34  37
ATOM     37  C   UNL A   1      39.586  28.782  32.168  1.00  0.00     0.039 A 
ATOM     38  C   UNL A   1      40.248  29.582  33.101  1.00  0.00     0.014 A 
ATOM     39  C   UNL A   1      40.313  27.984  31.281  1.00  0.00     0.014 A 
ATOM     40  C   UNL A   1      41.640  29.522  33.195  1.00  0.00     0.010 A 
ATOM     41  C   UNL A   1      41.691  27.863  31.433  1.00  0.00     0.010 A 
ATOM     42  C   UNL A   1      42.370  28.630  32.391  1.00  0.00    -0.014 A 
BRANCH  42  43
ATOM     43  C   UNL A   1      43.840  28.479  32.543  1.00  0.00     0.031 A 
ATOM     44  C   UNL A   1      44.776  29.281  31.679  1.00  0.00     0.074 A 
ATOM     45  C   UNL A   1      44.334  27.578  33.415  1.00  0.00     0.049 A 
ATOM     46  N   UNL A   1      46.084  29.253  31.631  1.00  0.00    -0.248 NA
ATOM     47  C   UNL A   1      44.161  30.220  30.725  1.00  0.00     0.031 C 
ATOM     48  C   UNL A   1      43.533  26.713  34.286  1.00  0.00     0.029 A 
ATOM     49  N   UNL A   1      45.630  27.236  33.714  1.00  0.00    -0.354 N 
ATOM     50  C   UNL A   1      46.446  30.158  30.641  1.00  0.00     0.074 A 
ATOM     51  C   UNL A   1      45.220  30.672  30.070  1.00  0.00     0.031 C 
ATOM     52  C   UNL A   1      44.355  25.971  35.045  1.00  0.00     0.029 A 
ATOM     53  C   UNL A   1      45.737  26.267  34.684  1.00  0.00     0.049 A 
ATOM     54  H   UNL A   1      46.409  27.647  33.274  1.00  0.00     0.167 HD
ATOM     55  C   UNL A   1      47.685  30.548  30.256  1.00  0.00     0.031 A 
ATOM     56  C   UNL A   1      46.825  25.678  35.220  1.00  0.00     0.031 A 
ATOM     57  C   UNL A   1      48.903  30.030  30.823  1.00  0.00     0.049 A 
ATOM     58  C   UNL A   1      48.191  26.095  34.747  1.00  0.00     0.074 A 
ATOM     59  C   UNL A   1      50.207  30.387  30.532  1.00  0.00     0.029 A 
ATOM     60  N   UNL A   1      48.967  29.040  31.793  1.00  0.00    -0.354 N 
ATOM     61  N   UNL A   1      48.514  26.999  33.854  1.00  0.00    -0.248 NA
ATOM     62  C   UNL A   1      49.340  25.419  35.364  1.00  0.00     0.031 C 
ATOM     63  C   UNL A   1      51.061  29.571  31.279  1.00  0.00     0.029 A 
ATOM     64  C   UNL A   1      50.289  28.754  32.090  1.00  0.00     0.049 A 
ATOM     65  H   UNL A   1      48.188  28.605  32.209  1.00  0.00     0.167 HD
ATOM     66  C   UNL A   1      49.904  27.023  33.825  1.00  0.00     0.074 A 
ATOM     67  C   UNL A   1      50.359  26.053  34.800  1.00  0.00     0.031 C 
ATOM     68  C   UNL A   1      50.730  27.784  33.063  1.00  0.00     0.031 A 
BRANCH  55  69
ATOM     69  C   UNL A   1      47.779  31.578  29.160  1.00  0.00    -0.014 A 
ATOM     70  C   UNL A   1      47.957  31.197  27.817  1.00  0.00     0.010 A 
ATOM     71  C   UNL A   1      47.665  32.945  29.469  1.00  0.00     0.010 A 
ATOM     72  C   UNL A   1      48.074  32.163  26.814  1.00  0.00     0.020 A 
ATOM     73  C   UNL A   1      47.745  33.914  28.464  1.00  0.00     0.020 A 
ATOM     74  C   UNL A   1      47.971  33.517  27.145  1.00  0.00     0.054 A 
BRANCH  74  75
ATOM     75  S   UNL A   1      48.119  34.748  25.821  1.00  0.00     0.124 S 
ATOM     76  O   UNL A   1      49.342  34.317  25.147  1.00  0.00    -0.237 OA
ATOM     77  O   UNL A   1      46.884  34.553  25.065  1.00  0.00    -0.237 OA
ATOM     78  O   UNL A   1      48.217  36.018  26.536  1.00  0.00    -0.744 OA
ENDBRANCH  74  75
ENDBRANCH  55  69
BRANCH  56  79
ATOM     79  C   UNL A   1      46.665  24.645  36.282  1.00  0.00    -0.014 A 
ATOM     80  C   UNL A   1      46.569  23.284  35.943  1.00  0.00     0.010 A 
ATOM     81  C   UNL A   1      46.624  25.014  37.639  1.00  0.00     0.010 A 
ATOM     82  C   UNL A   1      46.416  22.313  36.937  1.00  0.00     0.020 A 
ATOM     83  C   UNL A   1      46.503  24.044  38.639  1.00  0.00     0.020 A 
ATOM     84  C   UNL A   1      46.388  22.699  38.280  1.00  0.00     0.054 A 
BRANCH  84  85
ATOM     85  S   UNL A   1      46.245  21.417  39.554  1.00  0.00     0.124 S 
ATOM     86  O   UNL A   1      47.572  21.444  40.163  1.00  0.00    -0.237 OA
ATOM     87  O   UNL A   1      45.156  21.921  40.387  1.00  0.00    -0.237 OA
ATOM     88  O   UNL A   1      45.931  20.210  38.792  1.00  0.00    -0.744 OA
ENDBRANCH  84  85
ENDBRANCH  56  79
BRANCH  68  89
ATOM     89  C   UNL A   1      52.214  27.630  33.277  1.00  0.00    -0.014 A 
ATOM     90  C   UNL A   1      52.900  28.389  34.241  1.00  0.00     0.010 A 
ATOM     91  C   UNL A   1      52.922  26.665  32.535  1.00  0.00     0.010 A 
ATOM     92  C   UNL A   1      54.273  28.208  34.436  1.00  0.00     0.020 A 
ATOM     93  C   UNL A   1      54.286  26.459  32.749  1.00  0.00     0.020 A 
ATOM     94  C   UNL A   1      54.956  27.243  33.691  1.00  0.00     0.054 A 
BRANCH  94  95
ATOM     95  S   UNL A   1      56.726  26.997  33.998  1.00  0.00     0.124 S 
ATOM     96  O   UNL A   1      56.840  25.541  33.972  1.00  0.00    -0.237 OA
ATOM     97  O   UNL A   1      57.344  27.695  32.873  1.00  0.00    -0.237 OA
ATOM     98  O   UNL A   1      56.944  27.616  35.304  1.00  0.00    -0.744 OA
ENDBRANCH  94  95
ENDBRANCH  68  89
ENDBRANCH  42  43
ENDBRANCH  34  37
ENDBRANCH  32  33
ENDBRANCH  31  32
ENDBRANCH  30  31
ENDBRANCH  29  30
ENDBRANCH   3  29
TORSDOF 21
ENDMDL
