MODEL 1
REMARK VINA RESULT:     -10.9      0.000      0.000
REMARK SMILES CC[C@](C)(NC(=O)[C@H]1C[NH2+]Cc2ccccc21)C(=O)NCCCCNC(=O)c1ccc(-c2c3nc(c(-c4ccc(S(=O)(=O)[O-])cc4)c4ccc([nH]4)c(-c4ccc(S(=O)(=O)[O-])cc4)c4nc(c(-c5ccc(S(=O)(=O)[O-])cc5)c5ccc2[nH]5)C=C4)C=C3)cc1
REMARK SMILES IDX 23 1 22 2 21 3 20 4 18 5 19 6 3 8 4 9 2 10 1 11 5 12 6 13
REMARK SMILES IDX 7 15 8 16 9 17 17 18 10 19 12 20 16 21 11 22 13 25 15 26
REMARK SMILES IDX 14 27 24 28 25 29 26 30 27 32 28 33 29 34 87 35 30 36 86 37
REMARK SMILES IDX 31 38 32 39 33 40 80 41 34 42 85 43 79 44 81 45 35 46 84 47
REMARK SMILES IDX 78 48 77 49 36 51 66 52 47 53 65 54 48 55 51 56 64 57 82 58
REMARK SMILES IDX 49 59 50 60 63 62 83 63 52 64 37 65 38 66 46 67 39 68 45 69
REMARK SMILES IDX 40 70 41 71 42 72 43 73 44 74 67 75 68 76 76 77 69 78 75 79
REMARK SMILES IDX 70 80 71 81 72 82 73 83 74 84 53 85 54 86 62 87 55 88 61 89
REMARK SMILES IDX 56 90 57 91 58 92 59 93 60 94
REMARK H PARENT 20 7 5 14 10 23 10 24 25 31 81 50 51 61
REMARK Flexibility Score: inf
ROOT
ATOM      1  C   UNL A   1      34.054  28.295  25.464  1.00  0.00     0.023 C 
ENDROOT
BRANCH   1   2
ATOM      2  C   UNL A   1      32.941  28.761  24.535  1.00  0.00     0.023 C 
BRANCH   2   3
ATOM      3  C   UNL A   1      32.682  27.904  23.299  1.00  0.00     0.116 C 
BRANCH   3   4
ATOM      4  N   UNL A   1      33.578  26.783  23.062  1.00  0.00    -0.354 N 
ATOM      5  C   UNL A   1      33.346  25.431  23.073  1.00  0.00     0.245 C 
ATOM      6  O   UNL A   1      34.123  24.737  22.409  1.00  0.00    -0.272 OA
ATOM      7  H   UNL A   1      34.508  27.037  22.859  1.00  0.00     0.163 HD
BRANCH   5   8
ATOM      8  C   UNL A   1      32.093  24.814  23.748  1.00  0.00     0.116 C 
ATOM      9  C   UNL A   1      30.780  25.466  23.246  1.00  0.00     0.045 C 
BRANCH   8  10
ATOM     10  C   UNL A   1      32.140  25.213  25.268  1.00  0.00     0.035 C 
ATOM     11  C   UNL A   1      30.941  25.903  25.900  1.00  0.00     0.007 C 
ENDBRANCH   8  10
BRANCH   8  12
ATOM     12  N   UNL A   1      31.965  23.359  23.557  1.00  0.00    -0.341 N 
ATOM     13  C   UNL A   1      32.725  22.322  24.041  1.00  0.00     0.234 C 
ATOM     14  H   UNL A   1      31.209  23.083  22.990  1.00  0.00     0.164 HD
ATOM     15  O   UNL A   1      32.665  21.290  23.359  1.00  0.00    -0.274 OA
BRANCH  13  16
ATOM     16  C   UNL A   1      33.461  22.348  25.406  1.00  0.00     0.164 C 
ATOM     17  C   UNL A   1      33.167  21.038  26.189  1.00  0.00     0.279 C 
ATOM     18  C   UNL A   1      34.961  22.520  25.401  1.00  0.00    -0.021 A 
ATOM     19  N   UNL A   1      33.980  19.848  25.863  1.00  0.00    -0.342 N 
ATOM     20  C   UNL A   1      35.742  21.400  25.084  1.00  0.00     0.010 A 
ATOM     21  C   UNL A   1      35.589  23.696  25.828  1.00  0.00     0.005 A 
ATOM     22  C   UNL A   1      35.029  20.089  24.864  1.00  0.00     0.297 C 
ATOM     23  H   UNL A   1      33.357  19.125  25.505  1.00  0.00     0.346 HD
ATOM     24  H   UNL A   1      34.452  19.573  26.724  1.00  0.00     0.346 HD
ATOM     25  C   UNL A   1      37.133  21.524  25.023  1.00  0.00     0.010 A 
ATOM     26  C   UNL A   1      36.975  23.812  25.780  1.00  0.00     0.000 A 
ATOM     27  C   UNL A   1      37.745  22.736  25.350  1.00  0.00     0.001 A 
ENDBRANCH  13  16
ENDBRANCH   8  12
ENDBRANCH   5   8
ENDBRANCH   3   4
ENDBRANCH   2   3
ENDBRANCH   1   2
BRANCH   1  28
ATOM     28  C   UNL A   1      33.715  28.395  26.938  1.00  0.00     0.116 C 
BRANCH  28  29
ATOM     29  N   UNL A   1      33.575  29.776  27.375  1.00  0.00    -0.352 N 
ATOM     30  C   UNL A   1      34.448  30.546  28.097  1.00  0.00     0.251 C 
ATOM     31  H   UNL A   1      32.735  30.219  27.115  1.00  0.00     0.163 HD
ATOM     32  O   UNL A   1      34.078  31.620  28.565  1.00  0.00    -0.269 OA
BRANCH  30  33
ATOM     33  C   UNL A   1      35.822  30.060  28.317  1.00  0.00     0.039 A 
ATOM     34  C   UNL A   1      36.741  30.117  27.270  1.00  0.00     0.014 A 
ATOM     35  C   UNL A   1      36.205  29.583  29.575  1.00  0.00     0.014 A 
ATOM     36  C   UNL A   1      38.063  29.743  27.502  1.00  0.00     0.010 A 
ATOM     37  C   UNL A   1      37.541  29.318  29.831  1.00  0.00     0.010 A 
ATOM     38  C   UNL A   1      38.481  29.375  28.792  1.00  0.00    -0.014 A 
BRANCH  38  39
ATOM     39  C   UNL A   1      39.890  29.014  29.075  1.00  0.00     0.031 A 
ATOM     40  C   UNL A   1      40.818  30.040  29.668  1.00  0.00     0.074 A 
ATOM     41  C   UNL A   1      40.344  27.788  28.745  1.00  0.00     0.049 A 
ATOM     42  N   UNL A   1      42.094  29.939  29.934  1.00  0.00    -0.248 NA
ATOM     43  C   UNL A   1      40.245  31.362  29.972  1.00  0.00     0.031 C 
ATOM     44  C   UNL A   1      39.548  26.728  28.121  1.00  0.00     0.029 A 
ATOM     45  N   UNL A   1      41.588  27.229  28.886  1.00  0.00    -0.354 N 
ATOM     46  C   UNL A   1      42.476  31.183  30.421  1.00  0.00     0.074 A 
ATOM     47  C   UNL A   1      41.317  32.043  30.351  1.00  0.00     0.031 C 
ATOM     48  C   UNL A   1      40.316  25.637  27.963  1.00  0.00     0.029 A 
ATOM     49  C   UNL A   1      41.665  25.935  28.431  1.00  0.00     0.049 A 
ATOM     50  H   UNL A   1      42.354  27.709  29.277  1.00  0.00     0.167 HD
ATOM     51  C   UNL A   1      43.678  31.570  30.911  1.00  0.00     0.031 A 
ATOM     52  C   UNL A   1      42.710  25.084  28.386  1.00  0.00     0.031 A 
ATOM     53  C   UNL A   1      44.824  30.704  30.986  1.00  0.00     0.049 A 
ATOM     54  C   UNL A   1      44.039  25.540  28.922  1.00  0.00     0.074 A 
ATOM     55  C   UNL A   1      46.075  30.978  31.508  1.00  0.00     0.029 A 
ATOM     56  N   UNL A   1      44.858  29.397  30.524  1.00  0.00    -0.354 N 
ATOM     57  N   UNL A   1      44.364  26.700  29.442  1.00  0.00    -0.248 NA
ATOM     58  C   UNL A   1      45.139  24.568  28.880  1.00  0.00     0.031 C 
ATOM     59  C   UNL A   1      46.884  29.856  31.310  1.00  0.00     0.029 A 
ATOM     60  C   UNL A   1      46.117  28.858  30.728  1.00  0.00     0.049 A 
ATOM     61  H   UNL A   1      44.100  28.922  30.114  1.00  0.00     0.167 HD
ATOM     62  C   UNL A   1      45.699  26.588  29.815  1.00  0.00     0.074 A 
ATOM     63  C   UNL A   1      46.113  25.241  29.477  1.00  0.00     0.031 C 
ATOM     64  C   UNL A   1      46.509  27.514  30.384  1.00  0.00     0.031 A 
BRANCH  51  65
ATOM     65  C   UNL A   1      43.808  32.989  31.400  1.00  0.00    -0.014 A 
ATOM     66  C   UNL A   1      43.514  33.328  32.735  1.00  0.00     0.010 A 
ATOM     67  C   UNL A   1      44.264  33.992  30.527  1.00  0.00     0.010 A 
ATOM     68  C   UNL A   1      43.632  34.649  33.174  1.00  0.00     0.020 A 
ATOM     69  C   UNL A   1      44.415  35.310  30.970  1.00  0.00     0.020 A 
ATOM     70  C   UNL A   1      44.083  35.632  32.287  1.00  0.00     0.054 A 
BRANCH  70  71
ATOM     71  S   UNL A   1      44.253  37.332  32.894  1.00  0.00     0.124 S 
ATOM     72  O   UNL A   1      44.066  38.109  31.673  1.00  0.00    -0.237 OA
ATOM     73  O   UNL A   1      43.172  37.431  33.873  1.00  0.00    -0.237 OA
ATOM     74  O   UNL A   1      45.602  37.367  33.454  1.00  0.00    -0.744 OA
ENDBRANCH  70  71
ENDBRANCH  51  65
BRANCH  52  75
ATOM     75  C   UNL A   1      42.533  23.718  27.822  1.00  0.00    -0.014 A 
ATOM     76  C   UNL A   1      42.028  22.673  28.617  1.00  0.00     0.010 A 
ATOM     77  C   UNL A   1      42.857  23.455  26.479  1.00  0.00     0.010 A 
ATOM     78  C   UNL A   1      41.874  21.389  28.086  1.00  0.00     0.020 A 
ATOM     79  C   UNL A   1      42.674  22.182  25.934  1.00  0.00     0.020 A 
ATOM     80  C   UNL A   1      42.195  21.152  26.747  1.00  0.00     0.054 A 
BRANCH  80  81
ATOM     81  S   UNL A   1      41.944  19.488  26.068  1.00  0.00     0.124 S 
ATOM     82  O   UNL A   1      42.786  19.515  24.877  1.00  0.00    -0.237 OA
ATOM     83  O   UNL A   1      42.413  18.632  27.156  1.00  0.00    -0.237 OA
ATOM     84  O   UNL A   1      40.506  19.432  25.819  1.00  0.00    -0.744 OA
ENDBRANCH  80  81
ENDBRANCH  52  75
BRANCH  64  85
ATOM     85  C   UNL A   1      47.917  27.093  30.717  1.00  0.00    -0.014 A 
ATOM     86  C   UNL A   1      48.970  27.276  29.803  1.00  0.00     0.010 A 
ATOM     87  C   UNL A   1      48.197  26.561  31.989  1.00  0.00     0.010 A 
ATOM     88  C   UNL A   1      50.273  26.904  30.146  1.00  0.00     0.020 A 
ATOM     89  C   UNL A   1      49.502  26.219  32.347  1.00  0.00     0.020 A 
ATOM     90  C   UNL A   1      50.530  26.378  31.416  1.00  0.00     0.054 A 
BRANCH  90  91
ATOM     91  S   UNL A   1      52.236  25.945  31.851  1.00  0.00     0.124 S 
ATOM     92  O   UNL A   1      52.118  24.526  32.171  1.00  0.00    -0.237 OA
ATOM     93  O   UNL A   1      52.967  26.254  30.623  1.00  0.00    -0.237 OA
ATOM     94  O   UNL A   1      52.539  26.817  32.984  1.00  0.00    -0.744 OA
ENDBRANCH  90  91
ENDBRANCH  64  85
ENDBRANCH  38  39
ENDBRANCH  30  33
ENDBRANCH  28  29
ENDBRANCH   1  28
TORSDOF 17
ENDMDL
MODEL 2
REMARK VINA RESULT:     -10.7      1.187      2.687
REMARK SMILES CC[C@](C)(NC(=O)[C@H]1C[NH2+]Cc2ccccc21)C(=O)NCCCCNC(=O)c1ccc(-c2c3nc(c(-c4ccc(S(=O)(=O)[O-])cc4)c4ccc([nH]4)c(-c4ccc(S(=O)(=O)[O-])cc4)c4nc(c(-c5ccc(S(=O)(=O)[O-])cc5)c5ccc2[nH]5)C=C4)C=C3)cc1
REMARK SMILES IDX 23 1 22 2 21 3 20 4 18 5 19 6 3 8 4 9 2 10 1 11 5 12 6 13
REMARK SMILES IDX 7 15 8 16 9 17 17 18 10 19 12 20 16 21 11 22 13 25 15 26
REMARK SMILES IDX 14 27 24 28 25 29 26 30 27 32 28 33 29 34 87 35 30 36 86 37
REMARK SMILES IDX 31 38 32 39 33 40 80 41 34 42 85 43 79 44 81 45 35 46 84 47
REMARK SMILES IDX 78 48 77 49 36 51 66 52 47 53 65 54 48 55 51 56 64 57 82 58
REMARK SMILES IDX 49 59 50 60 63 62 83 63 52 64 37 65 38 66 46 67 39 68 45 69
REMARK SMILES IDX 40 70 41 71 42 72 43 73 44 74 67 75 68 76 76 77 69 78 75 79
REMARK SMILES IDX 70 80 71 81 72 82 73 83 74 84 53 85 54 86 62 87 55 88 61 89
REMARK SMILES IDX 56 90 57 91 58 92 59 93 60 94
REMARK H PARENT 20 7 5 14 10 23 10 24 25 31 81 50 51 61
REMARK Flexibility Score: inf
ROOT
ATOM      1  C   UNL A   1      32.625  27.819  25.927  1.00  0.00     0.023 C 
ENDROOT
BRANCH   1   2
ATOM      2  C   UNL A   1      32.548  26.313  25.721  1.00  0.00     0.023 C 
BRANCH   2   3
ATOM      3  C   UNL A   1      33.869  25.549  25.780  1.00  0.00     0.116 C 
BRANCH   3   4
ATOM      4  N   UNL A   1      33.884  24.293  26.516  1.00  0.00    -0.354 N 
ATOM      5  C   UNL A   1      34.741  23.225  26.448  1.00  0.00     0.245 C 
ATOM      6  O   UNL A   1      34.814  22.518  27.459  1.00  0.00    -0.272 OA
ATOM      7  H   UNL A   1      33.157  24.194  27.172  1.00  0.00     0.163 HD
BRANCH   5   8
ATOM      8  C   UNL A   1      35.685  22.998  25.238  1.00  0.00     0.116 C 
ATOM      9  C   UNL A   1      36.169  21.530  25.145  1.00  0.00     0.045 C 
BRANCH   8  10
ATOM     10  C   UNL A   1      37.006  23.801  25.522  1.00  0.00     0.035 C 
ATOM     11  C   UNL A   1      38.227  23.070  26.062  1.00  0.00     0.007 C 
ENDBRANCH   8  10
BRANCH   8  12
ATOM     12  N   UNL A   1      35.087  23.350  23.938  1.00  0.00    -0.341 N 
ATOM     13  C   UNL A   1      34.001  22.827  23.280  1.00  0.00     0.234 C 
ATOM     14  H   UNL A   1      35.542  24.083  23.462  1.00  0.00     0.164 HD
ATOM     15  O   UNL A   1      34.024  22.994  22.053  1.00  0.00    -0.274 OA
BRANCH  13  16
ATOM     16  C   UNL A   1      32.757  22.235  23.993  1.00  0.00     0.164 C 
ATOM     17  C   UNL A   1      31.474  22.581  23.188  1.00  0.00     0.279 C 
ATOM     18  C   UNL A   1      32.723  20.746  24.240  1.00  0.00    -0.021 A 
ATOM     19  N   UNL A   1      31.130  21.716  22.040  1.00  0.00    -0.342 N 
ATOM     20  C   UNL A   1      32.407  19.915  23.156  1.00  0.00     0.010 A 
ATOM     21  C   UNL A   1      32.856  20.188  25.517  1.00  0.00     0.005 A 
ATOM     22  C   UNL A   1      32.036  20.575  21.852  1.00  0.00     0.297 C 
ATOM     23  H   UNL A   1      31.152  22.285  21.194  1.00  0.00     0.346 HD
ATOM     24  H   UNL A   1      30.207  21.328  22.234  1.00  0.00     0.346 HD
ATOM     25  C   UNL A   1      32.409  18.528  23.328  1.00  0.00     0.010 A 
ATOM     26  C   UNL A   1      32.841  18.807  25.688  1.00  0.00     0.000 A 
ATOM     27  C   UNL A   1      32.646  17.976  24.589  1.00  0.00     0.001 A 
ENDBRANCH  13  16
ENDBRANCH   8  12
ENDBRANCH   5   8
ENDBRANCH   3   4
ENDBRANCH   2   3
ENDBRANCH   1   2
BRANCH   1  28
ATOM     28  C   UNL A   1      33.678  28.256  26.925  1.00  0.00     0.116 C 
BRANCH  28  29
ATOM     29  N   UNL A   1      33.554  29.664  27.271  1.00  0.00    -0.352 N 
ATOM     30  C   UNL A   1      34.433  30.467  27.949  1.00  0.00     0.251 C 
ATOM     31  H   UNL A   1      32.722  30.100  26.977  1.00  0.00     0.163 HD
ATOM     32  O   UNL A   1      34.074  31.575  28.343  1.00  0.00    -0.269 OA
BRANCH  30  33
ATOM     33  C   UNL A   1      35.798  29.979  28.211  1.00  0.00     0.039 A 
ATOM     34  C   UNL A   1      36.765  30.092  27.213  1.00  0.00     0.014 A 
ATOM     35  C   UNL A   1      36.125  29.442  29.460  1.00  0.00     0.014 A 
ATOM     36  C   UNL A   1      38.078  29.715  27.489  1.00  0.00     0.010 A 
ATOM     37  C   UNL A   1      37.450  29.172  29.766  1.00  0.00     0.010 A 
ATOM     38  C   UNL A   1      38.437  29.285  28.778  1.00  0.00    -0.014 A 
BRANCH  38  39
ATOM     39  C   UNL A   1      39.834  28.919  29.110  1.00  0.00     0.031 A 
ATOM     40  C   UNL A   1      40.737  29.933  29.759  1.00  0.00     0.074 A 
ATOM     41  C   UNL A   1      40.301  27.700  28.775  1.00  0.00     0.049 A 
ATOM     42  N   UNL A   1      42.001  29.827  30.074  1.00  0.00    -0.248 NA
ATOM     43  C   UNL A   1      40.152  31.250  30.066  1.00  0.00     0.031 C 
ATOM     44  C   UNL A   1      39.532  26.652  28.098  1.00  0.00     0.029 A 
ATOM     45  N   UNL A   1      41.539  27.138  28.954  1.00  0.00    -0.354 N 
ATOM     46  C   UNL A   1      42.363  31.061  30.600  1.00  0.00     0.074 A 
ATOM     47  C   UNL A   1      41.207  31.922  30.500  1.00  0.00     0.031 C 
ATOM     48  C   UNL A   1      40.305  25.564  27.951  1.00  0.00     0.029 A 
ATOM     49  C   UNL A   1      41.635  25.853  28.477  1.00  0.00     0.049 A 
ATOM     50  H   UNL A   1      42.288  27.610  29.384  1.00  0.00     0.167 HD
ATOM     51  C   UNL A   1      43.544  31.438  31.145  1.00  0.00     0.031 A 
ATOM     52  C   UNL A   1      42.681  25.003  28.457  1.00  0.00     0.031 A 
ATOM     53  C   UNL A   1      44.686  30.570  31.249  1.00  0.00     0.049 A 
ATOM     54  C   UNL A   1      43.988  25.447  29.056  1.00  0.00     0.074 A 
ATOM     55  C   UNL A   1      45.915  30.834  31.826  1.00  0.00     0.029 A 
ATOM     56  N   UNL A   1      44.740  29.272  30.764  1.00  0.00    -0.354 N 
ATOM     57  N   UNL A   1      44.291  26.598  29.610  1.00  0.00    -0.248 NA
ATOM     58  C   UNL A   1      45.089  24.477  29.038  1.00  0.00     0.031 C 
ATOM     59  C   UNL A   1      46.732  29.716  31.638  1.00  0.00     0.029 A 
ATOM     60  C   UNL A   1      45.990  28.730  31.007  1.00  0.00     0.049 A 
ATOM     61  H   UNL A   1      43.999  28.806  30.314  1.00  0.00     0.167 HD
ATOM     62  C   UNL A   1      45.611  26.478  30.034  1.00  0.00     0.074 A 
ATOM     63  C   UNL A   1      46.038  25.137  29.687  1.00  0.00     0.031 C 
ATOM     64  C   UNL A   1      46.396  27.392  30.653  1.00  0.00     0.031 A 
BRANCH  51  65
ATOM     65  C   UNL A   1      43.654  32.847  31.666  1.00  0.00    -0.014 A 
ATOM     66  C   UNL A   1      44.117  33.892  30.844  1.00  0.00     0.010 A 
ATOM     67  C   UNL A   1      43.258  33.140  32.982  1.00  0.00     0.010 A 
ATOM     68  C   UNL A   1      44.222  35.193  31.342  1.00  0.00     0.020 A 
ATOM     69  C   UNL A   1      43.329  34.447  33.475  1.00  0.00     0.020 A 
ATOM     70  C   UNL A   1      43.826  35.462  32.656  1.00  0.00     0.054 A 
BRANCH  70  71
ATOM     71  S   UNL A   1      43.948  37.166  33.264  1.00  0.00     0.124 S 
ATOM     72  O   UNL A   1      45.225  37.144  33.971  1.00  0.00    -0.237 OA
ATOM     73  O   UNL A   1      43.926  37.948  32.030  1.00  0.00    -0.237 OA
ATOM     74  O   UNL A   1      42.769  37.316  34.114  1.00  0.00    -0.744 OA
ENDBRANCH  70  71
ENDBRANCH  51  65
BRANCH  52  75
ATOM     75  C   UNL A   1      42.528  23.647  27.861  1.00  0.00    -0.014 A 
ATOM     76  C   UNL A   1      43.004  23.375  26.566  1.00  0.00     0.010 A 
ATOM     77  C   UNL A   1      41.915  22.614  28.593  1.00  0.00     0.010 A 
ATOM     78  C   UNL A   1      42.848  22.103  26.007  1.00  0.00     0.020 A 
ATOM     79  C   UNL A   1      41.786  21.333  28.051  1.00  0.00     0.020 A 
ATOM     80  C   UNL A   1      42.243  21.089  26.754  1.00  0.00     0.054 A 
BRANCH  80  81
ATOM     81  S   UNL A   1      42.092  19.435  26.023  1.00  0.00     0.124 S 
ATOM     82  O   UNL A   1      40.654  19.334  25.793  1.00  0.00    -0.237 OA
ATOM     83  O   UNL A   1      42.920  19.544  24.824  1.00  0.00    -0.237 OA
ATOM     84  O   UNL A   1      42.624  18.552  27.059  1.00  0.00    -0.744 OA
ENDBRANCH  80  81
ENDBRANCH  52  75
BRANCH  64  85
ATOM     85  C   UNL A   1      47.790  26.965  31.033  1.00  0.00    -0.014 A 
ATOM     86  C   UNL A   1      48.053  26.339  32.264  1.00  0.00     0.010 A 
ATOM     87  C   UNL A   1      48.841  27.140  30.113  1.00  0.00     0.010 A 
ATOM     88  C   UNL A   1      49.350  25.927  32.581  1.00  0.00     0.020 A 
ATOM     89  C   UNL A   1      50.131  26.700  30.413  1.00  0.00     0.020 A 
ATOM     90  C   UNL A   1      50.381  26.109  31.653  1.00  0.00     0.054 A 
BRANCH  90  91
ATOM     91  S   UNL A   1      52.044  25.523  32.072  1.00  0.00     0.124 S 
ATOM     92  O   UNL A   1      52.351  26.308  33.265  1.00  0.00    -0.237 OA
ATOM     93  O   UNL A   1      51.834  24.095  32.297  1.00  0.00    -0.237 OA
ATOM     94  O   UNL A   1      52.837  25.851  30.889  1.00  0.00    -0.744 OA
ENDBRANCH  90  91
ENDBRANCH  64  85
ENDBRANCH  38  39
ENDBRANCH  30  33
ENDBRANCH  28  29
ENDBRANCH   1  28
TORSDOF 17
ENDMDL
MODEL 3
REMARK VINA RESULT:     -10.5      1.174      2.189
REMARK SMILES CC[C@](C)(NC(=O)[C@H]1C[NH2+]Cc2ccccc21)C(=O)NCCCCNC(=O)c1ccc(-c2c3nc(c(-c4ccc(S(=O)(=O)[O-])cc4)c4ccc([nH]4)c(-c4ccc(S(=O)(=O)[O-])cc4)c4nc(c(-c5ccc(S(=O)(=O)[O-])cc5)c5ccc2[nH]5)C=C4)C=C3)cc1
REMARK SMILES IDX 23 1 22 2 21 3 20 4 18 5 19 6 3 8 4 9 2 10 1 11 5 12 6 13
REMARK SMILES IDX 7 15 8 16 9 17 17 18 10 19 12 20 16 21 11 22 13 25 15 26
REMARK SMILES IDX 14 27 24 28 25 29 26 30 27 32 28 33 29 34 87 35 30 36 86 37
REMARK SMILES IDX 31 38 32 39 33 40 80 41 34 42 85 43 79 44 81 45 35 46 84 47
REMARK SMILES IDX 78 48 77 49 36 51 66 52 47 53 65 54 48 55 51 56 64 57 82 58
REMARK SMILES IDX 49 59 50 60 63 62 83 63 52 64 37 65 38 66 46 67 39 68 45 69
REMARK SMILES IDX 40 70 41 71 42 72 43 73 44 74 67 75 68 76 76 77 69 78 75 79
REMARK SMILES IDX 70 80 71 81 72 82 73 83 74 84 53 85 54 86 62 87 55 88 61 89
REMARK SMILES IDX 56 90 57 91 58 92 59 93 60 94
REMARK H PARENT 20 7 5 14 10 23 10 24 25 31 81 50 51 61
REMARK Flexibility Score: inf
ROOT
ATOM      1  C   UNL A   1      31.896  27.827  27.484  1.00  0.00     0.023 C 
ENDROOT
BRANCH   1   2
ATOM      2  C   UNL A   1      31.696  26.729  26.448  1.00  0.00     0.023 C 
BRANCH   2   3
ATOM      3  C   UNL A   1      30.854  27.090  25.226  1.00  0.00     0.116 C 
BRANCH   3   4
ATOM      4  N   UNL A   1      30.472  26.007  24.333  1.00  0.00    -0.354 N 
ATOM      5  C   UNL A   1      31.202  25.311  23.404  1.00  0.00     0.245 C 
ATOM      6  O   UNL A   1      30.795  24.179  23.124  1.00  0.00    -0.272 OA
ATOM      7  H   UNL A   1      29.531  25.725  24.409  1.00  0.00     0.163 HD
BRANCH   5   8
ATOM      8  C   UNL A   1      32.549  25.842  22.846  1.00  0.00     0.116 C 
ATOM      9  C   UNL A   1      32.430  27.297  22.326  1.00  0.00     0.045 C 
BRANCH   8  10
ATOM     10  C   UNL A   1      32.871  25.016  21.548  1.00  0.00     0.035 C 
ATOM     11  C   UNL A   1      32.493  25.580  20.186  1.00  0.00     0.007 C 
ENDBRANCH   8  10
BRANCH   8  12
ATOM     12  N   UNL A   1      33.655  25.808  23.817  1.00  0.00    -0.341 N 
ATOM     13  C   UNL A   1      34.365  24.750  24.330  1.00  0.00     0.234 C 
ATOM     14  H   UNL A   1      33.934  26.690  24.154  1.00  0.00     0.164 HD
ATOM     15  O   UNL A   1      34.888  24.976  25.429  1.00  0.00    -0.274 OA
BRANCH  13  16
ATOM     16  C   UNL A   1      34.653  23.439  23.551  1.00  0.00     0.164 C 
ATOM     17  C   UNL A   1      36.169  23.106  23.623  1.00  0.00     0.279 C 
ATOM     18  C   UNL A   1      33.917  22.189  23.968  1.00  0.00    -0.021 A 
ATOM     19  N   UNL A   1      36.661  22.406  24.828  1.00  0.00    -0.342 N 
ATOM     20  C   UNL A   1      34.369  21.521  25.115  1.00  0.00     0.010 A 
ATOM     21  C   UNL A   1      32.909  21.609  23.189  1.00  0.00     0.005 A 
ATOM     22  C   UNL A   1      35.610  22.049  25.790  1.00  0.00     0.297 C 
ATOM     23  H   UNL A   1      37.332  23.012  25.298  1.00  0.00     0.346 HD
ATOM     24  H   UNL A   1      37.074  21.530  24.507  1.00  0.00     0.346 HD
ATOM     25  C   UNL A   1      33.688  20.385  25.564  1.00  0.00     0.010 A 
ATOM     26  C   UNL A   1      32.244  20.469  23.630  1.00  0.00     0.000 A 
ATOM     27  C   UNL A   1      32.614  19.874  24.832  1.00  0.00     0.001 A 
ENDBRANCH  13  16
ENDBRANCH   8  12
ENDBRANCH   5   8
ENDBRANCH   3   4
ENDBRANCH   2   3
ENDBRANCH   1   2
BRANCH   1  28
ATOM     28  C   UNL A   1      33.302  28.391  27.527  1.00  0.00     0.116 C 
BRANCH  28  29
ATOM     29  N   UNL A   1      33.313  29.843  27.444  1.00  0.00    -0.352 N 
ATOM     30  C   UNL A   1      34.301  30.721  27.802  1.00  0.00     0.251 C 
ATOM     31  H   UNL A   1      32.495  30.252  27.078  1.00  0.00     0.163 HD
ATOM     32  O   UNL A   1      34.059  31.925  27.868  1.00  0.00    -0.269 OA
BRANCH  30  33
ATOM     33  C   UNL A   1      35.642  30.203  28.124  1.00  0.00     0.039 A 
ATOM     34  C   UNL A   1      36.623  30.190  27.133  1.00  0.00     0.014 A 
ATOM     35  C   UNL A   1      35.934  29.764  29.419  1.00  0.00     0.014 A 
ATOM     36  C   UNL A   1      37.916  29.785  27.458  1.00  0.00     0.010 A 
ATOM     37  C   UNL A   1      37.243  29.468  29.765  1.00  0.00     0.010 A 
ATOM     38  C   UNL A   1      38.244  29.455  28.784  1.00  0.00    -0.014 A 
BRANCH  38  39
ATOM     39  C   UNL A   1      39.621  29.062  29.165  1.00  0.00     0.031 A 
ATOM     40  C   UNL A   1      40.516  30.055  29.857  1.00  0.00     0.074 A 
ATOM     41  C   UNL A   1      40.081  27.838  28.836  1.00  0.00     0.049 A 
ATOM     42  N   UNL A   1      41.765  29.925  30.218  1.00  0.00    -0.248 NA
ATOM     43  C   UNL A   1      39.941  31.379  30.154  1.00  0.00     0.031 C 
ATOM     44  C   UNL A   1      39.321  26.809  28.122  1.00  0.00     0.029 A 
ATOM     45  N   UNL A   1      41.302  27.254  29.057  1.00  0.00    -0.354 N 
ATOM     46  C   UNL A   1      42.127  31.149  30.769  1.00  0.00     0.074 A 
ATOM     47  C   UNL A   1      40.990  32.030  30.633  1.00  0.00     0.031 C 
ATOM     48  C   UNL A   1      40.081  25.710  27.993  1.00  0.00     0.029 A 
ATOM     49  C   UNL A   1      41.395  25.972  28.572  1.00  0.00     0.049 A 
ATOM     50  H   UNL A   1      42.042  27.710  29.519  1.00  0.00     0.167 HD
ATOM     51  C   UNL A   1      43.293  31.501  31.361  1.00  0.00     0.031 A 
ATOM     52  C   UNL A   1      42.427  25.105  28.583  1.00  0.00     0.031 A 
ATOM     53  C   UNL A   1      44.416  30.613  31.500  1.00  0.00     0.049 A 
ATOM     54  C   UNL A   1      43.717  25.522  29.234  1.00  0.00     0.074 A 
ATOM     55  C   UNL A   1      45.626  30.852  32.125  1.00  0.00     0.029 A 
ATOM     56  N   UNL A   1      44.467  29.319  31.005  1.00  0.00    -0.354 N 
ATOM     57  N   UNL A   1      44.018  26.662  29.811  1.00  0.00    -0.248 NA
ATOM     58  C   UNL A   1      44.802  24.533  29.249  1.00  0.00     0.031 C 
ATOM     59  C   UNL A   1      46.431  29.722  31.958  1.00  0.00     0.029 A 
ATOM     60  C   UNL A   1      45.698  28.753  31.290  1.00  0.00     0.049 A 
ATOM     61  H   UNL A   1      43.736  28.869  30.523  1.00  0.00     0.167 HD
ATOM     62  C   UNL A   1      45.318  26.516  30.282  1.00  0.00     0.074 A 
ATOM     63  C   UNL A   1      45.737  25.172  29.939  1.00  0.00     0.031 C 
ATOM     64  C   UNL A   1      46.095  27.412  30.939  1.00  0.00     0.031 A 
BRANCH  51  65
ATOM     65  C   UNL A   1      43.406  32.903  31.899  1.00  0.00    -0.014 A 
ATOM     66  C   UNL A   1      42.977  33.219  33.203  1.00  0.00     0.010 A 
ATOM     67  C   UNL A   1      43.981  33.913  31.108  1.00  0.00     0.010 A 
ATOM     68  C   UNL A   1      43.081  34.525  33.687  1.00  0.00     0.020 A 
ATOM     69  C   UNL A   1      44.117  35.215  31.600  1.00  0.00     0.020 A 
ATOM     70  C   UNL A   1      43.652  35.515  32.881  1.00  0.00     0.054 A 
BRANCH  70  71
ATOM     71  S   UNL A   1      43.798  37.195  33.549  1.00  0.00     0.124 S 
ATOM     72  O   UNL A   1      42.603  37.294  34.382  1.00  0.00    -0.237 OA
ATOM     73  O   UNL A   1      45.066  37.142  34.273  1.00  0.00    -0.237 OA
ATOM     74  O   UNL A   1      43.798  38.043  32.359  1.00  0.00    -0.744 OA
ENDBRANCH  70  71
ENDBRANCH  51  65
BRANCH  52  75
ATOM     75  C   UNL A   1      42.274  23.757  27.969  1.00  0.00    -0.014 A 
ATOM     76  C   UNL A   1      42.444  23.576  26.585  1.00  0.00     0.010 A 
ATOM     77  C   UNL A   1      41.970  22.641  28.770  1.00  0.00     0.010 A 
ATOM     78  C   UNL A   1      42.289  22.310  26.012  1.00  0.00     0.020 A 
ATOM     79  C   UNL A   1      41.846  21.369  28.206  1.00  0.00     0.020 A 
ATOM     80  C   UNL A   1      41.994  21.214  26.827  1.00  0.00     0.054 A 
BRANCH  80  81
ATOM     81  S   UNL A   1      41.841  19.573  26.065  1.00  0.00     0.124 S 
ATOM     82  O   UNL A   1      42.298  18.696  27.139  1.00  0.00    -0.237 OA
ATOM     83  O   UNL A   1      40.416  19.504  25.752  1.00  0.00    -0.237 OA
ATOM     84  O   UNL A   1      42.723  19.652  24.902  1.00  0.00    -0.744 OA
ENDBRANCH  80  81
ENDBRANCH  52  75
BRANCH  64  85
ATOM     85  C   UNL A   1      47.466  26.958  31.368  1.00  0.00    -0.014 A 
ATOM     86  C   UNL A   1      47.679  26.353  32.618  1.00  0.00     0.010 A 
ATOM     87  C   UNL A   1      48.546  27.087  30.475  1.00  0.00     0.010 A 
ATOM     88  C   UNL A   1      48.955  25.915  32.981  1.00  0.00     0.020 A 
ATOM     89  C   UNL A   1      49.815  26.621  30.820  1.00  0.00     0.020 A 
ATOM     90  C   UNL A   1      50.015  26.051  32.079  1.00  0.00     0.054 A 
BRANCH  90  91
ATOM     91  S   UNL A   1      51.651  25.433  32.557  1.00  0.00     0.124 S 
ATOM     92  O   UNL A   1      51.627  24.071  32.032  1.00  0.00    -0.237 OA
ATOM     93  O   UNL A   1      52.555  26.355  31.871  1.00  0.00    -0.237 OA
ATOM     94  O   UNL A   1      51.651  25.540  34.014  1.00  0.00    -0.744 OA
ENDBRANCH  90  91
ENDBRANCH  64  85
ENDBRANCH  38  39
ENDBRANCH  30  33
ENDBRANCH  28  29
ENDBRANCH   1  28
TORSDOF 17
ENDMDL
