MODEL 1
REMARK VINA RESULT:     -10.7      0.000      0.000
REMARK SMILES CC[C@](C)([NH3+])C(=O)N1CC[NH+]([C@H](C)C(=O)NCCCCNC(=O)c2ccc(-c3c4nc(c(-c5ccc(S(=O)(=O)[O-])cc5)c5ccc([nH]5)c(-c5ccc(S(=O)(=O)[O-])cc5)c5nc(c(-c6ccc(S(=O)(=O)[O-])cc6)c6ccc3[nH]6)C=C5)C=C4)cc2)CC1
REMARK SMILES IDX 18 1 17 2 16 3 14 4 15 5 12 7 13 8 11 9 6 10 7 11 8 12 9 13
REMARK SMILES IDX 85 14 10 15 84 16 3 18 4 19 2 20 1 21 5 22 19 26 20 27 21 28
REMARK SMILES IDX 22 29 23 31 24 32 25 33 83 34 26 35 82 36 27 37 28 38 29 39
REMARK SMILES IDX 76 40 30 41 81 42 75 43 77 44 31 45 80 46 74 47 73 48 32 50
REMARK SMILES IDX 62 51 43 52 61 53 44 54 47 55 60 56 78 57 45 58 46 59 59 61
REMARK SMILES IDX 79 62 48 63 33 64 34 65 42 66 35 67 41 68 36 69 37 70 38 71
REMARK SMILES IDX 39 72 40 73 63 74 64 75 72 76 65 77 71 78 66 79 67 80 68 81
REMARK SMILES IDX 69 82 70 83 49 84 50 85 58 86 51 87 57 88 52 89 53 90 54 91
REMARK SMILES IDX 55 92 56 93
REMARK H PARENT 16 6 11 17 5 23 5 24 5 25 21 30 77 49 47 60
REMARK Flexibility Score: inf
ROOT
ATOM      1  C   UNL A   1      35.376  21.784  26.192  1.00  0.00     0.023 C 
ENDROOT
BRANCH   1   2
ATOM      2  C   UNL A   1      34.114  21.608  27.025  1.00  0.00     0.116 C 
BRANCH   2   3
ATOM      3  N   UNL A   1      33.084  20.819  26.380  1.00  0.00    -0.351 N 
ATOM      4  C   UNL A   1      32.457  20.999  25.178  1.00  0.00     0.278 C 
ATOM      5  O   UNL A   1      31.777  20.056  24.758  1.00  0.00    -0.268 OA
ATOM      6  H   UNL A   1      32.788  20.029  26.887  1.00  0.00     0.163 HD
BRANCH   4   7
ATOM      7  C   UNL A   1      32.558  22.320  24.370  1.00  0.00     0.271 C 
ATOM      8  C   UNL A   1      33.015  22.102  22.922  1.00  0.00     0.086 C 
BRANCH   7   9
ATOM      9  N   UNL A   1      31.427  23.265  24.610  1.00  0.00    -0.322 N 
ATOM     10  C   UNL A   1      30.771  27.240  25.163  1.00  0.00     0.283 C 
ATOM     11  O   UNL A   1      30.481  27.949  24.185  1.00  0.00    -0.268 OA
ATOM     12  N   UNL A   1      30.379  25.912  25.161  1.00  0.00    -0.326 N 
ATOM     13  C   UNL A   1      30.090  25.285  23.875  1.00  0.00     0.181 C 
ATOM     14  C   UNL A   1      30.379  24.922  26.234  1.00  0.00     0.181 C 
ATOM     15  C   UNL A   1      31.229  24.293  23.570  1.00  0.00     0.284 C 
ATOM     16  C   UNL A   1      31.449  23.839  25.977  1.00  0.00     0.284 C 
ATOM     17  H   UNL A   1      30.595  22.678  24.536  1.00  0.00     0.348 HD
BRANCH  10  18
ATOM     18  C   UNL A   1      31.769  27.832  26.226  1.00  0.00     0.171 C 
ATOM     19  C   UNL A   1      31.980  29.324  25.888  1.00  0.00     0.090 C 
BRANCH  18  20
ATOM     20  C   UNL A   1      33.101  27.047  26.086  1.00  0.00     0.075 C 
ATOM     21  C   UNL A   1      33.696  26.993  24.684  1.00  0.00     0.011 C 
ENDBRANCH  18  20
BRANCH  18  22
ATOM     22  N   UNL A   1      31.266  27.774  27.615  1.00  0.00    -0.345 N 
ATOM     23  H   UNL A   1      31.756  27.037  28.123  1.00  0.00     0.345 HD
ATOM     24  H   UNL A   1      30.266  27.574  27.606  1.00  0.00     0.345 HD
ATOM     25  H   UNL A   1      31.430  28.670  28.074  1.00  0.00     0.345 HD
ENDBRANCH  18  22
ENDBRANCH  10  18
ENDBRANCH   7   9
ENDBRANCH   4   7
ENDBRANCH   2   3
ENDBRANCH   1   2
BRANCH   1  26
ATOM     26  C   UNL A   1      35.748  23.229  25.873  1.00  0.00     0.023 C 
BRANCH  26  27
ATOM     27  C   UNL A   1      37.067  23.428  25.131  1.00  0.00     0.116 C 
BRANCH  27  28
ATOM     28  N   UNL A   1      38.126  22.534  25.576  1.00  0.00    -0.352 N 
ATOM     29  C   UNL A   1      39.249  22.810  26.323  1.00  0.00     0.251 C 
ATOM     30  H   UNL A   1      38.024  21.594  25.303  1.00  0.00     0.163 HD
ATOM     31  O   UNL A   1      40.092  21.942  26.509  1.00  0.00    -0.269 OA
BRANCH  29  32
ATOM     32  C   UNL A   1      39.453  24.175  26.856  1.00  0.00     0.039 A 
ATOM     33  C   UNL A   1      39.018  24.463  28.151  1.00  0.00     0.014 A 
ATOM     34  C   UNL A   1      40.111  25.147  26.101  1.00  0.00     0.014 A 
ATOM     35  C   UNL A   1      39.329  25.698  28.724  1.00  0.00     0.010 A 
ATOM     36  C   UNL A   1      40.491  26.344  26.700  1.00  0.00     0.010 A 
ATOM     37  C   UNL A   1      40.111  26.629  28.021  1.00  0.00    -0.014 A 
BRANCH  37  38
ATOM     38  C   UNL A   1      40.548  27.904  28.646  1.00  0.00     0.031 A 
ATOM     39  C   UNL A   1      41.947  28.037  29.187  1.00  0.00     0.074 A 
ATOM     40  C   UNL A   1      39.670  28.919  28.787  1.00  0.00     0.049 A 
ATOM     41  N   UNL A   1      42.484  29.030  29.847  1.00  0.00    -0.248 NA
ATOM     42  C   UNL A   1      42.849  26.892  28.984  1.00  0.00     0.031 C 
ATOM     43  C   UNL A   1      38.275  28.907  28.338  1.00  0.00     0.029 A 
ATOM     44  N   UNL A   1      39.821  30.160  29.355  1.00  0.00    -0.354 N 
ATOM     45  C   UNL A   1      43.779  28.625  30.148  1.00  0.00     0.074 A 
ATOM     46  C   UNL A   1      43.930  27.277  29.647  1.00  0.00     0.031 C 
ATOM     47  C   UNL A   1      37.710  30.093  28.621  1.00  0.00     0.029 A 
ATOM     48  C   UNL A   1      38.684  30.934  29.307  1.00  0.00     0.049 A 
ATOM     49  H   UNL A   1      40.664  30.468  29.761  1.00  0.00     0.167 HD
ATOM     50  C   UNL A   1      44.766  29.322  30.762  1.00  0.00     0.031 A 
ATOM     51  C   UNL A   1      38.451  32.179  29.767  1.00  0.00     0.031 A 
ATOM     52  C   UNL A   1      44.625  30.669  31.244  1.00  0.00     0.049 A 
ATOM     53  C   UNL A   1      39.562  32.925  30.457  1.00  0.00     0.074 A 
ATOM     54  C   UNL A   1      45.576  31.470  31.851  1.00  0.00     0.029 A 
ATOM     55  N   UNL A   1      43.463  31.421  31.160  1.00  0.00    -0.354 N 
ATOM     56  N   UNL A   1      40.790  32.537  30.698  1.00  0.00    -0.248 NA
ATOM     57  C   UNL A   1      39.254  34.283  30.929  1.00  0.00     0.031 C 
ATOM     58  C   UNL A   1      44.979  32.695  32.165  1.00  0.00     0.029 A 
ATOM     59  C   UNL A   1      43.672  32.673  31.709  1.00  0.00     0.049 A 
ATOM     60  H   UNL A   1      42.616  31.109  30.767  1.00  0.00     0.167 HD
ATOM     61  C   UNL A   1      41.412  33.615  31.317  1.00  0.00     0.074 A 
ATOM     62  C   UNL A   1      40.429  34.675  31.404  1.00  0.00     0.031 C 
ATOM     63  C   UNL A   1      42.685  33.721  31.772  1.00  0.00     0.031 A 
BRANCH  50  64
ATOM     64  C   UNL A   1      46.095  28.636  30.933  1.00  0.00    -0.014 A 
ATOM     65  C   UNL A   1      46.383  27.912  32.105  1.00  0.00     0.010 A 
ATOM     66  C   UNL A   1      47.049  28.676  29.901  1.00  0.00     0.010 A 
ATOM     67  C   UNL A   1      47.614  27.270  32.255  1.00  0.00     0.020 A 
ATOM     68  C   UNL A   1      48.271  28.012  30.036  1.00  0.00     0.020 A 
ATOM     69  C   UNL A   1      48.552  27.326  31.221  1.00  0.00     0.054 A 
BRANCH  69  70
ATOM     70  S   UNL A   1      50.128  26.454  31.430  1.00  0.00     0.124 S 
ATOM     71  O   UNL A   1      51.008  27.529  31.880  1.00  0.00    -0.237 OA
ATOM     72  O   UNL A   1      49.806  25.445  32.436  1.00  0.00    -0.237 OA
ATOM     73  O   UNL A   1      50.415  25.931  30.096  1.00  0.00    -0.744 OA
ENDBRANCH  69  70
ENDBRANCH  50  64
BRANCH  51  74
ATOM     74  C   UNL A   1      37.119  32.815  29.581  1.00  0.00    -0.014 A 
ATOM     75  C   UNL A   1      36.806  33.469  28.376  1.00  0.00     0.010 A 
ATOM     76  C   UNL A   1      36.164  32.794  30.614  1.00  0.00     0.010 A 
ATOM     77  C   UNL A   1      35.580  34.121  28.219  1.00  0.00     0.020 A 
ATOM     78  C   UNL A   1      34.925  33.422  30.451  1.00  0.00     0.020 A 
ATOM     79  C   UNL A   1      34.648  34.098  29.260  1.00  0.00     0.054 A 
BRANCH  79  80
ATOM     80  S   UNL A   1      33.055  34.935  29.032  1.00  0.00     0.124 S 
ATOM     81  O   UNL A   1      32.392  34.066  28.065  1.00  0.00    -0.237 OA
ATOM     82  O   UNL A   1      32.493  34.923  30.381  1.00  0.00    -0.237 OA
ATOM     83  O   UNL A   1      33.432  36.255  28.535  1.00  0.00    -0.744 OA
ENDBRANCH  79  80
ENDBRANCH  51  74
BRANCH  63  84
ATOM     84  C   UNL A   1      43.105  35.042  32.356  1.00  0.00    -0.014 A 
ATOM     85  C   UNL A   1      43.764  36.009  31.578  1.00  0.00     0.010 A 
ATOM     86  C   UNL A   1      42.784  35.338  33.694  1.00  0.00     0.010 A 
ATOM     87  C   UNL A   1      44.121  37.239  32.137  1.00  0.00     0.020 A 
ATOM     88  C   UNL A   1      43.117  36.576  34.248  1.00  0.00     0.020 A 
ATOM     89  C   UNL A   1      43.797  37.513  33.469  1.00  0.00     0.054 A 
BRANCH  89  90
ATOM     90  S   UNL A   1      44.230  39.134  34.159  1.00  0.00     0.124 S 
ATOM     91  O   UNL A   1      44.551  38.799  35.544  1.00  0.00    -0.237 OA
ATOM     92  O   UNL A   1      45.364  39.543  33.333  1.00  0.00    -0.237 OA
ATOM     93  O   UNL A   1      43.015  39.925  33.974  1.00  0.00    -0.744 OA
ENDBRANCH  89  90
ENDBRANCH  63  84
ENDBRANCH  37  38
ENDBRANCH  29  32
ENDBRANCH  27  28
ENDBRANCH  26  27
ENDBRANCH   1  26
TORSDOF 18
ENDMDL
MODEL 2
REMARK VINA RESULT:     -10.2      2.570      9.418
REMARK SMILES CC[C@](C)([NH3+])C(=O)N1CC[NH+]([C@H](C)C(=O)NCCCCNC(=O)c2ccc(-c3c4nc(c(-c5ccc(S(=O)(=O)[O-])cc5)c5ccc([nH]5)c(-c5ccc(S(=O)(=O)[O-])cc5)c5nc(c(-c6ccc(S(=O)(=O)[O-])cc6)c6ccc3[nH]6)C=C5)C=C4)cc2)CC1
REMARK SMILES IDX 18 1 17 2 16 3 14 4 15 5 12 7 13 8 11 9 6 10 7 11 8 12 9 13
REMARK SMILES IDX 85 14 10 15 84 16 3 18 4 19 2 20 1 21 5 22 19 26 20 27 21 28
REMARK SMILES IDX 22 29 23 31 24 32 25 33 83 34 26 35 82 36 27 37 28 38 29 39
REMARK SMILES IDX 76 40 30 41 81 42 75 43 77 44 31 45 80 46 74 47 73 48 32 50
REMARK SMILES IDX 62 51 43 52 61 53 44 54 47 55 60 56 78 57 45 58 46 59 59 61
REMARK SMILES IDX 79 62 48 63 33 64 34 65 42 66 35 67 41 68 36 69 37 70 38 71
REMARK SMILES IDX 39 72 40 73 63 74 64 75 72 76 65 77 71 78 66 79 67 80 68 81
REMARK SMILES IDX 69 82 70 83 49 84 50 85 58 86 51 87 57 88 52 89 53 90 54 91
REMARK SMILES IDX 55 92 56 93
REMARK H PARENT 16 6 11 17 5 23 5 24 5 25 21 30 77 49 47 60
REMARK Flexibility Score: inf
ROOT
ATOM      1  C   UNL A   1      31.567  29.441  25.359  1.00  0.00     0.023 C 
ENDROOT
BRANCH   1   2
ATOM      2  C   UNL A   1      31.416  29.130  23.876  1.00  0.00     0.116 C 
BRANCH   2   3
ATOM      3  N   UNL A   1      32.673  29.029  23.162  1.00  0.00    -0.351 N 
ATOM      4  C   UNL A   1      33.212  27.981  22.468  1.00  0.00     0.278 C 
ATOM      5  O   UNL A   1      34.195  28.230  21.760  1.00  0.00    -0.268 OA
ATOM      6  H   UNL A   1      33.226  29.843  23.179  1.00  0.00     0.163 HD
BRANCH   4   7
ATOM      7  C   UNL A   1      32.653  26.538  22.562  1.00  0.00     0.271 C 
ATOM      8  C   UNL A   1      32.590  25.829  21.202  1.00  0.00     0.086 C 
BRANCH   7   9
ATOM      9  N   UNL A   1      33.171  25.762  23.729  1.00  0.00    -0.322 N 
ATOM     10  C   UNL A   1      34.068  21.931  24.755  1.00  0.00     0.283 C 
ATOM     11  O   UNL A   1      35.235  21.525  24.622  1.00  0.00    -0.268 OA
ATOM     12  N   UNL A   1      33.860  23.270  25.041  1.00  0.00    -0.326 N 
ATOM     13  C   UNL A   1      34.920  24.215  24.707  1.00  0.00     0.181 C 
ATOM     14  C   UNL A   1      32.651  23.972  25.463  1.00  0.00     0.181 C 
ATOM     15  C   UNL A   1      34.442  25.049  23.501  1.00  0.00     0.284 C 
ATOM     16  C   UNL A   1      32.135  24.893  24.336  1.00  0.00     0.284 C 
ATOM     17  H   UNL A   1      33.412  26.479  24.415  1.00  0.00     0.348 HD
BRANCH  10  18
ATOM     18  C   UNL A   1      32.902  20.954  24.354  1.00  0.00     0.171 C 
ATOM     19  C   UNL A   1      31.810  21.059  25.441  1.00  0.00     0.090 C 
BRANCH  18  20
ATOM     20  C   UNL A   1      33.500  19.522  24.317  1.00  0.00     0.075 C 
ATOM     21  C   UNL A   1      32.524  18.405  23.966  1.00  0.00     0.011 C 
ENDBRANCH  18  20
BRANCH  18  22
ATOM     22  N   UNL A   1      32.259  21.290  23.065  1.00  0.00    -0.345 N 
ATOM     23  H   UNL A   1      31.245  21.283  23.180  1.00  0.00     0.345 HD
ATOM     24  H   UNL A   1      32.527  20.602  22.362  1.00  0.00     0.345 HD
ATOM     25  H   UNL A   1      32.561  22.218  22.767  1.00  0.00     0.345 HD
ENDBRANCH  18  22
ENDBRANCH  10  18
ENDBRANCH   7   9
ENDBRANCH   4   7
ENDBRANCH   2   3
ENDBRANCH   1   2
BRANCH   1  26
ATOM     26  C   UNL A   1      32.182  28.326  26.198  1.00  0.00     0.023 C 
BRANCH  26  27
ATOM     27  C   UNL A   1      33.396  28.716  27.037  1.00  0.00     0.116 C 
BRANCH  27  28
ATOM     28  N   UNL A   1      33.366  30.098  27.496  1.00  0.00    -0.352 N 
ATOM     29  C   UNL A   1      34.345  30.832  28.127  1.00  0.00     0.251 C 
ATOM     30  H   UNL A   1      32.522  30.576  27.332  1.00  0.00     0.163 HD
ATOM     31  O   UNL A   1      34.098  31.957  28.541  1.00  0.00    -0.269 OA
BRANCH  29  32
ATOM     32  C   UNL A   1      35.680  30.233  28.343  1.00  0.00     0.039 A 
ATOM     33  C   UNL A   1      36.614  30.277  27.306  1.00  0.00     0.014 A 
ATOM     34  C   UNL A   1      36.023  29.675  29.577  1.00  0.00     0.014 A 
ATOM     35  C   UNL A   1      37.923  29.848  27.538  1.00  0.00     0.010 A 
ATOM     36  C   UNL A   1      37.346  29.326  29.831  1.00  0.00     0.010 A 
ATOM     37  C   UNL A   1      38.312  29.416  28.817  1.00  0.00    -0.014 A 
BRANCH  37  38
ATOM     38  C   UNL A   1      39.722  29.058  29.119  1.00  0.00     0.031 A 
ATOM     39  C   UNL A   1      40.636  30.071  29.755  1.00  0.00     0.074 A 
ATOM     40  C   UNL A   1      40.199  27.847  28.762  1.00  0.00     0.049 A 
ATOM     41  N   UNL A   1      41.915  29.980  30.011  1.00  0.00    -0.248 NA
ATOM     42  C   UNL A   1      40.039  31.364  30.127  1.00  0.00     0.031 C 
ATOM     43  C   UNL A   1      39.428  26.787  28.107  1.00  0.00     0.029 A 
ATOM     44  N   UNL A   1      41.453  27.305  28.897  1.00  0.00    -0.354 N 
ATOM     45  C   UNL A   1      42.277  31.205  30.559  1.00  0.00     0.074 A 
ATOM     46  C   UNL A   1      41.097  32.040  30.550  1.00  0.00     0.031 C 
ATOM     47  C   UNL A   1      40.217  25.714  27.925  1.00  0.00     0.029 A 
ATOM     48  C   UNL A   1      41.557  26.022  28.410  1.00  0.00     0.049 A 
ATOM     49  H   UNL A   1      42.209  27.789  29.302  1.00  0.00     0.167 HD
ATOM     50  C   UNL A   1      43.478  31.593  31.053  1.00  0.00     0.031 A 
ATOM     51  C   UNL A   1      42.616  25.188  28.357  1.00  0.00     0.031 A 
ATOM     52  C   UNL A   1      44.649  30.758  31.081  1.00  0.00     0.049 A 
ATOM     53  C   UNL A   1      43.942  25.650  28.900  1.00  0.00     0.074 A 
ATOM     54  C   UNL A   1      45.902  31.050  31.588  1.00  0.00     0.029 A 
ATOM     55  N   UNL A   1      44.706  29.462  30.593  1.00  0.00    -0.354 N 
ATOM     56  N   UNL A   1      44.252  26.800  29.448  1.00  0.00    -0.248 NA
ATOM     57  C   UNL A   1      45.056  24.696  28.826  1.00  0.00     0.031 C 
ATOM     58  C   UNL A   1      46.728  29.941  31.377  1.00  0.00     0.029 A 
ATOM     59  C   UNL A   1      45.975  28.943  30.783  1.00  0.00     0.049 A 
ATOM     60  H   UNL A   1      43.955  28.982  30.175  1.00  0.00     0.167 HD
ATOM     61  C   UNL A   1      45.588  26.693  29.816  1.00  0.00     0.074 A 
ATOM     62  C   UNL A   1      46.024  25.365  29.438  1.00  0.00     0.031 C 
ATOM     63  C   UNL A   1      46.385  27.612  30.415  1.00  0.00     0.031 A 
BRANCH  50  64
ATOM     64  C   UNL A   1      43.579  32.985  31.617  1.00  0.00    -0.014 A 
ATOM     65  C   UNL A   1      43.278  33.234  32.970  1.00  0.00     0.010 A 
ATOM     66  C   UNL A   1      44.019  34.046  30.806  1.00  0.00     0.010 A 
ATOM     67  C   UNL A   1      43.382  34.525  33.490  1.00  0.00     0.020 A 
ATOM     68  C   UNL A   1      44.150  35.334  31.331  1.00  0.00     0.020 A 
ATOM     69  C   UNL A   1      43.815  35.568  32.668  1.00  0.00     0.054 A 
BRANCH  69  70
ATOM     70  S   UNL A   1      43.973  37.228  33.381  1.00  0.00     0.124 S 
ATOM     71  O   UNL A   1      43.855  38.076  32.198  1.00  0.00    -0.237 OA
ATOM     72  O   UNL A   1      42.846  37.287  34.310  1.00  0.00    -0.237 OA
ATOM     73  O   UNL A   1      45.292  37.212  34.008  1.00  0.00    -0.744 OA
ENDBRANCH  69  70
ENDBRANCH  50  64
BRANCH  51  74
ATOM     74  C   UNL A   1      42.471  23.823  27.783  1.00  0.00    -0.014 A 
ATOM     75  C   UNL A   1      42.173  22.730  28.616  1.00  0.00     0.010 A 
ATOM     76  C   UNL A   1      42.655  23.601  26.406  1.00  0.00     0.010 A 
ATOM     77  C   UNL A   1      42.099  21.436  28.093  1.00  0.00     0.020 A 
ATOM     78  C   UNL A   1      42.553  22.312  25.873  1.00  0.00     0.020 A 
ATOM     79  C   UNL A   1      42.294  21.235  26.724  1.00  0.00     0.054 A 
BRANCH  79  80
ATOM     80  S   UNL A   1      42.175  19.551  26.058  1.00  0.00     0.124 S 
ATOM     81  O   UNL A   1      42.618  18.746  27.191  1.00  0.00    -0.237 OA
ATOM     82  O   UNL A   1      40.758  19.443  25.719  1.00  0.00    -0.237 OA
ATOM     83  O   UNL A   1      43.081  19.574  24.912  1.00  0.00    -0.744 OA
ENDBRANCH  79  80
ENDBRANCH  51  74
BRANCH  63  84
ATOM     84  C   UNL A   1      47.793  27.198  30.747  1.00  0.00    -0.014 A 
ATOM     85  C   UNL A   1      48.067  26.346  31.831  1.00  0.00     0.010 A 
ATOM     86  C   UNL A   1      48.851  27.628  29.926  1.00  0.00     0.010 A 
ATOM     87  C   UNL A   1      49.381  25.955  32.104  1.00  0.00     0.020 A 
ATOM     88  C   UNL A   1      50.161  27.218  30.180  1.00  0.00     0.020 A 
ATOM     89  C   UNL A   1      50.419  26.395  31.278  1.00  0.00     0.054 A 
BRANCH  89  90
ATOM     90  S   UNL A   1      52.110  25.837  31.625  1.00  0.00     0.124 S 
ATOM     91  O   UNL A   1      52.708  25.833  30.293  1.00  0.00    -0.237 OA
ATOM     92  O   UNL A   1      52.608  26.867  32.535  1.00  0.00    -0.237 OA
ATOM     93  O   UNL A   1      51.923  24.520  32.229  1.00  0.00    -0.744 OA
ENDBRANCH  89  90
ENDBRANCH  63  84
ENDBRANCH  37  38
ENDBRANCH  29  32
ENDBRANCH  27  28
ENDBRANCH  26  27
ENDBRANCH   1  26
TORSDOF 18
ENDMDL
MODEL 3
REMARK VINA RESULT:      -9.8      3.599      5.009
REMARK SMILES CC[C@](C)([NH3+])C(=O)N1CC[NH+]([C@H](C)C(=O)NCCCCNC(=O)c2ccc(-c3c4nc(c(-c5ccc(S(=O)(=O)[O-])cc5)c5ccc([nH]5)c(-c5ccc(S(=O)(=O)[O-])cc5)c5nc(c(-c6ccc(S(=O)(=O)[O-])cc6)c6ccc3[nH]6)C=C5)C=C4)cc2)CC1
REMARK SMILES IDX 18 1 17 2 16 3 14 4 15 5 12 7 13 8 11 9 6 10 7 11 8 12 9 13
REMARK SMILES IDX 85 14 10 15 84 16 3 18 4 19 2 20 1 21 5 22 19 26 20 27 21 28
REMARK SMILES IDX 22 29 23 31 24 32 25 33 83 34 26 35 82 36 27 37 28 38 29 39
REMARK SMILES IDX 76 40 30 41 81 42 75 43 77 44 31 45 80 46 74 47 73 48 32 50
REMARK SMILES IDX 62 51 43 52 61 53 44 54 47 55 60 56 78 57 45 58 46 59 59 61
REMARK SMILES IDX 79 62 48 63 33 64 34 65 42 66 35 67 41 68 36 69 37 70 38 71
REMARK SMILES IDX 39 72 40 73 63 74 64 75 72 76 65 77 71 78 66 79 67 80 68 81
REMARK SMILES IDX 69 82 70 83 49 84 50 85 58 86 51 87 57 88 52 89 53 90 54 91
REMARK SMILES IDX 55 92 56 93
REMARK H PARENT 16 6 11 17 5 23 5 24 5 25 21 30 77 49 47 60
REMARK Flexibility Score: inf
ROOT
ATOM      1  C   UNL A   1      37.352  22.495  24.586  1.00  0.00     0.023 C 
ENDROOT
BRANCH   1   2
ATOM      2  C   UNL A   1      35.917  22.525  24.079  1.00  0.00     0.116 C 
BRANCH   2   3
ATOM      3  N   UNL A   1      34.931  22.140  25.068  1.00  0.00    -0.351 N 
ATOM      4  C   UNL A   1      33.587  22.392  25.121  1.00  0.00     0.278 C 
ATOM      5  O   UNL A   1      32.935  21.756  25.956  1.00  0.00    -0.268 OA
ATOM      6  H   UNL A   1      35.283  21.614  25.822  1.00  0.00     0.163 HD
BRANCH   4   7
ATOM      7  C   UNL A   1      32.895  23.434  24.205  1.00  0.00     0.271 C 
ATOM      8  C   UNL A   1      31.394  23.168  24.024  1.00  0.00     0.086 C 
BRANCH   7   9
ATOM      9  N   UNL A   1      33.329  24.842  24.452  1.00  0.00    -0.322 N 
ATOM     10  C   UNL A   1      31.779  28.601  24.509  1.00  0.00     0.283 C 
ATOM     11  O   UNL A   1      31.382  29.077  25.585  1.00  0.00    -0.268 OA
ATOM     12  N   UNL A   1      32.828  27.697  24.529  1.00  0.00    -0.326 N 
ATOM     13  C   UNL A   1      33.097  26.987  25.776  1.00  0.00     0.181 C 
ATOM     14  C   UNL A   1      33.635  27.157  23.438  1.00  0.00     0.181 C 
ATOM     15  C   UNL A   1      32.666  25.520  25.583  1.00  0.00     0.284 C 
ATOM     16  C   UNL A   1      33.321  25.662  23.217  1.00  0.00     0.284 C 
ATOM     17  H   UNL A   1      34.299  24.751  24.755  1.00  0.00     0.348 HD
BRANCH  10  18
ATOM     18  C   UNL A   1      30.911  28.870  23.225  1.00  0.00     0.171 C 
ATOM     19  C   UNL A   1      29.827  29.905  23.602  1.00  0.00     0.090 C 
BRANCH  18  20
ATOM     20  C   UNL A   1      30.260  27.520  22.823  1.00  0.00     0.075 C 
ATOM     21  C   UNL A   1      29.399  26.855  23.890  1.00  0.00     0.011 C 
ENDBRANCH  18  20
BRANCH  18  22
ATOM     22  N   UNL A   1      31.676  29.443  22.097  1.00  0.00    -0.345 N 
ATOM     23  H   UNL A   1      31.986  30.385  22.339  1.00  0.00     0.345 HD
ATOM     24  H   UNL A   1      31.083  29.483  21.269  1.00  0.00     0.345 HD
ATOM     25  H   UNL A   1      32.489  28.857  21.905  1.00  0.00     0.345 HD
ENDBRANCH  18  22
ENDBRANCH  10  18
ENDBRANCH   7   9
ENDBRANCH   4   7
ENDBRANCH   2   3
ENDBRANCH   1   2
BRANCH   1  26
ATOM     26  C   UNL A   1      37.850  21.129  25.047  1.00  0.00     0.023 C 
BRANCH  26  27
ATOM     27  C   UNL A   1      38.959  21.143  26.097  1.00  0.00     0.116 C 
BRANCH  27  28
ATOM     28  N   UNL A   1      39.848  19.993  26.019  1.00  0.00    -0.352 N 
ATOM     29  C   UNL A   1      41.220  19.939  26.117  1.00  0.00     0.251 C 
ATOM     30  H   UNL A   1      39.402  19.127  25.876  1.00  0.00     0.163 HD
ATOM     31  O   UNL A   1      41.809  18.884  25.917  1.00  0.00    -0.269 OA
BRANCH  29  32
ATOM     32  C   UNL A   1      41.978  21.172  26.419  1.00  0.00     0.039 A 
ATOM     33  C   UNL A   1      42.327  22.023  25.368  1.00  0.00     0.014 A 
ATOM     34  C   UNL A   1      42.299  21.510  27.736  1.00  0.00     0.014 A 
ATOM     35  C   UNL A   1      42.914  23.259  25.647  1.00  0.00     0.010 A 
ATOM     36  C   UNL A   1      42.808  22.775  28.017  1.00  0.00     0.010 A 
ATOM     37  C   UNL A   1      43.113  23.666  26.976  1.00  0.00    -0.014 A 
BRANCH  37  38
ATOM     38  C   UNL A   1      43.635  25.018  27.304  1.00  0.00     0.031 A 
ATOM     39  C   UNL A   1      45.094  25.331  27.103  1.00  0.00     0.074 A 
ATOM     40  C   UNL A   1      42.813  25.943  27.841  1.00  0.00     0.049 A 
ATOM     41  N   UNL A   1      45.754  26.416  27.413  1.00  0.00    -0.248 NA
ATOM     42  C   UNL A   1      45.923  24.275  26.499  1.00  0.00     0.031 C 
ATOM     43  C   UNL A   1      41.386  25.757  28.121  1.00  0.00     0.029 A 
ATOM     44  N   UNL A   1      43.063  27.228  28.257  1.00  0.00    -0.354 N 
ATOM     45  C   UNL A   1      47.074  26.169  27.056  1.00  0.00     0.074 A 
ATOM     46  C   UNL A   1      47.132  24.813  26.556  1.00  0.00     0.031 C 
ATOM     47  C   UNL A   1      40.883  26.894  28.631  1.00  0.00     0.029 A 
ATOM     48  C   UNL A   1      41.955  27.875  28.755  1.00  0.00     0.049 A 
ATOM     49  H   UNL A   1      43.952  27.648  28.203  1.00  0.00     0.167 HD
ATOM     50  C   UNL A   1      48.140  27.003  27.113  1.00  0.00     0.031 A 
ATOM     51  C   UNL A   1      41.819  29.117  29.261  1.00  0.00     0.031 A 
ATOM     52  C   UNL A   1      48.081  28.358  27.592  1.00  0.00     0.049 A 
ATOM     53  C   UNL A   1      43.023  30.019  29.324  1.00  0.00     0.074 A 
ATOM     54  C   UNL A   1      49.100  29.292  27.660  1.00  0.00     0.029 A 
ATOM     55  N   UNL A   1      46.938  28.978  28.072  1.00  0.00    -0.354 N 
ATOM     56  N   UNL A   1      44.255  29.777  28.947  1.00  0.00    -0.248 NA
ATOM     57  C   UNL A   1      42.813  31.365  29.874  1.00  0.00     0.031 C 
ATOM     58  C   UNL A   1      48.580  30.467  28.212  1.00  0.00     0.029 A 
ATOM     59  C   UNL A   1      47.227  30.279  28.443  1.00  0.00     0.049 A 
ATOM     60  H   UNL A   1      46.052  28.554  28.139  1.00  0.00     0.167 HD
ATOM     61  C   UNL A   1      44.959  30.953  29.180  1.00  0.00     0.074 A 
ATOM     62  C   UNL A   1      44.014  31.908  29.721  1.00  0.00     0.031 C 
ATOM     63  C   UNL A   1      46.270  31.220  28.964  1.00  0.00     0.031 A 
BRANCH  50  64
ATOM     64  C   UNL A   1      49.463  26.473  26.629  1.00  0.00    -0.014 A 
ATOM     65  C   UNL A   1      49.810  26.544  25.266  1.00  0.00     0.010 A 
ATOM     66  C   UNL A   1      50.387  25.938  27.544  1.00  0.00     0.010 A 
ATOM     67  C   UNL A   1      51.042  26.058  24.824  1.00  0.00     0.020 A 
ATOM     68  C   UNL A   1      51.632  25.477  27.109  1.00  0.00     0.020 A 
ATOM     69  C   UNL A   1      51.945  25.525  25.747  1.00  0.00     0.054 A 
BRANCH  69  70
ATOM     70  S   UNL A   1      53.551  24.934  25.148  1.00  0.00     0.124 S 
ATOM     71  O   UNL A   1      53.665  25.622  23.866  1.00  0.00    -0.237 OA
ATOM     72  O   UNL A   1      54.470  25.390  26.189  1.00  0.00    -0.237 OA
ATOM     73  O   UNL A   1      53.378  23.486  25.066  1.00  0.00    -0.744 OA
ENDBRANCH  69  70
ENDBRANCH  50  64
BRANCH  51  74
ATOM     74  C   UNL A   1      40.493  29.597  29.734  1.00  0.00    -0.014 A 
ATOM     75  C   UNL A   1      39.587  30.187  28.834  1.00  0.00     0.010 A 
ATOM     76  C   UNL A   1      40.135  29.492  31.090  1.00  0.00     0.010 A 
ATOM     77  C   UNL A   1      38.366  30.696  29.284  1.00  0.00     0.020 A 
ATOM     78  C   UNL A   1      38.902  29.975  31.541  1.00  0.00     0.020 A 
ATOM     79  C   UNL A   1      38.034  30.591  30.638  1.00  0.00     0.054 A 
BRANCH  79  80
ATOM     80  S   UNL A   1      36.436  31.241  31.202  1.00  0.00     0.124 S 
ATOM     81  O   UNL A   1      35.692  31.343  29.951  1.00  0.00    -0.237 OA
ATOM     82  O   UNL A   1      35.981  30.206  32.127  1.00  0.00    -0.237 OA
ATOM     83  O   UNL A   1      36.789  32.513  31.827  1.00  0.00    -0.744 OA
ENDBRANCH  79  80
ENDBRANCH  51  74
BRANCH  63  84
ATOM     84  C   UNL A   1      46.752  32.614  29.263  1.00  0.00    -0.014 A 
ATOM     85  C   UNL A   1      47.291  32.947  30.518  1.00  0.00     0.010 A 
ATOM     86  C   UNL A   1      46.712  33.590  28.251  1.00  0.00     0.010 A 
ATOM     87  C   UNL A   1      47.755  34.241  30.763  1.00  0.00     0.020 A 
ATOM     88  C   UNL A   1      47.199  34.878  28.485  1.00  0.00     0.020 A 
ATOM     89  C   UNL A   1      47.705  35.199  29.746  1.00  0.00     0.054 A 
BRANCH  89  90
ATOM     90  S   UNL A   1      48.356  36.860  30.074  1.00  0.00     0.124 S 
ATOM     91  O   UNL A   1      47.340  37.711  29.459  1.00  0.00    -0.237 OA
ATOM     92  O   UNL A   1      48.411  36.901  31.533  1.00  0.00    -0.237 OA
ATOM     93  O   UNL A   1      49.656  36.860  29.407  1.00  0.00    -0.744 OA
ENDBRANCH  89  90
ENDBRANCH  63  84
ENDBRANCH  37  38
ENDBRANCH  29  32
ENDBRANCH  27  28
ENDBRANCH  26  27
ENDBRANCH   1  26
TORSDOF 18
ENDMDL
