MODEL 1
REMARK VINA RESULT:     -11.5      0.000      0.000
REMARK SMILES O=C(NCCCCNC(=O)c1cccc(OS(=O)(=O)c2cccc([N+](=O)[O-])c2)c1)c1ccc(-c2c3nc(c(-c4ccc(S(=O)(=O)[O-])cc4)c4ccc([nH]4)c(-c4ccc(S(=O)(=O)[O-])cc4)c4nc(c(-c5ccc(S(=O)(=O)[O-])cc5)c5ccc2[nH]5)C=C4)C=C3)cc1
REMARK SMILES IDX 6 1 5 2 4 3 3 4 1 5 2 6 30 8 31 9 89 10 32 11 88 12 33 13
REMARK SMILES IDX 34 14 35 15 82 16 36 17 87 18 81 19 83 20 37 21 86 22 80 23
REMARK SMILES IDX 79 24 38 26 68 27 49 28 67 29 50 30 53 31 66 32 84 33 51 34
REMARK SMILES IDX 52 35 65 37 85 38 54 39 39 40 40 41 48 42 41 43 47 44 42 45
REMARK SMILES IDX 43 46 44 47 45 48 46 49 69 50 70 51 78 52 71 53 77 54 72 55
REMARK SMILES IDX 73 56 74 57 75 58 76 59 55 60 56 61 64 62 57 63 63 64 58 65
REMARK SMILES IDX 59 66 60 67 61 68 62 69 7 70 8 71 9 72 10 74 11 75 12 76
REMARK SMILES IDX 29 77 13 78 15 79 14 80 16 81 17 82 18 83 19 84 20 85 21 86
REMARK SMILES IDX 28 87 22 88 24 89 23 90 25 91 26 92 27 93
REMARK H PARENT 3 7 83 25 53 36 8 73
REMARK Flexibility Score: inf
ROOT
ATOM      1  C   UNL A   1      33.348  29.270  24.585  1.00  0.00     0.023 C 
ENDROOT
BRANCH   1   2
ATOM      2  C   UNL A   1      33.635  28.018  25.410  1.00  0.00     0.023 C 
BRANCH   2   3
ATOM      3  C   UNL A   1      33.853  28.261  26.897  1.00  0.00     0.116 C 
BRANCH   3   4
ATOM      4  N   UNL A   1      33.609  29.642  27.282  1.00  0.00    -0.352 N 
ATOM      5  O   UNL A   1      34.001  31.586  28.356  1.00  0.00    -0.269 OA
ATOM      6  C   UNL A   1      34.432  30.505  27.966  1.00  0.00     0.251 C 
ATOM      7  H   UNL A   1      32.735  30.008  27.016  1.00  0.00     0.163 HD
BRANCH   6   8
ATOM      8  C   UNL A   1      35.833  30.116  28.248  1.00  0.00     0.039 A 
ATOM      9  C   UNL A   1      36.817  30.246  27.264  1.00  0.00     0.014 A 
ATOM     10  C   UNL A   1      36.167  29.628  29.515  1.00  0.00     0.014 A 
ATOM     11  C   UNL A   1      38.101  29.769  27.503  1.00  0.00     0.010 A 
ATOM     12  C   UNL A   1      37.480  29.227  29.780  1.00  0.00     0.010 A 
ATOM     13  C   UNL A   1      38.453  29.277  28.770  1.00  0.00    -0.014 A 
BRANCH  13  14
ATOM     14  C   UNL A   1      39.871  28.929  29.041  1.00  0.00     0.031 A 
ATOM     15  C   UNL A   1      40.447  27.599  28.642  1.00  0.00     0.074 A 
ATOM     16  C   UNL A   1      40.645  29.852  29.648  1.00  0.00     0.049 A 
ATOM     17  N   UNL A   1      41.670  27.159  28.796  1.00  0.00    -0.248 NA
ATOM     18  C   UNL A   1      39.541  26.636  27.996  1.00  0.00     0.031 C 
ATOM     19  C   UNL A   1      40.188  31.171  30.097  1.00  0.00     0.029 A 
ATOM     20  N   UNL A   1      41.975  29.834  29.980  1.00  0.00    -0.354 N 
ATOM     21  C   UNL A   1      41.680  25.866  28.288  1.00  0.00     0.074 A 
ATOM     22  C   UNL A   1      40.336  25.584  27.830  1.00  0.00     0.031 C 
ATOM     23  C   UNL A   1      41.225  31.848  30.609  1.00  0.00     0.029 A 
ATOM     24  C   UNL A   1      42.405  30.993  30.582  1.00  0.00     0.049 A 
ATOM     25  H   UNL A   1      42.564  29.066  29.803  1.00  0.00     0.167 HD
ATOM     26  C   UNL A   1      42.716  24.997  28.212  1.00  0.00     0.031 A 
ATOM     27  C   UNL A   1      43.608  31.326  31.084  1.00  0.00     0.031 A 
ATOM     28  C   UNL A   1      44.055  25.291  28.661  1.00  0.00     0.049 A 
ATOM     29  C   UNL A   1      44.729  30.332  31.003  1.00  0.00     0.074 A 
ATOM     30  C   UNL A   1      45.185  24.495  28.570  1.00  0.00     0.029 A 
ATOM     31  N   UNL A   1      44.443  26.463  29.291  1.00  0.00    -0.354 N 
ATOM     32  N   UNL A   1      44.730  29.138  30.463  1.00  0.00    -0.248 NA
ATOM     33  C   UNL A   1      46.011  30.730  31.602  1.00  0.00     0.031 C 
ATOM     34  C   UNL A   1      46.243  25.163  29.194  1.00  0.00     0.029 A 
ATOM     35  C   UNL A   1      45.786  26.397  29.626  1.00  0.00     0.049 A 
ATOM     36  H   UNL A   1      43.852  27.230  29.471  1.00  0.00     0.167 HD
ATOM     37  C   UNL A   1      46.013  28.641  30.654  1.00  0.00     0.074 A 
ATOM     38  C   UNL A   1      46.768  29.676  31.330  1.00  0.00     0.031 C 
ATOM     39  C   UNL A   1      46.517  27.432  30.309  1.00  0.00     0.031 A 
BRANCH  26  40
ATOM     40  C   UNL A   1      42.461  23.627  27.641  1.00  0.00    -0.014 A 
ATOM     41  C   UNL A   1      42.675  23.354  26.279  1.00  0.00     0.010 A 
ATOM     42  C   UNL A   1      42.108  22.573  28.504  1.00  0.00     0.010 A 
ATOM     43  C   UNL A   1      42.531  22.052  25.789  1.00  0.00     0.020 A 
ATOM     44  C   UNL A   1      41.982  21.266  28.021  1.00  0.00     0.020 A 
ATOM     45  C   UNL A   1      42.189  21.016  26.664  1.00  0.00     0.054 A 
BRANCH  45  46
ATOM     46  S   UNL A   1      42.075  19.325  26.012  1.00  0.00     0.124 S 
ATOM     47  O   UNL A   1      40.647  19.207  25.728  1.00  0.00    -0.237 OA
ATOM     48  O   UNL A   1      42.946  19.374  24.840  1.00  0.00    -0.237 OA
ATOM     49  O   UNL A   1      42.562  18.495  27.111  1.00  0.00    -0.744 OA
ENDBRANCH  45  46
ENDBRANCH  26  40
BRANCH  27  50
ATOM     50  C   UNL A   1      43.796  32.642  31.750  1.00  0.00    -0.014 A 
ATOM     51  C   UNL A   1      44.226  33.763  31.022  1.00  0.00     0.010 A 
ATOM     52  C   UNL A   1      43.538  32.776  33.128  1.00  0.00     0.010 A 
ATOM     53  C   UNL A   1      44.424  34.989  31.666  1.00  0.00     0.020 A 
ATOM     54  C   UNL A   1      43.706  34.005  33.768  1.00  0.00     0.020 A 
ATOM     55  C   UNL A   1      44.166  35.101  33.036  1.00  0.00     0.054 A 
BRANCH  55  56
ATOM     56  S   UNL A   1      44.403  36.703  33.850  1.00  0.00     0.124 S 
ATOM     57  O   UNL A   1      45.089  37.468  32.814  1.00  0.00    -0.237 OA
ATOM     58  O   UNL A   1      43.033  37.119  34.142  1.00  0.00    -0.237 OA
ATOM     59  O   UNL A   1      45.209  36.372  35.023  1.00  0.00    -0.744 OA
ENDBRANCH  55  56
ENDBRANCH  27  50
BRANCH  39  60
ATOM     60  C   UNL A   1      47.957  27.172  30.653  1.00  0.00    -0.014 A 
ATOM     61  C   UNL A   1      48.991  27.613  29.809  1.00  0.00     0.010 A 
ATOM     62  C   UNL A   1      48.282  26.508  31.850  1.00  0.00     0.010 A 
ATOM     63  C   UNL A   1      50.326  27.365  30.139  1.00  0.00     0.020 A 
ATOM     64  C   UNL A   1      49.616  26.280  32.195  1.00  0.00     0.020 A 
ATOM     65  C   UNL A   1      50.629  26.696  31.328  1.00  0.00     0.054 A 
BRANCH  65  66
ATOM     66  S   UNL A   1      52.369  26.416  31.753  1.00  0.00     0.124 S 
ATOM     67  O   UNL A   1      52.698  27.625  32.502  1.00  0.00    -0.237 OA
ATOM     68  O   UNL A   1      52.316  25.185  32.540  1.00  0.00    -0.237 OA
ATOM     69  O   UNL A   1      53.027  26.289  30.454  1.00  0.00    -0.744 OA
ENDBRANCH  65  66
ENDBRANCH  39  60
ENDBRANCH  13  14
ENDBRANCH   6   8
ENDBRANCH   3   4
ENDBRANCH   2   3
ENDBRANCH   1   2
BRANCH   1  70
ATOM     70  C   UNL A   1      33.283  29.051  23.076  1.00  0.00     0.116 C 
BRANCH  70  71
ATOM     71  N   UNL A   1      32.002  29.450  22.505  1.00  0.00    -0.352 N 
ATOM     72  C   UNL A   1      30.829  28.736  22.431  1.00  0.00     0.251 C 
ATOM     73  H   UNL A   1      31.974  30.354  22.119  1.00  0.00     0.163 HD
ATOM     74  O   UNL A   1      29.876  29.153  21.781  1.00  0.00    -0.269 OA
BRANCH  72  75
ATOM     75  C   UNL A   1      30.723  27.446  23.138  1.00  0.00     0.043 A 
ATOM     76  C   UNL A   1      30.007  27.368  24.332  1.00  0.00     0.014 A 
ATOM     77  C   UNL A   1      31.338  26.310  22.603  1.00  0.00     0.062 A 
ATOM     78  C   UNL A   1      29.849  26.131  24.954  1.00  0.00     0.005 A 
ATOM     79  C   UNL A   1      31.136  25.064  23.191  1.00  0.00     0.143 A 
ATOM     80  C   UNL A   1      30.400  24.979  24.377  1.00  0.00     0.048 A 
BRANCH  79  81
ATOM     81  O   UNL A   1      31.615  23.884  22.669  1.00  0.00    -0.379 OA
BRANCH  81  82
ATOM     82  S   UNL A   1      33.222  23.571  22.676  1.00  0.00     0.339 S 
ATOM     83  O   UNL A   1      33.622  23.118  21.364  1.00  0.00    -0.181 OA
ATOM     84  O   UNL A   1      33.896  24.681  23.334  1.00  0.00    -0.181 OA
BRANCH  82  85
ATOM     85  C   UNL A   1      33.436  22.181  23.761  1.00  0.00     0.112 A 
ATOM     86  C   UNL A   1      34.249  22.272  24.893  1.00  0.00     0.024 A 
ATOM     87  C   UNL A   1      32.792  20.984  23.423  1.00  0.00     0.109 A 
ATOM     88  C   UNL A   1      34.419  21.147  25.704  1.00  0.00     0.009 A 
ATOM     89  C   UNL A   1      32.972  19.865  24.241  1.00  0.00     0.270 A 
ATOM     90  C   UNL A   1      33.785  19.942  25.382  1.00  0.00     0.086 A 
BRANCH  89  91
ATOM     91  N   UNL A   1      32.313  18.599  23.898  1.00  0.00     0.062 N 
ATOM     92  O   UNL A   1      32.169  18.335  22.695  1.00  0.00    -0.258 OA
ATOM     93  O   UNL A   1      31.936  17.876  24.829  1.00  0.00    -0.258 OA
ENDBRANCH  89  91
ENDBRANCH  82  85
ENDBRANCH  81  82
ENDBRANCH  79  81
ENDBRANCH  72  75
ENDBRANCH  70  71
ENDBRANCH   1  70
TORSDOF 18
ENDMDL
MODEL 2
REMARK VINA RESULT:     -11.2      0.711      8.046
REMARK SMILES O=C(NCCCCNC(=O)c1cccc(OS(=O)(=O)c2cccc([N+](=O)[O-])c2)c1)c1ccc(-c2c3nc(c(-c4ccc(S(=O)(=O)[O-])cc4)c4ccc([nH]4)c(-c4ccc(S(=O)(=O)[O-])cc4)c4nc(c(-c5ccc(S(=O)(=O)[O-])cc5)c5ccc2[nH]5)C=C4)C=C3)cc1
REMARK SMILES IDX 6 1 5 2 4 3 3 4 1 5 2 6 30 8 31 9 89 10 32 11 88 12 33 13
REMARK SMILES IDX 34 14 35 15 82 16 36 17 87 18 81 19 83 20 37 21 86 22 80 23
REMARK SMILES IDX 79 24 38 26 68 27 49 28 67 29 50 30 53 31 66 32 84 33 51 34
REMARK SMILES IDX 52 35 65 37 85 38 54 39 39 40 40 41 48 42 41 43 47 44 42 45
REMARK SMILES IDX 43 46 44 47 45 48 46 49 69 50 70 51 78 52 71 53 77 54 72 55
REMARK SMILES IDX 73 56 74 57 75 58 76 59 55 60 56 61 64 62 57 63 63 64 58 65
REMARK SMILES IDX 59 66 60 67 61 68 62 69 7 70 8 71 9 72 10 74 11 75 12 76
REMARK SMILES IDX 29 77 13 78 15 79 14 80 16 81 17 82 18 83 19 84 20 85 21 86
REMARK SMILES IDX 28 87 22 88 24 89 23 90 25 91 26 92 27 93
REMARK H PARENT 3 7 83 25 53 36 8 73
REMARK Flexibility Score: inf
ROOT
ATOM      1  C   UNL A   1      33.278  29.201  24.304  1.00  0.00     0.023 C 
ENDROOT
BRANCH   1   2
ATOM      2  C   UNL A   1      33.698  27.967  25.100  1.00  0.00     0.023 C 
BRANCH   2   3
ATOM      3  C   UNL A   1      34.164  28.243  26.522  1.00  0.00     0.116 C 
BRANCH   3   4
ATOM      4  N   UNL A   1      33.835  29.588  26.969  1.00  0.00    -0.352 N 
ATOM      5  O   UNL A   1      34.055  31.469  28.194  1.00  0.00    -0.269 OA
ATOM      6  C   UNL A   1      34.561  30.431  27.777  1.00  0.00     0.251 C 
ATOM      7  H   UNL A   1      32.973  29.942  26.650  1.00  0.00     0.163 HD
BRANCH   6   8
ATOM      8  C   UNL A   1      35.945  30.070  28.159  1.00  0.00     0.039 A 
ATOM      9  C   UNL A   1      36.996  30.234  27.252  1.00  0.00     0.014 A 
ATOM     10  C   UNL A   1      36.196  29.574  29.442  1.00  0.00     0.014 A 
ATOM     11  C   UNL A   1      38.269  29.784  27.582  1.00  0.00     0.010 A 
ATOM     12  C   UNL A   1      37.495  29.200  29.800  1.00  0.00     0.010 A 
ATOM     13  C   UNL A   1      38.539  29.284  28.866  1.00  0.00    -0.014 A 
BRANCH  13  14
ATOM     14  C   UNL A   1      39.940  28.965  29.238  1.00  0.00     0.031 A 
ATOM     15  C   UNL A   1      40.808  29.953  29.966  1.00  0.00     0.074 A 
ATOM     16  C   UNL A   1      40.418  27.746  28.917  1.00  0.00     0.049 A 
ATOM     17  N   UNL A   1      42.043  29.810  30.374  1.00  0.00    -0.248 NA
ATOM     18  C   UNL A   1      40.225  31.269  30.273  1.00  0.00     0.031 C 
ATOM     19  C   UNL A   1      39.671  26.711  28.193  1.00  0.00     0.029 A 
ATOM     20  N   UNL A   1      41.633  27.160  29.166  1.00  0.00    -0.354 N 
ATOM     21  C   UNL A   1      42.396  31.018  30.964  1.00  0.00     0.074 A 
ATOM     22  C   UNL A   1      41.246  31.890  30.853  1.00  0.00     0.031 C 
ATOM     23  C   UNL A   1      40.427  25.609  28.091  1.00  0.00     0.029 A 
ATOM     24  C   UNL A   1      41.732  25.876  28.684  1.00  0.00     0.049 A 
ATOM     25  H   UNL A   1      42.363  27.616  29.644  1.00  0.00     0.167 HD
ATOM     26  C   UNL A   1      43.570  31.363  31.545  1.00  0.00     0.031 A 
ATOM     27  C   UNL A   1      42.764  25.013  28.692  1.00  0.00     0.031 A 
ATOM     28  C   UNL A   1      44.706  30.482  31.661  1.00  0.00     0.049 A 
ATOM     29  C   UNL A   1      44.057  25.435  29.324  1.00  0.00     0.074 A 
ATOM     30  C   UNL A   1      45.918  30.724  32.286  1.00  0.00     0.029 A 
ATOM     31  N   UNL A   1      44.777  29.201  31.136  1.00  0.00    -0.354 N 
ATOM     32  N   UNL A   1      44.347  26.561  29.930  1.00  0.00    -0.248 NA
ATOM     33  C   UNL A   1      45.165  24.471  29.271  1.00  0.00     0.031 C 
ATOM     34  C   UNL A   1      46.740  29.609  32.091  1.00  0.00     0.029 A 
ATOM     35  C   UNL A   1      46.023  28.654  31.391  1.00  0.00     0.049 A 
ATOM     36  H   UNL A   1      44.048  28.747  30.654  1.00  0.00     0.167 HD
ATOM     37  C   UNL A   1      45.670  26.440  30.334  1.00  0.00     0.074 A 
ATOM     38  C   UNL A   1      46.113  25.121  29.932  1.00  0.00     0.031 C 
ATOM     39  C   UNL A   1      46.451  27.345  30.973  1.00  0.00     0.031 A 
BRANCH  26  40
ATOM     40  C   UNL A   1      43.715  32.759  32.090  1.00  0.00    -0.014 A 
ATOM     41  C   UNL A   1      44.440  33.741  31.393  1.00  0.00     0.010 A 
ATOM     42  C   UNL A   1      43.023  33.119  33.261  1.00  0.00     0.010 A 
ATOM     43  C   UNL A   1      44.477  35.058  31.865  1.00  0.00     0.020 A 
ATOM     44  C   UNL A   1      43.043  34.439  33.725  1.00  0.00     0.020 A 
ATOM     45  C   UNL A   1      43.775  35.399  33.025  1.00  0.00     0.054 A 
BRANCH  45  46
ATOM     46  S   UNL A   1      43.787  37.129  33.576  1.00  0.00     0.124 S 
ATOM     47  O   UNL A   1      45.146  37.271  34.095  1.00  0.00    -0.237 OA
ATOM     48  O   UNL A   1      43.508  37.860  32.342  1.00  0.00    -0.237 OA
ATOM     49  O   UNL A   1      42.728  37.182  34.580  1.00  0.00    -0.744 OA
ENDBRANCH  45  46
ENDBRANCH  26  40
BRANCH  27  50
ATOM     50  C   UNL A   1      42.626  23.685  28.038  1.00  0.00    -0.014 A 
ATOM     51  C   UNL A   1      43.054  23.484  26.716  1.00  0.00     0.010 A 
ATOM     52  C   UNL A   1      42.061  22.608  28.748  1.00  0.00     0.010 A 
ATOM     53  C   UNL A   1      42.894  22.237  26.105  1.00  0.00     0.020 A 
ATOM     54  C   UNL A   1      41.926  21.354  28.151  1.00  0.00     0.020 A 
ATOM     55  C   UNL A   1      42.327  21.181  26.825  1.00  0.00     0.054 A 
BRANCH  55  56
ATOM     56  S   UNL A   1      42.151  19.562  26.026  1.00  0.00     0.124 S 
ATOM     57  O   UNL A   1      40.710  19.492  25.806  1.00  0.00    -0.237 OA
ATOM     58  O   UNL A   1      42.968  19.708  24.825  1.00  0.00    -0.237 OA
ATOM     59  O   UNL A   1      42.679  18.633  27.022  1.00  0.00    -0.744 OA
ENDBRANCH  55  56
ENDBRANCH  27  50
BRANCH  39  60
ATOM     60  C   UNL A   1      47.862  26.929  31.279  1.00  0.00    -0.014 A 
ATOM     61  C   UNL A   1      48.887  27.103  30.333  1.00  0.00     0.010 A 
ATOM     62  C   UNL A   1      48.174  26.388  32.540  1.00  0.00     0.010 A 
ATOM     63  C   UNL A   1      50.195  26.712  30.629  1.00  0.00     0.020 A 
ATOM     64  C   UNL A   1      49.485  26.019  32.849  1.00  0.00     0.020 A 
ATOM     65  C   UNL A   1      50.484  26.169  31.884  1.00  0.00     0.054 A 
BRANCH  65  66
ATOM     66  S   UNL A   1      52.196  25.700  32.259  1.00  0.00     0.124 S 
ATOM     67  O   UNL A   1      52.360  26.213  33.616  1.00  0.00    -0.237 OA
ATOM     68  O   UNL A   1      52.167  24.245  32.137  1.00  0.00    -0.237 OA
ATOM     69  O   UNL A   1      52.976  26.390  31.234  1.00  0.00    -0.744 OA
ENDBRANCH  65  66
ENDBRANCH  39  60
ENDBRANCH  13  14
ENDBRANCH   6   8
ENDBRANCH   3   4
ENDBRANCH   2   3
ENDBRANCH   1   2
BRANCH   1  70
ATOM     70  C   UNL A   1      33.116  28.980  22.803  1.00  0.00     0.116 C 
BRANCH  70  71
ATOM     71  N   UNL A   1      31.774  29.298  22.330  1.00  0.00    -0.352 N 
ATOM     72  C   UNL A   1      30.629  28.542  22.405  1.00  0.00     0.251 C 
ATOM     73  H   UNL A   1      31.675  30.176  21.897  1.00  0.00     0.163 HD
ATOM     74  O   UNL A   1      29.606  28.884  21.823  1.00  0.00    -0.269 OA
BRANCH  72  75
ATOM     75  C   UNL A   1      30.639  27.294  23.193  1.00  0.00     0.043 A 
ATOM     76  C   UNL A   1      29.920  27.223  24.385  1.00  0.00     0.014 A 
ATOM     77  C   UNL A   1      31.366  26.191  22.734  1.00  0.00     0.062 A 
ATOM     78  C   UNL A   1      29.875  26.017  25.084  1.00  0.00     0.005 A 
ATOM     79  C   UNL A   1      31.276  24.970  23.398  1.00  0.00     0.143 A 
ATOM     80  C   UNL A   1      30.540  24.890  24.584  1.00  0.00     0.048 A 
BRANCH  79  81
ATOM     81  O   UNL A   1      31.871  23.812  22.955  1.00  0.00    -0.379 OA
BRANCH  81  82
ATOM     82  S   UNL A   1      33.454  23.805  22.536  1.00  0.00     0.339 S 
ATOM     83  O   UNL A   1      33.578  23.382  21.160  1.00  0.00    -0.181 OA
ATOM     84  O   UNL A   1      34.051  25.046  23.004  1.00  0.00    -0.181 OA
BRANCH  82  85
ATOM     85  C   UNL A   1      34.205  22.524  23.512  1.00  0.00     0.112 A 
ATOM     86  C   UNL A   1      35.547  22.602  23.889  1.00  0.00     0.024 A 
ATOM     87  C   UNL A   1      33.415  21.421  23.859  1.00  0.00     0.109 A 
ATOM     88  C   UNL A   1      36.110  21.559  24.629  1.00  0.00     0.009 A 
ATOM     89  C   UNL A   1      33.991  20.383  24.597  1.00  0.00     0.270 A 
ATOM     90  C   UNL A   1      35.337  20.447  24.983  1.00  0.00     0.086 A 
BRANCH  89  91
ATOM     91  N   UNL A   1      33.181  19.213  24.962  1.00  0.00     0.062 N 
ATOM     92  O   UNL A   1      32.011  19.414  25.317  1.00  0.00    -0.258 OA
ATOM     93  O   UNL A   1      33.718  18.100  24.896  1.00  0.00    -0.258 OA
ENDBRANCH  89  91
ENDBRANCH  82  85
ENDBRANCH  81  82
ENDBRANCH  79  81
ENDBRANCH  72  75
ENDBRANCH  70  71
ENDBRANCH   1  70
TORSDOF 18
ENDMDL
MODEL 3
REMARK VINA RESULT:     -11.0      4.670     11.645
REMARK SMILES O=C(NCCCCNC(=O)c1cccc(OS(=O)(=O)c2cccc([N+](=O)[O-])c2)c1)c1ccc(-c2c3nc(c(-c4ccc(S(=O)(=O)[O-])cc4)c4ccc([nH]4)c(-c4ccc(S(=O)(=O)[O-])cc4)c4nc(c(-c5ccc(S(=O)(=O)[O-])cc5)c5ccc2[nH]5)C=C4)C=C3)cc1
REMARK SMILES IDX 6 1 5 2 4 3 3 4 1 5 2 6 30 8 31 9 89 10 32 11 88 12 33 13
REMARK SMILES IDX 34 14 35 15 82 16 36 17 87 18 81 19 83 20 37 21 86 22 80 23
REMARK SMILES IDX 79 24 38 26 68 27 49 28 67 29 50 30 53 31 66 32 84 33 51 34
REMARK SMILES IDX 52 35 65 37 85 38 54 39 39 40 40 41 48 42 41 43 47 44 42 45
REMARK SMILES IDX 43 46 44 47 45 48 46 49 69 50 70 51 78 52 71 53 77 54 72 55
REMARK SMILES IDX 73 56 74 57 75 58 76 59 55 60 56 61 64 62 57 63 63 64 58 65
REMARK SMILES IDX 59 66 60 67 61 68 62 69 7 70 8 71 9 72 10 74 11 75 12 76
REMARK SMILES IDX 29 77 13 78 15 79 14 80 16 81 17 82 18 83 19 84 20 85 21 86
REMARK SMILES IDX 28 87 22 88 24 89 23 90 25 91 26 92 27 93
REMARK H PARENT 3 7 83 25 53 36 8 73
REMARK Flexibility Score: inf
ROOT
ATOM      1  C   UNL A   1      42.473  20.223  26.774  1.00  0.00     0.023 C 
ENDROOT
BRANCH   1   2
ATOM      2  C   UNL A   1      41.789  21.554  26.470  1.00  0.00     0.023 C 
BRANCH   2   3
ATOM      3  C   UNL A   1      40.452  21.766  27.165  1.00  0.00     0.116 C 
BRANCH   3   4
ATOM      4  N   UNL A   1      39.384  22.106  26.237  1.00  0.00    -0.352 N 
ATOM      5  O   UNL A   1      37.731  23.368  25.364  1.00  0.00    -0.269 OA
ATOM      6  C   UNL A   1      38.726  23.303  26.081  1.00  0.00     0.251 C 
ATOM      7  H   UNL A   1      39.094  21.380  25.640  1.00  0.00     0.163 HD
BRANCH   6   8
ATOM      8  C   UNL A   1      39.208  24.506  26.797  1.00  0.00     0.039 A 
ATOM      9  C   UNL A   1      39.993  25.456  26.138  1.00  0.00     0.014 A 
ATOM     10  C   UNL A   1      38.860  24.691  28.138  1.00  0.00     0.014 A 
ATOM     11  C   UNL A   1      40.535  26.519  26.851  1.00  0.00     0.010 A 
ATOM     12  C   UNL A   1      39.339  25.807  28.832  1.00  0.00     0.010 A 
ATOM     13  C   UNL A   1      40.195  26.720  28.199  1.00  0.00    -0.014 A 
BRANCH  13  14
ATOM     14  C   UNL A   1      40.659  27.952  28.885  1.00  0.00     0.031 A 
ATOM     15  C   UNL A   1      39.739  29.116  29.125  1.00  0.00     0.074 A 
ATOM     16  C   UNL A   1      41.939  27.997  29.308  1.00  0.00     0.049 A 
ATOM     17  N   UNL A   1      39.995  30.250  29.726  1.00  0.00    -0.248 NA
ATOM     18  C   UNL A   1      38.359  29.003  28.625  1.00  0.00     0.031 C 
ATOM     19  C   UNL A   1      42.929  26.933  29.113  1.00  0.00     0.029 A 
ATOM     20  N   UNL A   1      42.625  28.963  29.998  1.00  0.00    -0.354 N 
ATOM     21  C   UNL A   1      38.823  30.994  29.661  1.00  0.00     0.074 A 
ATOM     22  C   UNL A   1      37.854  30.187  28.950  1.00  0.00     0.031 C 
ATOM     23  C   UNL A   1      44.080  27.286  29.702  1.00  0.00     0.029 A 
ATOM     24  C   UNL A   1      43.932  28.624  30.261  1.00  0.00     0.049 A 
ATOM     25  H   UNL A   1      42.222  29.816  30.278  1.00  0.00     0.167 HD
ATOM     26  C   UNL A   1      38.582  32.234  30.150  1.00  0.00     0.031 A 
ATOM     27  C   UNL A   1      44.915  29.319  30.862  1.00  0.00     0.031 A 
ATOM     28  C   UNL A   1      39.552  33.025  30.867  1.00  0.00     0.049 A 
ATOM     29  C   UNL A   1      44.620  30.698  31.374  1.00  0.00     0.074 A 
ATOM     30  C   UNL A   1      39.380  34.268  31.453  1.00  0.00     0.029 A 
ATOM     31  N   UNL A   1      40.870  32.659  31.088  1.00  0.00    -0.354 N 
ATOM     32  N   UNL A   1      43.486  31.357  31.354  1.00  0.00    -0.248 NA
ATOM     33  C   UNL A   1      45.737  31.430  31.986  1.00  0.00     0.031 C 
ATOM     34  C   UNL A   1      40.609  34.677  31.980  1.00  0.00     0.029 A 
ATOM     35  C   UNL A   1      41.533  33.667  31.769  1.00  0.00     0.049 A 
ATOM     36  H   UNL A   1      41.275  31.807  30.804  1.00  0.00     0.167 HD
ATOM     37  C   UNL A   1      43.753  32.581  31.954  1.00  0.00     0.074 A 
ATOM     38  C   UNL A   1      45.145  32.558  32.353  1.00  0.00     0.031 C 
ATOM     39  C   UNL A   1      42.921  33.632  32.148  1.00  0.00     0.031 A 
BRANCH  26  40
ATOM     40  C   UNL A   1      37.224  32.842  29.919  1.00  0.00    -0.014 A 
ATOM     41  C   UNL A   1      36.230  32.803  30.913  1.00  0.00     0.010 A 
ATOM     42  C   UNL A   1      36.979  33.559  28.733  1.00  0.00     0.010 A 
ATOM     43  C   UNL A   1      35.012  33.462  30.719  1.00  0.00     0.020 A 
ATOM     44  C   UNL A   1      35.769  34.235  28.545  1.00  0.00     0.020 A 
ATOM     45  C   UNL A   1      34.791  34.177  29.538  1.00  0.00     0.054 A 
BRANCH  45  46
ATOM     46  S   UNL A   1      33.227  35.078  29.343  1.00  0.00     0.124 S 
ATOM     47  O   UNL A   1      33.686  36.380  28.865  1.00  0.00    -0.237 OA
ATOM     48  O   UNL A   1      32.510  34.267  28.361  1.00  0.00    -0.237 OA
ATOM     49  O   UNL A   1      32.653  35.074  30.686  1.00  0.00    -0.744 OA
ENDBRANCH  45  46
ENDBRANCH  26  40
BRANCH  27  50
ATOM     50  C   UNL A   1      46.279  28.737  30.967  1.00  0.00    -0.014 A 
ATOM     51  C   UNL A   1      47.214  28.899  29.933  1.00  0.00     0.010 A 
ATOM     52  C   UNL A   1      46.646  28.012  32.117  1.00  0.00     0.010 A 
ATOM     53  C   UNL A   1      48.484  28.324  30.033  1.00  0.00     0.020 A 
ATOM     54  C   UNL A   1      47.923  27.461  32.234  1.00  0.00     0.020 A 
ATOM     55  C   UNL A   1      48.829  27.605  31.182  1.00  0.00     0.054 A 
BRANCH  55  56
ATOM     56  S   UNL A   1      50.490  26.887  31.308  1.00  0.00     0.124 S 
ATOM     57  O   UNL A   1      50.886  26.800  29.906  1.00  0.00    -0.237 OA
ATOM     58  O   UNL A   1      51.206  27.876  32.109  1.00  0.00    -0.237 OA
ATOM     59  O   UNL A   1      50.256  25.607  31.974  1.00  0.00    -0.744 OA
ENDBRANCH  55  56
ENDBRANCH  27  50
BRANCH  39  60
ATOM     60  C   UNL A   1      43.499  34.840  32.829  1.00  0.00    -0.014 A 
ATOM     61  C   UNL A   1      43.529  34.932  34.232  1.00  0.00     0.010 A 
ATOM     62  C   UNL A   1      44.050  35.881  32.060  1.00  0.00     0.010 A 
ATOM     63  C   UNL A   1      44.068  36.061  34.854  1.00  0.00     0.020 A 
ATOM     64  C   UNL A   1      44.612  37.000  32.679  1.00  0.00     0.020 A 
ATOM     65  C   UNL A   1      44.603  37.089  34.073  1.00  0.00     0.054 A 
BRANCH  65  66
ATOM     66  S   UNL A   1      45.330  38.529  34.902  1.00  0.00     0.124 S 
ATOM     67  O   UNL A   1      46.600  38.676  34.199  1.00  0.00    -0.237 OA
ATOM     68  O   UNL A   1      44.346  39.579  34.649  1.00  0.00    -0.237 OA
ATOM     69  O   UNL A   1      45.435  38.107  36.298  1.00  0.00    -0.744 OA
ENDBRANCH  65  66
ENDBRANCH  39  60
ENDBRANCH  13  14
ENDBRANCH   6   8
ENDBRANCH   3   4
ENDBRANCH   2   3
ENDBRANCH   1   2
BRANCH   1  70
ATOM     70  C   UNL A   1      42.489  19.224  25.620  1.00  0.00     0.116 C 
BRANCH  70  71
ATOM     71  N   UNL A   1      43.735  18.471  25.546  1.00  0.00    -0.352 N 
ATOM     72  C   UNL A   1      44.968  18.881  25.098  1.00  0.00     0.251 C 
ATOM     73  H   UNL A   1      43.686  17.540  25.861  1.00  0.00     0.163 HD
ATOM     74  O   UNL A   1      45.886  18.082  24.955  1.00  0.00    -0.269 OA
BRANCH  72  75
ATOM     75  C   UNL A   1      45.181  20.305  24.775  1.00  0.00     0.043 A 
ATOM     76  C   UNL A   1      44.579  20.856  23.645  1.00  0.00     0.014 A 
ATOM     77  C   UNL A   1      45.981  21.091  25.609  1.00  0.00     0.062 A 
ATOM     78  C   UNL A   1      44.725  22.218  23.389  1.00  0.00     0.005 A 
ATOM     79  C   UNL A   1      46.082  22.463  25.389  1.00  0.00     0.143 A 
ATOM     80  C   UNL A   1      45.463  23.022  24.267  1.00  0.00     0.048 A 
BRANCH  79  81
ATOM     81  O   UNL A   1      46.759  23.324  26.221  1.00  0.00    -0.379 OA
BRANCH  81  82
ATOM     82  S   UNL A   1      45.954  24.157  27.379  1.00  0.00     0.339 S 
ATOM     83  O   UNL A   1      44.771  23.419  27.758  1.00  0.00    -0.181 OA
ATOM     84  O   UNL A   1      46.922  24.601  28.371  1.00  0.00    -0.181 OA
BRANCH  82  85
ATOM     85  C   UNL A   1      45.376  25.640  26.591  1.00  0.00     0.112 A 
ATOM     86  C   UNL A   1      44.095  25.708  26.040  1.00  0.00     0.024 A 
ATOM     87  C   UNL A   1      46.260  26.723  26.509  1.00  0.00     0.109 A 
ATOM     88  C   UNL A   1      43.688  26.881  25.399  1.00  0.00     0.009 A 
ATOM     89  C   UNL A   1      45.842  27.890  25.864  1.00  0.00     0.270 A 
ATOM     90  C   UNL A   1      44.558  27.973  25.307  1.00  0.00     0.086 A 
BRANCH  89  91
ATOM     91  N   UNL A   1      46.759  29.033  25.760  1.00  0.00     0.062 N 
ATOM     92  O   UNL A   1      47.938  28.855  26.100  1.00  0.00    -0.258 OA
ATOM     93  O   UNL A   1      46.298  30.104  25.345  1.00  0.00    -0.258 OA
ENDBRANCH  89  91
ENDBRANCH  82  85
ENDBRANCH  81  82
ENDBRANCH  79  81
ENDBRANCH  72  75
ENDBRANCH  70  71
ENDBRANCH   1  70
TORSDOF 18
ENDMDL
