MODEL 1
REMARK VINA RESULT:     -12.6      0.000      0.000
REMARK SMILES NS(=O)(=O)c1ccc(-n2nc(C(F)F)cc2-c2ccc(C(=O)NCCCCNC(=O)c3ccc(-c4c5nc(c(-c6ccc(S(=O)(=O)[O-])cc6)c6ccc([nH]6)c(-c6ccc(S(=O)(=O)[O-])cc6)c6nc(c(-c7ccc(S(=O)(=O)[O-])cc7)c7ccc4[nH]7)C=C6)C=C5)cc3)cc2)cc1
REMARK SMILES IDX 25 1 24 2 23 3 21 4 22 5 20 7 17 8 18 9 92 10 19 11 91 12
REMARK SMILES IDX 16 13 9 14 10 15 11 16 15 17 8 18 5 19 6 20 94 21 7 22 93 23
REMARK SMILES IDX 2 24 3 25 4 26 1 27 12 30 13 31 14 32 26 33 27 34 28 35
REMARK SMILES IDX 29 36 30 38 31 39 32 40 90 41 33 42 89 43 34 44 35 45 36 46
REMARK SMILES IDX 83 47 37 48 88 49 82 50 84 51 38 52 87 53 81 54 80 55 39 57
REMARK SMILES IDX 69 58 50 59 68 60 51 61 54 62 67 63 85 64 52 65 53 66 66 68
REMARK SMILES IDX 86 69 55 70 40 71 41 72 49 73 42 74 48 75 43 76 44 77 45 78
REMARK SMILES IDX 46 79 47 80 70 81 71 82 79 83 72 84 78 85 73 86 74 87 75 88
REMARK SMILES IDX 76 89 77 90 56 91 57 92 65 93 58 94 64 95 59 96 60 97 61 98
REMARK SMILES IDX 62 99 63 100
REMARK H PARENT 23 6 1 28 1 29 28 37 84 56 54 67
REMARK Flexibility Score: inf
ROOT
ATOM      1  C   UNL A   1      37.341  30.354  29.326  1.00  0.00     0.023 C 
ENDROOT
BRANCH   1   2
ATOM      2  C   UNL A   1      36.155  29.673  28.627  1.00  0.00     0.116 C 
BRANCH   2   3
ATOM      3  N   UNL A   1      35.110  30.631  28.320  1.00  0.00    -0.352 N 
ATOM      4  C   UNL A   1      33.935  30.527  27.618  1.00  0.00     0.251 C 
ATOM      5  O   UNL A   1      33.248  31.541  27.500  1.00  0.00    -0.269 OA
ATOM      6  H   UNL A   1      35.275  31.530  28.686  1.00  0.00     0.163 HD
BRANCH   4   7
ATOM      7  C   UNL A   1      33.439  29.249  27.032  1.00  0.00     0.039 A 
ATOM      8  C   UNL A   1      32.600  26.870  25.780  1.00  0.00     0.000 A 
ATOM      9  C   UNL A   1      33.798  27.482  25.394  1.00  0.00     0.011 A 
ATOM     10  C   UNL A   1      31.841  27.434  26.802  1.00  0.00     0.011 A 
ATOM     11  C   UNL A   1      34.213  28.665  26.015  1.00  0.00     0.014 A 
ATOM     12  C   UNL A   1      32.281  28.589  27.445  1.00  0.00     0.014 A 
BRANCH   8  13
ATOM     13  C   UNL A   1      32.161  25.616  25.189  1.00  0.00     0.075 A 
ATOM     14  N   UNL A   1      31.133  25.494  24.267  1.00  0.00    -0.233 N 
ATOM     15  N   UNL A   1      30.839  24.196  24.004  1.00  0.00    -0.166 NA
ATOM     16  C   UNL A   1      31.812  23.494  24.618  1.00  0.00     0.129 A 
ATOM     17  C   UNL A   1      32.626  24.338  25.408  1.00  0.00     0.060 A 
BRANCH  14  18
ATOM     18  C   UNL A   1      30.420  26.549  23.645  1.00  0.00     0.065 A 
ATOM     19  C   UNL A   1      29.103  28.801  22.698  1.00  0.00     0.082 A 
ATOM     20  C   UNL A   1      30.438  28.597  22.350  1.00  0.00     0.024 A 
ATOM     21  C   UNL A   1      28.409  27.867  23.479  1.00  0.00     0.024 A 
ATOM     22  C   UNL A   1      31.101  27.471  22.834  1.00  0.00     0.030 A 
ATOM     23  C   UNL A   1      29.063  26.718  23.932  1.00  0.00     0.030 A 
BRANCH  19  24
ATOM     24  S   UNL A   1      28.278  30.256  22.133  1.00  0.00     0.238 S 
ATOM     25  O   UNL A   1      27.281  30.653  23.107  1.00  0.00    -0.207 OA
ATOM     26  O   UNL A   1      27.988  30.117  20.730  1.00  0.00    -0.207 OA
BRANCH  24  27
ATOM     27  N   UNL A   1      29.478  31.427  22.251  1.00  0.00    -0.225 NA
ATOM     28  H   UNL A   1      30.336  31.001  22.600  1.00  0.00     0.137 HD
ATOM     29  H   UNL A   1      29.176  32.160  22.892  1.00  0.00     0.137 HD
ENDBRANCH  24  27
ENDBRANCH  19  24
ENDBRANCH  14  18
BRANCH  16  30
ATOM     30  C   UNL A   1      31.984  22.014  24.456  1.00  0.00     0.393 C 
ATOM     31  F   UNL A   1      33.283  21.621  24.546  1.00  0.00    -0.203 F 
ATOM     32  F   UNL A   1      31.304  21.328  25.420  1.00  0.00    -0.203 F 
ENDBRANCH  16  30
ENDBRANCH   8  13
ENDBRANCH   4   7
ENDBRANCH   2   3
ENDBRANCH   1   2
BRANCH   1  33
ATOM     33  C   UNL A   1      36.981  31.559  30.205  1.00  0.00     0.023 C 
BRANCH  33  34
ATOM     34  C   UNL A   1      36.013  31.251  31.340  1.00  0.00     0.116 C 
BRANCH  34  35
ATOM     35  N   UNL A   1      36.316  31.990  32.572  1.00  0.00    -0.352 N 
ATOM     36  C   UNL A   1      37.179  31.623  33.594  1.00  0.00     0.251 C 
ATOM     37  H   UNL A   1      35.849  32.849  32.688  1.00  0.00     0.163 HD
ATOM     38  O   UNL A   1      37.068  32.089  34.721  1.00  0.00    -0.269 OA
BRANCH  36  39
ATOM     39  C   UNL A   1      38.264  30.686  33.265  1.00  0.00     0.039 A 
ATOM     40  C   UNL A   1      38.062  29.326  33.016  1.00  0.00     0.014 A 
ATOM     41  C   UNL A   1      39.520  31.262  33.127  1.00  0.00     0.014 A 
ATOM     42  C   UNL A   1      39.140  28.570  32.551  1.00  0.00     0.010 A 
ATOM     43  C   UNL A   1      40.486  30.587  32.444  1.00  0.00     0.010 A 
ATOM     44  C   UNL A   1      40.348  29.221  32.259  1.00  0.00    -0.014 A 
BRANCH  44  45
ATOM     45  C   UNL A   1      41.507  28.534  31.706  1.00  0.00     0.031 A 
ATOM     46  C   UNL A   1      42.587  28.256  32.686  1.00  0.00     0.074 A 
ATOM     47  C   UNL A   1      41.457  27.943  30.490  1.00  0.00     0.049 A 
ATOM     48  N   UNL A   1      43.743  28.823  32.775  1.00  0.00    -0.248 NA
ATOM     49  C   UNL A   1      42.289  27.343  33.805  1.00  0.00     0.031 C 
ATOM     50  C   UNL A   1      40.293  27.807  29.594  1.00  0.00     0.029 A 
ATOM     51  N   UNL A   1      42.402  27.213  29.844  1.00  0.00    -0.354 N 
ATOM     52  C   UNL A   1      44.412  28.160  33.802  1.00  0.00     0.074 A 
ATOM     53  C   UNL A   1      43.405  27.434  34.532  1.00  0.00     0.031 C 
ATOM     54  C   UNL A   1      40.530  26.846  28.674  1.00  0.00     0.029 A 
ATOM     55  C   UNL A   1      41.923  26.462  28.775  1.00  0.00     0.049 A 
ATOM     56  H   UNL A   1      43.350  27.214  30.111  1.00  0.00     0.167 HD
ATOM     57  C   UNL A   1      45.768  28.020  33.786  1.00  0.00     0.031 A 
ATOM     58  C   UNL A   1      42.628  25.588  28.017  1.00  0.00     0.031 A 
ATOM     59  C   UNL A   1      46.348  28.794  32.720  1.00  0.00     0.049 A 
ATOM     60  C   UNL A   1      44.055  25.945  28.181  1.00  0.00     0.074 A 
ATOM     61  C   UNL A   1      46.615  30.122  32.479  1.00  0.00     0.029 A 
ATOM     62  N   UNL A   1      46.351  28.144  31.510  1.00  0.00    -0.354 N 
ATOM     63  N   UNL A   1      44.546  27.102  27.826  1.00  0.00    -0.248 NA
ATOM     64  C   UNL A   1      44.879  25.176  29.103  1.00  0.00     0.031 C 
ATOM     65  C   UNL A   1      46.525  30.284  31.064  1.00  0.00     0.029 A 
ATOM     66  C   UNL A   1      46.270  29.043  30.479  1.00  0.00     0.049 A 
ATOM     67  H   UNL A   1      46.404  27.167  31.399  1.00  0.00     0.167 HD
ATOM     68  C   UNL A   1      45.503  27.384  28.784  1.00  0.00     0.074 A 
ATOM     69  C   UNL A   1      45.779  26.107  29.433  1.00  0.00     0.031 C 
ATOM     70  C   UNL A   1      45.761  28.667  29.172  1.00  0.00     0.031 A 
BRANCH  57  71
ATOM     71  C   UNL A   1      46.527  26.854  34.384  1.00  0.00    -0.014 A 
ATOM     72  C   UNL A   1      46.717  25.695  33.602  1.00  0.00     0.010 A 
ATOM     73  C   UNL A   1      46.821  26.744  35.759  1.00  0.00     0.010 A 
ATOM     74  C   UNL A   1      47.136  24.483  34.173  1.00  0.00     0.020 A 
ATOM     75  C   UNL A   1      47.273  25.552  36.333  1.00  0.00     0.020 A 
ATOM     76  C   UNL A   1      47.403  24.420  35.540  1.00  0.00     0.054 A 
BRANCH  76  77
ATOM     77  S   UNL A   1      47.864  22.836  36.284  1.00  0.00     0.124 S 
ATOM     78  O   UNL A   1      47.469  21.886  35.249  1.00  0.00    -0.237 OA
ATOM     79  O   UNL A   1      49.302  22.995  36.484  1.00  0.00    -0.237 OA
ATOM     80  O   UNL A   1      47.071  22.791  37.511  1.00  0.00    -0.744 OA
ENDBRANCH  76  77
ENDBRANCH  57  71
BRANCH  58  81
ATOM     81  C   UNL A   1      42.175  24.303  27.433  1.00  0.00    -0.014 A 
ATOM     82  C   UNL A   1      42.708  23.818  26.225  1.00  0.00     0.010 A 
ATOM     83  C   UNL A   1      41.429  23.407  28.229  1.00  0.00     0.010 A 
ATOM     84  C   UNL A   1      42.556  22.469  25.857  1.00  0.00     0.020 A 
ATOM     85  C   UNL A   1      41.277  22.061  27.869  1.00  0.00     0.020 A 
ATOM     86  C   UNL A   1      41.861  21.592  26.694  1.00  0.00     0.054 A 
BRANCH  86  87
ATOM     87  S   UNL A   1      41.824  19.815  26.298  1.00  0.00     0.124 S 
ATOM     88  O   UNL A   1      40.425  19.609  25.934  1.00  0.00    -0.237 OA
ATOM     89  O   UNL A   1      42.782  19.715  25.202  1.00  0.00    -0.237 OA
ATOM     90  O   UNL A   1      42.240  19.176  27.545  1.00  0.00    -0.744 OA
ENDBRANCH  86  87
ENDBRANCH  58  81
BRANCH  70  91
ATOM     91  C   UNL A   1      45.368  29.784  28.240  1.00  0.00    -0.014 A 
ATOM     92  C   UNL A   1      44.148  30.485  28.294  1.00  0.00     0.010 A 
ATOM     93  C   UNL A   1      46.352  30.216  27.334  1.00  0.00     0.010 A 
ATOM     94  C   UNL A   1      43.923  31.589  27.453  1.00  0.00     0.020 A 
ATOM     95  C   UNL A   1      46.141  31.319  26.508  1.00  0.00     0.020 A 
ATOM     96  C   UNL A   1      44.925  31.998  26.565  1.00  0.00     0.054 A 
BRANCH  96  97
ATOM     97  S   UNL A   1      44.657  33.452  25.510  1.00  0.00     0.124 S 
ATOM     98  O   UNL A   1      43.714  34.244  26.295  1.00  0.00    -0.237 OA
ATOM     99  O   UNL A   1      46.000  34.015  25.384  1.00  0.00    -0.237 OA
ATOM    100  O   UNL A   1      44.113  32.890  24.274  1.00  0.00    -0.744 OA
ENDBRANCH  96  97
ENDBRANCH  70  91
ENDBRANCH  44  45
ENDBRANCH  36  39
ENDBRANCH  34  35
ENDBRANCH  33  34
ENDBRANCH   1  33
TORSDOF 19
ENDMDL
MODEL 2
REMARK VINA RESULT:     -12.5      3.259      5.737
REMARK SMILES NS(=O)(=O)c1ccc(-n2nc(C(F)F)cc2-c2ccc(C(=O)NCCCCNC(=O)c3ccc(-c4c5nc(c(-c6ccc(S(=O)(=O)[O-])cc6)c6ccc([nH]6)c(-c6ccc(S(=O)(=O)[O-])cc6)c6nc(c(-c7ccc(S(=O)(=O)[O-])cc7)c7ccc4[nH]7)C=C6)C=C5)cc3)cc2)cc1
REMARK SMILES IDX 25 1 24 2 23 3 21 4 22 5 20 7 17 8 18 9 92 10 19 11 91 12
REMARK SMILES IDX 16 13 9 14 10 15 11 16 15 17 8 18 5 19 6 20 94 21 7 22 93 23
REMARK SMILES IDX 2 24 3 25 4 26 1 27 12 30 13 31 14 32 26 33 27 34 28 35
REMARK SMILES IDX 29 36 30 38 31 39 32 40 90 41 33 42 89 43 34 44 35 45 36 46
REMARK SMILES IDX 83 47 37 48 88 49 82 50 84 51 38 52 87 53 81 54 80 55 39 57
REMARK SMILES IDX 69 58 50 59 68 60 51 61 54 62 67 63 85 64 52 65 53 66 66 68
REMARK SMILES IDX 86 69 55 70 40 71 41 72 49 73 42 74 48 75 43 76 44 77 45 78
REMARK SMILES IDX 46 79 47 80 70 81 71 82 79 83 72 84 78 85 73 86 74 87 75 88
REMARK SMILES IDX 76 89 77 90 56 91 57 92 65 93 58 94 64 95 59 96 60 97 61 98
REMARK SMILES IDX 62 99 63 100
REMARK H PARENT 23 6 1 28 1 29 28 37 84 56 54 67
REMARK Flexibility Score: inf
ROOT
ATOM      1  C   UNL A   1      31.612  28.622  25.923  1.00  0.00     0.023 C 
ENDROOT
BRANCH   1   2
ATOM      2  C   UNL A   1      31.209  27.151  26.095  1.00  0.00     0.116 C 
BRANCH   2   3
ATOM      3  N   UNL A   1      30.921  26.535  24.815  1.00  0.00    -0.352 N 
ATOM      4  C   UNL A   1      31.606  25.626  24.048  1.00  0.00     0.251 C 
ATOM      5  O   UNL A   1      31.113  25.300  22.969  1.00  0.00    -0.269 OA
ATOM      6  H   UNL A   1      30.067  26.824  24.417  1.00  0.00     0.163 HD
BRANCH   4   7
ATOM      7  C   UNL A   1      32.886  24.992  24.476  1.00  0.00     0.039 A 
ATOM      8  C   UNL A   1      35.312  23.715  25.122  1.00  0.00     0.000 A 
ATOM      9  C   UNL A   1      34.975  23.946  23.784  1.00  0.00     0.011 A 
ATOM     10  C   UNL A   1      34.451  24.143  26.129  1.00  0.00     0.011 A 
ATOM     11  C   UNL A   1      33.768  24.578  23.464  1.00  0.00     0.014 A 
ATOM     12  C   UNL A   1      33.271  24.809  25.805  1.00  0.00     0.014 A 
BRANCH   8  13
ATOM     13  C   UNL A   1      36.578  23.103  25.493  1.00  0.00     0.075 A 
ATOM     14  N   UNL A   1      36.815  21.738  25.531  1.00  0.00    -0.233 N 
ATOM     15  N   UNL A   1      38.031  21.448  26.058  1.00  0.00    -0.166 NA
ATOM     16  C   UNL A   1      38.644  22.642  26.178  1.00  0.00     0.129 A 
ATOM     17  C   UNL A   1      37.755  23.702  25.885  1.00  0.00     0.060 A 
BRANCH  14  18
ATOM     18  C   UNL A   1      35.936  20.711  25.104  1.00  0.00     0.065 A 
ATOM     19  C   UNL A   1      34.221  18.592  24.587  1.00  0.00     0.082 A 
ATOM     20  C   UNL A   1      33.685  19.833  24.930  1.00  0.00     0.024 A 
ATOM     21  C   UNL A   1      35.605  18.413  24.458  1.00  0.00     0.024 A 
ATOM     22  C   UNL A   1      34.547  20.893  25.198  1.00  0.00     0.030 A 
ATOM     23  C   UNL A   1      36.468  19.487  24.689  1.00  0.00     0.030 A 
BRANCH  19  24
ATOM     24  S   UNL A   1      33.131  17.232  24.302  1.00  0.00     0.238 S 
ATOM     25  O   UNL A   1      31.863  17.487  24.955  1.00  0.00    -0.207 OA
ATOM     26  O   UNL A   1      33.861  16.002  24.465  1.00  0.00    -0.207 OA
BRANCH  24  27
ATOM     27  N   UNL A   1      32.799  17.366  22.660  1.00  0.00    -0.225 NA
ATOM     28  H   UNL A   1      32.820  16.440  22.232  1.00  0.00     0.137 HD
ATOM     29  H   UNL A   1      33.500  17.961  22.219  1.00  0.00     0.137 HD
ENDBRANCH  24  27
ENDBRANCH  19  24
ENDBRANCH  14  18
BRANCH  16  30
ATOM     30  C   UNL A   1      40.084  22.791  26.567  1.00  0.00     0.393 C 
ATOM     31  F   UNL A   1      40.366  24.016  27.087  1.00  0.00    -0.203 F 
ATOM     32  F   UNL A   1      40.437  21.876  27.516  1.00  0.00    -0.203 F 
ENDBRANCH  16  30
ENDBRANCH   8  13
ENDBRANCH   4   7
ENDBRANCH   2   3
ENDBRANCH   1   2
BRANCH   1  33
ATOM     33  C   UNL A   1      32.322  29.254  27.128  1.00  0.00     0.023 C 
BRANCH  33  34
ATOM     34  C   UNL A   1      33.788  29.595  26.895  1.00  0.00     0.116 C 
BRANCH  34  35
ATOM     35  N   UNL A   1      34.068  31.033  26.987  1.00  0.00    -0.352 N 
ATOM     36  C   UNL A   1      35.003  31.669  27.789  1.00  0.00     0.251 C 
ATOM     37  H   UNL A   1      33.525  31.618  26.409  1.00  0.00     0.163 HD
ATOM     38  O   UNL A   1      34.894  32.852  28.082  1.00  0.00    -0.269 OA
BRANCH  36  39
ATOM     39  C   UNL A   1      36.159  30.880  28.242  1.00  0.00     0.039 A 
ATOM     40  C   UNL A   1      36.306  29.512  28.000  1.00  0.00     0.014 A 
ATOM     41  C   UNL A   1      37.164  31.610  28.863  1.00  0.00     0.014 A 
ATOM     42  C   UNL A   1      37.519  28.906  28.329  1.00  0.00     0.010 A 
ATOM     43  C   UNL A   1      38.414  31.076  28.949  1.00  0.00     0.010 A 
ATOM     44  C   UNL A   1      38.572  29.707  28.796  1.00  0.00    -0.014 A 
BRANCH  44  45
ATOM     45  C   UNL A   1      39.895  29.182  29.102  1.00  0.00     0.031 A 
ATOM     46  C   UNL A   1      40.208  29.100  30.551  1.00  0.00     0.074 A 
ATOM     47  C   UNL A   1      40.633  28.550  28.161  1.00  0.00     0.049 A 
ATOM     48  N   UNL A   1      41.024  29.835  31.229  1.00  0.00    -0.248 NA
ATOM     49  C   UNL A   1      39.401  28.191  31.384  1.00  0.00     0.031 C 
ATOM     50  C   UNL A   1      40.244  28.213  26.777  1.00  0.00     0.029 A 
ATOM     51  N   UNL A   1      41.844  27.947  28.272  1.00  0.00    -0.354 N 
ATOM     52  C   UNL A   1      41.019  29.313  32.521  1.00  0.00     0.074 A 
ATOM     53  C   UNL A   1      39.855  28.471  32.608  1.00  0.00     0.031 C 
ATOM     54  C   UNL A   1      41.074  27.268  26.283  1.00  0.00     0.029 A 
ATOM     55  C   UNL A   1      42.168  27.098  27.218  1.00  0.00     0.049 A 
ATOM     56  H   UNL A   1      42.445  28.098  29.037  1.00  0.00     0.167 HD
ATOM     57  C   UNL A   1      42.128  29.375  33.312  1.00  0.00     0.031 A 
ATOM     58  C   UNL A   1      43.268  26.313  27.116  1.00  0.00     0.031 A 
ATOM     59  C   UNL A   1      43.145  30.191  32.701  1.00  0.00     0.049 A 
ATOM     60  C   UNL A   1      44.277  26.883  28.037  1.00  0.00     0.074 A 
ATOM     61  C   UNL A   1      43.368  31.535  32.510  1.00  0.00     0.029 A 
ATOM     62  N   UNL A   1      43.928  29.508  31.802  1.00  0.00    -0.354 N 
ATOM     63  N   UNL A   1      44.764  28.088  27.903  1.00  0.00    -0.248 NA
ATOM     64  C   UNL A   1      44.469  26.276  29.346  1.00  0.00     0.031 C 
ATOM     65  C   UNL A   1      44.117  31.634  31.299  1.00  0.00     0.029 A 
ATOM     66  C   UNL A   1      44.382  30.350  30.821  1.00  0.00     0.049 A 
ATOM     67  H   UNL A   1      44.134  28.547  31.855  1.00  0.00     0.167 HD
ATOM     68  C   UNL A   1      44.936  28.540  29.199  1.00  0.00     0.074 A 
ATOM     69  C   UNL A   1      44.901  27.341  30.028  1.00  0.00     0.031 C 
ATOM     70  C   UNL A   1      44.785  29.860  29.515  1.00  0.00     0.031 A 
BRANCH  57  71
ATOM     71  C   UNL A   1      42.499  28.356  34.368  1.00  0.00    -0.014 A 
ATOM     72  C   UNL A   1      43.010  28.811  35.602  1.00  0.00     0.010 A 
ATOM     73  C   UNL A   1      42.623  26.976  34.103  1.00  0.00     0.010 A 
ATOM     74  C   UNL A   1      43.648  27.941  36.499  1.00  0.00     0.020 A 
ATOM     75  C   UNL A   1      43.225  26.094  35.005  1.00  0.00     0.020 A 
ATOM     76  C   UNL A   1      43.758  26.586  36.188  1.00  0.00     0.054 A 
BRANCH  76  77
ATOM     77  S   UNL A   1      44.653  25.484  37.312  1.00  0.00     0.124 S 
ATOM     78  O   UNL A   1      43.999  25.755  38.589  1.00  0.00    -0.237 OA
ATOM     79  O   UNL A   1      44.391  24.171  36.729  1.00  0.00    -0.237 OA
ATOM     80  O   UNL A   1      46.037  25.941  37.208  1.00  0.00    -0.744 OA
ENDBRANCH  76  77
ENDBRANCH  57  71
BRANCH  58  81
ATOM     81  C   UNL A   1      43.379  24.956  26.530  1.00  0.00    -0.014 A 
ATOM     82  C   UNL A   1      43.482  24.765  25.140  1.00  0.00     0.010 A 
ATOM     83  C   UNL A   1      43.687  23.863  27.368  1.00  0.00     0.010 A 
ATOM     84  C   UNL A   1      43.939  23.545  24.609  1.00  0.00     0.020 A 
ATOM     85  C   UNL A   1      44.145  22.646  26.846  1.00  0.00     0.020 A 
ATOM     86  C   UNL A   1      44.291  22.499  25.468  1.00  0.00     0.054 A 
BRANCH  86  87
ATOM     87  S   UNL A   1      45.048  20.992  24.782  1.00  0.00     0.124 S 
ATOM     88  O   UNL A   1      44.359  19.938  25.519  1.00  0.00    -0.237 OA
ATOM     89  O   UNL A   1      44.719  21.091  23.364  1.00  0.00    -0.237 OA
ATOM     90  O   UNL A   1      46.467  21.146  25.100  1.00  0.00    -0.744 OA
ENDBRANCH  86  87
ENDBRANCH  58  81
BRANCH  70  91
ATOM     91  C   UNL A   1      44.909  30.874  28.407  1.00  0.00    -0.014 A 
ATOM     92  C   UNL A   1      43.857  31.278  27.564  1.00  0.00     0.010 A 
ATOM     93  C   UNL A   1      46.146  31.535  28.303  1.00  0.00     0.010 A 
ATOM     94  C   UNL A   1      44.045  32.316  26.635  1.00  0.00     0.020 A 
ATOM     95  C   UNL A   1      46.335  32.576  27.395  1.00  0.00     0.020 A 
ATOM     96  C   UNL A   1      45.287  32.959  26.559  1.00  0.00     0.054 A 
BRANCH  96  97
ATOM     97  S   UNL A   1      45.521  34.332  25.394  1.00  0.00     0.124 S 
ATOM     98  O   UNL A   1      44.894  35.451  26.091  1.00  0.00    -0.237 OA
ATOM     99  O   UNL A   1      46.976  34.405  25.267  1.00  0.00    -0.237 OA
ATOM    100  O   UNL A   1      44.825  33.887  24.187  1.00  0.00    -0.744 OA
ENDBRANCH  96  97
ENDBRANCH  70  91
ENDBRANCH  44  45
ENDBRANCH  36  39
ENDBRANCH  34  35
ENDBRANCH  33  34
ENDBRANCH   1  33
TORSDOF 19
ENDMDL
MODEL 3
REMARK VINA RESULT:     -12.5      3.711      9.592
REMARK SMILES NS(=O)(=O)c1ccc(-n2nc(C(F)F)cc2-c2ccc(C(=O)NCCCCNC(=O)c3ccc(-c4c5nc(c(-c6ccc(S(=O)(=O)[O-])cc6)c6ccc([nH]6)c(-c6ccc(S(=O)(=O)[O-])cc6)c6nc(c(-c7ccc(S(=O)(=O)[O-])cc7)c7ccc4[nH]7)C=C6)C=C5)cc3)cc2)cc1
REMARK SMILES IDX 25 1 24 2 23 3 21 4 22 5 20 7 17 8 18 9 92 10 19 11 91 12
REMARK SMILES IDX 16 13 9 14 10 15 11 16 15 17 8 18 5 19 6 20 94 21 7 22 93 23
REMARK SMILES IDX 2 24 3 25 4 26 1 27 12 30 13 31 14 32 26 33 27 34 28 35
REMARK SMILES IDX 29 36 30 38 31 39 32 40 90 41 33 42 89 43 34 44 35 45 36 46
REMARK SMILES IDX 83 47 37 48 88 49 82 50 84 51 38 52 87 53 81 54 80 55 39 57
REMARK SMILES IDX 69 58 50 59 68 60 51 61 54 62 67 63 85 64 52 65 53 66 66 68
REMARK SMILES IDX 86 69 55 70 40 71 41 72 49 73 42 74 48 75 43 76 44 77 45 78
REMARK SMILES IDX 46 79 47 80 70 81 71 82 79 83 72 84 78 85 73 86 74 87 75 88
REMARK SMILES IDX 76 89 77 90 56 91 57 92 65 93 58 94 64 95 59 96 60 97 61 98
REMARK SMILES IDX 62 99 63 100
REMARK H PARENT 23 6 1 28 1 29 28 37 84 56 54 67
REMARK Flexibility Score: inf
ROOT
ATOM      1  C   UNL A   1      35.589  23.088  25.206  1.00  0.00     0.023 C 
ENDROOT
BRANCH   1   2
ATOM      2  C   UNL A   1      34.563  23.386  26.308  1.00  0.00     0.116 C 
BRANCH   2   3
ATOM      3  N   UNL A   1      33.386  22.551  26.165  1.00  0.00    -0.352 N 
ATOM      4  C   UNL A   1      32.107  22.816  25.742  1.00  0.00     0.251 C 
ATOM      5  O   UNL A   1      31.298  21.890  25.752  1.00  0.00    -0.269 OA
ATOM      6  H   UNL A   1      33.532  21.611  26.421  1.00  0.00     0.163 HD
BRANCH   4   7
ATOM      7  C   UNL A   1      31.669  24.149  25.239  1.00  0.00     0.039 A 
ATOM      8  C   UNL A   1      30.715  26.668  24.416  1.00  0.00     0.000 A 
ATOM      9  C   UNL A   1      30.491  26.226  25.724  1.00  0.00     0.011 A 
ATOM     10  C   UNL A   1      31.435  25.865  23.535  1.00  0.00     0.011 A 
ATOM     11  C   UNL A   1      30.963  24.973  26.131  1.00  0.00     0.014 A 
ATOM     12  C   UNL A   1      31.938  24.637  23.959  1.00  0.00     0.014 A 
BRANCH   8  13
ATOM     13  C   UNL A   1      30.280  27.983  23.972  1.00  0.00     0.075 A 
ATOM     14  N   UNL A   1      30.803  29.184  24.425  1.00  0.00    -0.233 N 
ATOM     15  N   UNL A   1      30.107  30.250  23.958  1.00  0.00    -0.166 NA
ATOM     16  C   UNL A   1      29.255  29.730  23.052  1.00  0.00     0.129 A 
ATOM     17  C   UNL A   1      29.296  28.317  23.067  1.00  0.00     0.060 A 
BRANCH  14  18
ATOM     18  C   UNL A   1      31.917  29.354  25.285  1.00  0.00     0.065 A 
ATOM     19  C   UNL A   1      34.188  29.946  26.767  1.00  0.00     0.082 A 
ATOM     20  C   UNL A   1      32.972  30.530  27.121  1.00  0.00     0.024 A 
ATOM     21  C   UNL A   1      34.269  29.035  25.705  1.00  0.00     0.024 A 
ATOM     22  C   UNL A   1      31.836  30.240  26.371  1.00  0.00     0.030 A 
ATOM     23  C   UNL A   1      33.121  28.713  24.976  1.00  0.00     0.030 A 
BRANCH  19  24
ATOM     24  S   UNL A   1      35.641  30.356  27.682  1.00  0.00     0.238 S 
ATOM     25  O   UNL A   1      35.751  31.797  27.789  1.00  0.00    -0.207 OA
ATOM     26  O   UNL A   1      36.726  29.520  27.242  1.00  0.00    -0.207 OA
BRANCH  24  27
ATOM     27  N   UNL A   1      35.254  29.844  29.235  1.00  0.00    -0.225 NA
ATOM     28  H   UNL A   1      34.776  28.943  29.186  1.00  0.00     0.137 HD
ATOM     29  H   UNL A   1      34.643  30.530  29.678  1.00  0.00     0.137 HD
ENDBRANCH  24  27
ENDBRANCH  19  24
ENDBRANCH  14  18
BRANCH  16  30
ATOM     30  C   UNL A   1      28.396  30.570  22.155  1.00  0.00     0.393 C 
ATOM     31  F   UNL A   1      27.847  29.860  21.133  1.00  0.00    -0.203 F 
ATOM     32  F   UNL A   1      27.357  31.126  22.843  1.00  0.00    -0.203 F 
ENDBRANCH  16  30
ENDBRANCH   8  13
ENDBRANCH   4   7
ENDBRANCH   2   3
ENDBRANCH   1   2
BRANCH   1  33
ATOM     33  C   UNL A   1      36.797  22.248  25.642  1.00  0.00     0.023 C 
BRANCH  33  34
ATOM     34  C   UNL A   1      37.982  23.056  26.154  1.00  0.00     0.116 C 
BRANCH  34  35
ATOM     35  N   UNL A   1      39.145  22.225  26.489  1.00  0.00    -0.352 N 
ATOM     36  C   UNL A   1      40.455  22.635  26.685  1.00  0.00     0.251 C 
ATOM     37  H   UNL A   1      38.974  21.260  26.586  1.00  0.00     0.163 HD
ATOM     38  O   UNL A   1      41.392  21.855  26.569  1.00  0.00    -0.269 OA
BRANCH  36  39
ATOM     39  C   UNL A   1      40.679  24.034  27.080  1.00  0.00     0.039 A 
ATOM     40  C   UNL A   1      39.958  25.110  26.557  1.00  0.00     0.014 A 
ATOM     41  C   UNL A   1      41.611  24.219  28.093  1.00  0.00     0.014 A 
ATOM     42  C   UNL A   1      40.141  26.371  27.129  1.00  0.00     0.010 A 
ATOM     43  C   UNL A   1      41.598  25.383  28.800  1.00  0.00     0.010 A 
ATOM     44  C   UNL A   1      40.961  26.490  28.261  1.00  0.00    -0.014 A 
BRANCH  44  45
ATOM     45  C   UNL A   1      41.162  27.746  28.969  1.00  0.00     0.031 A 
ATOM     46  C   UNL A   1      42.272  28.581  28.445  1.00  0.00     0.074 A 
ATOM     47  C   UNL A   1      40.226  28.228  29.819  1.00  0.00     0.049 A 
ATOM     48  N   UNL A   1      43.420  28.807  28.991  1.00  0.00    -0.248 NA
ATOM     49  C   UNL A   1      42.157  29.105  27.073  1.00  0.00     0.031 C 
ATOM     50  C   UNL A   1      38.889  27.674  30.107  1.00  0.00     0.029 A 
ATOM     51  N   UNL A   1      40.207  29.395  30.512  1.00  0.00    -0.354 N 
ATOM     52  C   UNL A   1      44.068  29.707  28.148  1.00  0.00     0.074 A 
ATOM     53  C   UNL A   1      43.353  29.671  26.899  1.00  0.00     0.031 C 
ATOM     54  C   UNL A   1      38.117  28.615  30.693  1.00  0.00     0.029 A 
ATOM     55  C   UNL A   1      38.960  29.748  31.019  1.00  0.00     0.049 A 
ATOM     56  H   UNL A   1      41.010  29.948  30.645  1.00  0.00     0.167 HD
ATOM     57  C   UNL A   1      44.950  30.624  28.638  1.00  0.00     0.031 A 
ATOM     58  C   UNL A   1      38.642  30.892  31.671  1.00  0.00     0.031 A 
ATOM     59  C   UNL A   1      45.221  30.377  30.030  1.00  0.00     0.049 A 
ATOM     60  C   UNL A   1      39.913  31.446  32.190  1.00  0.00     0.074 A 
ATOM     61  C   UNL A   1      45.959  29.474  30.761  1.00  0.00     0.029 A 
ATOM     62  N   UNL A   1      44.296  30.939  30.876  1.00  0.00    -0.354 N 
ATOM     63  N   UNL A   1      40.667  30.817  33.052  1.00  0.00    -0.248 NA
ATOM     64  C   UNL A   1      40.567  32.526  31.464  1.00  0.00     0.031 C 
ATOM     65  C   UNL A   1      45.275  29.334  32.005  1.00  0.00     0.029 A 
ATOM     66  C   UNL A   1      44.179  30.198  32.023  1.00  0.00     0.049 A 
ATOM     67  H   UNL A   1      43.787  31.759  30.685  1.00  0.00     0.167 HD
ATOM     68  C   UNL A   1      41.961  31.129  32.676  1.00  0.00     0.074 A 
ATOM     69  C   UNL A   1      41.836  32.301  31.816  1.00  0.00     0.031 C 
ATOM     70  C   UNL A   1      42.982  30.238  32.844  1.00  0.00     0.031 A 
BRANCH  57  71
ATOM     71  C   UNL A   1      45.197  31.994  28.043  1.00  0.00    -0.014 A 
ATOM     72  C   UNL A   1      46.528  32.434  27.880  1.00  0.00     0.010 A 
ATOM     73  C   UNL A   1      44.187  32.967  27.892  1.00  0.00     0.010 A 
ATOM     74  C   UNL A   1      46.832  33.780  27.625  1.00  0.00     0.020 A 
ATOM     75  C   UNL A   1      44.475  34.303  27.601  1.00  0.00     0.020 A 
ATOM     76  C   UNL A   1      45.799  34.708  27.495  1.00  0.00     0.054 A 
BRANCH  76  77
ATOM     77  S   UNL A   1      46.199  36.456  27.246  1.00  0.00     0.124 S 
ATOM     78  O   UNL A   1      47.168  36.701  28.310  1.00  0.00    -0.237 OA
ATOM     79  O   UNL A   1      46.734  36.460  25.887  1.00  0.00    -0.237 OA
ATOM     80  O   UNL A   1      44.911  37.128  27.404  1.00  0.00    -0.744 OA
ENDBRANCH  76  77
ENDBRANCH  57  71
BRANCH  58  81
ATOM     81  C   UNL A   1      37.385  31.674  31.599  1.00  0.00    -0.014 A 
ATOM     82  C   UNL A   1      36.401  31.576  32.599  1.00  0.00     0.010 A 
ATOM     83  C   UNL A   1      37.292  32.750  30.690  1.00  0.00     0.010 A 
ATOM     84  C   UNL A   1      35.398  32.553  32.726  1.00  0.00     0.020 A 
ATOM     85  C   UNL A   1      36.296  33.729  30.812  1.00  0.00     0.020 A 
ATOM     86  C   UNL A   1      35.365  33.638  31.845  1.00  0.00     0.054 A 
BRANCH  86  87
ATOM     87  S   UNL A   1      34.175  34.986  32.126  1.00  0.00     0.124 S 
ATOM     88  O   UNL A   1      33.088  34.300  32.816  1.00  0.00    -0.237 OA
ATOM     89  O   UNL A   1      34.945  35.924  32.938  1.00  0.00    -0.237 OA
ATOM     90  O   UNL A   1      33.858  35.451  30.777  1.00  0.00    -0.744 OA
ENDBRANCH  86  87
ENDBRANCH  58  81
BRANCH  70  91
ATOM     91  C   UNL A   1      42.803  29.134  33.854  1.00  0.00    -0.014 A 
ATOM     92  C   UNL A   1      43.043  29.262  35.235  1.00  0.00     0.010 A 
ATOM     93  C   UNL A   1      42.247  27.935  33.376  1.00  0.00     0.010 A 
ATOM     94  C   UNL A   1      42.737  28.207  36.112  1.00  0.00     0.020 A 
ATOM     95  C   UNL A   1      41.926  26.891  34.242  1.00  0.00     0.020 A 
ATOM     96  C   UNL A   1      42.178  27.026  35.606  1.00  0.00     0.054 A 
BRANCH  96  97
ATOM     97  S   UNL A   1      41.737  25.679  36.740  1.00  0.00     0.124 S 
ATOM     98  O   UNL A   1      40.632  26.254  37.502  1.00  0.00    -0.237 OA
ATOM     99  O   UNL A   1      41.377  24.593  35.831  1.00  0.00    -0.237 OA
ATOM    100  O   UNL A   1      42.962  25.452  37.506  1.00  0.00    -0.744 OA
ENDBRANCH  96  97
ENDBRANCH  70  91
ENDBRANCH  44  45
ENDBRANCH  36  39
ENDBRANCH  34  35
ENDBRANCH  33  34
ENDBRANCH   1  33
TORSDOF 19
ENDMDL
