MODEL 1
REMARK VINA RESULT:     -10.9      0.000      0.000
REMARK SMILES CCC[NH2+][C@]1(C(=O)NCCCCNC(=O)c2ccc(-c3c4nc(c(-c5ccc(S(=O)(=O)[O-])cc5)c5ccc([nH]5)c(-c5ccc(S(=O)(=O)[O-])cc5)c5nc(c(-c6ccc(S(=O)(=O)[O-])cc6)c6ccc3[nH]6)C=C5)C=C4)cc2)CCC[C@H](Sc2nnc(C)o2)C1
REMARK SMILES IDX 10 1 9 2 8 3 6 4 7 5 5 7 76 8 87 9 77 10 79 11 78 12 4 13
REMARK SMILES IDX 3 16 2 17 1 18 80 19 81 20 82 21 86 22 83 23 84 24 85 25
REMARK SMILES IDX 11 26 12 27 13 28 14 29 15 31 16 32 17 33 75 34 18 35 74 36
REMARK SMILES IDX 19 37 20 38 21 39 68 40 22 41 73 42 67 43 69 44 23 45 72 46
REMARK SMILES IDX 66 47 65 48 24 50 54 51 35 52 53 53 36 54 39 55 52 56 70 57
REMARK SMILES IDX 37 58 38 59 51 61 71 62 40 63 25 64 26 65 34 66 27 67 33 68
REMARK SMILES IDX 28 69 29 70 30 71 31 72 32 73 55 74 56 75 64 76 57 77 63 78
REMARK SMILES IDX 58 79 59 80 60 81 61 82 62 83 41 84 42 85 50 86 43 87 49 88
REMARK SMILES IDX 44 89 45 90 46 91 47 92 48 93
REMARK H PARENT 8 6 4 14 4 15 13 30 69 49 39 60
REMARK Flexibility Score: inf
ROOT
ATOM      1  C   UNL A   1      31.440  27.774  26.438  1.00  0.00     0.023 C 
ENDROOT
BRANCH   1   2
ATOM      2  C   UNL A   1      31.021  26.623  25.532  1.00  0.00     0.116 C 
BRANCH   2   3
ATOM      3  N   UNL A   1      30.506  25.466  26.251  1.00  0.00    -0.351 N 
ATOM      4  C   UNL A   1      31.098  24.242  26.486  1.00  0.00     0.281 C 
ATOM      5  O   UNL A   1      30.509  23.461  27.236  1.00  0.00    -0.268 OA
ATOM      6  H   UNL A   1      29.602  25.572  26.626  1.00  0.00     0.163 HD
BRANCH   4   7
ATOM      7  C   UNL A   1      32.446  23.854  25.738  1.00  0.00     0.176 C 
ATOM      8  C   UNL A   1      33.551  24.795  26.274  1.00  0.00     0.079 C 
ATOM      9  C   UNL A   1      32.859  22.401  26.145  1.00  0.00     0.094 C 
ATOM     10  C   UNL A   1      34.923  24.461  25.714  1.00  0.00     0.008 C 
ATOM     11  C   UNL A   1      34.351  21.977  25.987  1.00  0.00     0.063 C 
ATOM     12  C   UNL A   1      35.363  23.103  26.226  1.00  0.00     0.015 C 
BRANCH   7  13
ATOM     13  N   UNL A   1      32.155  24.104  24.301  1.00  0.00    -0.334 N 
ATOM     14  H   UNL A   1      31.639  24.982  24.257  1.00  0.00     0.347 HD
ATOM     15  H   UNL A   1      33.081  24.070  23.874  1.00  0.00     0.347 HD
BRANCH  13  16
ATOM     16  C   UNL A   1      31.406  23.146  23.519  1.00  0.00     0.261 C 
BRANCH  16  17
ATOM     17  C   UNL A   1      32.288  22.520  22.429  1.00  0.00     0.058 C 
ATOM     18  C   UNL A   1      31.965  21.060  22.146  1.00  0.00     0.010 C 
ENDBRANCH  16  17
ENDBRANCH  13  16
ENDBRANCH   7  13
BRANCH  11  19
ATOM     19  S   UNL A   1      34.604  20.794  24.607  1.00  0.00    -0.062 SA
BRANCH  19  20
ATOM     20  C   UNL A   1      33.707  19.357  24.969  1.00  0.00     0.276 A 
ATOM     21  N   UNL A   1      32.429  19.298  25.280  1.00  0.00    -0.101 NA
ATOM     22  O   UNL A   1      34.249  18.105  24.797  1.00  0.00    -0.416 OA
ATOM     23  N   UNL A   1      32.091  17.961  25.359  1.00  0.00    -0.112 NA
ATOM     24  C   UNL A   1      33.182  17.293  25.057  1.00  0.00     0.214 A 
ATOM     25  C   UNL A   1      33.385  15.841  24.918  1.00  0.00     0.113 C 
ENDBRANCH  19  20
ENDBRANCH  11  19
ENDBRANCH   4   7
ENDBRANCH   2   3
ENDBRANCH   1   2
BRANCH   1  26
ATOM     26  C   UNL A   1      32.629  28.588  25.943  1.00  0.00     0.023 C 
BRANCH  26  27
ATOM     27  C   UNL A   1      33.729  28.846  26.968  1.00  0.00     0.116 C 
BRANCH  27  28
ATOM     28  N   UNL A   1      33.690  30.170  27.578  1.00  0.00    -0.352 N 
ATOM     29  C   UNL A   1      34.690  30.821  28.270  1.00  0.00     0.251 C 
ATOM     30  H   UNL A   1      32.842  30.662  27.483  1.00  0.00     0.163 HD
ATOM     31  O   UNL A   1      34.503  31.923  28.756  1.00  0.00    -0.269 OA
BRANCH  29  32
ATOM     32  C   UNL A   1      35.977  30.120  28.456  1.00  0.00     0.039 A 
ATOM     33  C   UNL A   1      36.911  30.152  27.419  1.00  0.00     0.014 A 
ATOM     34  C   UNL A   1      36.295  29.549  29.689  1.00  0.00     0.014 A 
ATOM     35  C   UNL A   1      38.208  29.694  27.655  1.00  0.00     0.010 A 
ATOM     36  C   UNL A   1      37.605  29.166  29.945  1.00  0.00     0.010 A 
ATOM     37  C   UNL A   1      38.578  29.248  28.935  1.00  0.00    -0.014 A 
BRANCH  37  38
ATOM     38  C   UNL A   1      39.981  28.884  29.250  1.00  0.00     0.031 A 
ATOM     39  C   UNL A   1      40.893  29.895  29.887  1.00  0.00     0.074 A 
ATOM     40  C   UNL A   1      40.456  27.676  28.885  1.00  0.00     0.049 A 
ATOM     41  N   UNL A   1      42.168  29.797  30.160  1.00  0.00    -0.248 NA
ATOM     42  C   UNL A   1      40.300  31.198  30.232  1.00  0.00     0.031 C 
ATOM     43  C   UNL A   1      39.686  26.627  28.211  1.00  0.00     0.029 A 
ATOM     44  N   UNL A   1      41.708  27.128  29.023  1.00  0.00    -0.354 N 
ATOM     45  C   UNL A   1      42.535  31.030  30.685  1.00  0.00     0.074 A 
ATOM     46  C   UNL A   1      41.361  31.874  30.647  1.00  0.00     0.031 C 
ATOM     47  C   UNL A   1      40.474  25.556  28.018  1.00  0.00     0.029 A 
ATOM     48  C   UNL A   1      41.812  25.853  28.519  1.00  0.00     0.049 A 
ATOM     49  H   UNL A   1      42.460  27.605  29.442  1.00  0.00     0.167 HD
ATOM     50  C   UNL A   1      43.735  31.420  31.174  1.00  0.00     0.031 A 
ATOM     51  C   UNL A   1      42.867  25.017  28.465  1.00  0.00     0.031 A 
ATOM     52  C   UNL A   1      44.894  30.570  31.233  1.00  0.00     0.049 A 
ATOM     53  C   UNL A   1      44.185  25.463  29.033  1.00  0.00     0.074 A 
ATOM     54  C   UNL A   1      46.139  30.850  31.768  1.00  0.00     0.029 A 
ATOM     55  N   UNL A   1      44.949  29.274  30.742  1.00  0.00    -0.354 N 
ATOM     56  N   UNL A   1      44.496  26.612  29.585  1.00  0.00    -0.248 NA
ATOM     57  C   UNL A   1      45.292  24.499  28.981  1.00  0.00     0.031 C 
ATOM     58  C   UNL A   1      46.959  29.734  31.568  1.00  0.00     0.029 A 
ATOM     59  C   UNL A   1      46.212  28.745  30.950  1.00  0.00     0.049 A 
ATOM     60  H   UNL A   1      44.202  28.801  30.312  1.00  0.00     0.167 HD
ATOM     61  C   UNL A   1      45.828  26.500  29.969  1.00  0.00     0.074 A 
ATOM     62  C   UNL A   1      46.259  25.166  29.597  1.00  0.00     0.031 C 
ATOM     63  C   UNL A   1      46.620  27.416  30.575  1.00  0.00     0.031 A 
BRANCH  50  64
ATOM     64  C   UNL A   1      43.849  32.831  31.685  1.00  0.00    -0.014 A 
ATOM     65  C   UNL A   1      44.343  33.860  30.862  1.00  0.00     0.010 A 
ATOM     66  C   UNL A   1      43.441  33.136  32.994  1.00  0.00     0.010 A 
ATOM     67  C   UNL A   1      44.471  35.160  31.355  1.00  0.00     0.020 A 
ATOM     68  C   UNL A   1      43.542  34.442  33.484  1.00  0.00     0.020 A 
ATOM     69  C   UNL A   1      44.075  35.441  32.667  1.00  0.00     0.054 A 
BRANCH  69  70
ATOM     70  S   UNL A   1      44.242  37.140  33.280  1.00  0.00     0.124 S 
ATOM     71  O   UNL A   1      43.653  37.036  34.613  1.00  0.00    -0.237 OA
ATOM     72  O   UNL A   1      45.687  37.353  33.248  1.00  0.00    -0.237 OA
ATOM     73  O   UNL A   1      43.477  37.931  32.320  1.00  0.00    -0.744 OA
ENDBRANCH  69  70
ENDBRANCH  50  64
BRANCH  51  74
ATOM     74  C   UNL A   1      42.712  23.661  27.871  1.00  0.00    -0.014 A 
ATOM     75  C   UNL A   1      42.265  22.586  28.660  1.00  0.00     0.010 A 
ATOM     76  C   UNL A   1      42.996  23.440  26.511  1.00  0.00     0.010 A 
ATOM     77  C   UNL A   1      42.119  21.311  28.105  1.00  0.00     0.020 A 
ATOM     78  C   UNL A   1      42.828  22.172  25.947  1.00  0.00     0.020 A 
ATOM     79  C   UNL A   1      42.401  21.113  26.750  1.00  0.00     0.054 A 
BRANCH  79  80
ATOM     80  S   UNL A   1      42.150  19.463  26.036  1.00  0.00     0.124 S 
ATOM     81  O   UNL A   1      42.974  19.525  24.833  1.00  0.00    -0.237 OA
ATOM     82  O   UNL A   1      42.639  18.582  27.094  1.00  0.00    -0.237 OA
ATOM     83  O   UNL A   1      40.709  19.408  25.808  1.00  0.00    -0.744 OA
ENDBRANCH  79  80
ENDBRANCH  51  74
BRANCH  63  84
ATOM     84  C   UNL A   1      48.028  27.002  30.905  1.00  0.00    -0.014 A 
ATOM     85  C   UNL A   1      48.306  26.204  32.029  1.00  0.00     0.010 A 
ATOM     86  C   UNL A   1      49.079  27.365  30.044  1.00  0.00     0.010 A 
ATOM     87  C   UNL A   1      49.614  25.798  32.299  1.00  0.00     0.020 A 
ATOM     88  C   UNL A   1      50.384  26.940  30.296  1.00  0.00     0.020 A 
ATOM     89  C   UNL A   1      50.646  26.169  31.430  1.00  0.00     0.054 A 
BRANCH  89  90
ATOM     90  S   UNL A   1      52.329  25.586  31.771  1.00  0.00     0.124 S 
ATOM     91  O   UNL A   1      52.746  26.476  32.850  1.00  0.00    -0.237 OA
ATOM     92  O   UNL A   1      52.116  24.191  32.153  1.00  0.00    -0.237 OA
ATOM     93  O   UNL A   1      53.026  25.778  30.500  1.00  0.00    -0.744 OA
ENDBRANCH  89  90
ENDBRANCH  63  84
ENDBRANCH  37  38
ENDBRANCH  29  32
ENDBRANCH  27  28
ENDBRANCH  26  27
ENDBRANCH   1  26
TORSDOF 19
ENDMDL
MODEL 2
REMARK VINA RESULT:     -10.5      3.264      9.762
REMARK SMILES CCC[NH2+][C@]1(C(=O)NCCCCNC(=O)c2ccc(-c3c4nc(c(-c5ccc(S(=O)(=O)[O-])cc5)c5ccc([nH]5)c(-c5ccc(S(=O)(=O)[O-])cc5)c5nc(c(-c6ccc(S(=O)(=O)[O-])cc6)c6ccc3[nH]6)C=C5)C=C4)cc2)CCC[C@H](Sc2nnc(C)o2)C1
REMARK SMILES IDX 10 1 9 2 8 3 6 4 7 5 5 7 76 8 87 9 77 10 79 11 78 12 4 13
REMARK SMILES IDX 3 16 2 17 1 18 80 19 81 20 82 21 86 22 83 23 84 24 85 25
REMARK SMILES IDX 11 26 12 27 13 28 14 29 15 31 16 32 17 33 75 34 18 35 74 36
REMARK SMILES IDX 19 37 20 38 21 39 68 40 22 41 73 42 67 43 69 44 23 45 72 46
REMARK SMILES IDX 66 47 65 48 24 50 54 51 35 52 53 53 36 54 39 55 52 56 70 57
REMARK SMILES IDX 37 58 38 59 51 61 71 62 40 63 25 64 26 65 34 66 27 67 33 68
REMARK SMILES IDX 28 69 29 70 30 71 31 72 32 73 55 74 56 75 64 76 57 77 63 78
REMARK SMILES IDX 58 79 59 80 60 81 61 82 62 83 41 84 42 85 50 86 43 87 49 88
REMARK SMILES IDX 44 89 45 90 46 91 47 92 48 93
REMARK H PARENT 8 6 4 14 4 15 13 30 69 49 39 60
REMARK Flexibility Score: inf
ROOT
ATOM      1  C   UNL A   1      34.771  22.259  24.548  1.00  0.00     0.023 C 
ENDROOT
BRANCH   1   2
ATOM      2  C   UNL A   1      33.745  23.209  25.151  1.00  0.00     0.116 C 
BRANCH   2   3
ATOM      3  N   UNL A   1      32.429  23.124  24.534  1.00  0.00    -0.351 N 
ATOM      4  C   UNL A   1      31.664  24.115  23.955  1.00  0.00     0.281 C 
ATOM      5  O   UNL A   1      30.628  23.770  23.381  1.00  0.00    -0.268 OA
ATOM      6  H   UNL A   1      32.025  22.226  24.528  1.00  0.00     0.163 HD
BRANCH   4   7
ATOM      7  C   UNL A   1      32.086  25.640  24.110  1.00  0.00     0.176 C 
ATOM      8  C   UNL A   1      33.461  25.804  23.419  1.00  0.00     0.079 C 
ATOM      9  C   UNL A   1      31.077  26.536  23.320  1.00  0.00     0.094 C 
ATOM     10  C   UNL A   1      33.936  27.246  23.405  1.00  0.00     0.008 C 
ATOM     11  C   UNL A   1      31.531  27.960  22.876  1.00  0.00     0.063 C 
ATOM     12  C   UNL A   1      33.019  28.075  22.525  1.00  0.00     0.015 C 
BRANCH   7  13
ATOM     13  N   UNL A   1      32.177  25.848  25.580  1.00  0.00    -0.334 N 
ATOM     14  H   UNL A   1      32.160  24.922  26.008  1.00  0.00     0.347 HD
ATOM     15  H   UNL A   1      33.027  26.405  25.677  1.00  0.00     0.347 HD
BRANCH  13  16
ATOM     16  C   UNL A   1      31.192  26.643  26.279  1.00  0.00     0.261 C 
BRANCH  16  17
ATOM     17  C   UNL A   1      31.863  27.575  27.299  1.00  0.00     0.058 C 
ATOM     18  C   UNL A   1      32.980  28.424  26.709  1.00  0.00     0.010 C 
ENDBRANCH  16  17
ENDBRANCH  13  16
ENDBRANCH   7  13
BRANCH  11  19
ATOM     19  S   UNL A   1      30.710  29.291  23.837  1.00  0.00    -0.062 SA
BRANCH  19  20
ATOM     20  C   UNL A   1      29.355  29.852  22.915  1.00  0.00     0.276 A 
ATOM     21  N   UNL A   1      28.086  29.650  23.200  1.00  0.00    -0.101 NA
ATOM     22  O   UNL A   1      29.511  30.719  21.859  1.00  0.00    -0.416 OA
ATOM     23  N   UNL A   1      27.345  30.375  22.287  1.00  0.00    -0.112 NA
ATOM     24  C   UNL A   1      28.216  30.998  21.525  1.00  0.00     0.214 A 
ATOM     25  C   UNL A   1      27.988  31.960  20.434  1.00  0.00     0.113 C 
ENDBRANCH  19  20
ENDBRANCH  11  19
ENDBRANCH   4   7
ENDBRANCH   2   3
ENDBRANCH   1   2
BRANCH   1  26
ATOM     26  C   UNL A   1      36.055  22.916  24.058  1.00  0.00     0.023 C 
BRANCH  26  27
ATOM     27  C   UNL A   1      36.990  23.436  25.145  1.00  0.00     0.116 C 
BRANCH  27  28
ATOM     28  N   UNL A   1      38.103  22.547  25.463  1.00  0.00    -0.352 N 
ATOM     29  C   UNL A   1      39.228  22.823  26.211  1.00  0.00     0.251 C 
ATOM     30  H   UNL A   1      38.043  21.636  25.097  1.00  0.00     0.163 HD
ATOM     31  O   UNL A   1      40.099  21.985  26.369  1.00  0.00    -0.269 OA
BRANCH  29  32
ATOM     32  C   UNL A   1      39.376  24.182  26.771  1.00  0.00     0.039 A 
ATOM     33  C   UNL A   1      38.925  24.424  28.069  1.00  0.00     0.014 A 
ATOM     34  C   UNL A   1      40.067  25.164  26.057  1.00  0.00     0.014 A 
ATOM     35  C   UNL A   1      39.255  25.628  28.693  1.00  0.00     0.010 A 
ATOM     36  C   UNL A   1      40.460  26.327  26.707  1.00  0.00     0.010 A 
ATOM     37  C   UNL A   1      40.070  26.564  28.035  1.00  0.00    -0.014 A 
BRANCH  37  38
ATOM     38  C   UNL A   1      40.548  27.789  28.722  1.00  0.00     0.031 A 
ATOM     39  C   UNL A   1      41.930  27.827  29.311  1.00  0.00     0.074 A 
ATOM     40  C   UNL A   1      39.710  28.833  28.889  1.00  0.00     0.049 A 
ATOM     41  N   UNL A   1      42.498  28.768  30.020  1.00  0.00    -0.248 NA
ATOM     42  C   UNL A   1      42.773  26.637  29.103  1.00  0.00     0.031 C 
ATOM     43  C   UNL A   1      38.325  28.897  28.412  1.00  0.00     0.029 A 
ATOM     44  N   UNL A   1      39.897  30.039  29.517  1.00  0.00    -0.354 N 
ATOM     45  C   UNL A   1      43.751  28.276  30.363  1.00  0.00     0.074 A 
ATOM     46  C   UNL A   1      43.842  26.935  29.826  1.00  0.00     0.031 C 
ATOM     47  C   UNL A   1      37.800  30.088  28.742  1.00  0.00     0.029 A 
ATOM     48  C   UNL A   1      38.793  30.858  29.484  1.00  0.00     0.049 A 
ATOM     49  H   UNL A   1      40.744  30.293  29.952  1.00  0.00     0.167 HD
ATOM     50  C   UNL A   1      44.745  28.889  31.045  1.00  0.00     0.031 A 
ATOM     51  C   UNL A   1      38.601  32.089  29.996  1.00  0.00     0.031 A 
ATOM     52  C   UNL A   1      44.661  30.231  31.557  1.00  0.00     0.049 A 
ATOM     53  C   UNL A   1      39.727  32.760  30.732  1.00  0.00     0.074 A 
ATOM     54  C   UNL A   1      45.636  30.966  32.206  1.00  0.00     0.029 A 
ATOM     55  N   UNL A   1      43.537  31.039  31.473  1.00  0.00    -0.354 N 
ATOM     56  N   UNL A   1      40.930  32.302  30.990  1.00  0.00    -0.248 NA
ATOM     57  C   UNL A   1      39.475  34.117  31.237  1.00  0.00     0.031 C 
ATOM     58  C   UNL A   1      45.090  32.208  32.548  1.00  0.00     0.029 A 
ATOM     59  C   UNL A   1      43.790  32.261  32.072  1.00  0.00     0.049 A 
ATOM     60  H   UNL A   1      42.687  30.781  31.050  1.00  0.00     0.167 HD
ATOM     61  C   UNL A   1      41.586  33.325  31.666  1.00  0.00     0.074 A 
ATOM     62  C   UNL A   1      40.652  34.429  31.766  1.00  0.00     0.031 C 
ATOM     63  C   UNL A   1      42.848  33.348  32.158  1.00  0.00     0.031 A 
BRANCH  50  64
ATOM     64  C   UNL A   1      46.011  28.108  31.274  1.00  0.00    -0.014 A 
ATOM     65  C   UNL A   1      47.106  28.234  30.399  1.00  0.00     0.010 A 
ATOM     66  C   UNL A   1      46.116  27.254  32.385  1.00  0.00     0.010 A 
ATOM     67  C   UNL A   1      48.265  27.482  30.605  1.00  0.00     0.020 A 
ATOM     68  C   UNL A   1      47.284  26.520  32.609  1.00  0.00     0.020 A 
ATOM     69  C   UNL A   1      48.344  26.625  31.706  1.00  0.00     0.054 A 
BRANCH  69  70
ATOM     70  S   UNL A   1      49.865  25.668  31.957  1.00  0.00     0.124 S 
ATOM     71  O   UNL A   1      50.843  26.722  32.211  1.00  0.00    -0.237 OA
ATOM     72  O   UNL A   1      49.532  24.831  33.107  1.00  0.00    -0.237 OA
ATOM     73  O   UNL A   1      50.033  24.950  30.696  1.00  0.00    -0.744 OA
ENDBRANCH  69  70
ENDBRANCH  50  64
BRANCH  51  74
ATOM     74  C   UNL A   1      37.295  32.778  29.807  1.00  0.00    -0.014 A 
ATOM     75  C   UNL A   1      36.299  32.695  30.795  1.00  0.00     0.010 A 
ATOM     76  C   UNL A   1      37.047  33.534  28.647  1.00  0.00     0.010 A 
ATOM     77  C   UNL A   1      35.071  33.340  30.621  1.00  0.00     0.020 A 
ATOM     78  C   UNL A   1      35.830  34.202  28.480  1.00  0.00     0.020 A 
ATOM     79  C   UNL A   1      34.846  34.091  29.463  1.00  0.00     0.054 A 
BRANCH  79  80
ATOM     80  S   UNL A   1      33.267  34.969  29.282  1.00  0.00     0.124 S 
ATOM     81  O   UNL A   1      33.702  36.285  28.825  1.00  0.00    -0.237 OA
ATOM     82  O   UNL A   1      32.564  34.155  28.294  1.00  0.00    -0.237 OA
ATOM     83  O   UNL A   1      32.700  34.928  30.627  1.00  0.00    -0.744 OA
ENDBRANCH  79  80
ENDBRANCH  51  74
BRANCH  63  84
ATOM     84  C   UNL A   1      43.308  34.616  32.823  1.00  0.00    -0.014 A 
ATOM     85  C   UNL A   1      43.841  35.677  32.071  1.00  0.00     0.010 A 
ATOM     86  C   UNL A   1      43.147  34.770  34.212  1.00  0.00     0.010 A 
ATOM     87  C   UNL A   1      44.228  36.862  32.701  1.00  0.00     0.020 A 
ATOM     88  C   UNL A   1      43.509  35.962  34.841  1.00  0.00     0.020 A 
ATOM     89  C   UNL A   1      44.059  36.997  34.083  1.00  0.00     0.054 A 
BRANCH  89  90
ATOM     90  S   UNL A   1      44.520  38.564  34.872  1.00  0.00     0.124 S 
ATOM     91  O   UNL A   1      43.511  39.478  34.343  1.00  0.00    -0.237 OA
ATOM     92  O   UNL A   1      44.404  38.255  36.295  1.00  0.00    -0.237 OA
ATOM     93  O   UNL A   1      45.884  38.800  34.401  1.00  0.00    -0.744 OA
ENDBRANCH  89  90
ENDBRANCH  63  84
ENDBRANCH  37  38
ENDBRANCH  29  32
ENDBRANCH  27  28
ENDBRANCH  26  27
ENDBRANCH   1  26
TORSDOF 19
ENDMDL
MODEL 3
REMARK VINA RESULT:     -10.1      3.554      9.798
REMARK SMILES CCC[NH2+][C@]1(C(=O)NCCCCNC(=O)c2ccc(-c3c4nc(c(-c5ccc(S(=O)(=O)[O-])cc5)c5ccc([nH]5)c(-c5ccc(S(=O)(=O)[O-])cc5)c5nc(c(-c6ccc(S(=O)(=O)[O-])cc6)c6ccc3[nH]6)C=C5)C=C4)cc2)CCC[C@H](Sc2nnc(C)o2)C1
REMARK SMILES IDX 10 1 9 2 8 3 6 4 7 5 5 7 76 8 87 9 77 10 79 11 78 12 4 13
REMARK SMILES IDX 3 16 2 17 1 18 80 19 81 20 82 21 86 22 83 23 84 24 85 25
REMARK SMILES IDX 11 26 12 27 13 28 14 29 15 31 16 32 17 33 75 34 18 35 74 36
REMARK SMILES IDX 19 37 20 38 21 39 68 40 22 41 73 42 67 43 69 44 23 45 72 46
REMARK SMILES IDX 66 47 65 48 24 50 54 51 35 52 53 53 36 54 39 55 52 56 70 57
REMARK SMILES IDX 37 58 38 59 51 61 71 62 40 63 25 64 26 65 34 66 27 67 33 68
REMARK SMILES IDX 28 69 29 70 30 71 31 72 32 73 55 74 56 75 64 76 57 77 63 78
REMARK SMILES IDX 58 79 59 80 60 81 61 82 62 83 41 84 42 85 50 86 43 87 49 88
REMARK SMILES IDX 44 89 45 90 46 91 47 92 48 93
REMARK H PARENT 8 6 4 14 4 15 13 30 69 49 39 60
REMARK Flexibility Score: inf
ROOT
ATOM      1  C   UNL A   1      35.387  22.967  24.426  1.00  0.00     0.023 C 
ENDROOT
BRANCH   1   2
ATOM      2  C   UNL A   1      34.500  24.160  24.090  1.00  0.00     0.116 C 
BRANCH   2   3
ATOM      3  N   UNL A   1      33.986  24.147  22.728  1.00  0.00    -0.351 N 
ATOM      4  C   UNL A   1      33.154  25.046  22.094  1.00  0.00     0.281 C 
ATOM      5  O   UNL A   1      32.960  24.885  20.887  1.00  0.00    -0.268 OA
ATOM      6  H   UNL A   1      34.276  23.384  22.177  1.00  0.00     0.163 HD
BRANCH   4   7
ATOM      7  C   UNL A   1      32.424  26.182  22.932  1.00  0.00     0.176 C 
ATOM      8  C   UNL A   1      33.452  27.320  23.147  1.00  0.00     0.079 C 
ATOM      9  C   UNL A   1      31.261  26.784  22.077  1.00  0.00     0.094 C 
ATOM     10  C   UNL A   1      32.848  28.523  23.850  1.00  0.00     0.008 C 
ATOM     11  C   UNL A   1      30.741  28.212  22.424  1.00  0.00     0.063 C 
ATOM     12  C   UNL A   1      31.814  29.172  22.950  1.00  0.00     0.015 C 
BRANCH   7  13
ATOM     13  N   UNL A   1      32.058  25.519  24.212  1.00  0.00    -0.334 N 
ATOM     14  H   UNL A   1      32.682  24.719  24.315  1.00  0.00     0.347 HD
ATOM     15  H   UNL A   1      32.135  26.277  24.890  1.00  0.00     0.347 HD
BRANCH  13  16
ATOM     16  C   UNL A   1      30.717  25.025  24.435  1.00  0.00     0.261 C 
BRANCH  16  17
ATOM     17  C   UNL A   1      30.130  25.601  25.731  1.00  0.00     0.058 C 
ATOM     18  C   UNL A   1      30.990  26.686  26.363  1.00  0.00     0.010 C 
ENDBRANCH  16  17
ENDBRANCH  13  16
ENDBRANCH   7  13
BRANCH  11  19
ATOM     19  S   UNL A   1      29.076  28.187  23.196  1.00  0.00    -0.062 SA
BRANCH  19  20
ATOM     20  C   UNL A   1      28.437  29.796  23.133  1.00  0.00     0.276 A 
ATOM     21  N   UNL A   1      27.200  30.150  23.407  1.00  0.00    -0.101 NA
ATOM     22  O   UNL A   1      29.250  30.887  22.938  1.00  0.00    -0.416 OA
ATOM     23  N   UNL A   1      27.153  31.530  23.363  1.00  0.00    -0.112 NA
ATOM     24  C   UNL A   1      28.377  31.926  23.097  1.00  0.00     0.214 A 
ATOM     25  C   UNL A   1      28.922  33.291  23.002  1.00  0.00     0.113 C 
ENDBRANCH  19  20
ENDBRANCH  11  19
ENDBRANCH   4   7
ENDBRANCH   2   3
ENDBRANCH   1   2
BRANCH   1  26
ATOM     26  C   UNL A   1      36.858  23.295  24.646  1.00  0.00     0.023 C 
BRANCH  26  27
ATOM     27  C   UNL A   1      37.406  22.985  26.035  1.00  0.00     0.116 C 
BRANCH  27  28
ATOM     28  N   UNL A   1      38.616  22.169  26.040  1.00  0.00    -0.352 N 
ATOM     29  C   UNL A   1      39.886  22.527  26.441  1.00  0.00     0.251 C 
ATOM     30  H   UNL A   1      38.512  21.245  25.716  1.00  0.00     0.163 HD
ATOM     31  O   UNL A   1      40.815  21.743  26.360  1.00  0.00    -0.269 OA
BRANCH  29  32
ATOM     32  C   UNL A   1      40.100  23.908  26.920  1.00  0.00     0.039 A 
ATOM     33  C   UNL A   1      40.396  24.110  28.268  1.00  0.00     0.014 A 
ATOM     34  C   UNL A   1      40.128  24.969  26.013  1.00  0.00     0.014 A 
ATOM     35  C   UNL A   1      40.820  25.370  28.693  1.00  0.00     0.010 A 
ATOM     36  C   UNL A   1      40.625  26.201  26.422  1.00  0.00     0.010 A 
ATOM     37  C   UNL A   1      40.988  26.409  27.763  1.00  0.00    -0.014 A 
BRANCH  37  38
ATOM     38  C   UNL A   1      41.565  27.717  28.161  1.00  0.00     0.031 A 
ATOM     39  C   UNL A   1      43.050  27.938  28.077  1.00  0.00     0.074 A 
ATOM     40  C   UNL A   1      40.765  28.671  28.678  1.00  0.00     0.049 A 
ATOM     41  N   UNL A   1      43.750  28.974  28.456  1.00  0.00    -0.248 NA
ATOM     42  C   UNL A   1      43.854  26.836  27.521  1.00  0.00     0.031 C 
ATOM     43  C   UNL A   1      39.315  28.557  28.863  1.00  0.00     0.029 A 
ATOM     44  N   UNL A   1      41.060  29.925  29.153  1.00  0.00    -0.354 N 
ATOM     45  C   UNL A   1      45.076  28.641  28.210  1.00  0.00     0.074 A 
ATOM     46  C   UNL A   1      45.086  27.290  27.694  1.00  0.00     0.031 C 
ATOM     47  C   UNL A   1      38.847  29.702  29.387  1.00  0.00     0.029 A 
ATOM     48  C   UNL A   1      39.962  30.617  29.608  1.00  0.00     0.049 A 
ATOM     49  H   UNL A   1      41.973  30.294  29.166  1.00  0.00     0.167 HD
ATOM     50  C   UNL A   1      46.186  29.398  28.379  1.00  0.00     0.031 A 
ATOM     51  C   UNL A   1      39.864  31.848  30.147  1.00  0.00     0.031 A 
ATOM     52  C   UNL A   1      46.171  30.750  28.868  1.00  0.00     0.049 A 
ATOM     53  C   UNL A   1      41.108  32.678  30.305  1.00  0.00     0.074 A 
ATOM     54  C   UNL A   1      47.234  31.623  29.015  1.00  0.00     0.029 A 
ATOM     55  N   UNL A   1      45.035  31.425  29.288  1.00  0.00    -0.354 N 
ATOM     56  N   UNL A   1      42.347  32.369  30.005  1.00  0.00    -0.248 NA
ATOM     57  C   UNL A   1      40.939  34.027  30.864  1.00  0.00     0.031 C 
ATOM     58  C   UNL A   1      46.746  32.816  29.559  1.00  0.00     0.029 A 
ATOM     59  C   UNL A   1      45.373  32.700  29.708  1.00  0.00     0.049 A 
ATOM     60  H   UNL A   1      44.124  31.053  29.287  1.00  0.00     0.167 HD
ATOM     61  C   UNL A   1      43.103  33.494  30.316  1.00  0.00     0.074 A 
ATOM     62  C   UNL A   1      42.180  34.494  30.815  1.00  0.00     0.031 C 
ATOM     63  C   UNL A   1      44.439  33.682  30.198  1.00  0.00     0.031 A 
BRANCH  50  64
ATOM     64  C   UNL A   1      47.509  28.773  28.026  1.00  0.00    -0.014 A 
ATOM     65  C   UNL A   1      48.258  28.073  28.991  1.00  0.00     0.010 A 
ATOM     66  C   UNL A   1      48.002  28.870  26.713  1.00  0.00     0.010 A 
ATOM     67  C   UNL A   1      49.498  27.522  28.660  1.00  0.00     0.020 A 
ATOM     68  C   UNL A   1      49.231  28.297  26.372  1.00  0.00     0.020 A 
ATOM     69  C   UNL A   1      49.979  27.643  27.353  1.00  0.00     0.054 A 
BRANCH  69  70
ATOM     70  S   UNL A   1      51.587  26.910  26.946  1.00  0.00     0.124 S 
ATOM     71  O   UNL A   1      52.184  27.943  26.105  1.00  0.00    -0.237 OA
ATOM     72  O   UNL A   1      52.204  26.738  28.260  1.00  0.00    -0.237 OA
ATOM     73  O   UNL A   1      51.238  25.670  26.259  1.00  0.00    -0.744 OA
ENDBRANCH  69  70
ENDBRANCH  50  64
BRANCH  51  74
ATOM     74  C   UNL A   1      38.535  32.379  30.553  1.00  0.00    -0.014 A 
ATOM     75  C   UNL A   1      38.063  32.187  31.864  1.00  0.00     0.010 A 
ATOM     76  C   UNL A   1      37.741  33.094  29.638  1.00  0.00     0.010 A 
ATOM     77  C   UNL A   1      36.815  32.685  32.248  1.00  0.00     0.020 A 
ATOM     78  C   UNL A   1      36.503  33.615  30.026  1.00  0.00     0.020 A 
ATOM     79  C   UNL A   1      36.043  33.397  31.326  1.00  0.00     0.054 A 
BRANCH  79  80
ATOM     80  S   UNL A   1      34.451  34.085  31.862  1.00  0.00     0.124 S 
ATOM     81  O   UNL A   1      33.754  34.262  30.592  1.00  0.00    -0.237 OA
ATOM     82  O   UNL A   1      33.928  33.033  32.731  1.00  0.00    -0.237 OA
ATOM     83  O   UNL A   1      34.828  35.317  32.549  1.00  0.00    -0.744 OA
ENDBRANCH  79  80
ENDBRANCH  51  74
BRANCH  63  84
ATOM     84  C   UNL A   1      44.986  35.029  30.584  1.00  0.00    -0.014 A 
ATOM     85  C   UNL A   1      45.512  35.259  31.867  1.00  0.00     0.010 A 
ATOM     86  C   UNL A   1      45.028  36.061  29.628  1.00  0.00     0.010 A 
ATOM     87  C   UNL A   1      46.050  36.505  32.195  1.00  0.00     0.020 A 
ATOM     88  C   UNL A   1      45.587  37.300  29.945  1.00  0.00     0.020 A 
ATOM     89  C   UNL A   1      46.085  37.518  31.231  1.00  0.00     0.054 A 
BRANCH  89  90
ATOM     90  S   UNL A   1      46.835  39.112  31.663  1.00  0.00     0.124 S 
ATOM     91  O   UNL A   1      45.777  39.743  32.447  1.00  0.00    -0.237 OA
ATOM     92  O   UNL A   1      48.023  38.715  32.416  1.00  0.00    -0.237 OA
ATOM     93  O   UNL A   1      47.105  39.730  30.366  1.00  0.00    -0.744 OA
ENDBRANCH  89  90
ENDBRANCH  63  84
ENDBRANCH  37  38
ENDBRANCH  29  32
ENDBRANCH  27  28
ENDBRANCH  26  27
ENDBRANCH   1  26
TORSDOF 19
ENDMDL
