MODEL 1
REMARK VINA RESULT:     -11.4      0.000      0.000
REMARK SMILES O=C(NCCCCNC(=O)c1ccc(-c2c3nc(c(-c4ccc(S(=O)(=O)[O-])cc4)c4ccc([nH]4)c(-c4ccc(S(=O)(=O)[O-])cc4)c4nc(c(-c5ccc(S(=O)(=O)[O-])cc5)c5ccc2[nH]5)C=C4)C=C3)cc1)C1=Cc2c(ccc(Cl)c2Sc2ccccc2)O[C@H]1C(F)(F)F
REMARK SMILES IDX 6 1 5 2 4 3 3 4 1 5 2 6 71 8 72 9 88 10 73 11 87 12 74 13
REMARK SMILES IDX 79 14 75 15 77 16 76 17 78 18 89 19 90 20 91 21 92 22 80 23
REMARK SMILES IDX 81 24 82 25 86 26 83 27 85 28 84 29 7 30 8 31 9 32 10 34
REMARK SMILES IDX 11 35 12 36 70 37 13 38 69 39 14 40 15 41 16 42 63 43 17 44
REMARK SMILES IDX 68 45 62 46 64 47 18 48 67 49 61 50 60 51 19 53 49 54 30 55
REMARK SMILES IDX 48 56 31 57 34 58 47 59 65 60 32 61 33 62 46 64 66 65 35 66
REMARK SMILES IDX 20 67 21 68 29 69 22 70 28 71 23 72 24 73 25 74 26 75 27 76
REMARK SMILES IDX 50 77 51 78 59 79 52 80 58 81 53 82 54 83 55 84 56 85 57 86
REMARK SMILES IDX 36 87 37 88 45 89 38 90 44 91 39 92 40 93 41 94 42 95 43 96
REMARK H PARENT 3 7 8 33 64 52 34 63
REMARK Flexibility Score: inf
ROOT
ATOM      1  C   UNL A   1      36.102  22.474  24.728  1.00  0.00     0.023 C 
ENDROOT
BRANCH   1   2
ATOM      2  C   UNL A   1      35.447  21.467  25.675  1.00  0.00     0.023 C 
BRANCH   2   3
ATOM      3  C   UNL A   1      33.990  21.764  26.033  1.00  0.00     0.116 C 
BRANCH   3   4
ATOM      4  N   UNL A   1      33.792  23.109  26.555  1.00  0.00    -0.352 N 
ATOM      5  O   UNL A   1      33.317  25.306  26.544  1.00  0.00    -0.270 OA
ATOM      6  C   UNL A   1      33.306  24.232  25.951  1.00  0.00     0.251 C 
ATOM      7  H   UNL A   1      34.052  23.227  27.498  1.00  0.00     0.163 HD
BRANCH   6   8
ATOM      8  C   UNL A   1      32.779  24.183  24.572  1.00  0.00     0.067 C 
ATOM      9  C   UNL A   1      32.917  25.241  23.764  1.00  0.00     0.026 C 
ATOM     10  C   UNL A   1      31.780  23.135  24.212  1.00  0.00     0.314 C 
ATOM     11  C   UNL A   1      31.625  25.932  23.562  1.00  0.00     0.033 A 
ATOM     12  O   UNL A   1      30.524  23.729  23.755  1.00  0.00    -0.475 OA
ATOM     13  C   UNL A   1      30.476  25.100  23.606  1.00  0.00     0.129 A 
ATOM     14  C   UNL A   1      31.517  27.343  23.478  1.00  0.00     0.042 A 
ATOM     15  C   UNL A   1      29.206  25.657  23.616  1.00  0.00     0.049 A 
ATOM     16  C   UNL A   1      30.205  27.874  23.546  1.00  0.00     0.055 A 
ATOM     17  C   UNL A   1      29.074  27.042  23.620  1.00  0.00     0.025 A 
ATOM     18  Cl  UNL A   1      29.878  29.579  23.613  1.00  0.00    -0.083 Cl
BRANCH  10  19
ATOM     19  C   UNL A   1      32.331  22.173  23.146  1.00  0.00     0.429 C 
ATOM     20  F   UNL A   1      33.641  22.399  22.878  1.00  0.00    -0.167 F 
ATOM     21  F   UNL A   1      32.219  20.877  23.520  1.00  0.00    -0.167 F 
ATOM     22  F   UNL A   1      31.659  22.302  21.976  1.00  0.00    -0.167 F 
ENDBRANCH  10  19
BRANCH  14  23
ATOM     23  S   UNL A   1      32.901  28.516  23.324  1.00  0.00    -0.088 SA
BRANCH  23  24
ATOM     24  C   UNL A   1      33.322  29.114  24.943  1.00  0.00     0.012 A 
ATOM     25  C   UNL A   1      32.535  30.100  25.551  1.00  0.00     0.015 A 
ATOM     26  C   UNL A   1      34.405  28.570  25.649  1.00  0.00     0.015 A 
ATOM     27  C   UNL A   1      32.764  30.460  26.881  1.00  0.00     0.001 A 
ATOM     28  C   UNL A   1      34.621  28.920  26.984  1.00  0.00     0.001 A 
ATOM     29  C   UNL A   1      33.789  29.853  27.604  1.00  0.00     0.000 A 
ENDBRANCH  23  24
ENDBRANCH  14  23
ENDBRANCH   6   8
ENDBRANCH   3   4
ENDBRANCH   2   3
ENDBRANCH   1   2
BRANCH   1  30
ATOM     30  C   UNL A   1      37.259  23.309  25.283  1.00  0.00     0.116 C 
BRANCH  30  31
ATOM     31  N   UNL A   1      38.472  22.555  25.553  1.00  0.00    -0.352 N 
ATOM     32  C   UNL A   1      39.608  22.918  26.244  1.00  0.00     0.251 C 
ATOM     33  H   UNL A   1      38.485  21.643  25.184  1.00  0.00     0.163 HD
ATOM     34  O   UNL A   1      40.534  22.115  26.334  1.00  0.00    -0.269 OA
BRANCH  32  35
ATOM     35  C   UNL A   1      39.749  24.277  26.825  1.00  0.00     0.039 A 
ATOM     36  C   UNL A   1      39.266  24.501  28.119  1.00  0.00     0.014 A 
ATOM     37  C   UNL A   1      40.364  25.320  26.129  1.00  0.00     0.014 A 
ATOM     38  C   UNL A   1      39.493  25.731  28.747  1.00  0.00     0.010 A 
ATOM     39  C   UNL A   1      40.652  26.522  26.782  1.00  0.00     0.010 A 
ATOM     40  C   UNL A   1      40.238  26.735  28.105  1.00  0.00    -0.014 A 
BRANCH  40  41
ATOM     41  C   UNL A   1      40.641  27.966  28.839  1.00  0.00     0.031 A 
ATOM     42  C   UNL A   1      42.011  28.105  29.447  1.00  0.00     0.074 A 
ATOM     43  C   UNL A   1      39.740  28.957  29.006  1.00  0.00     0.049 A 
ATOM     44  N   UNL A   1      42.532  29.127  30.080  1.00  0.00    -0.248 NA
ATOM     45  C   UNL A   1      42.903  26.940  29.353  1.00  0.00     0.031 C 
ATOM     46  C   UNL A   1      38.355  28.931  28.526  1.00  0.00     0.029 A 
ATOM     47  N   UNL A   1      39.853  30.183  29.616  1.00  0.00    -0.354 N 
ATOM     48  C   UNL A   1      43.804  28.726  30.473  1.00  0.00     0.074 A 
ATOM     49  C   UNL A   1      43.958  27.351  30.045  1.00  0.00     0.031 C 
ATOM     50  C   UNL A   1      37.766  30.102  28.816  1.00  0.00     0.029 A 
ATOM     51  C   UNL A   1      38.715  30.951  29.527  1.00  0.00     0.049 A 
ATOM     52  H   UNL A   1      40.671  30.483  30.074  1.00  0.00     0.167 HD
ATOM     53  C   UNL A   1      44.763  29.437  31.116  1.00  0.00     0.031 A 
ATOM     54  C   UNL A   1      38.465  32.205  29.952  1.00  0.00     0.031 A 
ATOM     55  C   UNL A   1      44.615  30.806  31.539  1.00  0.00     0.049 A 
ATOM     56  C   UNL A   1      39.551  32.982  30.640  1.00  0.00     0.074 A 
ATOM     57  C   UNL A   1      45.557  31.633  32.129  1.00  0.00     0.029 A 
ATOM     58  N   UNL A   1      43.450  31.550  31.426  1.00  0.00    -0.354 N 
ATOM     59  N   UNL A   1      40.778  32.615  30.919  1.00  0.00    -0.248 NA
ATOM     60  C   UNL A   1      39.219  34.353  31.056  1.00  0.00     0.031 C 
ATOM     61  C   UNL A   1      44.947  32.860  32.416  1.00  0.00     0.029 A 
ATOM     62  C   UNL A   1      43.640  32.816  31.957  1.00  0.00     0.049 A 
ATOM     63  H   UNL A   1      42.611  31.225  31.026  1.00  0.00     0.167 HD
ATOM     64  C   UNL A   1      41.375  33.719  31.518  1.00  0.00     0.074 A 
ATOM     65  C   UNL A   1      40.378  34.770  31.546  1.00  0.00     0.031 C 
ATOM     66  C   UNL A   1      42.637  33.850  31.996  1.00  0.00     0.031 A 
BRANCH  53  67
ATOM     67  C   UNL A   1      46.062  28.732  31.412  1.00  0.00    -0.014 A 
ATOM     68  C   UNL A   1      47.122  28.739  30.486  1.00  0.00     0.010 A 
ATOM     69  C   UNL A   1      46.234  28.069  32.641  1.00  0.00     0.010 A 
ATOM     70  C   UNL A   1      48.305  28.046  30.758  1.00  0.00     0.020 A 
ATOM     71  C   UNL A   1      47.425  27.398  32.928  1.00  0.00     0.020 A 
ATOM     72  C   UNL A   1      48.445  27.371  31.974  1.00  0.00     0.054 A 
BRANCH  72  73
ATOM     73  S   UNL A   1      49.988  26.474  32.301  1.00  0.00     0.124 S 
ATOM     74  O   UNL A   1      50.013  25.511  31.203  1.00  0.00    -0.237 OA
ATOM     75  O   UNL A   1      50.996  27.529  32.233  1.00  0.00    -0.237 OA
ATOM     76  O   UNL A   1      49.780  25.900  33.628  1.00  0.00    -0.744 OA
ENDBRANCH  72  73
ENDBRANCH  53  67
BRANCH  54  77
ATOM     77  C   UNL A   1      37.140  32.827  29.683  1.00  0.00    -0.014 A 
ATOM     78  C   UNL A   1      36.235  33.042  30.738  1.00  0.00     0.010 A 
ATOM     79  C   UNL A   1      36.782  33.223  28.382  1.00  0.00     0.010 A 
ATOM     80  C   UNL A   1      34.990  33.631  30.496  1.00  0.00     0.020 A 
ATOM     81  C   UNL A   1      35.548  33.834  28.141  1.00  0.00     0.020 A 
ATOM     82  C   UNL A   1      34.656  34.026  29.198  1.00  0.00     0.054 A 
BRANCH  82  83
ATOM     83  S   UNL A   1      33.063  34.848  28.918  1.00  0.00     0.124 S 
ATOM     84  O   UNL A   1      32.430  33.962  27.947  1.00  0.00    -0.237 OA
ATOM     85  O   UNL A   1      32.470  34.855  30.253  1.00  0.00    -0.237 OA
ATOM     86  O   UNL A   1      33.445  36.164  28.410  1.00  0.00    -0.744 OA
ENDBRANCH  82  83
ENDBRANCH  54  77
BRANCH  66  87
ATOM     87  C   UNL A   1      43.015  35.192  32.568  1.00  0.00    -0.014 A 
ATOM     88  C   UNL A   1      42.735  35.520  33.907  1.00  0.00     0.010 A 
ATOM     89  C   UNL A   1      43.660  36.138  31.751  1.00  0.00     0.010 A 
ATOM     90  C   UNL A   1      43.045  36.790  34.403  1.00  0.00     0.020 A 
ATOM     91  C   UNL A   1      43.996  37.399  32.251  1.00  0.00     0.020 A 
ATOM     92  C   UNL A   1      43.665  37.725  33.568  1.00  0.00     0.054 A 
BRANCH  92  93
ATOM     93  S   UNL A   1      44.059  39.368  34.230  1.00  0.00     0.124 S 
ATOM     94  O   UNL A   1      44.169  39.098  35.660  1.00  0.00    -0.237 OA
ATOM     95  O   UNL A   1      45.311  39.697  33.554  1.00  0.00    -0.237 OA
ATOM     96  O   UNL A   1      42.912  40.182  33.834  1.00  0.00    -0.744 OA
ENDBRANCH  92  93
ENDBRANCH  66  87
ENDBRANCH  40  41
ENDBRANCH  32  35
ENDBRANCH  30  31
ENDBRANCH   1  30
TORSDOF 17
ENDMDL
MODEL 2
REMARK VINA RESULT:     -11.4      4.487     10.315
REMARK SMILES O=C(NCCCCNC(=O)c1ccc(-c2c3nc(c(-c4ccc(S(=O)(=O)[O-])cc4)c4ccc([nH]4)c(-c4ccc(S(=O)(=O)[O-])cc4)c4nc(c(-c5ccc(S(=O)(=O)[O-])cc5)c5ccc2[nH]5)C=C4)C=C3)cc1)C1=Cc2c(ccc(Cl)c2Sc2ccccc2)O[C@H]1C(F)(F)F
REMARK SMILES IDX 6 1 5 2 4 3 3 4 1 5 2 6 71 8 72 9 88 10 73 11 87 12 74 13
REMARK SMILES IDX 79 14 75 15 77 16 76 17 78 18 89 19 90 20 91 21 92 22 80 23
REMARK SMILES IDX 81 24 82 25 86 26 83 27 85 28 84 29 7 30 8 31 9 32 10 34
REMARK SMILES IDX 11 35 12 36 70 37 13 38 69 39 14 40 15 41 16 42 63 43 17 44
REMARK SMILES IDX 68 45 62 46 64 47 18 48 67 49 61 50 60 51 19 53 49 54 30 55
REMARK SMILES IDX 48 56 31 57 34 58 47 59 65 60 32 61 33 62 46 64 66 65 35 66
REMARK SMILES IDX 20 67 21 68 29 69 22 70 28 71 23 72 24 73 25 74 26 75 27 76
REMARK SMILES IDX 50 77 51 78 59 79 52 80 58 81 53 82 54 83 55 84 56 85 57 86
REMARK SMILES IDX 36 87 37 88 45 89 38 90 44 91 39 92 40 93 41 94 42 95 43 96
REMARK H PARENT 3 7 8 33 64 52 34 63
REMARK Flexibility Score: inf
ROOT
ATOM      1  C   UNL A   1      34.088  29.610  26.881  1.00  0.00     0.023 C 
ENDROOT
BRANCH   1   2
ATOM      2  C   UNL A   1      32.879  28.753  27.265  1.00  0.00     0.023 C 
BRANCH   2   3
ATOM      3  C   UNL A   1      32.801  27.392  26.572  1.00  0.00     0.116 C 
BRANCH   3   4
ATOM      4  N   UNL A   1      31.574  26.668  26.870  1.00  0.00    -0.352 N 
ATOM      5  O   UNL A   1      29.769  25.377  26.508  1.00  0.00    -0.270 OA
ATOM      6  C   UNL A   1      30.845  25.806  26.102  1.00  0.00     0.251 C 
ATOM      7  H   UNL A   1      31.210  26.827  27.771  1.00  0.00     0.163 HD
BRANCH   6   8
ATOM      8  C   UNL A   1      31.322  25.390  24.769  1.00  0.00     0.067 C 
ATOM      9  C   UNL A   1      31.499  24.092  24.495  1.00  0.00     0.026 C 
ATOM     10  C   UNL A   1      31.959  26.401  23.875  1.00  0.00     0.314 C 
ATOM     11  C   UNL A   1      32.937  23.752  24.421  1.00  0.00     0.033 A 
ATOM     12  O   UNL A   1      33.331  26.025  23.536  1.00  0.00    -0.475 OA
ATOM     13  C   UNL A   1      33.785  24.793  23.960  1.00  0.00     0.129 A 
ATOM     14  C   UNL A   1      33.460  22.529  24.912  1.00  0.00     0.042 A 
ATOM     15  C   UNL A   1      35.164  24.654  24.024  1.00  0.00     0.049 A 
ATOM     16  C   UNL A   1      34.872  22.451  25.011  1.00  0.00     0.055 A 
ATOM     17  C   UNL A   1      35.703  23.499  24.580  1.00  0.00     0.025 A 
ATOM     18  Cl  UNL A   1      35.694  21.098  25.729  1.00  0.00    -0.083 Cl
BRANCH  10  19
ATOM     19  C   UNL A   1      31.137  26.620  22.594  1.00  0.00     0.429 C 
ATOM     20  F   UNL A   1      29.804  26.490  22.811  1.00  0.00    -0.167 F 
ATOM     21  F   UNL A   1      31.335  27.849  22.063  1.00  0.00    -0.167 F 
ATOM     22  F   UNL A   1      31.472  25.721  21.637  1.00  0.00    -0.167 F 
ENDBRANCH  10  19
BRANCH  14  23
ATOM     23  S   UNL A   1      32.489  21.085  25.445  1.00  0.00    -0.088 SA
BRANCH  23  24
ATOM     24  C   UNL A   1      32.840  19.730  24.352  1.00  0.00     0.012 A 
ATOM     25  C   UNL A   1      33.745  18.734  24.740  1.00  0.00     0.015 A 
ATOM     26  C   UNL A   1      32.179  19.611  23.121  1.00  0.00     0.015 A 
ATOM     27  C   UNL A   1      33.907  17.587  23.959  1.00  0.00     0.001 A 
ATOM     28  C   UNL A   1      32.330  18.455  22.350  1.00  0.00     0.001 A 
ATOM     29  C   UNL A   1      33.181  17.438  22.779  1.00  0.00     0.000 A 
ENDBRANCH  23  24
ENDBRANCH  14  23
ENDBRANCH   6   8
ENDBRANCH   3   4
ENDBRANCH   2   3
ENDBRANCH   1   2
BRANCH   1  30
ATOM     30  C   UNL A   1      35.405  29.329  27.608  1.00  0.00     0.116 C 
BRANCH  30  31
ATOM     31  N   UNL A   1      35.358  29.540  29.046  1.00  0.00    -0.352 N 
ATOM     32  C   UNL A   1      36.382  29.703  29.953  1.00  0.00     0.251 C 
ATOM     33  H   UNL A   1      34.453  29.570  29.432  1.00  0.00     0.163 HD
ATOM     34  O   UNL A   1      36.108  29.851  31.143  1.00  0.00    -0.269 OA
BRANCH  32  35
ATOM     35  C   UNL A   1      37.802  29.644  29.524  1.00  0.00     0.039 A 
ATOM     36  C   UNL A   1      38.779  29.373  30.488  1.00  0.00     0.014 A 
ATOM     37  C   UNL A   1      38.181  29.830  28.192  1.00  0.00     0.014 A 
ATOM     38  C   UNL A   1      40.111  29.186  30.101  1.00  0.00     0.010 A 
ATOM     39  C   UNL A   1      39.497  29.572  27.798  1.00  0.00     0.010 A 
ATOM     40  C   UNL A   1      40.474  29.227  28.744  1.00  0.00    -0.014 A 
BRANCH  40  41
ATOM     41  C   UNL A   1      41.847  28.843  28.314  1.00  0.00     0.031 A 
ATOM     42  C   UNL A   1      42.961  29.854  28.252  1.00  0.00     0.074 A 
ATOM     43  C   UNL A   1      42.082  27.573  27.923  1.00  0.00     0.049 A 
ATOM     44  N   UNL A   1      44.220  29.673  27.940  1.00  0.00    -0.248 NA
ATOM     45  C   UNL A   1      42.613  31.249  28.557  1.00  0.00     0.031 C 
ATOM     46  C   UNL A   1      41.081  26.504  27.870  1.00  0.00     0.029 A 
ATOM     47  N   UNL A   1      43.239  26.961  27.503  1.00  0.00    -0.354 N 
ATOM     48  C   UNL A   1      44.813  30.930  27.995  1.00  0.00     0.074 A 
ATOM     49  C   UNL A   1      43.763  31.870  28.328  1.00  0.00     0.031 C 
ATOM     50  C   UNL A   1      41.676  25.361  27.492  1.00  0.00     0.029 A 
ATOM     51  C   UNL A   1      43.090  25.618  27.245  1.00  0.00     0.049 A 
ATOM     52  H   UNL A   1      44.093  27.438  27.397  1.00  0.00     0.167 HD
ATOM     53  C   UNL A   1      46.111  31.271  27.804  1.00  0.00     0.031 A 
ATOM     54  C   UNL A   1      43.992  24.689  26.871  1.00  0.00     0.031 A 
ATOM     55  C   UNL A   1      47.159  30.338  27.478  1.00  0.00     0.049 A 
ATOM     56  C   UNL A   1      45.429  25.086  26.688  1.00  0.00     0.074 A 
ATOM     57  C   UNL A   1      48.515  30.578  27.339  1.00  0.00     0.029 A 
ATOM     58  N   UNL A   1      46.968  28.986  27.230  1.00  0.00    -0.354 N 
ATOM     59  N   UNL A   1      45.984  26.264  26.837  1.00  0.00    -0.248 NA
ATOM     60  C   UNL A   1      46.364  24.020  26.303  1.00  0.00     0.031 C 
ATOM     61  C   UNL A   1      49.138  29.382  26.961  1.00  0.00     0.029 A 
ATOM     62  C   UNL A   1      48.177  28.385  26.916  1.00  0.00     0.049 A 
ATOM     63  H   UNL A   1      46.101  28.523  27.272  1.00  0.00     0.167 HD
ATOM     64  C   UNL A   1      47.340  26.076  26.591  1.00  0.00     0.074 A 
ATOM     65  C   UNL A   1      47.520  24.668  26.299  1.00  0.00     0.031 C 
ATOM     66  C   UNL A   1      48.345  26.987  26.610  1.00  0.00     0.031 A 
BRANCH  53  67
ATOM     67  C   UNL A   1      46.466  32.730  27.932  1.00  0.00    -0.014 A 
ATOM     68  C   UNL A   1      46.435  33.587  26.816  1.00  0.00     0.010 A 
ATOM     69  C   UNL A   1      46.817  33.257  29.188  1.00  0.00     0.010 A 
ATOM     70  C   UNL A   1      46.805  34.930  26.943  1.00  0.00     0.020 A 
ATOM     71  C   UNL A   1      47.162  34.605  29.324  1.00  0.00     0.020 A 
ATOM     72  C   UNL A   1      47.177  35.427  28.195  1.00  0.00     0.054 A 
BRANCH  72  73
ATOM     73  S   UNL A   1      47.660  37.171  28.332  1.00  0.00     0.124 S 
ATOM     74  O   UNL A   1      47.067  37.742  27.126  1.00  0.00    -0.237 OA
ATOM     75  O   UNL A   1      47.041  37.579  29.591  1.00  0.00    -0.237 OA
ATOM     76  O   UNL A   1      49.121  37.124  28.346  1.00  0.00    -0.744 OA
ENDBRANCH  72  73
ENDBRANCH  53  67
BRANCH  54  77
ATOM     77  C   UNL A   1      43.568  23.272  26.700  1.00  0.00    -0.014 A 
ATOM     78  C   UNL A   1      43.747  22.627  25.464  1.00  0.00     0.010 A 
ATOM     79  C   UNL A   1      43.001  22.558  27.770  1.00  0.00     0.010 A 
ATOM     80  C   UNL A   1      43.357  21.295  25.296  1.00  0.00     0.020 A 
ATOM     81  C   UNL A   1      42.633  21.218  27.613  1.00  0.00     0.020 A 
ATOM     82  C   UNL A   1      42.804  20.598  26.374  1.00  0.00     0.054 A 
BRANCH  82  83
ATOM     83  S   UNL A   1      42.367  18.851  26.152  1.00  0.00     0.124 S 
ATOM     84  O   UNL A   1      40.961  18.936  25.772  1.00  0.00    -0.237 OA
ATOM     85  O   UNL A   1      43.285  18.425  25.099  1.00  0.00    -0.237 OA
ATOM     86  O   UNL A   1      42.627  18.267  27.466  1.00  0.00    -0.744 OA
ENDBRANCH  82  83
ENDBRANCH  54  77
BRANCH  66  87
ATOM     87  C   UNL A   1      49.734  26.477  26.331  1.00  0.00    -0.014 A 
ATOM     88  C   UNL A   1      50.274  26.500  25.032  1.00  0.00     0.010 A 
ATOM     89  C   UNL A   1      50.511  25.966  27.387  1.00  0.00     0.010 A 
ATOM     90  C   UNL A   1      51.545  25.973  24.786  1.00  0.00     0.020 A 
ATOM     91  C   UNL A   1      51.793  25.463  27.149  1.00  0.00     0.020 A 
ATOM     92  C   UNL A   1      52.292  25.448  25.845  1.00  0.00     0.054 A 
BRANCH  92  93
ATOM     93  S   UNL A   1      53.940  24.768  25.505  1.00  0.00     0.124 S 
ATOM     94  O   UNL A   1      54.596  24.903  26.802  1.00  0.00    -0.237 OA
ATOM     95  O   UNL A   1      53.646  23.399  25.089  1.00  0.00    -0.237 OA
ATOM     96  O   UNL A   1      54.459  25.634  24.449  1.00  0.00    -0.744 OA
ENDBRANCH  92  93
ENDBRANCH  66  87
ENDBRANCH  40  41
ENDBRANCH  32  35
ENDBRANCH  30  31
ENDBRANCH   1  30
TORSDOF 17
ENDMDL
MODEL 3
REMARK VINA RESULT:     -11.2      3.129      9.503
REMARK SMILES O=C(NCCCCNC(=O)c1ccc(-c2c3nc(c(-c4ccc(S(=O)(=O)[O-])cc4)c4ccc([nH]4)c(-c4ccc(S(=O)(=O)[O-])cc4)c4nc(c(-c5ccc(S(=O)(=O)[O-])cc5)c5ccc2[nH]5)C=C4)C=C3)cc1)C1=Cc2c(ccc(Cl)c2Sc2ccccc2)O[C@H]1C(F)(F)F
REMARK SMILES IDX 6 1 5 2 4 3 3 4 1 5 2 6 71 8 72 9 88 10 73 11 87 12 74 13
REMARK SMILES IDX 79 14 75 15 77 16 76 17 78 18 89 19 90 20 91 21 92 22 80 23
REMARK SMILES IDX 81 24 82 25 86 26 83 27 85 28 84 29 7 30 8 31 9 32 10 34
REMARK SMILES IDX 11 35 12 36 70 37 13 38 69 39 14 40 15 41 16 42 63 43 17 44
REMARK SMILES IDX 68 45 62 46 64 47 18 48 67 49 61 50 60 51 19 53 49 54 30 55
REMARK SMILES IDX 48 56 31 57 34 58 47 59 65 60 32 61 33 62 46 64 66 65 35 66
REMARK SMILES IDX 20 67 21 68 29 69 22 70 28 71 23 72 24 73 25 74 26 75 27 76
REMARK SMILES IDX 50 77 51 78 59 79 52 80 58 81 53 82 54 83 55 84 56 85 57 86
REMARK SMILES IDX 36 87 37 88 45 89 38 90 44 91 39 92 40 93 41 94 42 95 43 96
REMARK H PARENT 3 7 8 33 64 52 34 63
REMARK Flexibility Score: inf
ROOT
ATOM      1  C   UNL A   1      32.504  29.241  25.902  1.00  0.00     0.023 C 
ENDROOT
BRANCH   1   2
ATOM      2  C   UNL A   1      31.677  27.979  26.157  1.00  0.00     0.023 C 
BRANCH   2   3
ATOM      3  C   UNL A   1      32.489  26.696  26.340  1.00  0.00     0.116 C 
BRANCH   3   4
ATOM      4  N   UNL A   1      31.760  25.655  27.051  1.00  0.00    -0.352 N 
ATOM      5  O   UNL A   1      30.569  23.772  27.353  1.00  0.00    -0.270 OA
ATOM      6  C   UNL A   1      31.250  24.470  26.606  1.00  0.00     0.251 C 
ATOM      7  H   UNL A   1      31.610  25.837  28.007  1.00  0.00     0.163 HD
BRANCH   6   8
ATOM      8  C   UNL A   1      31.487  24.013  25.222  1.00  0.00     0.067 C 
ATOM      9  C   UNL A   1      31.885  22.757  24.990  1.00  0.00     0.026 C 
ATOM     10  C   UNL A   1      31.655  25.027  24.141  1.00  0.00     0.314 C 
ATOM     11  C   UNL A   1      33.305  22.713  24.579  1.00  0.00     0.033 A 
ATOM     12  O   UNL A   1      32.960  24.904  23.492  1.00  0.00    -0.475 OA
ATOM     13  C   UNL A   1      33.766  23.847  23.860  1.00  0.00     0.129 A 
ATOM     14  C   UNL A   1      34.190  21.686  24.994  1.00  0.00     0.042 A 
ATOM     15  C   UNL A   1      35.117  24.002  23.586  1.00  0.00     0.049 A 
ATOM     16  C   UNL A   1      35.566  21.910  24.742  1.00  0.00     0.055 A 
ATOM     17  C   UNL A   1      36.017  23.051  24.056  1.00  0.00     0.025 A 
ATOM     18  Cl  UNL A   1      36.816  20.843  25.310  1.00  0.00    -0.083 Cl
BRANCH  10  19
ATOM     19  C   UNL A   1      30.531  24.929  23.095  1.00  0.00     0.429 C 
ATOM     20  F   UNL A   1      30.054  23.665  22.972  1.00  0.00    -0.167 F 
ATOM     21  F   UNL A   1      29.480  25.724  23.398  1.00  0.00    -0.167 F 
ATOM     22  F   UNL A   1      30.969  25.307  21.869  1.00  0.00    -0.167 F 
ENDBRANCH  10  19
BRANCH  14  23
ATOM     23  S   UNL A   1      33.720  20.142  25.837  1.00  0.00    -0.088 SA
BRANCH  23  24
ATOM     24  C   UNL A   1      33.526  18.866  24.617  1.00  0.00     0.012 A 
ATOM     25  C   UNL A   1      32.552  18.995  23.618  1.00  0.00     0.015 A 
ATOM     26  C   UNL A   1      34.375  17.750  24.605  1.00  0.00     0.015 A 
ATOM     27  C   UNL A   1      32.498  18.077  22.566  1.00  0.00     0.001 A 
ATOM     28  C   UNL A   1      34.330  16.843  23.542  1.00  0.00     0.001 A 
ATOM     29  C   UNL A   1      33.402  17.017  22.516  1.00  0.00     0.000 A 
ENDBRANCH  23  24
ENDBRANCH  14  23
ENDBRANCH   6   8
ENDBRANCH   3   4
ENDBRANCH   2   3
ENDBRANCH   1   2
BRANCH   1  30
ATOM     30  C   UNL A   1      33.758  29.442  26.757  1.00  0.00     0.116 C 
BRANCH  30  31
ATOM     31  N   UNL A   1      33.714  30.603  27.630  1.00  0.00    -0.352 N 
ATOM     32  C   UNL A   1      34.667  31.105  28.490  1.00  0.00     0.251 C 
ATOM     33  H   UNL A   1      32.871  31.110  27.604  1.00  0.00     0.163 HD
ATOM     34  O   UNL A   1      34.404  32.104  29.156  1.00  0.00    -0.269 OA
BRANCH  32  35
ATOM     35  C   UNL A   1      35.975  30.425  28.663  1.00  0.00     0.039 A 
ATOM     36  C   UNL A   1      36.912  30.509  27.626  1.00  0.00     0.014 A 
ATOM     37  C   UNL A   1      36.300  29.730  29.830  1.00  0.00     0.014 A 
ATOM     38  C   UNL A   1      38.199  29.989  27.803  1.00  0.00     0.010 A 
ATOM     39  C   UNL A   1      37.606  29.275  30.032  1.00  0.00     0.010 A 
ATOM     40  C   UNL A   1      38.577  29.417  29.030  1.00  0.00    -0.014 A 
BRANCH  40  41
ATOM     41  C   UNL A   1      39.994  29.036  29.285  1.00  0.00     0.031 A 
ATOM     42  C   UNL A   1      40.957  29.989  29.942  1.00  0.00     0.074 A 
ATOM     43  C   UNL A   1      40.435  27.830  28.871  1.00  0.00     0.049 A 
ATOM     44  N   UNL A   1      42.210  29.797  30.272  1.00  0.00    -0.248 NA
ATOM     45  C   UNL A   1      40.457  31.338  30.247  1.00  0.00     0.031 C 
ATOM     46  C   UNL A   1      39.630  26.831  28.163  1.00  0.00     0.029 A 
ATOM     47  N   UNL A   1      41.667  27.233  28.991  1.00  0.00    -0.354 N 
ATOM     48  C   UNL A   1      42.653  31.000  30.809  1.00  0.00     0.074 A 
ATOM     49  C   UNL A   1      41.546  31.929  30.718  1.00  0.00     0.031 C 
ATOM     50  C   UNL A   1      40.372  25.731  27.958  1.00  0.00     0.029 A 
ATOM     51  C   UNL A   1      41.712  25.953  28.489  1.00  0.00     0.049 A 
ATOM     52  H   UNL A   1      42.444  27.678  29.399  1.00  0.00     0.167 HD
ATOM     53  C   UNL A   1      43.863  31.303  31.343  1.00  0.00     0.031 A 
ATOM     54  C   UNL A   1      42.711  25.049  28.472  1.00  0.00     0.031 A 
ATOM     55  C   UNL A   1      44.964  30.380  31.439  1.00  0.00     0.049 A 
ATOM     56  C   UNL A   1      44.034  25.399  29.091  1.00  0.00     0.074 A 
ATOM     57  C   UNL A   1      46.201  30.573  32.032  1.00  0.00     0.029 A 
ATOM     58  N   UNL A   1      44.967  29.093  30.923  1.00  0.00    -0.354 N 
ATOM     59  N   UNL A   1      44.402  26.513  29.677  1.00  0.00    -0.248 NA
ATOM     60  C   UNL A   1      45.072  24.359  29.061  1.00  0.00     0.031 C 
ATOM     61  C   UNL A   1      46.969  29.419  31.832  1.00  0.00     0.029 A 
ATOM     62  C   UNL A   1      46.192  28.488  31.162  1.00  0.00     0.049 A 
ATOM     63  H   UNL A   1      44.210  28.671  30.457  1.00  0.00     0.167 HD
ATOM     64  C   UNL A   1      45.706  26.298  30.110  1.00  0.00     0.074 A 
ATOM     65  C   UNL A   1      46.055  24.943  29.732  1.00  0.00     0.031 C 
ATOM     66  C   UNL A   1      46.536  27.145  30.767  1.00  0.00     0.031 A 
BRANCH  53  67
ATOM     67  C   UNL A   1      44.057  32.708  31.855  1.00  0.00    -0.014 A 
ATOM     68  C   UNL A   1      43.706  33.057  33.173  1.00  0.00     0.010 A 
ATOM     69  C   UNL A   1      44.616  33.688  31.015  1.00  0.00     0.010 A 
ATOM     70  C   UNL A   1      43.855  34.373  33.621  1.00  0.00     0.020 A 
ATOM     71  C   UNL A   1      44.792  34.998  31.467  1.00  0.00     0.020 A 
ATOM     72  C   UNL A   1      44.388  35.337  32.760  1.00  0.00     0.054 A 
BRANCH  72  73
ATOM     73  S   UNL A   1      44.565  37.040  33.363  1.00  0.00     0.124 S 
ATOM     74  O   UNL A   1      43.795  37.790  32.373  1.00  0.00    -0.237 OA
ATOM     75  O   UNL A   1      43.975  36.972  34.698  1.00  0.00    -0.237 OA
ATOM     76  O   UNL A   1      46.007  37.269  33.334  1.00  0.00    -0.744 OA
ENDBRANCH  72  73
ENDBRANCH  53  67
BRANCH  54  77
ATOM     77  C   UNL A   1      42.476  23.697  27.896  1.00  0.00    -0.014 A 
ATOM     78  C   UNL A   1      42.643  23.479  26.517  1.00  0.00     0.010 A 
ATOM     79  C   UNL A   1      42.103  22.619  28.719  1.00  0.00     0.010 A 
ATOM     80  C   UNL A   1      42.430  22.211  25.968  1.00  0.00     0.020 A 
ATOM     81  C   UNL A   1      41.914  21.345  28.177  1.00  0.00     0.020 A 
ATOM     82  C   UNL A   1      42.069  21.150  26.803  1.00  0.00     0.054 A 
BRANCH  82  83
ATOM     83  S   UNL A   1      41.863  19.500  26.079  1.00  0.00     0.124 S 
ATOM     84  O   UNL A   1      42.757  19.559  24.928  1.00  0.00    -0.237 OA
ATOM     85  O   UNL A   1      42.286  18.621  27.167  1.00  0.00    -0.237 OA
ATOM     86  O   UNL A   1      40.437  19.443  25.764  1.00  0.00    -0.744 OA
ENDBRANCH  82  83
ENDBRANCH  54  77
BRANCH  66  87
ATOM     87  C   UNL A   1      47.897  26.617  31.139  1.00  0.00    -0.014 A 
ATOM     88  C   UNL A   1      48.143  26.061  32.407  1.00  0.00     0.010 A 
ATOM     89  C   UNL A   1      48.945  26.679  30.202  1.00  0.00     0.010 A 
ATOM     90  C   UNL A   1      49.427  25.625  32.751  1.00  0.00     0.020 A 
ATOM     91  C   UNL A   1      50.223  26.219  30.533  1.00  0.00     0.020 A 
ATOM     92  C   UNL A   1      50.461  25.717  31.814  1.00  0.00     0.054 A 
BRANCH  92  93
ATOM     93  S   UNL A   1      52.119  25.147  32.279  1.00  0.00     0.124 S 
ATOM     94  O   UNL A   1      52.945  25.732  31.227  1.00  0.00    -0.237 OA
ATOM     95  O   UNL A   1      52.298  25.721  33.610  1.00  0.00    -0.237 OA
ATOM     96  O   UNL A   1      52.005  23.690  32.246  1.00  0.00    -0.744 OA
ENDBRANCH  92  93
ENDBRANCH  66  87
ENDBRANCH  40  41
ENDBRANCH  32  35
ENDBRANCH  30  31
ENDBRANCH   1  30
TORSDOF 17
ENDMDL
