MODEL 1
REMARK VINA RESULT:      -9.4      0.000      0.000
REMARK SMILES [NH3+]CCOCC(=O)N[C@]1(C(=O)NCCCCNC(=O)c2ccc(-c3c4nc(c(-c5ccc(S(=O)(=O)[O-])cc5)c5ccc([nH]5)c(-c5ccc(S(=O)(=O)[O-])cc5)c5nc(c(-c6ccc(S(=O)(=O)[O-])cc6)c6ccc3[nH]6)C=C5)C=C4)cc2)CCOC1
REMARK SMILES IDX 13 1 12 2 10 3 11 4 9 6 80 7 83 8 81 9 82 10 8 11 6 12 7 13
REMARK SMILES IDX 5 15 4 16 3 17 2 18 1 19 14 23 15 24 16 25 17 26 18 27 19 29
REMARK SMILES IDX 20 30 21 31 79 32 22 33 78 34 23 35 24 36 25 37 72 38 26 39
REMARK SMILES IDX 77 40 71 41 73 42 27 43 76 44 70 45 69 46 28 48 58 49 39 50
REMARK SMILES IDX 57 51 40 52 43 53 56 54 74 55 41 56 42 57 55 59 75 60 44 61
REMARK SMILES IDX 29 62 30 63 38 64 31 65 37 66 32 67 33 68 34 69 35 70 36 71
REMARK SMILES IDX 59 72 60 73 68 74 61 75 67 76 62 77 63 78 64 79 65 80 66 81
REMARK SMILES IDX 45 82 46 83 54 84 47 85 53 86 48 87 49 88 50 89 51 90 52 91
REMARK H PARENT 12 5 8 14 1 20 1 21 1 22 17 28 73 47 43 58
REMARK Flexibility Score: inf
ROOT
ATOM      1  C   UNL A   1      31.137  26.136  26.432  1.00  0.00     0.116 C 
ENDROOT
BRANCH   1   2
ATOM      2  N   UNL A   1      32.347  25.337  26.534  1.00  0.00    -0.354 N 
ATOM      3  C   UNL A   1      32.571  24.246  25.735  1.00  0.00     0.248 C 
ATOM      4  O   UNL A   1      32.517  23.139  26.269  1.00  0.00    -0.272 OA
ATOM      5  H   UNL A   1      33.028  25.587  27.200  1.00  0.00     0.163 HD
BRANCH   3   6
ATOM      6  C   UNL A   1      32.728  24.427  24.203  1.00  0.00     0.144 C 
ATOM      7  C   UNL A   1      33.939  23.584  23.787  1.00  0.00     0.069 C 
ATOM      8  C   UNL A   1      31.581  23.825  23.367  1.00  0.00     0.198 C 
ATOM      9  C   UNL A   1      33.566  23.030  22.437  1.00  0.00     0.163 C 
ATOM     10  O   UNL A   1      32.148  22.890  22.426  1.00  0.00    -0.378 OA
BRANCH   6  11
ATOM     11  N   UNL A   1      33.011  25.818  23.740  1.00  0.00    -0.338 N 
ATOM     12  C   UNL A   1      32.305  26.681  22.959  1.00  0.00     0.246 C 
ATOM     13  O   UNL A   1      32.944  27.511  22.302  1.00  0.00    -0.272 OA
ATOM     14  H   UNL A   1      33.869  26.179  24.059  1.00  0.00     0.164 HD
BRANCH  12  15
ATOM     15  C   UNL A   1      30.778  26.698  22.947  1.00  0.00     0.260 C 
BRANCH  15  16
ATOM     16  O   UNL A   1      30.158  27.796  23.586  1.00  0.00    -0.366 OA
BRANCH  16  17
ATOM     17  C   UNL A   1      29.248  28.525  22.764  1.00  0.00     0.222 C 
BRANCH  17  18
ATOM     18  C   UNL A   1      29.732  29.932  22.369  1.00  0.00     0.287 C 
BRANCH  18  19
ATOM     19  N   UNL A   1      30.990  29.980  21.616  1.00  0.00    -0.356 N 
ATOM     20  H   UNL A   1      31.324  30.943  21.573  1.00  0.00     0.344 HD
ATOM     21  H   UNL A   1      30.833  29.632  20.670  1.00  0.00     0.344 HD
ATOM     22  H   UNL A   1      31.686  29.399  22.081  1.00  0.00     0.344 HD
ENDBRANCH  18  19
ENDBRANCH  17  18
ENDBRANCH  16  17
ENDBRANCH  15  16
ENDBRANCH  12  15
ENDBRANCH   6  11
ENDBRANCH   3   6
ENDBRANCH   1   2
BRANCH   1  23
ATOM     23  C   UNL A   1      31.416  27.584  26.848  1.00  0.00     0.023 C 
BRANCH  23  24
ATOM     24  C   UNL A   1      32.700  28.170  26.253  1.00  0.00     0.023 C 
BRANCH  24  25
ATOM     25  C   UNL A   1      33.756  28.554  27.280  1.00  0.00     0.116 C 
BRANCH  25  26
ATOM     26  N   UNL A   1      33.684  29.960  27.647  1.00  0.00    -0.352 N 
ATOM     27  C   UNL A   1      34.626  30.737  28.270  1.00  0.00     0.251 C 
ATOM     28  H   UNL A   1      32.844  30.416  27.414  1.00  0.00     0.163 HD
ATOM     29  O   UNL A   1      34.333  31.866  28.655  1.00  0.00    -0.269 OA
BRANCH  27  30
ATOM     30  C   UNL A   1      35.979  30.194  28.498  1.00  0.00     0.039 A 
ATOM     31  C   UNL A   1      36.915  30.257  27.464  1.00  0.00     0.014 A 
ATOM     32  C   UNL A   1      36.328  29.650  29.738  1.00  0.00     0.014 A 
ATOM     33  C   UNL A   1      38.221  29.829  27.695  1.00  0.00     0.010 A 
ATOM     34  C   UNL A   1      37.648  29.300  29.989  1.00  0.00     0.010 A 
ATOM     35  C   UNL A   1      38.608  29.381  28.969  1.00  0.00    -0.014 A 
BRANCH  35  36
ATOM     36  C   UNL A   1      40.013  28.994  29.254  1.00  0.00     0.031 A 
ATOM     37  C   UNL A   1      40.958  29.985  29.875  1.00  0.00     0.074 A 
ATOM     38  C   UNL A   1      40.449  27.769  28.898  1.00  0.00     0.049 A 
ATOM     39  N   UNL A   1      42.229  29.849  30.153  1.00  0.00    -0.248 NA
ATOM     40  C   UNL A   1      40.411  31.312  30.205  1.00  0.00     0.031 C 
ATOM     41  C   UNL A   1      39.640  26.734  28.250  1.00  0.00     0.029 A 
ATOM     42  N   UNL A   1      41.686  27.187  29.026  1.00  0.00    -0.354 N 
ATOM     43  C   UNL A   1      42.635  31.071  30.676  1.00  0.00     0.074 A 
ATOM     44  C   UNL A   1      41.491  31.953  30.624  1.00  0.00     0.031 C 
ATOM     45  C   UNL A   1      40.391  25.637  28.067  1.00  0.00     0.029 A 
ATOM     46  C   UNL A   1      41.746  25.903  28.539  1.00  0.00     0.049 A 
ATOM     47  H   UNL A   1      42.458  27.647  29.430  1.00  0.00     0.167 HD
ATOM     48  C   UNL A   1      43.844  31.420  31.174  1.00  0.00     0.031 A 
ATOM     49  C   UNL A   1      42.776  25.038  28.473  1.00  0.00     0.031 A 
ATOM     50  C   UNL A   1      44.978  30.535  31.227  1.00  0.00     0.049 A 
ATOM     51  C   UNL A   1      44.117  25.456  29.015  1.00  0.00     0.074 A 
ATOM     52  C   UNL A   1      46.233  30.776  31.758  1.00  0.00     0.029 A 
ATOM     53  N   UNL A   1      44.997  29.241  30.727  1.00  0.00    -0.354 N 
ATOM     54  N   UNL A   1      44.462  26.594  29.569  1.00  0.00    -0.248 NA
ATOM     55  C   UNL A   1      45.201  24.468  28.936  1.00  0.00     0.031 C 
ATOM     56  C   UNL A   1      47.028  29.648  31.527  1.00  0.00     0.029 A 
ATOM     57  C   UNL A   1      46.248  28.681  30.913  1.00  0.00     0.049 A 
ATOM     58  H   UNL A   1      44.232  28.788  30.303  1.00  0.00     0.167 HD
ATOM     59  C   UNL A   1      45.798  26.448  29.929  1.00  0.00     0.074 A 
ATOM     60  C   UNL A   1      46.189  25.107  29.547  1.00  0.00     0.031 C 
ATOM     61  C   UNL A   1      46.624  27.343  30.525  1.00  0.00     0.031 A 
BRANCH  48  62
ATOM     62  C   UNL A   1      44.005  32.825  31.696  1.00  0.00    -0.014 A 
ATOM     63  C   UNL A   1      43.776  33.129  33.051  1.00  0.00     0.010 A 
ATOM     64  C   UNL A   1      44.427  33.849  30.829  1.00  0.00     0.010 A 
ATOM     65  C   UNL A   1      43.922  34.437  33.519  1.00  0.00     0.020 A 
ATOM     66  C   UNL A   1      44.605  35.153  31.300  1.00  0.00     0.020 A 
ATOM     67  C   UNL A   1      44.335  35.442  32.639  1.00  0.00     0.054 A 
BRANCH  67  68
ATOM     68  S   UNL A   1      44.538  37.126  33.280  1.00  0.00     0.124 S 
ATOM     69  O   UNL A   1      45.022  37.840  32.101  1.00  0.00    -0.237 OA
ATOM     70  O   UNL A   1      43.184  37.470  33.709  1.00  0.00    -0.237 OA
ATOM     71  O   UNL A   1      45.512  36.973  34.358  1.00  0.00    -0.744 OA
ENDBRANCH  67  68
ENDBRANCH  48  62
BRANCH  49  72
ATOM     72  C   UNL A   1      42.577  23.687  27.879  1.00  0.00    -0.014 A 
ATOM     73  C   UNL A   1      43.122  23.368  26.624  1.00  0.00     0.010 A 
ATOM     74  C   UNL A   1      41.847  22.705  28.575  1.00  0.00     0.010 A 
ATOM     75  C   UNL A   1      42.925  22.101  26.066  1.00  0.00     0.020 A 
ATOM     76  C   UNL A   1      41.675  21.427  28.035  1.00  0.00     0.020 A 
ATOM     77  C   UNL A   1      42.206  21.137  26.777  1.00  0.00     0.054 A 
BRANCH  77  78
ATOM     78  S   UNL A   1      42.006  19.486  26.055  1.00  0.00     0.124 S 
ATOM     79  O   UNL A   1      42.804  19.588  24.837  1.00  0.00    -0.237 OA
ATOM     80  O   UNL A   1      42.549  18.619  27.097  1.00  0.00    -0.237 OA
ATOM     81  O   UNL A   1      40.563  19.373  25.850  1.00  0.00    -0.744 OA
ENDBRANCH  77  78
ENDBRANCH  49  72
BRANCH  61  82
ATOM     82  C   UNL A   1      48.027  26.893  30.838  1.00  0.00    -0.014 A 
ATOM     83  C   UNL A   1      49.080  27.089  29.926  1.00  0.00     0.010 A 
ATOM     84  C   UNL A   1      48.304  26.315  32.091  1.00  0.00     0.010 A 
ATOM     85  C   UNL A   1      50.378  26.686  30.250  1.00  0.00     0.020 A 
ATOM     86  C   UNL A   1      49.606  25.939  32.430  1.00  0.00     0.020 A 
ATOM     87  C   UNL A   1      50.633  26.115  31.501  1.00  0.00     0.054 A 
BRANCH  87  88
ATOM     88  S   UNL A   1      52.334  25.643  31.913  1.00  0.00     0.124 S 
ATOM     89  O   UNL A   1      53.057  26.018  30.700  1.00  0.00    -0.237 OA
ATOM     90  O   UNL A   1      52.617  26.459  33.091  1.00  0.00    -0.237 OA
ATOM     91  O   UNL A   1      52.246  24.206  32.165  1.00  0.00    -0.744 OA
ENDBRANCH  87  88
ENDBRANCH  61  82
ENDBRANCH  35  36
ENDBRANCH  27  30
ENDBRANCH  25  26
ENDBRANCH  24  25
ENDBRANCH  23  24
ENDBRANCH   1  23
TORSDOF 20
ENDMDL
MODEL 2
REMARK VINA RESULT:      -9.3      1.823      3.227
REMARK SMILES [NH3+]CCOCC(=O)N[C@]1(C(=O)NCCCCNC(=O)c2ccc(-c3c4nc(c(-c5ccc(S(=O)(=O)[O-])cc5)c5ccc([nH]5)c(-c5ccc(S(=O)(=O)[O-])cc5)c5nc(c(-c6ccc(S(=O)(=O)[O-])cc6)c6ccc3[nH]6)C=C5)C=C4)cc2)CCOC1
REMARK SMILES IDX 13 1 12 2 10 3 11 4 9 6 80 7 83 8 81 9 82 10 8 11 6 12 7 13
REMARK SMILES IDX 5 15 4 16 3 17 2 18 1 19 14 23 15 24 16 25 17 26 18 27 19 29
REMARK SMILES IDX 20 30 21 31 79 32 22 33 78 34 23 35 24 36 25 37 72 38 26 39
REMARK SMILES IDX 77 40 71 41 73 42 27 43 76 44 70 45 69 46 28 48 58 49 39 50
REMARK SMILES IDX 57 51 40 52 43 53 56 54 74 55 41 56 42 57 55 59 75 60 44 61
REMARK SMILES IDX 29 62 30 63 38 64 31 65 37 66 32 67 33 68 34 69 35 70 36 71
REMARK SMILES IDX 59 72 60 73 68 74 61 75 67 76 62 77 63 78 64 79 65 80 66 81
REMARK SMILES IDX 45 82 46 83 54 84 47 85 53 86 48 87 49 88 50 89 51 90 52 91
REMARK H PARENT 12 5 8 14 1 20 1 21 1 22 17 28 73 47 43 58
REMARK Flexibility Score: inf
ROOT
ATOM      1  C   UNL A   1      32.433  25.368  25.317  1.00  0.00     0.116 C 
ENDROOT
BRANCH   1   2
ATOM      2  N   UNL A   1      33.607  24.923  26.049  1.00  0.00    -0.354 N 
ATOM      3  C   UNL A   1      34.001  23.610  26.067  1.00  0.00     0.248 C 
ATOM      4  O   UNL A   1      33.854  22.994  27.123  1.00  0.00    -0.272 OA
ATOM      5  H   UNL A   1      34.136  25.585  26.550  1.00  0.00     0.163 HD
BRANCH   3   6
ATOM      6  C   UNL A   1      34.463  22.921  24.757  1.00  0.00     0.144 C 
ATOM      7  C   UNL A   1      35.335  23.940  24.013  1.00  0.00     0.069 C 
ATOM      8  C   UNL A   1      35.419  21.730  24.964  1.00  0.00     0.198 C 
ATOM      9  C   UNL A   1      36.418  23.112  23.373  1.00  0.00     0.163 C 
ATOM     10  O   UNL A   1      36.628  21.983  24.217  1.00  0.00    -0.378 OA
BRANCH   6  11
ATOM     11  N   UNL A   1      33.375  22.535  23.809  1.00  0.00    -0.338 N 
ATOM     12  C   UNL A   1      32.551  21.453  23.759  1.00  0.00     0.246 C 
ATOM     13  O   UNL A   1      32.136  21.102  22.649  1.00  0.00    -0.272 OA
ATOM     14  H   UNL A   1      33.226  23.185  23.085  1.00  0.00     0.164 HD
BRANCH  12  15
ATOM     15  C   UNL A   1      32.077  20.737  25.022  1.00  0.00     0.260 C 
BRANCH  15  16
ATOM     16  O   UNL A   1      32.735  19.527  25.342  1.00  0.00    -0.366 OA
BRANCH  16  17
ATOM     17  C   UNL A   1      32.495  18.461  24.425  1.00  0.00     0.222 C 
BRANCH  17  18
ATOM     18  C   UNL A   1      32.625  17.053  25.036  1.00  0.00     0.287 C 
BRANCH  18  19
ATOM     19  N   UNL A   1      33.517  16.134  24.322  1.00  0.00    -0.356 N 
ATOM     20  H   UNL A   1      33.910  16.605  23.507  1.00  0.00     0.344 HD
ATOM     21  H   UNL A   1      32.989  15.316  24.019  1.00  0.00     0.344 HD
ATOM     22  H   UNL A   1      34.272  15.842  24.942  1.00  0.00     0.344 HD
ENDBRANCH  18  19
ENDBRANCH  17  18
ENDBRANCH  16  17
ENDBRANCH  15  16
ENDBRANCH  12  15
ENDBRANCH   6  11
ENDBRANCH   3   6
ENDBRANCH   1   2
BRANCH   1  23
ATOM     23  C   UNL A   1      32.221  26.874  25.511  1.00  0.00     0.023 C 
BRANCH  23  24
ATOM     24  C   UNL A   1      33.110  27.497  26.592  1.00  0.00     0.023 C 
BRANCH  24  25
ATOM     25  C   UNL A   1      34.045  28.589  26.091  1.00  0.00     0.116 C 
BRANCH  25  26
ATOM     26  N   UNL A   1      33.804  29.865  26.745  1.00  0.00    -0.352 N 
ATOM     27  C   UNL A   1      34.567  30.512  27.682  1.00  0.00     0.251 C 
ATOM     28  H   UNL A   1      32.978  30.330  26.475  1.00  0.00     0.163 HD
ATOM     29  O   UNL A   1      34.126  31.507  28.252  1.00  0.00    -0.269 OA
BRANCH  27  30
ATOM     30  C   UNL A   1      35.904  29.985  28.017  1.00  0.00     0.039 A 
ATOM     31  C   UNL A   1      36.926  30.087  27.072  1.00  0.00     0.014 A 
ATOM     32  C   UNL A   1      36.151  29.419  29.272  1.00  0.00     0.014 A 
ATOM     33  C   UNL A   1      38.214  29.674  27.408  1.00  0.00     0.010 A 
ATOM     34  C   UNL A   1      37.450  29.084  29.631  1.00  0.00     0.010 A 
ATOM     35  C   UNL A   1      38.495  29.203  28.702  1.00  0.00    -0.014 A 
BRANCH  35  36
ATOM     36  C   UNL A   1      39.876  28.831  29.101  1.00  0.00     0.031 A 
ATOM     37  C   UNL A   1      40.751  29.829  29.808  1.00  0.00     0.074 A 
ATOM     38  C   UNL A   1      40.357  27.615  28.775  1.00  0.00     0.049 A 
ATOM     39  N   UNL A   1      41.996  29.707  30.192  1.00  0.00    -0.248 NA
ATOM     40  C   UNL A   1      40.160  31.146  30.100  1.00  0.00     0.031 C 
ATOM     41  C   UNL A   1      39.619  26.576  28.053  1.00  0.00     0.029 A 
ATOM     42  N   UNL A   1      41.586  27.049  29.003  1.00  0.00    -0.354 N 
ATOM     43  C   UNL A   1      42.340  30.930  30.756  1.00  0.00     0.074 A 
ATOM     44  C   UNL A   1      41.193  31.798  30.614  1.00  0.00     0.031 C 
ATOM     45  C   UNL A   1      40.398  25.490  27.926  1.00  0.00     0.029 A 
ATOM     46  C   UNL A   1      41.704  25.770  28.513  1.00  0.00     0.049 A 
ATOM     47  H   UNL A   1      42.315  27.514  29.474  1.00  0.00     0.167 HD
ATOM     48  C   UNL A   1      43.498  31.290  31.358  1.00  0.00     0.031 A 
ATOM     49  C   UNL A   1      42.749  24.918  28.528  1.00  0.00     0.031 A 
ATOM     50  C   UNL A   1      44.634  30.419  31.500  1.00  0.00     0.049 A 
ATOM     51  C   UNL A   1      44.032  25.349  29.184  1.00  0.00     0.074 A 
ATOM     52  C   UNL A   1      45.837  30.671  32.137  1.00  0.00     0.029 A 
ATOM     53  N   UNL A   1      44.713  29.130  30.993  1.00  0.00    -0.354 N 
ATOM     54  N   UNL A   1      44.315  26.486  29.774  1.00  0.00    -0.248 NA
ATOM     55  C   UNL A   1      45.133  24.376  29.190  1.00  0.00     0.031 C 
ATOM     56  C   UNL A   1      46.664  29.556  31.965  1.00  0.00     0.029 A 
ATOM     57  C   UNL A   1      45.952  28.584  31.281  1.00  0.00     0.049 A 
ATOM     58  H   UNL A   1      43.993  28.671  30.502  1.00  0.00     0.167 HD
ATOM     59  C   UNL A   1      45.617  26.355  30.245  1.00  0.00     0.074 A 
ATOM     60  C   UNL A   1      46.057  25.022  29.888  1.00  0.00     0.031 C 
ATOM     61  C   UNL A   1      46.377  27.255  30.916  1.00  0.00     0.031 A 
BRANCH  48  62
ATOM     62  C   UNL A   1      43.594  32.692  31.902  1.00  0.00    -0.014 A 
ATOM     63  C   UNL A   1      43.243  32.982  33.233  1.00  0.00     0.010 A 
ATOM     64  C   UNL A   1      44.079  33.728  31.083  1.00  0.00     0.010 A 
ATOM     65  C   UNL A   1      43.331  34.288  33.722  1.00  0.00     0.020 A 
ATOM     66  C   UNL A   1      44.200  35.030  31.577  1.00  0.00     0.020 A 
ATOM     67  C   UNL A   1      43.808  35.304  32.889  1.00  0.00     0.054 A 
BRANCH  67  68
ATOM     68  S   UNL A   1      43.934  36.986  33.558  1.00  0.00     0.124 S 
ATOM     69  O   UNL A   1      43.700  37.800  32.368  1.00  0.00    -0.237 OA
ATOM     70  O   UNL A   1      42.867  37.013  34.556  1.00  0.00    -0.237 OA
ATOM     71  O   UNL A   1      45.290  37.046  34.096  1.00  0.00    -0.744 OA
ENDBRANCH  67  68
ENDBRANCH  48  62
BRANCH  49  72
ATOM     72  C   UNL A   1      42.618  23.570  27.909  1.00  0.00    -0.014 A 
ATOM     73  C   UNL A   1      41.987  22.522  28.602  1.00  0.00     0.010 A 
ATOM     74  C   UNL A   1      43.115  23.330  26.615  1.00  0.00     0.010 A 
ATOM     75  C   UNL A   1      41.873  21.255  28.021  1.00  0.00     0.020 A 
ATOM     76  C   UNL A   1      42.975  22.073  26.018  1.00  0.00     0.020 A 
ATOM     77  C   UNL A   1      42.365  21.040  26.730  1.00  0.00     0.054 A 
BRANCH  77  78
ATOM     78  S   UNL A   1      42.162  19.402  25.979  1.00  0.00     0.124 S 
ATOM     79  O   UNL A   1      42.965  19.522  24.766  1.00  0.00    -0.237 OA
ATOM     80  O   UNL A   1      42.698  18.515  27.008  1.00  0.00    -0.237 OA
ATOM     81  O   UNL A   1      40.719  19.299  25.767  1.00  0.00    -0.744 OA
ENDBRANCH  77  78
ENDBRANCH  49  72
BRANCH  61  82
ATOM     82  C   UNL A   1      47.755  26.820  31.343  1.00  0.00    -0.014 A 
ATOM     83  C   UNL A   1      47.960  26.097  32.532  1.00  0.00     0.010 A 
ATOM     84  C   UNL A   1      48.855  27.091  30.508  1.00  0.00     0.010 A 
ATOM     85  C   UNL A   1      49.244  25.682  32.893  1.00  0.00     0.020 A 
ATOM     86  C   UNL A   1      50.135  26.650  30.850  1.00  0.00     0.020 A 
ATOM     87  C   UNL A   1      50.324  25.960  32.049  1.00  0.00     0.054 A 
BRANCH  87  88
ATOM     88  S   UNL A   1      51.972  25.370  32.518  1.00  0.00     0.124 S 
ATOM     89  O   UNL A   1      52.048  25.764  33.923  1.00  0.00    -0.237 OA
ATOM     90  O   UNL A   1      51.880  23.932  32.273  1.00  0.00    -0.237 OA
ATOM     91  O   UNL A   1      52.870  26.093  31.621  1.00  0.00    -0.744 OA
ENDBRANCH  87  88
ENDBRANCH  61  82
ENDBRANCH  35  36
ENDBRANCH  27  30
ENDBRANCH  25  26
ENDBRANCH  24  25
ENDBRANCH  23  24
ENDBRANCH   1  23
TORSDOF 20
ENDMDL
MODEL 3
REMARK VINA RESULT:      -9.1      2.874      4.219
REMARK SMILES [NH3+]CCOCC(=O)N[C@]1(C(=O)NCCCCNC(=O)c2ccc(-c3c4nc(c(-c5ccc(S(=O)(=O)[O-])cc5)c5ccc([nH]5)c(-c5ccc(S(=O)(=O)[O-])cc5)c5nc(c(-c6ccc(S(=O)(=O)[O-])cc6)c6ccc3[nH]6)C=C5)C=C4)cc2)CCOC1
REMARK SMILES IDX 13 1 12 2 10 3 11 4 9 6 80 7 83 8 81 9 82 10 8 11 6 12 7 13
REMARK SMILES IDX 5 15 4 16 3 17 2 18 1 19 14 23 15 24 16 25 17 26 18 27 19 29
REMARK SMILES IDX 20 30 21 31 79 32 22 33 78 34 23 35 24 36 25 37 72 38 26 39
REMARK SMILES IDX 77 40 71 41 73 42 27 43 76 44 70 45 69 46 28 48 58 49 39 50
REMARK SMILES IDX 57 51 40 52 43 53 56 54 74 55 41 56 42 57 55 59 75 60 44 61
REMARK SMILES IDX 29 62 30 63 38 64 31 65 37 66 32 67 33 68 34 69 35 70 36 71
REMARK SMILES IDX 59 72 60 73 68 74 61 75 67 76 62 77 63 78 64 79 65 80 66 81
REMARK SMILES IDX 45 82 46 83 54 84 47 85 53 86 48 87 49 88 50 89 51 90 52 91
REMARK H PARENT 12 5 8 14 1 20 1 21 1 22 17 28 73 47 43 58
REMARK Flexibility Score: inf
ROOT
ATOM      1  C   UNL A   1      33.157  26.959  23.392  1.00  0.00     0.116 C 
ENDROOT
BRANCH   1   2
ATOM      2  N   UNL A   1      33.400  25.797  24.230  1.00  0.00    -0.354 N 
ATOM      3  C   UNL A   1      32.683  25.562  25.375  1.00  0.00     0.248 C 
ATOM      4  O   UNL A   1      33.274  25.705  26.446  1.00  0.00    -0.272 OA
ATOM      5  H   UNL A   1      34.101  25.159  23.968  1.00  0.00     0.163 HD
BRANCH   3   6
ATOM      6  C   UNL A   1      31.161  25.280  25.294  1.00  0.00     0.144 C 
ATOM      7  C   UNL A   1      30.472  26.643  25.159  1.00  0.00     0.069 C 
ATOM      8  C   UNL A   1      30.715  24.538  24.019  1.00  0.00     0.198 C 
ATOM      9  C   UNL A   1      29.315  26.390  24.229  1.00  0.00     0.163 C 
ATOM     10  O   UNL A   1      29.709  25.333  23.358  1.00  0.00    -0.378 OA
BRANCH   6  11
ATOM     11  N   UNL A   1      30.557  24.626  26.494  1.00  0.00    -0.338 N 
ATOM     12  C   UNL A   1      30.627  23.354  26.971  1.00  0.00     0.246 C 
ATOM     13  O   UNL A   1      29.666  22.935  27.626  1.00  0.00    -0.272 OA
ATOM     14  H   UNL A   1      30.005  25.229  27.042  1.00  0.00     0.164 HD
BRANCH  12  15
ATOM     15  C   UNL A   1      31.873  22.489  26.789  1.00  0.00     0.260 C 
BRANCH  15  16
ATOM     16  O   UNL A   1      31.929  21.710  25.610  1.00  0.00    -0.366 OA
BRANCH  16  17
ATOM     17  C   UNL A   1      33.015  20.787  25.558  1.00  0.00     0.222 C 
BRANCH  17  18
ATOM     18  C   UNL A   1      34.402  21.442  25.421  1.00  0.00     0.287 C 
BRANCH  18  19
ATOM     19  N   UNL A   1      35.212  21.471  26.643  1.00  0.00    -0.356 N 
ATOM     20  H   UNL A   1      34.607  21.349  27.455  1.00  0.00     0.344 HD
ATOM     21  H   UNL A   1      35.694  22.367  26.709  1.00  0.00     0.344 HD
ATOM     22  H   UNL A   1      35.898  20.717  26.614  1.00  0.00     0.344 HD
ENDBRANCH  18  19
ENDBRANCH  17  18
ENDBRANCH  16  17
ENDBRANCH  15  16
ENDBRANCH  12  15
ENDBRANCH   6  11
ENDBRANCH   3   6
ENDBRANCH   1   2
BRANCH   1  23
ATOM     23  C   UNL A   1      34.152  28.076  23.725  1.00  0.00     0.023 C 
BRANCH  23  24
ATOM     24  C   UNL A   1      33.548  29.233  24.527  1.00  0.00     0.023 C 
BRANCH  24  25
ATOM     25  C   UNL A   1      34.017  29.315  25.972  1.00  0.00     0.116 C 
BRANCH  25  26
ATOM     26  N   UNL A   1      33.631  30.565  26.609  1.00  0.00    -0.352 N 
ATOM     27  C   UNL A   1      34.195  31.193  27.689  1.00  0.00     0.251 C 
ATOM     28  H   UNL A   1      32.857  31.023  26.207  1.00  0.00     0.163 HD
ATOM     29  O   UNL A   1      33.634  32.160  28.198  1.00  0.00    -0.269 OA
BRANCH  27  30
ATOM     30  C   UNL A   1      35.460  30.680  28.247  1.00  0.00     0.039 A 
ATOM     31  C   UNL A   1      36.664  31.246  27.825  1.00  0.00     0.014 A 
ATOM     32  C   UNL A   1      35.453  29.660  29.205  1.00  0.00     0.014 A 
ATOM     33  C   UNL A   1      37.860  30.832  28.409  1.00  0.00     0.010 A 
ATOM     34  C   UNL A   1      36.636  29.307  29.842  1.00  0.00     0.010 A 
ATOM     35  C   UNL A   1      37.852  29.885  29.448  1.00  0.00    -0.014 A 
BRANCH  35  36
ATOM     36  C   UNL A   1      39.107  29.488  30.134  1.00  0.00     0.031 A 
ATOM     37  C   UNL A   1      39.556  30.220  31.369  1.00  0.00     0.074 A 
ATOM     38  C   UNL A   1      39.870  28.508  29.609  1.00  0.00     0.049 A 
ATOM     39  N   UNL A   1      40.643  30.051  32.077  1.00  0.00    -0.248 NA
ATOM     40  C   UNL A   1      38.682  31.298  31.859  1.00  0.00     0.031 C 
ATOM     41  C   UNL A   1      39.563  27.752  28.393  1.00  0.00     0.029 A 
ATOM     42  N   UNL A   1      41.065  27.981  30.031  1.00  0.00    -0.354 N 
ATOM     43  C   UNL A   1      40.590  31.007  33.084  1.00  0.00     0.074 A 
ATOM     44  C   UNL A   1      39.394  31.789  32.863  1.00  0.00     0.031 C 
ATOM     45  C   UNL A   1      40.526  26.841  28.185  1.00  0.00     0.029 A 
ATOM     46  C   UNL A   1      41.542  26.977  29.223  1.00  0.00     0.049 A 
ATOM     47  H   UNL A   1      41.537  28.293  30.838  1.00  0.00     0.167 HD
ATOM     48  C   UNL A   1      41.448  31.203  34.113  1.00  0.00     0.031 A 
ATOM     49  C   UNL A   1      42.674  26.250  29.303  1.00  0.00     0.031 A 
ATOM     50  C   UNL A   1      42.635  30.418  34.330  1.00  0.00     0.049 A 
ATOM     51  C   UNL A   1      43.623  26.500  30.445  1.00  0.00     0.074 A 
ATOM     52  C   UNL A   1      43.544  30.504  35.371  1.00  0.00     0.029 A 
ATOM     53  N   UNL A   1      43.082  29.408  33.491  1.00  0.00    -0.354 N 
ATOM     54  N   UNL A   1      43.520  27.364  31.427  1.00  0.00    -0.248 NA
ATOM     55  C   UNL A   1      44.832  25.667  30.496  1.00  0.00     0.031 C 
ATOM     56  C   UNL A   1      44.570  29.585  35.129  1.00  0.00     0.029 A 
ATOM     57  C   UNL A   1      44.265  28.880  33.976  1.00  0.00     0.049 A 
ATOM     58  H   UNL A   1      42.623  29.110  32.672  1.00  0.00     0.167 HD
ATOM     59  C   UNL A   1      44.638  27.159  32.228  1.00  0.00     0.074 A 
ATOM     60  C   UNL A   1      45.392  26.078  31.625  1.00  0.00     0.031 C 
ATOM     61  C   UNL A   1      45.006  27.805  33.363  1.00  0.00     0.031 A 
BRANCH  48  62
ATOM     62  C   UNL A   1      41.137  32.317  35.079  1.00  0.00    -0.014 A 
ATOM     63  C   UNL A   1      40.281  32.110  36.178  1.00  0.00     0.010 A 
ATOM     64  C   UNL A   1      41.736  33.578  34.910  1.00  0.00     0.010 A 
ATOM     65  C   UNL A   1      39.996  33.153  37.061  1.00  0.00     0.020 A 
ATOM     66  C   UNL A   1      41.479  34.616  35.810  1.00  0.00     0.020 A 
ATOM     67  C   UNL A   1      40.596  34.402  36.870  1.00  0.00     0.054 A 
BRANCH  67  68
ATOM     68  S   UNL A   1      40.225  35.731  38.047  1.00  0.00     0.124 S 
ATOM     69  O   UNL A   1      39.179  35.124  38.866  1.00  0.00    -0.237 OA
ATOM     70  O   UNL A   1      41.508  35.933  38.716  1.00  0.00    -0.237 OA
ATOM     71  O   UNL A   1      39.787  36.836  37.197  1.00  0.00    -0.744 OA
ENDBRANCH  67  68
ENDBRANCH  48  62
BRANCH  49  72
ATOM     72  C   UNL A   1      42.966  25.211  28.277  1.00  0.00    -0.014 A 
ATOM     73  C   UNL A   1      42.586  23.874  28.484  1.00  0.00     0.010 A 
ATOM     74  C   UNL A   1      43.616  25.558  27.078  1.00  0.00     0.010 A 
ATOM     75  C   UNL A   1      42.868  22.899  27.521  1.00  0.00     0.020 A 
ATOM     76  C   UNL A   1      43.872  24.593  26.099  1.00  0.00     0.020 A 
ATOM     77  C   UNL A   1      43.506  23.267  26.333  1.00  0.00     0.054 A 
BRANCH  77  78
ATOM     78  S   UNL A   1      43.817  21.994  25.079  1.00  0.00     0.124 S 
ATOM     79  O   UNL A   1      45.197  21.615  25.366  1.00  0.00    -0.237 OA
ATOM     80  O   UNL A   1      42.806  20.989  25.393  1.00  0.00    -0.237 OA
ATOM     81  O   UNL A   1      43.613  22.701  23.816  1.00  0.00    -0.744 OA
ENDBRANCH  77  78
ENDBRANCH  49  72
BRANCH  61  82
ATOM     82  C   UNL A   1      46.262  27.339  34.052  1.00  0.00    -0.014 A 
ATOM     83  C   UNL A   1      46.235  26.304  35.003  1.00  0.00     0.010 A 
ATOM     84  C   UNL A   1      47.498  27.911  33.697  1.00  0.00     0.010 A 
ATOM     85  C   UNL A   1      47.416  25.871  35.609  1.00  0.00     0.020 A 
ATOM     86  C   UNL A   1      48.685  27.459  34.277  1.00  0.00     0.020 A 
ATOM     87  C   UNL A   1      48.635  26.451  35.241  1.00  0.00     0.054 A 
BRANCH  87  88
ATOM     88  S   UNL A   1      50.159  25.839  36.010  1.00  0.00     0.124 S 
ATOM     89  O   UNL A   1      50.807  27.080  36.429  1.00  0.00    -0.237 OA
ATOM     90  O   UNL A   1      49.656  24.996  37.092  1.00  0.00    -0.237 OA
ATOM     91  O   UNL A   1      50.831  25.122  34.929  1.00  0.00    -0.744 OA
ENDBRANCH  87  88
ENDBRANCH  61  82
ENDBRANCH  35  36
ENDBRANCH  27  30
ENDBRANCH  25  26
ENDBRANCH  24  25
ENDBRANCH  23  24
ENDBRANCH   1  23
TORSDOF 20
ENDMDL
