MODEL 1
REMARK VINA RESULT:      -8.9      0.000      0.000
REMARK SMILES CC(C)Cc1ccc(-c2cc(Cl)cc3c2O[C@H](C(F)(F)F)C(C(=O)NCCCCNC(=O)c2ccc(-c4c5nc(c(-c6ccc(S(=O)(=O)[O-])cc6)c6ccc([nH]6)c(-c6ccc(S(=O)(=O)[O-])cc6)c6nc(c(-c7ccc(S(=O)(=O)[O-])cc7)c7ccc4[nH]7)C=C6)C=C5)cc2)=C3)cc1
REMARK SMILES IDX 27 1 26 2 25 3 23 4 24 5 22 7 9 8 10 9 15 10 11 11 14 12
REMARK SMILES IDX 16 13 12 14 13 15 93 16 17 17 8 18 5 19 6 20 95 21 7 22
REMARK SMILES IDX 94 23 4 24 2 25 1 26 3 27 18 28 19 29 20 30 21 31 28 32
REMARK SMILES IDX 29 33 30 34 31 35 32 37 33 38 34 39 92 40 35 41 91 42 36 43
REMARK SMILES IDX 37 44 38 45 85 46 39 47 90 48 84 49 86 50 40 51 89 52 83 53
REMARK SMILES IDX 82 54 41 56 71 57 52 58 70 59 53 60 56 61 69 62 87 63 54 64
REMARK SMILES IDX 55 65 68 67 88 68 57 69 42 70 43 71 51 72 44 73 50 74 45 75
REMARK SMILES IDX 46 76 47 77 48 78 49 79 72 80 73 81 81 82 74 83 80 84 75 85
REMARK SMILES IDX 76 86 77 87 78 88 79 89 58 90 59 91 67 92 60 93 66 94 61 95
REMARK SMILES IDX 62 96 63 97 64 98 65 99
REMARK H PARENT 25 6 30 36 86 55 56 66
REMARK Flexibility Score: inf
ROOT
ATOM      1  C   UNL A   1      36.229  33.853  35.699  1.00  0.00     0.023 C 
ENDROOT
BRANCH   1   2
ATOM      2  C   UNL A   1      36.785  33.692  34.278  1.00  0.00     0.116 C 
BRANCH   2   3
ATOM      3  N   UNL A   1      36.797  32.292  33.915  1.00  0.00    -0.352 N 
ATOM      4  C   UNL A   1      37.024  31.716  32.712  1.00  0.00     0.251 C 
ATOM      5  O   UNL A   1      36.521  30.622  32.479  1.00  0.00    -0.270 OA
ATOM      6  H   UNL A   1      36.615  31.664  34.651  1.00  0.00     0.163 HD
BRANCH   4   7
ATOM      7  C   UNL A   1      37.931  32.406  31.743  1.00  0.00     0.067 C 
ATOM      8  C   UNL A   1      39.538  29.067  30.070  1.00  0.00     0.026 A 
ATOM      9  C   UNL A   1      39.970  28.210  31.114  1.00  0.00     0.033 A 
ATOM     10  C   UNL A   1      39.239  30.390  30.428  1.00  0.00     0.135 A 
ATOM     11  C   UNL A   1      40.216  28.667  32.406  1.00  0.00     0.042 A 
ATOM     12  C   UNL A   1      39.593  30.861  31.717  1.00  0.00     0.019 A 
ATOM     13  O   UNL A   1      38.563  31.255  29.582  1.00  0.00    -0.475 OA
ATOM     14  Cl  UNL A   1      40.703  27.556  33.624  1.00  0.00    -0.084 Cl
ATOM     15  C   UNL A   1      40.089  30.012  32.702  1.00  0.00     0.032 A 
ATOM     16  C   UNL A   1      39.231  32.255  32.065  1.00  0.00     0.025 C 
ATOM     17  C   UNL A   1      37.579  32.123  30.284  1.00  0.00     0.314 C 
BRANCH   8  18
ATOM     18  C   UNL A   1      39.628  28.492  28.706  1.00  0.00    -0.015 A 
ATOM     19  C   UNL A   1      40.773  27.003  26.564  1.00  0.00    -0.048 A 
ATOM     20  C   UNL A   1      39.856  26.410  27.438  1.00  0.00     0.004 A 
ATOM     21  C   UNL A   1      41.021  28.376  26.703  1.00  0.00     0.004 A 
ATOM     22  C   UNL A   1      39.270  27.152  28.474  1.00  0.00     0.009 A 
ATOM     23  C   UNL A   1      40.448  29.114  27.751  1.00  0.00     0.009 A 
BRANCH  19  24
ATOM     24  C   UNL A   1      41.585  26.184  25.578  1.00  0.00     0.038 C 
BRANCH  24  25
ATOM     25  C   UNL A   1      42.602  25.190  26.175  1.00  0.00    -0.013 C 
ATOM     26  C   UNL A   1      43.551  24.646  25.108  1.00  0.00     0.008 C 
ATOM     27  C   UNL A   1      43.413  25.864  27.289  1.00  0.00     0.008 C 
ENDBRANCH  24  25
ENDBRANCH  19  24
ENDBRANCH   8  18
BRANCH  17  28
ATOM     28  C   UNL A   1      37.392  33.464  29.543  1.00  0.00     0.429 C 
ATOM     29  F   UNL A   1      36.355  34.188  30.023  1.00  0.00    -0.167 F 
ATOM     30  F   UNL A   1      38.502  34.235  29.633  1.00  0.00    -0.167 F 
ATOM     31  F   UNL A   1      37.157  33.296  28.214  1.00  0.00    -0.167 F 
ENDBRANCH  17  28
ENDBRANCH   4   7
ENDBRANCH   2   3
ENDBRANCH   1   2
BRANCH   1  32
ATOM     32  C   UNL A   1      37.190  33.446  36.825  1.00  0.00     0.023 C 
BRANCH  32  33
ATOM     33  C   UNL A   1      38.396  34.362  36.999  1.00  0.00     0.116 C 
BRANCH  33  34
ATOM     34  N   UNL A   1      39.028  34.184  38.297  1.00  0.00    -0.352 N 
ATOM     35  C   UNL A   1      40.093  33.385  38.639  1.00  0.00     0.251 C 
ATOM     36  H   UNL A   1      38.640  34.710  39.033  1.00  0.00     0.163 HD
ATOM     37  O   UNL A   1      40.369  33.200  39.821  1.00  0.00    -0.269 OA
BRANCH  35  38
ATOM     38  C   UNL A   1      40.885  32.727  37.577  1.00  0.00     0.039 A 
ATOM     39  C   UNL A   1      40.241  31.873  36.678  1.00  0.00     0.014 A 
ATOM     40  C   UNL A   1      42.254  32.977  37.454  1.00  0.00     0.014 A 
ATOM     41  C   UNL A   1      40.954  31.340  35.601  1.00  0.00     0.010 A 
ATOM     42  C   UNL A   1      42.946  32.495  36.346  1.00  0.00     0.010 A 
ATOM     43  C   UNL A   1      42.299  31.687  35.399  1.00  0.00    -0.014 A 
BRANCH  43  44
ATOM     44  C   UNL A   1      43.037  31.260  34.182  1.00  0.00     0.031 A 
ATOM     45  C   UNL A   1      43.139  32.174  32.993  1.00  0.00     0.074 A 
ATOM     46  C   UNL A   1      43.535  30.008  34.115  1.00  0.00     0.049 A 
ATOM     47  N   UNL A   1      43.643  31.932  31.810  1.00  0.00    -0.248 NA
ATOM     48  C   UNL A   1      42.582  33.527  33.146  1.00  0.00     0.031 C 
ATOM     49  C   UNL A   1      43.473  29.012  35.189  1.00  0.00     0.029 A 
ATOM     50  N   UNL A   1      44.176  29.351  33.093  1.00  0.00    -0.354 N 
ATOM     51  C   UNL A   1      43.451  33.094  31.073  1.00  0.00     0.074 A 
ATOM     52  C   UNL A   1      42.749  34.026  31.930  1.00  0.00     0.031 C 
ATOM     53  C   UNL A   1      44.065  27.880  34.774  1.00  0.00     0.029 A 
ATOM     54  C   UNL A   1      44.503  28.049  33.392  1.00  0.00     0.049 A 
ATOM     55  H   UNL A   1      44.382  29.773  32.227  1.00  0.00     0.167 HD
ATOM     56  C   UNL A   1      43.835  33.366  29.802  1.00  0.00     0.031 A 
ATOM     57  C   UNL A   1      45.072  27.089  32.637  1.00  0.00     0.031 A 
ATOM     58  C   UNL A   1      44.537  32.438  28.954  1.00  0.00     0.049 A 
ATOM     59  C   UNL A   1      45.453  27.401  31.216  1.00  0.00     0.074 A 
ATOM     60  C   UNL A   1      45.021  32.641  27.674  1.00  0.00     0.029 A 
ATOM     61  N   UNL A   1      44.845  31.129  29.295  1.00  0.00    -0.354 N 
ATOM     62  N   UNL A   1      45.324  28.530  30.560  1.00  0.00    -0.248 NA
ATOM     63  C   UNL A   1      46.057  26.313  30.435  1.00  0.00     0.031 C 
ATOM     64  C   UNL A   1      45.573  31.440  27.219  1.00  0.00     0.029 A 
ATOM     65  C   UNL A   1      45.483  30.504  28.237  1.00  0.00     0.049 A 
ATOM     66  H   UNL A   1      44.642  30.708  30.161  1.00  0.00     0.167 HD
ATOM     67  C   UNL A   1      45.846  28.291  29.293  1.00  0.00     0.074 A 
ATOM     68  C   UNL A   1      46.308  26.918  29.281  1.00  0.00     0.031 C 
ATOM     69  C   UNL A   1      45.932  29.134  28.235  1.00  0.00     0.031 A 
BRANCH  56  70
ATOM     70  C   UNL A   1      43.494  34.722  29.245  1.00  0.00    -0.014 A 
ATOM     71  C   UNL A   1      42.248  34.965  28.637  1.00  0.00     0.010 A 
ATOM     72  C   UNL A   1      44.412  35.781  29.369  1.00  0.00     0.010 A 
ATOM     73  C   UNL A   1      41.945  36.228  28.125  1.00  0.00     0.020 A 
ATOM     74  C   UNL A   1      44.102  37.054  28.882  1.00  0.00     0.020 A 
ATOM     75  C   UNL A   1      42.875  37.265  28.247  1.00  0.00     0.054 A 
BRANCH  75  76
ATOM     76  S   UNL A   1      42.447  38.899  27.588  1.00  0.00     0.124 S 
ATOM     77  O   UNL A   1      43.754  39.412  27.184  1.00  0.00    -0.237 OA
ATOM     78  O   UNL A   1      41.535  38.575  26.495  1.00  0.00    -0.237 OA
ATOM     79  O   UNL A   1      41.835  39.583  28.724  1.00  0.00    -0.744 OA
ENDBRANCH  75  76
ENDBRANCH  56  70
BRANCH  57  80
ATOM     80  C   UNL A   1      45.306  25.735  33.210  1.00  0.00    -0.014 A 
ATOM     81  C   UNL A   1      46.513  25.440  33.867  1.00  0.00     0.010 A 
ATOM     82  C   UNL A   1      44.318  24.738  33.115  1.00  0.00     0.010 A 
ATOM     83  C   UNL A   1      46.732  24.170  34.410  1.00  0.00     0.020 A 
ATOM     84  C   UNL A   1      44.522  23.476  33.679  1.00  0.00     0.020 A 
ATOM     85  C   UNL A   1      45.733  23.197  34.314  1.00  0.00     0.054 A 
BRANCH  85  86
ATOM     86  S   UNL A   1      46.017  21.574  35.076  1.00  0.00     0.124 S 
ATOM     87  O   UNL A   1      47.231  21.129  34.398  1.00  0.00    -0.237 OA
ATOM     88  O   UNL A   1      46.168  21.911  36.489  1.00  0.00    -0.237 OA
ATOM     89  O   UNL A   1      44.806  20.827  34.748  1.00  0.00    -0.744 OA
ENDBRANCH  85  86
ENDBRANCH  57  80
BRANCH  69  90
ATOM     90  C   UNL A   1      46.563  28.607  26.975  1.00  0.00    -0.014 A 
ATOM     91  C   UNL A   1      47.950  28.391  26.895  1.00  0.00     0.010 A 
ATOM     92  C   UNL A   1      45.749  28.249  25.884  1.00  0.00     0.010 A 
ATOM     93  C   UNL A   1      48.512  27.838  25.742  1.00  0.00     0.020 A 
ATOM     94  C   UNL A   1      46.305  27.672  24.741  1.00  0.00     0.020 A 
ATOM     95  C   UNL A   1      47.686  27.477  24.674  1.00  0.00     0.054 A 
BRANCH  95  96
ATOM     96  S   UNL A   1      48.435  26.695  23.218  1.00  0.00     0.124 S 
ATOM     97  O   UNL A   1      49.861  26.875  23.475  1.00  0.00    -0.237 OA
ATOM     98  O   UNL A   1      47.949  25.320  23.308  1.00  0.00    -0.237 OA
ATOM     99  O   UNL A   1      47.900  27.466  22.097  1.00  0.00    -0.744 OA
ENDBRANCH  95  96
ENDBRANCH  69  90
ENDBRANCH  43  44
ENDBRANCH  35  38
ENDBRANCH  33  34
ENDBRANCH  32  33
ENDBRANCH   1  32
TORSDOF 18
ENDMDL
MODEL 2
REMARK VINA RESULT:      -8.7      5.956      7.889
REMARK SMILES CC(C)Cc1ccc(-c2cc(Cl)cc3c2O[C@H](C(F)(F)F)C(C(=O)NCCCCNC(=O)c2ccc(-c4c5nc(c(-c6ccc(S(=O)(=O)[O-])cc6)c6ccc([nH]6)c(-c6ccc(S(=O)(=O)[O-])cc6)c6nc(c(-c7ccc(S(=O)(=O)[O-])cc7)c7ccc4[nH]7)C=C6)C=C5)cc2)=C3)cc1
REMARK SMILES IDX 27 1 26 2 25 3 23 4 24 5 22 7 9 8 10 9 15 10 11 11 14 12
REMARK SMILES IDX 16 13 12 14 13 15 93 16 17 17 8 18 5 19 6 20 95 21 7 22
REMARK SMILES IDX 94 23 4 24 2 25 1 26 3 27 18 28 19 29 20 30 21 31 28 32
REMARK SMILES IDX 29 33 30 34 31 35 32 37 33 38 34 39 92 40 35 41 91 42 36 43
REMARK SMILES IDX 37 44 38 45 85 46 39 47 90 48 84 49 86 50 40 51 89 52 83 53
REMARK SMILES IDX 82 54 41 56 71 57 52 58 70 59 53 60 56 61 69 62 87 63 54 64
REMARK SMILES IDX 55 65 68 67 88 68 57 69 42 70 43 71 51 72 44 73 50 74 45 75
REMARK SMILES IDX 46 76 47 77 48 78 49 79 72 80 73 81 81 82 74 83 80 84 75 85
REMARK SMILES IDX 76 86 77 87 78 88 79 89 58 90 59 91 67 92 60 93 66 94 61 95
REMARK SMILES IDX 62 96 63 97 64 98 65 99
REMARK H PARENT 25 6 30 36 86 55 56 66
REMARK Flexibility Score: inf
ROOT
ATOM      1  C   UNL A   1      35.019  29.680  27.137  1.00  0.00     0.023 C 
ENDROOT
BRANCH   1   2
ATOM      2  C   UNL A   1      34.557  28.616  26.133  1.00  0.00     0.116 C 
BRANCH   2   3
ATOM      3  N   UNL A   1      34.027  29.260  24.950  1.00  0.00    -0.352 N 
ATOM      4  C   UNL A   1      32.936  28.947  24.215  1.00  0.00     0.251 C 
ATOM      5  O   UNL A   1      32.918  29.253  23.028  1.00  0.00    -0.270 OA
ATOM      6  H   UNL A   1      34.536  30.041  24.633  1.00  0.00     0.163 HD
BRANCH   4   7
ATOM      7  C   UNL A   1      31.770  28.303  24.896  1.00  0.00     0.067 C 
ATOM      8  C   UNL A   1      32.610  24.466  23.846  1.00  0.00     0.026 A 
ATOM      9  C   UNL A   1      32.853  24.430  22.449  1.00  0.00     0.033 A 
ATOM     10  C   UNL A   1      32.008  25.630  24.348  1.00  0.00     0.135 A 
ATOM     11  C   UNL A   1      32.409  25.427  21.585  1.00  0.00     0.042 A 
ATOM     12  C   UNL A   1      31.472  26.583  23.447  1.00  0.00     0.019 A 
ATOM     13  O   UNL A   1      31.955  25.913  25.703  1.00  0.00    -0.475 OA
ATOM     14  Cl  UNL A   1      32.776  25.327  19.909  1.00  0.00    -0.084 Cl
ATOM     15  C   UNL A   1      31.659  26.482  22.071  1.00  0.00     0.032 A 
ATOM     16  C   UNL A   1      30.873  27.811  24.018  1.00  0.00     0.025 C 
ATOM     17  C   UNL A   1      32.180  27.351  26.018  1.00  0.00     0.314 C 
BRANCH   8  18
ATOM     18  C   UNL A   1      32.868  23.194  24.562  1.00  0.00    -0.015 A 
ATOM     19  C   UNL A   1      33.065  20.371  24.895  1.00  0.00    -0.048 A 
ATOM     20  C   UNL A   1      34.183  21.129  24.535  1.00  0.00     0.004 A 
ATOM     21  C   UNL A   1      31.877  21.054  25.199  1.00  0.00     0.004 A 
ATOM     22  C   UNL A   1      34.093  22.522  24.401  1.00  0.00     0.009 A 
ATOM     23  C   UNL A   1      31.783  22.447  25.047  1.00  0.00     0.009 A 
BRANCH  19  24
ATOM     24  C   UNL A   1      33.070  18.855  24.837  1.00  0.00     0.038 C 
BRANCH  24  25
ATOM     25  C   UNL A   1      33.450  18.215  23.486  1.00  0.00    -0.013 C 
ATOM     26  C   UNL A   1      33.894  16.763  23.656  1.00  0.00     0.008 C 
ATOM     27  C   UNL A   1      32.266  18.280  22.515  1.00  0.00     0.008 C 
ENDBRANCH  24  25
ENDBRANCH  19  24
ENDBRANCH   8  18
BRANCH  17  28
ATOM     28  C   UNL A   1      31.448  27.757  27.315  1.00  0.00     0.429 C 
ATOM     29  F   UNL A   1      30.331  27.027  27.537  1.00  0.00    -0.167 F 
ATOM     30  F   UNL A   1      32.250  27.614  28.397  1.00  0.00    -0.167 F 
ATOM     31  F   UNL A   1      31.058  29.060  27.306  1.00  0.00    -0.167 F 
ENDBRANCH  17  28
ENDBRANCH   4   7
ENDBRANCH   2   3
ENDBRANCH   1   2
BRANCH   1  32
ATOM     32  C   UNL A   1      33.921  30.634  27.628  1.00  0.00     0.023 C 
BRANCH  32  33
ATOM     33  C   UNL A   1      34.412  32.017  28.040  1.00  0.00     0.116 C 
BRANCH  33  34
ATOM     34  N   UNL A   1      34.007  32.353  29.396  1.00  0.00    -0.352 N 
ATOM     35  C   UNL A   1      34.750  32.327  30.552  1.00  0.00     0.251 C 
ATOM     36  H   UNL A   1      33.072  32.640  29.500  1.00  0.00     0.163 HD
ATOM     37  O   UNL A   1      34.197  32.447  31.642  1.00  0.00    -0.269 OA
BRANCH  35  38
ATOM     38  C   UNL A   1      36.214  32.126  30.478  1.00  0.00     0.039 A 
ATOM     39  C   UNL A   1      36.861  31.454  31.518  1.00  0.00     0.014 A 
ATOM     40  C   UNL A   1      36.936  32.575  29.369  1.00  0.00     0.014 A 
ATOM     41  C   UNL A   1      38.221  31.154  31.403  1.00  0.00     0.010 A 
ATOM     42  C   UNL A   1      38.275  32.219  29.230  1.00  0.00     0.010 A 
ATOM     43  C   UNL A   1      38.926  31.490  30.237  1.00  0.00    -0.014 A 
BRANCH  43  44
ATOM     44  C   UNL A   1      40.330  31.049  30.022  1.00  0.00     0.031 A 
ATOM     45  C   UNL A   1      41.464  32.026  30.157  1.00  0.00     0.074 A 
ATOM     46  C   UNL A   1      40.571  29.787  29.611  1.00  0.00     0.049 A 
ATOM     47  N   UNL A   1      42.736  31.852  29.900  1.00  0.00    -0.248 NA
ATOM     48  C   UNL A   1      41.123  33.380  30.620  1.00  0.00     0.031 C 
ATOM     49  C   UNL A   1      39.554  28.751  29.410  1.00  0.00     0.029 A 
ATOM     50  N   UNL A   1      41.747  29.165  29.270  1.00  0.00    -0.354 N 
ATOM     51  C   UNL A   1      43.344  33.075  30.154  1.00  0.00     0.074 A 
ATOM     52  C   UNL A   1      42.296  33.993  30.548  1.00  0.00     0.031 C 
ATOM     53  C   UNL A   1      40.151  27.622  28.997  1.00  0.00     0.029 A 
ATOM     54  C   UNL A   1      41.583  27.863  28.855  1.00  0.00     0.049 A 
ATOM     55  H   UNL A   1      42.625  29.608  29.319  1.00  0.00     0.167 HD
ATOM     56  C   UNL A   1      44.656  33.401  30.079  1.00  0.00     0.031 A 
ATOM     57  C   UNL A   1      42.478  26.969  28.391  1.00  0.00     0.031 A 
ATOM     58  C   UNL A   1      45.696  32.484  29.691  1.00  0.00     0.049 A 
ATOM     59  C   UNL A   1      43.924  27.367  28.278  1.00  0.00     0.074 A 
ATOM     60  C   UNL A   1      47.061  32.704  29.642  1.00  0.00     0.029 A 
ATOM     61  N   UNL A   1      45.487  31.177  29.275  1.00  0.00    -0.354 N 
ATOM     62  N   UNL A   1      44.489  28.509  28.589  1.00  0.00    -0.248 NA
ATOM     63  C   UNL A   1      44.853  26.356  27.754  1.00  0.00     0.031 C 
ATOM     64  C   UNL A   1      47.673  31.550  29.144  1.00  0.00     0.029 A 
ATOM     65  C   UNL A   1      46.694  30.591  28.936  1.00  0.00     0.049 A 
ATOM     66  H   UNL A   1      44.610  30.733  29.228  1.00  0.00     0.167 HD
ATOM     67  C   UNL A   1      45.842  28.348  28.313  1.00  0.00     0.074 A 
ATOM     68  C   UNL A   1      46.014  26.994  27.827  1.00  0.00     0.031 C 
ATOM     69  C   UNL A   1      46.851  29.244  28.448  1.00  0.00     0.031 A 
BRANCH  56  70
ATOM     70  C   UNL A   1      45.043  34.817  30.413  1.00  0.00    -0.014 A 
ATOM     71  C   UNL A   1      45.075  35.815  29.421  1.00  0.00     0.010 A 
ATOM     72  C   UNL A   1      45.338  35.166  31.743  1.00  0.00     0.010 A 
ATOM     73  C   UNL A   1      45.435  37.124  29.746  1.00  0.00     0.020 A 
ATOM     74  C   UNL A   1      45.673  36.482  32.078  1.00  0.00     0.020 A 
ATOM     75  C   UNL A   1      45.736  37.450  31.072  1.00  0.00     0.054 A 
BRANCH  75  76
ATOM     76  S   UNL A   1      46.184  39.162  31.467  1.00  0.00     0.124 S 
ATOM     77  O   UNL A   1      47.409  39.339  30.689  1.00  0.00    -0.237 OA
ATOM     78  O   UNL A   1      45.026  39.914  30.993  1.00  0.00    -0.237 OA
ATOM     79  O   UNL A   1      46.365  39.149  32.916  1.00  0.00    -0.744 OA
ENDBRANCH  75  76
ENDBRANCH  56  70
BRANCH  57  80
ATOM     80  C   UNL A   1      42.027  25.608  27.990  1.00  0.00    -0.014 A 
ATOM     81  C   UNL A   1      41.288  25.423  26.809  1.00  0.00     0.010 A 
ATOM     82  C   UNL A   1      42.349  24.488  28.778  1.00  0.00     0.010 A 
ATOM     83  C   UNL A   1      40.869  24.144  26.429  1.00  0.00     0.020 A 
ATOM     84  C   UNL A   1      41.954  23.205  28.389  1.00  0.00     0.020 A 
ATOM     85  C   UNL A   1      41.207  23.043  27.221  1.00  0.00     0.054 A 
BRANCH  85  86
ATOM     86  S   UNL A   1      40.701  21.387  26.678  1.00  0.00     0.124 S 
ATOM     87  O   UNL A   1      40.741  20.633  27.928  1.00  0.00    -0.237 OA
ATOM     88  O   UNL A   1      39.370  21.628  26.127  1.00  0.00    -0.237 OA
ATOM     89  O   UNL A   1      41.718  21.024  25.694  1.00  0.00    -0.744 OA
ENDBRANCH  85  86
ENDBRANCH  57  80
BRANCH  69  90
ATOM     90  C   UNL A   1      48.238  28.790  28.081  1.00  0.00    -0.014 A 
ATOM     91  C   UNL A   1      49.073  28.175  29.031  1.00  0.00     0.010 A 
ATOM     92  C   UNL A   1      48.682  28.909  26.751  1.00  0.00     0.010 A 
ATOM     93  C   UNL A   1      50.332  27.697  28.659  1.00  0.00     0.020 A 
ATOM     94  C   UNL A   1      49.930  28.410  26.371  1.00  0.00     0.020 A 
ATOM     95  C   UNL A   1      50.751  27.814  27.330  1.00  0.00     0.054 A 
BRANCH  95  96
ATOM     96  S   UNL A   1      52.361  27.122  26.860  1.00  0.00     0.124 S 
ATOM     97  O   UNL A   1      52.172  26.851  25.437  1.00  0.00    -0.237 OA
ATOM     98  O   UNL A   1      53.282  28.210  27.176  1.00  0.00    -0.237 OA
ATOM     99  O   UNL A   1      52.490  25.939  27.708  1.00  0.00    -0.744 OA
ENDBRANCH  95  96
ENDBRANCH  69  90
ENDBRANCH  43  44
ENDBRANCH  35  38
ENDBRANCH  33  34
ENDBRANCH  32  33
ENDBRANCH   1  32
TORSDOF 18
ENDMDL
MODEL 3
REMARK VINA RESULT:      -8.5      4.397     12.685
REMARK SMILES CC(C)Cc1ccc(-c2cc(Cl)cc3c2O[C@H](C(F)(F)F)C(C(=O)NCCCCNC(=O)c2ccc(-c4c5nc(c(-c6ccc(S(=O)(=O)[O-])cc6)c6ccc([nH]6)c(-c6ccc(S(=O)(=O)[O-])cc6)c6nc(c(-c7ccc(S(=O)(=O)[O-])cc7)c7ccc4[nH]7)C=C6)C=C5)cc2)=C3)cc1
REMARK SMILES IDX 27 1 26 2 25 3 23 4 24 5 22 7 9 8 10 9 15 10 11 11 14 12
REMARK SMILES IDX 16 13 12 14 13 15 93 16 17 17 8 18 5 19 6 20 95 21 7 22
REMARK SMILES IDX 94 23 4 24 2 25 1 26 3 27 18 28 19 29 20 30 21 31 28 32
REMARK SMILES IDX 29 33 30 34 31 35 32 37 33 38 34 39 92 40 35 41 91 42 36 43
REMARK SMILES IDX 37 44 38 45 85 46 39 47 90 48 84 49 86 50 40 51 89 52 83 53
REMARK SMILES IDX 82 54 41 56 71 57 52 58 70 59 53 60 56 61 69 62 87 63 54 64
REMARK SMILES IDX 55 65 68 67 88 68 57 69 42 70 43 71 51 72 44 73 50 74 45 75
REMARK SMILES IDX 46 76 47 77 48 78 49 79 72 80 73 81 81 82 74 83 80 84 75 85
REMARK SMILES IDX 76 86 77 87 78 88 79 89 58 90 59 91 67 92 60 93 66 94 61 95
REMARK SMILES IDX 62 96 63 97 64 98 65 99
REMARK H PARENT 25 6 30 36 86 55 56 66
REMARK Flexibility Score: inf
ROOT
ATOM      1  C   UNL A   1      46.594  24.063  27.276  1.00  0.00     0.023 C 
ENDROOT
BRANCH   1   2
ATOM      2  C   UNL A   1      45.208  23.484  27.587  1.00  0.00     0.116 C 
BRANCH   2   3
ATOM      3  N   UNL A   1      44.317  23.722  26.472  1.00  0.00    -0.352 N 
ATOM      4  C   UNL A   1      43.367  22.919  25.941  1.00  0.00     0.251 C 
ATOM      5  O   UNL A   1      43.077  23.054  24.757  1.00  0.00    -0.270 OA
ATOM      6  H   UNL A   1      44.417  24.599  26.035  1.00  0.00     0.163 HD
BRANCH   4   7
ATOM      7  C   UNL A   1      42.664  21.948  26.835  1.00  0.00     0.067 C 
ATOM      8  C   UNL A   1      38.923  23.488  26.432  1.00  0.00     0.026 A 
ATOM      9  C   UNL A   1      38.992  24.888  26.652  1.00  0.00     0.033 A 
ATOM     10  C   UNL A   1      40.040  22.736  26.824  1.00  0.00     0.135 A 
ATOM     11  C   UNL A   1      40.045  25.489  27.337  1.00  0.00     0.042 A 
ATOM     12  C   UNL A   1      41.052  23.346  27.608  1.00  0.00     0.019 A 
ATOM     13  O   UNL A   1      40.224  21.419  26.435  1.00  0.00    -0.475 OA
ATOM     14  Cl  UNL A   1      40.072  27.196  27.529  1.00  0.00    -0.084 Cl
ATOM     15  C   UNL A   1      41.054  24.712  27.875  1.00  0.00     0.032 A 
ATOM     16  C   UNL A   1      42.229  22.525  27.974  1.00  0.00     0.025 C 
ATOM     17  C   UNL A   1      41.636  21.090  26.100  1.00  0.00     0.314 C 
BRANCH   8  18
ATOM     18  C   UNL A   1      37.604  22.987  25.977  1.00  0.00    -0.015 A 
ATOM     19  C   UNL A   1      35.344  22.756  24.257  1.00  0.00    -0.048 A 
ATOM     20  C   UNL A   1      36.427  21.879  24.138  1.00  0.00     0.004 A 
ATOM     21  C   UNL A   1      35.354  23.673  25.319  1.00  0.00     0.004 A 
ATOM     22  C   UNL A   1      37.526  21.974  25.003  1.00  0.00     0.009 A 
ATOM     23  C   UNL A   1      36.462  23.779  26.175  1.00  0.00     0.009 A 
BRANCH  19  24
ATOM     24  C   UNL A   1      34.248  22.824  23.210  1.00  0.00     0.038 C 
BRANCH  24  25
ATOM     25  C   UNL A   1      32.915  22.130  23.557  1.00  0.00    -0.013 C 
ATOM     26  C   UNL A   1      32.167  21.688  22.300  1.00  0.00     0.008 C 
ATOM     27  C   UNL A   1      33.166  20.917  24.460  1.00  0.00     0.008 C 
ENDBRANCH  24  25
ENDBRANCH  19  24
ENDBRANCH   8  18
BRANCH  17  28
ATOM     28  C   UNL A   1      41.940  19.601  26.370  1.00  0.00     0.429 C 
ATOM     29  F   UNL A   1      43.076  19.181  25.768  1.00  0.00    -0.167 F 
ATOM     30  F   UNL A   1      42.067  19.357  27.696  1.00  0.00    -0.167 F 
ATOM     31  F   UNL A   1      40.949  18.780  25.929  1.00  0.00    -0.167 F 
ENDBRANCH  17  28
ENDBRANCH   4   7
ENDBRANCH   2   3
ENDBRANCH   1   2
BRANCH   1  32
ATOM     32  C   UNL A   1      46.745  24.675  25.876  1.00  0.00     0.023 C 
BRANCH  32  33
ATOM     33  C   UNL A   1      48.143  25.187  25.549  1.00  0.00     0.116 C 
BRANCH  33  34
ATOM     34  N   UNL A   1      48.158  25.978  24.329  1.00  0.00    -0.352 N 
ATOM     35  C   UNL A   1      47.592  27.208  24.087  1.00  0.00     0.251 C 
ATOM     36  H   UNL A   1      48.642  25.578  23.570  1.00  0.00     0.163 HD
ATOM     37  O   UNL A   1      47.528  27.640  22.939  1.00  0.00    -0.269 OA
BRANCH  35  38
ATOM     38  C   UNL A   1      47.036  27.991  25.211  1.00  0.00     0.039 A 
ATOM     39  C   UNL A   1      45.655  27.992  25.422  1.00  0.00     0.014 A 
ATOM     40  C   UNL A   1      47.882  28.699  26.070  1.00  0.00     0.014 A 
ATOM     41  C   UNL A   1      45.130  28.631  26.548  1.00  0.00     0.010 A 
ATOM     42  C   UNL A   1      47.363  29.280  27.224  1.00  0.00     0.010 A 
ATOM     43  C   UNL A   1      45.985  29.236  27.484  1.00  0.00    -0.014 A 
BRANCH  43  44
ATOM     44  C   UNL A   1      45.470  29.787  28.765  1.00  0.00     0.031 A 
ATOM     45  C   UNL A   1      45.364  28.912  29.982  1.00  0.00     0.074 A 
ATOM     46  C   UNL A   1      45.007  31.053  28.801  1.00  0.00     0.049 A 
ATOM     47  N   UNL A   1      44.838  29.185  31.149  1.00  0.00    -0.248 NA
ATOM     48  C   UNL A   1      45.900  27.546  29.867  1.00  0.00     0.031 C 
ATOM     49  C   UNL A   1      45.022  31.996  27.679  1.00  0.00     0.029 A 
ATOM     50  N   UNL A   1      44.416  31.763  29.819  1.00  0.00    -0.354 N 
ATOM     51  C   UNL A   1      44.964  28.024  31.902  1.00  0.00     0.074 A 
ATOM     52  C   UNL A   1      45.581  27.032  31.046  1.00  0.00     0.031 C 
ATOM     53  C   UNL A   1      44.482  33.160  28.074  1.00  0.00     0.029 A 
ATOM     54  C   UNL A   1      44.036  33.035  29.458  1.00  0.00     0.049 A 
ATOM     55  H   UNL A   1      44.277  31.396  30.722  1.00  0.00     0.167 HD
ATOM     56  C   UNL A   1      44.610  27.806  33.191  1.00  0.00     0.031 A 
ATOM     57  C   UNL A   1      43.384  33.989  30.151  1.00  0.00     0.031 A 
ATOM     58  C   UNL A   1      44.000  28.796  34.039  1.00  0.00     0.049 A 
ATOM     59  C   UNL A   1      42.965  33.710  31.568  1.00  0.00     0.074 A 
ATOM     60  C   UNL A   1      43.660  28.690  35.377  1.00  0.00     0.029 A 
ATOM     61  N   UNL A   1      43.630  30.070  33.634  1.00  0.00    -0.354 N 
ATOM     62  N   UNL A   1      43.156  32.627  32.284  1.00  0.00    -0.248 NA
ATOM     63  C   UNL A   1      42.245  34.781  32.272  1.00  0.00     0.031 C 
ATOM     64  C   UNL A   1      43.034  29.878  35.765  1.00  0.00     0.029 A 
ATOM     65  C   UNL A   1      43.034  30.746  34.685  1.00  0.00     0.049 A 
ATOM     66  H   UNL A   1      43.770  30.439  32.732  1.00  0.00     0.167 HD
ATOM     67  C   UNL A   1      42.593  32.893  33.527  1.00  0.00     0.074 A 
ATOM     68  C   UNL A   1      42.072  34.244  33.472  1.00  0.00     0.031 C 
ATOM     69  C   UNL A   1      42.514  32.089  34.615  1.00  0.00     0.031 A 
BRANCH  56  70
ATOM     70  C   UNL A   1      44.863  26.437  33.762  1.00  0.00    -0.014 A 
ATOM     71  C   UNL A   1      46.041  26.155  34.479  1.00  0.00     0.010 A 
ATOM     72  C   UNL A   1      43.893  25.428  33.619  1.00  0.00     0.010 A 
ATOM     73  C   UNL A   1      46.263  24.881  35.004  1.00  0.00     0.020 A 
ATOM     74  C   UNL A   1      44.099  24.158  34.167  1.00  0.00     0.020 A 
ATOM     75  C   UNL A   1      45.291  23.888  34.842  1.00  0.00     0.054 A 
BRANCH  75  76
ATOM     76  S   UNL A   1      45.600  22.247  35.549  1.00  0.00     0.124 S 
ATOM     77  O   UNL A   1      44.544  21.449  34.929  1.00  0.00    -0.237 OA
ATOM     78  O   UNL A   1      46.956  21.952  35.097  1.00  0.00    -0.237 OA
ATOM     79  O   UNL A   1      45.457  22.456  36.988  1.00  0.00    -0.744 OA
ENDBRANCH  75  76
ENDBRANCH  56  70
BRANCH  57  80
ATOM     80  C   UNL A   1      43.079  35.296  29.508  1.00  0.00    -0.014 A 
ATOM     81  C   UNL A   1      43.970  36.376  29.633  1.00  0.00     0.010 A 
ATOM     82  C   UNL A   1      41.903  35.464  28.754  1.00  0.00     0.010 A 
ATOM     83  C   UNL A   1      43.686  37.603  29.026  1.00  0.00     0.020 A 
ATOM     84  C   UNL A   1      41.629  36.680  28.123  1.00  0.00     0.020 A 
ATOM     85  C   UNL A   1      42.518  37.746  28.272  1.00  0.00     0.054 A 
BRANCH  85  86
ATOM     86  S   UNL A   1      42.199  39.329  27.445  1.00  0.00     0.124 S 
ATOM     87  O   UNL A   1      41.281  38.936  26.380  1.00  0.00    -0.237 OA
ATOM     88  O   UNL A   1      41.616  40.133  28.517  1.00  0.00    -0.237 OA
ATOM     89  O   UNL A   1      43.524  39.759  27.005  1.00  0.00    -0.744 OA
ENDBRANCH  85  86
ENDBRANCH  57  80
BRANCH  69  90
ATOM     90  C   UNL A   1      41.854  32.647  35.847  1.00  0.00    -0.014 A 
ATOM     91  C   UNL A   1      42.602  33.330  36.822  1.00  0.00     0.010 A 
ATOM     92  C   UNL A   1      40.457  32.555  35.992  1.00  0.00     0.010 A 
ATOM     93  C   UNL A   1      41.964  33.902  37.926  1.00  0.00     0.020 A 
ATOM     94  C   UNL A   1      39.815  33.147  37.082  1.00  0.00     0.020 A 
ATOM     95  C   UNL A   1      40.574  33.811  38.047  1.00  0.00     0.054 A 
BRANCH  95  96
ATOM     96  S   UNL A   1      39.766  34.624  39.454  1.00  0.00     0.124 S 
ATOM     97  O   UNL A   1      39.010  35.686  38.798  1.00  0.00    -0.237 OA
ATOM     98  O   UNL A   1      38.967  33.546  40.030  1.00  0.00    -0.237 OA
ATOM     99  O   UNL A   1      40.884  35.073  40.283  1.00  0.00    -0.744 OA
ENDBRANCH  95  96
ENDBRANCH  69  90
ENDBRANCH  43  44
ENDBRANCH  35  38
ENDBRANCH  33  34
ENDBRANCH  32  33
ENDBRANCH   1  32
TORSDOF 18
ENDMDL
