MODEL 1
REMARK VINA RESULT:     -10.5      0.000      0.000
REMARK SMILES COc1ccc(NC(=O)C[C@@H](C[NH+]2CCOCC2)C(=O)NCCCCNC(=O)c2ccc(-c3c4nc(c(-c5ccc(S(=O)(=O)[O-])cc5)c5ccc([nH]5)c(-c5ccc(S(=O)(=O)[O-])cc5)c5nc(c(-c6ccc(S(=O)(=O)[O-])cc6)c6ccc3[nH]6)C=C5)C=C4)cc2)cc1
REMARK SMILES IDX 23 1 22 2 21 3 19 4 20 5 11 7 10 8 8 9 7 10 9 12 6 13 3 14
REMARK SMILES IDX 4 15 90 16 5 17 89 18 2 19 1 20 12 21 13 22 14 23 18 24
REMARK SMILES IDX 15 26 17 27 16 28 24 29 25 30 26 31 27 32 28 34 29 35 30 36
REMARK SMILES IDX 88 37 31 38 87 39 32 40 33 41 34 42 81 43 35 44 86 45 80 46
REMARK SMILES IDX 82 47 36 48 85 49 79 50 78 51 37 53 67 54 48 55 66 56 49 57
REMARK SMILES IDX 52 58 65 59 83 60 50 61 51 62 64 64 84 65 53 66 38 67 39 68
REMARK SMILES IDX 47 69 40 70 46 71 41 72 42 73 43 74 44 75 45 76 68 77 69 78
REMARK SMILES IDX 77 79 70 80 76 81 71 82 72 83 73 84 74 85 75 86 54 87 55 88
REMARK SMILES IDX 63 89 56 90 62 91 57 92 58 93 59 94 60 95 61 96
REMARK H PARENT 21 6 7 11 13 25 26 33 82 52 52 63
REMARK Flexibility Score: inf
ROOT
ATOM      1  C   UNL A   1      31.384  27.603  26.969  1.00  0.00     0.023 C 
ENDROOT
BRANCH   1   2
ATOM      2  C   UNL A   1      31.572  26.323  26.164  1.00  0.00     0.116 C 
BRANCH   2   3
ATOM      3  N   UNL A   1      31.155  25.135  26.885  1.00  0.00    -0.356 N 
ATOM      4  C   UNL A   1      31.658  23.867  26.799  1.00  0.00     0.229 C 
ATOM      5  O   UNL A   1      31.373  23.068  27.695  1.00  0.00    -0.275 OA
ATOM      6  H   UNL A   1      30.413  25.258  27.520  1.00  0.00     0.163 HD
BRANCH   4   7
ATOM      7  C   UNL A   1      32.517  23.429  25.616  1.00  0.00     0.142 C 
BRANCH   7   8
ATOM      8  C   UNL A   1      33.739  24.375  25.548  1.00  0.00     0.119 C 
BRANCH   8   9
ATOM      9  C   UNL A   1      34.418  24.478  24.205  1.00  0.00     0.225 C 
ATOM     10  N   UNL A   1      33.984  25.295  23.205  1.00  0.00    -0.326 N 
ATOM     11  H   UNL A   1      34.484  25.186  22.365  1.00  0.00     0.169 HD
ATOM     12  O   UNL A   1      35.452  23.834  23.991  1.00  0.00    -0.275 OA
BRANCH  10  13
ATOM     13  C   UNL A   1      32.968  26.260  23.128  1.00  0.00     0.041 A 
ATOM     14  C   UNL A   1      30.926  28.037  22.387  1.00  0.00     0.119 A 
ATOM     15  C   UNL A   1      32.112  28.525  22.930  1.00  0.00     0.048 A 
ATOM     16  C   UNL A   1      30.717  26.661  22.336  1.00  0.00     0.048 A 
ATOM     17  C   UNL A   1      33.126  27.633  23.312  1.00  0.00     0.030 A 
ATOM     18  C   UNL A   1      31.717  25.778  22.737  1.00  0.00     0.030 A 
BRANCH  14  19
ATOM     19  O   UNL A   1      29.977  28.777  21.749  1.00  0.00    -0.497 OA
ATOM     20  C   UNL A   1      29.826  30.139  22.119  1.00  0.00     0.278 C 
ENDBRANCH  14  19
ENDBRANCH  10  13
ENDBRANCH   8   9
ENDBRANCH   7   8
BRANCH   7  21
ATOM     21  C   UNL A   1      32.730  21.889  25.472  1.00  0.00     0.276 C 
BRANCH  21  22
ATOM     22  N   UNL A   1      33.308  21.360  24.224  1.00  0.00    -0.330 N 
ATOM     23  C   UNL A   1      32.418  20.425  23.498  1.00  0.00     0.291 C 
ATOM     24  C   UNL A   1      34.610  20.668  24.418  1.00  0.00     0.291 C 
ATOM     25  H   UNL A   1      33.444  22.204  23.667  1.00  0.00     0.348 HD
ATOM     26  C   UNL A   1      32.356  19.000  24.060  1.00  0.00     0.221 C 
ATOM     27  C   UNL A   1      34.509  19.233  24.964  1.00  0.00     0.221 C 
ATOM     28  O   UNL A   1      33.660  18.421  24.148  1.00  0.00    -0.370 OA
ENDBRANCH  21  22
ENDBRANCH   7  21
ENDBRANCH   4   7
ENDBRANCH   2   3
ENDBRANCH   1   2
BRANCH   1  29
ATOM     29  C   UNL A   1      32.681  28.084  27.619  1.00  0.00     0.023 C 
BRANCH  29  30
ATOM     30  C   UNL A   1      33.506  29.056  26.774  1.00  0.00     0.116 C 
BRANCH  30  31
ATOM     31  N   UNL A   1      33.489  30.422  27.282  1.00  0.00    -0.352 N 
ATOM     32  C   UNL A   1      34.459  31.079  28.001  1.00  0.00     0.251 C 
ATOM     33  H   UNL A   1      32.677  30.941  27.085  1.00  0.00     0.163 HD
ATOM     34  O   UNL A   1      34.250  32.204  28.444  1.00  0.00    -0.269 OA
BRANCH  32  35
ATOM     35  C   UNL A   1      35.742  30.394  28.261  1.00  0.00     0.039 A 
ATOM     36  C   UNL A   1      36.732  30.412  27.277  1.00  0.00     0.014 A 
ATOM     37  C   UNL A   1      35.986  29.805  29.506  1.00  0.00     0.014 A 
ATOM     38  C   UNL A   1      38.001  29.911  27.572  1.00  0.00     0.010 A 
ATOM     39  C   UNL A   1      37.271  29.373  29.819  1.00  0.00     0.010 A 
ATOM     40  C   UNL A   1      38.294  29.430  28.860  1.00  0.00    -0.014 A 
BRANCH  40  41
ATOM     41  C   UNL A   1      39.667  28.992  29.226  1.00  0.00     0.031 A 
ATOM     42  C   UNL A   1      40.601  29.945  29.922  1.00  0.00     0.074 A 
ATOM     43  C   UNL A   1      40.094  27.761  28.879  1.00  0.00     0.049 A 
ATOM     44  N   UNL A   1      41.855  29.776  30.248  1.00  0.00    -0.248 NA
ATOM     45  C   UNL A   1      40.060  31.268  30.278  1.00  0.00     0.031 C 
ATOM     46  C   UNL A   1      39.301  26.755  28.166  1.00  0.00     0.029 A 
ATOM     47  N   UNL A   1      41.306  27.145  29.072  1.00  0.00    -0.354 N 
ATOM     48  C   UNL A   1      42.256  30.968  30.841  1.00  0.00     0.074 A 
ATOM     49  C   UNL A   1      41.128  31.871  30.780  1.00  0.00     0.031 C 
ATOM     50  C   UNL A   1      40.041  25.644  28.003  1.00  0.00     0.029 A 
ATOM     51  C   UNL A   1      41.369  25.870  28.562  1.00  0.00     0.049 A 
ATOM     52  H   UNL A   1      42.060  27.578  29.535  1.00  0.00     0.167 HD
ATOM     53  C   UNL A   1      43.446  31.276  31.408  1.00  0.00     0.031 A 
ATOM     54  C   UNL A   1      42.385  24.984  28.538  1.00  0.00     0.031 A 
ATOM     55  C   UNL A   1      44.565  30.377  31.483  1.00  0.00     0.049 A 
ATOM     56  C   UNL A   1      43.703  25.360  29.163  1.00  0.00     0.074 A 
ATOM     57  C   UNL A   1      45.804  30.592  32.061  1.00  0.00     0.029 A 
ATOM     58  N   UNL A   1      44.579  29.089  30.973  1.00  0.00    -0.354 N 
ATOM     59  N   UNL A   1      44.044  26.479  29.756  1.00  0.00    -0.248 NA
ATOM     60  C   UNL A   1      44.769  24.348  29.124  1.00  0.00     0.031 C 
ATOM     61  C   UNL A   1      46.580  29.444  31.871  1.00  0.00     0.029 A 
ATOM     62  C   UNL A   1      45.807  28.499  31.218  1.00  0.00     0.049 A 
ATOM     63  H   UNL A   1      43.829  28.657  30.505  1.00  0.00     0.167 HD
ATOM     64  C   UNL A   1      45.352  26.292  30.188  1.00  0.00     0.074 A 
ATOM     65  C   UNL A   1      45.735  24.950  29.803  1.00  0.00     0.031 C 
ATOM     66  C   UNL A   1      46.166  27.156  30.843  1.00  0.00     0.031 A 
BRANCH  53  67
ATOM     67  C   UNL A   1      43.593  32.644  32.019  1.00  0.00    -0.014 A 
ATOM     68  C   UNL A   1      43.981  33.742  31.230  1.00  0.00     0.010 A 
ATOM     69  C   UNL A   1      43.278  32.851  33.374  1.00  0.00     0.010 A 
ATOM     70  C   UNL A   1      44.075  35.017  31.789  1.00  0.00     0.020 A 
ATOM     71  C   UNL A   1      43.345  34.131  33.932  1.00  0.00     0.020 A 
ATOM     72  C   UNL A   1      43.755  35.205  33.136  1.00  0.00     0.054 A 
BRANCH  72  73
ATOM     73  S   UNL A   1      43.837  36.882  33.822  1.00  0.00     0.124 S 
ATOM     74  O   UNL A   1      42.452  37.109  34.227  1.00  0.00    -0.237 OA
ATOM     75  O   UNL A   1      44.794  36.735  34.915  1.00  0.00    -0.237 OA
ATOM     76  O   UNL A   1      44.298  37.694  32.699  1.00  0.00    -0.744 OA
ENDBRANCH  72  73
ENDBRANCH  53  67
BRANCH  54  77
ATOM     77  C   UNL A   1      42.209  23.650  27.900  1.00  0.00    -0.014 A 
ATOM     78  C   UNL A   1      41.799  22.541  28.662  1.00  0.00     0.010 A 
ATOM     79  C   UNL A   1      42.491  23.473  26.533  1.00  0.00     0.010 A 
ATOM     80  C   UNL A   1      41.718  21.273  28.081  1.00  0.00     0.020 A 
ATOM     81  C   UNL A   1      42.381  22.211  25.941  1.00  0.00     0.020 A 
ATOM     82  C   UNL A   1      42.016  21.115  26.724  1.00  0.00     0.054 A 
BRANCH  82  83
ATOM     83  S   UNL A   1      41.900  19.461  25.985  1.00  0.00     0.124 S 
ATOM     84  O   UNL A   1      40.483  19.380  25.649  1.00  0.00    -0.237 OA
ATOM     85  O   UNL A   1      42.817  19.555  24.852  1.00  0.00    -0.237 OA
ATOM     86  O   UNL A   1      42.343  18.579  27.062  1.00  0.00    -0.744 OA
ENDBRANCH  82  83
ENDBRANCH  54  77
BRANCH  66  87
ATOM     87  C   UNL A   1      47.533  26.662  31.231  1.00  0.00    -0.014 A 
ATOM     88  C   UNL A   1      47.756  26.023  32.463  1.00  0.00     0.010 A 
ATOM     89  C   UNL A   1      48.599  26.792  30.321  1.00  0.00     0.010 A 
ATOM     90  C   UNL A   1      49.029  25.550  32.792  1.00  0.00     0.020 A 
ATOM     91  C   UNL A   1      49.867  26.297  30.637  1.00  0.00     0.020 A 
ATOM     92  C   UNL A   1      50.076  25.691  31.877  1.00  0.00     0.054 A 
BRANCH  92  93
ATOM     93  S   UNL A   1      51.709  25.029  32.308  1.00  0.00     0.124 S 
ATOM     94  O   UNL A   1      52.537  25.526  31.213  1.00  0.00    -0.237 OA
ATOM     95  O   UNL A   1      51.966  25.632  33.614  1.00  0.00    -0.237 OA
ATOM     96  O   UNL A   1      51.502  23.582  32.327  1.00  0.00    -0.744 OA
ENDBRANCH  92  93
ENDBRANCH  66  87
ENDBRANCH  40  41
ENDBRANCH  32  35
ENDBRANCH  30  31
ENDBRANCH  29  30
ENDBRANCH   1  29
TORSDOF 20
ENDMDL
MODEL 2
REMARK VINA RESULT:     -10.1      4.028      9.254
REMARK SMILES COc1ccc(NC(=O)C[C@@H](C[NH+]2CCOCC2)C(=O)NCCCCNC(=O)c2ccc(-c3c4nc(c(-c5ccc(S(=O)(=O)[O-])cc5)c5ccc([nH]5)c(-c5ccc(S(=O)(=O)[O-])cc5)c5nc(c(-c6ccc(S(=O)(=O)[O-])cc6)c6ccc3[nH]6)C=C5)C=C4)cc2)cc1
REMARK SMILES IDX 23 1 22 2 21 3 19 4 20 5 11 7 10 8 8 9 7 10 9 12 6 13 3 14
REMARK SMILES IDX 4 15 90 16 5 17 89 18 2 19 1 20 12 21 13 22 14 23 18 24
REMARK SMILES IDX 15 26 17 27 16 28 24 29 25 30 26 31 27 32 28 34 29 35 30 36
REMARK SMILES IDX 88 37 31 38 87 39 32 40 33 41 34 42 81 43 35 44 86 45 80 46
REMARK SMILES IDX 82 47 36 48 85 49 79 50 78 51 37 53 67 54 48 55 66 56 49 57
REMARK SMILES IDX 52 58 65 59 83 60 50 61 51 62 64 64 84 65 53 66 38 67 39 68
REMARK SMILES IDX 47 69 40 70 46 71 41 72 42 73 43 74 44 75 45 76 68 77 69 78
REMARK SMILES IDX 77 79 70 80 76 81 71 82 72 83 73 84 74 85 75 86 54 87 55 88
REMARK SMILES IDX 63 89 56 90 62 91 57 92 58 93 59 94 60 95 61 96
REMARK H PARENT 21 6 7 11 13 25 26 33 82 52 52 63
REMARK Flexibility Score: inf
ROOT
ATOM      1  C   UNL A   1      31.663  30.828  26.518  1.00  0.00     0.023 C 
ENDROOT
BRANCH   1   2
ATOM      2  C   UNL A   1      31.549  30.097  25.186  1.00  0.00     0.116 C 
BRANCH   2   3
ATOM      3  N   UNL A   1      32.837  29.699  24.648  1.00  0.00    -0.356 N 
ATOM      4  C   UNL A   1      33.217  28.477  24.165  1.00  0.00     0.229 C 
ATOM      5  O   UNL A   1      34.247  28.416  23.488  1.00  0.00    -0.275 OA
ATOM      6  H   UNL A   1      33.528  30.400  24.627  1.00  0.00     0.163 HD
BRANCH   4   7
ATOM      7  C   UNL A   1      32.421  27.214  24.478  1.00  0.00     0.142 C 
BRANCH   7   8
ATOM      8  C   UNL A   1      31.637  26.825  23.204  1.00  0.00     0.119 C 
BRANCH   8   9
ATOM      9  C   UNL A   1      30.189  26.453  23.408  1.00  0.00     0.225 C 
ATOM     10  N   UNL A   1      29.167  27.349  23.337  1.00  0.00    -0.326 N 
ATOM     11  H   UNL A   1      28.292  26.965  23.577  1.00  0.00     0.169 HD
ATOM     12  O   UNL A   1      29.883  25.271  23.605  1.00  0.00    -0.275 OA
BRANCH  10  13
ATOM     13  C   UNL A   1      29.104  28.708  22.994  1.00  0.00     0.041 A 
ATOM     14  C   UNL A   1      28.435  31.277  22.085  1.00  0.00     0.119 A 
ATOM     15  C   UNL A   1      29.564  30.633  21.586  1.00  0.00     0.048 A 
ATOM     16  C   UNL A   1      27.720  30.689  23.125  1.00  0.00     0.048 A 
ATOM     17  C   UNL A   1      29.903  29.354  22.052  1.00  0.00     0.030 A 
ATOM     18  C   UNL A   1      28.072  29.429  23.601  1.00  0.00     0.030 A 
BRANCH  14  19
ATOM     19  O   UNL A   1      27.850  32.388  21.554  1.00  0.00    -0.497 OA
ATOM     20  C   UNL A   1      27.755  32.486  20.141  1.00  0.00     0.278 C 
ENDBRANCH  14  19
ENDBRANCH  10  13
ENDBRANCH   8   9
ENDBRANCH   7   8
BRANCH   7  21
ATOM     21  C   UNL A   1      33.192  26.112  25.271  1.00  0.00     0.276 C 
BRANCH  21  22
ATOM     22  N   UNL A   1      33.300  24.759  24.695  1.00  0.00    -0.330 N 
ATOM     23  C   UNL A   1      32.953  23.673  25.640  1.00  0.00     0.291 C 
ATOM     24  C   UNL A   1      34.648  24.452  24.147  1.00  0.00     0.291 C 
ATOM     25  H   UNL A   1      32.616  24.784  23.939  1.00  0.00     0.348 HD
ATOM     26  C   UNL A   1      34.039  23.313  26.662  1.00  0.00     0.221 C 
ATOM     27  C   UNL A   1      35.707  24.076  25.197  1.00  0.00     0.221 C 
ATOM     28  O   UNL A   1      35.271  22.986  26.013  1.00  0.00    -0.370 OA
ENDBRANCH  21  22
ENDBRANCH   7  21
ENDBRANCH   4   7
ENDBRANCH   2   3
ENDBRANCH   1   2
BRANCH   1  29
ATOM     29  C   UNL A   1      32.934  30.462  27.283  1.00  0.00     0.023 C 
BRANCH  29  30
ATOM     30  C   UNL A   1      33.913  31.617  27.501  1.00  0.00     0.116 C 
BRANCH  30  31
ATOM     31  N   UNL A   1      33.256  32.901  27.705  1.00  0.00    -0.352 N 
ATOM     32  C   UNL A   1      33.549  33.875  28.630  1.00  0.00     0.251 C 
ATOM     33  H   UNL A   1      32.503  33.097  27.101  1.00  0.00     0.163 HD
ATOM     34  O   UNL A   1      32.831  34.864  28.740  1.00  0.00    -0.269 OA
BRANCH  32  35
ATOM     35  C   UNL A   1      34.718  33.691  29.513  1.00  0.00     0.039 A 
ATOM     36  C   UNL A   1      34.616  32.825  30.602  1.00  0.00     0.014 A 
ATOM     37  C   UNL A   1      35.932  34.317  29.213  1.00  0.00     0.014 A 
ATOM     38  C   UNL A   1      35.758  32.519  31.345  1.00  0.00     0.010 A 
ATOM     39  C   UNL A   1      37.080  33.955  29.911  1.00  0.00     0.010 A 
ATOM     40  C   UNL A   1      37.008  33.046  30.977  1.00  0.00    -0.014 A 
BRANCH  40  41
ATOM     41  C   UNL A   1      38.251  32.649  31.688  1.00  0.00     0.031 A 
ATOM     42  C   UNL A   1      39.161  31.610  31.092  1.00  0.00     0.074 A 
ATOM     43  C   UNL A   1      38.531  33.178  32.897  1.00  0.00     0.049 A 
ATOM     44  N   UNL A   1      40.243  31.077  31.596  1.00  0.00    -0.248 NA
ATOM     45  C   UNL A   1      38.796  31.087  29.764  1.00  0.00     0.031 C 
ATOM     46  C   UNL A   1      37.710  34.165  33.605  1.00  0.00     0.029 A 
ATOM     47  N   UNL A   1      39.583  32.954  33.752  1.00  0.00    -0.354 N 
ATOM     48  C   UNL A   1      40.684  30.154  30.656  1.00  0.00     0.074 A 
ATOM     49  C   UNL A   1      39.724  30.159  29.574  1.00  0.00     0.031 C 
ATOM     50  C   UNL A   1      38.301  34.475  34.772  1.00  0.00     0.029 A 
ATOM     51  C   UNL A   1      39.518  33.684  34.916  1.00  0.00     0.049 A 
ATOM     52  H   UNL A   1      40.315  32.328  33.549  1.00  0.00     0.167 HD
ATOM     53  C   UNL A   1      41.801  29.388  30.675  1.00  0.00     0.031 A 
ATOM     54  C   UNL A   1      40.340  33.706  35.984  1.00  0.00     0.031 A 
ATOM     55  C   UNL A   1      42.764  29.389  31.741  1.00  0.00     0.049 A 
ATOM     56  C   UNL A   1      41.566  32.832  35.986  1.00  0.00     0.074 A 
ATOM     57  C   UNL A   1      43.941  28.666  31.839  1.00  0.00     0.029 A 
ATOM     58  N   UNL A   1      42.671  30.157  32.891  1.00  0.00    -0.354 N 
ATOM     59  N   UNL A   1      41.985  31.998  35.064  1.00  0.00    -0.248 NA
ATOM     60  C   UNL A   1      42.436  32.911  37.168  1.00  0.00     0.031 C 
ATOM     61  C   UNL A   1      44.543  28.972  33.064  1.00  0.00     0.029 A 
ATOM     62  C   UNL A   1      43.765  29.921  33.706  1.00  0.00     0.049 A 
ATOM     63  H   UNL A   1      41.936  30.778  33.098  1.00  0.00     0.167 HD
ATOM     64  C   UNL A   1      43.183  31.478  35.542  1.00  0.00     0.074 A 
ATOM     65  C   UNL A   1      43.430  32.103  36.825  1.00  0.00     0.031 C 
ATOM     66  C   UNL A   1      44.005  30.564  34.971  1.00  0.00     0.031 A 
BRANCH  53  67
ATOM     67  C   UNL A   1      42.055  28.496  29.490  1.00  0.00    -0.014 A 
ATOM     68  C   UNL A   1      41.442  27.233  29.401  1.00  0.00     0.010 A 
ATOM     69  C   UNL A   1      42.856  28.946  28.425  1.00  0.00     0.010 A 
ATOM     70  C   UNL A   1      41.645  26.425  28.281  1.00  0.00     0.020 A 
ATOM     71  C   UNL A   1      43.041  28.151  27.290  1.00  0.00     0.020 A 
ATOM     72  C   UNL A   1      42.442  26.890  27.231  1.00  0.00     0.054 A 
BRANCH  72  73
ATOM     73  S   UNL A   1      42.646  25.840  25.766  1.00  0.00     0.124 S 
ATOM     74  O   UNL A   1      42.716  24.507  26.360  1.00  0.00    -0.237 OA
ATOM     75  O   UNL A   1      41.435  26.121  24.999  1.00  0.00    -0.237 OA
ATOM     76  O   UNL A   1      43.887  26.320  25.164  1.00  0.00    -0.744 OA
ENDBRANCH  72  73
ENDBRANCH  53  67
BRANCH  54  77
ATOM     77  C   UNL A   1      40.040  34.582  37.150  1.00  0.00    -0.014 A 
ATOM     78  C   UNL A   1      40.519  35.904  37.193  1.00  0.00     0.010 A 
ATOM     79  C   UNL A   1      39.307  34.084  38.243  1.00  0.00     0.010 A 
ATOM     80  C   UNL A   1      40.310  36.697  38.325  1.00  0.00     0.020 A 
ATOM     81  C   UNL A   1      39.070  34.885  39.364  1.00  0.00     0.020 A 
ATOM     82  C   UNL A   1      39.592  36.179  39.407  1.00  0.00     0.054 A 
BRANCH  82  83
ATOM     83  S   UNL A   1      39.326  37.224  40.867  1.00  0.00     0.124 S 
ATOM     84  O   UNL A   1      40.693  37.565  41.246  1.00  0.00    -0.237 OA
ATOM     85  O   UNL A   1      38.524  38.320  40.331  1.00  0.00    -0.237 OA
ATOM     86  O   UNL A   1      38.620  36.340  41.791  1.00  0.00    -0.744 OA
ENDBRANCH  82  83
ENDBRANCH  54  77
BRANCH  66  87
ATOM     87  C   UNL A   1      45.273  30.219  35.703  1.00  0.00    -0.014 A 
ATOM     88  C   UNL A   1      46.453  30.957  35.506  1.00  0.00     0.010 A 
ATOM     89  C   UNL A   1      45.265  29.173  36.645  1.00  0.00     0.010 A 
ATOM     90  C   UNL A   1      47.613  30.634  36.216  1.00  0.00     0.020 A 
ATOM     91  C   UNL A   1      46.416  28.864  37.374  1.00  0.00     0.020 A 
ATOM     92  C   UNL A   1      47.587  29.589  37.144  1.00  0.00     0.054 A 
BRANCH  92  93
ATOM     93  S   UNL A   1      49.093  29.218  38.086  1.00  0.00     0.124 S 
ATOM     94  O   UNL A   1      48.705  29.599  39.441  1.00  0.00    -0.237 OA
ATOM     95  O   UNL A   1      49.267  27.786  37.861  1.00  0.00    -0.237 OA
ATOM     96  O   UNL A   1      50.107  30.068  37.465  1.00  0.00    -0.744 OA
ENDBRANCH  92  93
ENDBRANCH  66  87
ENDBRANCH  40  41
ENDBRANCH  32  35
ENDBRANCH  30  31
ENDBRANCH  29  30
ENDBRANCH   1  29
TORSDOF 20
ENDMDL
MODEL 3
REMARK VINA RESULT:     -10.0      3.295      4.373
REMARK SMILES COc1ccc(NC(=O)C[C@@H](C[NH+]2CCOCC2)C(=O)NCCCCNC(=O)c2ccc(-c3c4nc(c(-c5ccc(S(=O)(=O)[O-])cc5)c5ccc([nH]5)c(-c5ccc(S(=O)(=O)[O-])cc5)c5nc(c(-c6ccc(S(=O)(=O)[O-])cc6)c6ccc3[nH]6)C=C5)C=C4)cc2)cc1
REMARK SMILES IDX 23 1 22 2 21 3 19 4 20 5 11 7 10 8 8 9 7 10 9 12 6 13 3 14
REMARK SMILES IDX 4 15 90 16 5 17 89 18 2 19 1 20 12 21 13 22 14 23 18 24
REMARK SMILES IDX 15 26 17 27 16 28 24 29 25 30 26 31 27 32 28 34 29 35 30 36
REMARK SMILES IDX 88 37 31 38 87 39 32 40 33 41 34 42 81 43 35 44 86 45 80 46
REMARK SMILES IDX 82 47 36 48 85 49 79 50 78 51 37 53 67 54 48 55 66 56 49 57
REMARK SMILES IDX 52 58 65 59 83 60 50 61 51 62 64 64 84 65 53 66 38 67 39 68
REMARK SMILES IDX 47 69 40 70 46 71 41 72 42 73 43 74 44 75 45 76 68 77 69 78
REMARK SMILES IDX 77 79 70 80 76 81 71 82 72 83 73 84 74 85 75 86 54 87 55 88
REMARK SMILES IDX 63 89 56 90 62 91 57 92 58 93 59 94 60 95 61 96
REMARK H PARENT 21 6 7 11 13 25 26 33 82 52 52 63
REMARK Flexibility Score: inf
ROOT
ATOM      1  C   UNL A   1      34.817  29.399  26.509  1.00  0.00     0.023 C 
ENDROOT
BRANCH   1   2
ATOM      2  C   UNL A   1      34.102  28.055  26.570  1.00  0.00     0.116 C 
BRANCH   2   3
ATOM      3  N   UNL A   1      32.783  28.142  27.168  1.00  0.00    -0.356 N 
ATOM      4  C   UNL A   1      31.636  27.495  26.799  1.00  0.00     0.229 C 
ATOM      5  O   UNL A   1      30.699  27.473  27.600  1.00  0.00    -0.275 OA
ATOM      6  H   UNL A   1      32.702  28.746  27.940  1.00  0.00     0.163 HD
BRANCH   4   7
ATOM      7  C   UNL A   1      31.495  26.846  25.424  1.00  0.00     0.142 C 
BRANCH   7   8
ATOM      8  C   UNL A   1      31.860  27.910  24.364  1.00  0.00     0.119 C 
BRANCH   8   9
ATOM      9  C   UNL A   1      31.730  27.478  22.924  1.00  0.00     0.225 C 
ATOM     10  N   UNL A   1      30.748  27.924  22.093  1.00  0.00    -0.326 N 
ATOM     11  H   UNL A   1      30.751  27.485  21.212  1.00  0.00     0.169 HD
ATOM     12  O   UNL A   1      32.573  26.716  22.435  1.00  0.00    -0.275 OA
BRANCH  10  13
ATOM     13  C   UNL A   1      29.732  28.881  22.235  1.00  0.00     0.041 A 
ATOM     14  C   UNL A   1      28.131  31.116  22.797  1.00  0.00     0.119 A 
ATOM     15  C   UNL A   1      27.786  29.866  23.305  1.00  0.00     0.048 A 
ATOM     16  C   UNL A   1      29.198  31.220  21.909  1.00  0.00     0.048 A 
ATOM     17  C   UNL A   1      28.582  28.748  23.011  1.00  0.00     0.030 A 
ATOM     18  C   UNL A   1      29.973  30.103  21.601  1.00  0.00     0.030 A 
BRANCH  14  19
ATOM     19  O   UNL A   1      27.611  32.310  23.198  1.00  0.00    -0.497 OA
ATOM     20  C   UNL A   1      28.397  33.478  23.023  1.00  0.00     0.278 C 
ENDBRANCH  14  19
ENDBRANCH  10  13
ENDBRANCH   8   9
ENDBRANCH   7   8
BRANCH   7  21
ATOM     21  C   UNL A   1      32.078  25.404  25.298  1.00  0.00     0.276 C 
BRANCH  21  22
ATOM     22  N   UNL A   1      32.173  24.563  26.505  1.00  0.00    -0.330 N 
ATOM     23  C   UNL A   1      33.417  23.762  26.584  1.00  0.00     0.291 C 
ATOM     24  C   UNL A   1      31.032  23.622  26.665  1.00  0.00     0.291 C 
ATOM     25  H   UNL A   1      32.162  25.251  27.257  1.00  0.00     0.348 HD
ATOM     26  C   UNL A   1      33.447  22.499  25.715  1.00  0.00     0.221 C 
ATOM     27  C   UNL A   1      31.105  22.356  25.792  1.00  0.00     0.221 C 
ATOM     28  O   UNL A   1      32.332  21.650  25.997  1.00  0.00    -0.370 OA
ENDBRANCH  21  22
ENDBRANCH   7  21
ENDBRANCH   4   7
ENDBRANCH   2   3
ENDBRANCH   1   2
BRANCH   1  29
ATOM     29  C   UNL A   1      34.468  30.304  27.690  1.00  0.00     0.023 C 
BRANCH  29  30
ATOM     30  C   UNL A   1      35.669  30.845  28.467  1.00  0.00     0.116 C 
BRANCH  30  31
ATOM     31  N   UNL A   1      35.519  30.734  29.913  1.00  0.00    -0.352 N 
ATOM     32  C   UNL A   1      36.477  30.434  30.851  1.00  0.00     0.251 C 
ATOM     33  H   UNL A   1      34.613  30.895  30.262  1.00  0.00     0.163 HD
ATOM     34  O   UNL A   1      36.168  30.279  32.028  1.00  0.00    -0.269 OA
BRANCH  32  35
ATOM     35  C   UNL A   1      37.877  30.265  30.413  1.00  0.00     0.039 A 
ATOM     36  C   UNL A   1      38.836  29.869  31.346  1.00  0.00     0.014 A 
ATOM     37  C   UNL A   1      38.218  30.425  29.066  1.00  0.00     0.014 A 
ATOM     38  C   UNL A   1      40.125  29.550  30.913  1.00  0.00     0.010 A 
ATOM     39  C   UNL A   1      39.481  30.037  28.628  1.00  0.00     0.010 A 
ATOM     40  C   UNL A   1      40.444  29.587  29.544  1.00  0.00    -0.014 A 
BRANCH  40  41
ATOM     41  C   UNL A   1      41.776  29.148  29.051  1.00  0.00     0.031 A 
ATOM     42  C   UNL A   1      42.904  30.138  28.947  1.00  0.00     0.074 A 
ATOM     43  C   UNL A   1      41.954  27.876  28.640  1.00  0.00     0.049 A 
ATOM     44  N   UNL A   1      44.108  29.966  28.467  1.00  0.00    -0.248 NA
ATOM     45  C   UNL A   1      42.637  31.505  29.426  1.00  0.00     0.031 C 
ATOM     46  C   UNL A   1      40.930  26.827  28.650  1.00  0.00     0.029 A 
ATOM     47  N   UNL A   1      43.061  27.248  28.123  1.00  0.00    -0.354 N 
ATOM     48  C   UNL A   1      44.740  31.199  28.579  1.00  0.00     0.074 A 
ATOM     49  C   UNL A   1      43.769  32.125  29.121  1.00  0.00     0.031 C 
ATOM     50  C   UNL A   1      41.464  25.684  28.184  1.00  0.00     0.029 A 
ATOM     51  C   UNL A   1      42.852  25.926  27.806  1.00  0.00     0.049 A 
ATOM     52  H   UNL A   1      43.924  27.703  27.993  1.00  0.00     0.167 HD
ATOM     53  C   UNL A   1      46.019  31.528  28.282  1.00  0.00     0.031 A 
ATOM     54  C   UNL A   1      43.681  25.013  27.262  1.00  0.00     0.031 A 
ATOM     55  C   UNL A   1      46.990  30.609  27.755  1.00  0.00     0.049 A 
ATOM     56  C   UNL A   1      45.094  25.411  26.926  1.00  0.00     0.074 A 
ATOM     57  C   UNL A   1      48.319  30.844  27.447  1.00  0.00     0.029 A 
ATOM     58  N   UNL A   1      46.743  29.276  27.468  1.00  0.00    -0.354 N 
ATOM     59  N   UNL A   1      45.681  26.574  27.081  1.00  0.00    -0.248 NA
ATOM     60  C   UNL A   1      45.959  24.370  26.353  1.00  0.00     0.031 C 
ATOM     61  C   UNL A   1      48.867  29.661  26.941  1.00  0.00     0.029 A 
ATOM     62  C   UNL A   1      47.892  28.678  26.981  1.00  0.00     0.049 A 
ATOM     63  H   UNL A   1      45.878  28.821  27.592  1.00  0.00     0.167 HD
ATOM     64  C   UNL A   1      46.992  26.393  26.655  1.00  0.00     0.074 A 
ATOM     65  C   UNL A   1      47.116  25.008  26.251  1.00  0.00     0.031 C 
ATOM     66  C   UNL A   1      48.003  27.294  26.600  1.00  0.00     0.031 A 
BRANCH  53  67
ATOM     67  C   UNL A   1      46.452  32.945  28.543  1.00  0.00    -0.014 A 
ATOM     68  C   UNL A   1      47.068  33.292  29.760  1.00  0.00     0.010 A 
ATOM     69  C   UNL A   1      46.307  33.925  27.545  1.00  0.00     0.010 A 
ATOM     70  C   UNL A   1      47.508  34.598  29.983  1.00  0.00     0.020 A 
ATOM     71  C   UNL A   1      46.770  35.228  27.754  1.00  0.00     0.020 A 
ATOM     72  C   UNL A   1      47.357  35.558  28.978  1.00  0.00     0.054 A 
BRANCH  72  73
ATOM     73  S   UNL A   1      47.985  37.233  29.278  1.00  0.00     0.124 S 
ATOM     74  O   UNL A   1      48.348  37.169  30.692  1.00  0.00    -0.237 OA
ATOM     75  O   UNL A   1      49.106  37.327  28.347  1.00  0.00    -0.237 OA
ATOM     76  O   UNL A   1      46.845  38.092  28.966  1.00  0.00    -0.744 OA
ENDBRANCH  72  73
ENDBRANCH  53  67
BRANCH  54  77
ATOM     77  C   UNL A   1      43.206  23.627  26.992  1.00  0.00    -0.014 A 
ATOM     78  C   UNL A   1      43.095  22.693  28.039  1.00  0.00     0.010 A 
ATOM     79  C   UNL A   1      42.903  23.222  25.680  1.00  0.00     0.010 A 
ATOM     80  C   UNL A   1      42.733  21.370  27.772  1.00  0.00     0.020 A 
ATOM     81  C   UNL A   1      42.510  21.907  25.414  1.00  0.00     0.020 A 
ATOM     82  C   UNL A   1      42.449  20.984  26.458  1.00  0.00     0.054 A 
BRANCH  82  83
ATOM     83  S   UNL A   1      41.976  19.263  26.131  1.00  0.00     0.124 S 
ATOM     84  O   UNL A   1      42.392  18.597  27.360  1.00  0.00    -0.237 OA
ATOM     85  O   UNL A   1      40.534  19.364  25.921  1.00  0.00    -0.237 OA
ATOM     86  O   UNL A   1      42.748  18.921  24.939  1.00  0.00    -0.744 OA
ENDBRANCH  82  83
ENDBRANCH  54  77
BRANCH  66  87
ATOM     87  C   UNL A   1      49.346  26.802  26.132  1.00  0.00    -0.014 A 
ATOM     88  C   UNL A   1      49.821  27.092  24.842  1.00  0.00     0.010 A 
ATOM     89  C   UNL A   1      50.166  26.082  27.021  1.00  0.00     0.010 A 
ATOM     90  C   UNL A   1      51.082  26.646  24.438  1.00  0.00     0.020 A 
ATOM     91  C   UNL A   1      51.437  25.656  26.629  1.00  0.00     0.020 A 
ATOM     92  C   UNL A   1      51.882  25.930  25.334  1.00  0.00     0.054 A 
BRANCH  92  93
ATOM     93  S   UNL A   1      53.533  25.400  24.801  1.00  0.00     0.124 S 
ATOM     94  O   UNL A   1      54.398  26.325  25.528  1.00  0.00    -0.237 OA
ATOM     95  O   UNL A   1      53.583  24.010  25.248  1.00  0.00    -0.237 OA
ATOM     96  O   UNL A   1      53.503  25.582  23.351  1.00  0.00    -0.744 OA
ENDBRANCH  92  93
ENDBRANCH  66  87
ENDBRANCH  40  41
ENDBRANCH  32  35
ENDBRANCH  30  31
ENDBRANCH  29  30
ENDBRANCH   1  29
TORSDOF 20
ENDMDL
