MODEL 1
REMARK VINA RESULT:     -11.3      0.000      0.000
REMARK SMILES Nc1nonc1C(=O)N1[C@@H]2CC[C@H]1C[C@H](CC(=O)NCCCCNC(=O)c1ccc(-c3c4nc(c(-c5ccc(S(=O)(=O)[O-])cc5)c5ccc([nH]5)c(-c5ccc(S(=O)(=O)[O-])cc5)c5nc(c(-c6ccc(S(=O)(=O)[O-])cc6)c6ccc3[nH]6)C=C5)C=C4)cc1)C2
REMARK SMILES IDX 21 1 20 2 19 3 17 4 18 5 16 7 15 8 9 9 10 10 13 11 11 12
REMARK SMILES IDX 87 13 12 14 14 15 7 16 8 17 6 18 2 19 3 20 4 21 5 22 1 23
REMARK SMILES IDX 22 26 23 27 24 28 25 29 26 31 27 32 28 33 86 34 29 35 85 36
REMARK SMILES IDX 30 37 31 38 32 39 79 40 33 41 84 42 78 43 80 44 34 45 83 46
REMARK SMILES IDX 77 47 76 48 35 50 65 51 46 52 64 53 47 54 50 55 63 56 81 57
REMARK SMILES IDX 48 58 49 59 62 61 82 62 51 63 36 64 37 65 45 66 38 67 44 68
REMARK SMILES IDX 39 69 40 70 41 71 42 72 43 73 66 74 67 75 75 76 68 77 74 78
REMARK SMILES IDX 69 79 70 80 71 81 72 82 73 83 52 84 53 85 61 86 54 87 60 88
REMARK SMILES IDX 55 89 56 90 57 91 58 92 59 93
REMARK H PARENT 19 6 1 24 1 25 24 30 80 49 50 60
REMARK Flexibility Score: inf
ROOT
ATOM      1  C   UNL A   1      31.372  28.190  26.281  1.00  0.00     0.023 C 
ENDROOT
BRANCH   1   2
ATOM      2  C   UNL A   1      30.711  27.047  25.499  1.00  0.00     0.116 C 
BRANCH   2   3
ATOM      3  N   UNL A   1      30.307  25.968  26.388  1.00  0.00    -0.356 N 
ATOM      4  C   UNL A   1      30.388  24.612  26.261  1.00  0.00     0.220 C 
ATOM      5  O   UNL A   1      29.888  23.914  27.146  1.00  0.00    -0.275 OA
ATOM      6  H   UNL A   1      29.902  26.270  27.233  1.00  0.00     0.163 HD
BRANCH   4   7
ATOM      7  C   UNL A   1      31.071  23.959  25.068  1.00  0.00     0.103 C 
BRANCH   7   8
ATOM      8  C   UNL A   1      32.611  23.851  25.201  1.00  0.00     0.002 C 
ATOM      9  N   UNL A   1      34.140  21.427  25.102  1.00  0.00    -0.331 N 
ATOM     10  C   UNL A   1      34.499  22.457  24.137  1.00  0.00     0.086 C 
ATOM     11  C   UNL A   1      34.197  22.110  26.376  1.00  0.00     0.086 C 
ATOM     12  C   UNL A   1      35.601  23.284  24.832  1.00  0.00     0.027 C 
ATOM     13  C   UNL A   1      33.226  23.283  23.897  1.00  0.00     0.029 C 
ATOM     14  C   UNL A   1      35.479  22.929  26.315  1.00  0.00     0.027 C 
ATOM     15  C   UNL A   1      32.976  23.025  26.450  1.00  0.00     0.029 C 
BRANCH   9  16
ATOM     16  C   UNL A   1      34.712  20.164  24.964  1.00  0.00     0.280 C 
ATOM     17  O   UNL A   1      35.927  20.036  24.822  1.00  0.00    -0.267 OA
BRANCH  16  18
ATOM     18  C   UNL A   1      33.774  19.042  24.869  1.00  0.00     0.216 A 
ATOM     19  C   UNL A   1      33.954  17.631  24.880  1.00  0.00     0.201 A 
ATOM     20  N   UNL A   1      32.767  17.029  24.839  1.00  0.00    -0.032 NA
ATOM     21  O   UNL A   1      31.840  18.051  24.754  1.00  0.00    -0.242 OA
ATOM     22  N   UNL A   1      32.457  19.289  24.766  1.00  0.00    -0.042 NA
BRANCH  19  23
ATOM     23  N   UNL A   1      35.103  16.936  24.894  1.00  0.00    -0.379 N 
ATOM     24  H   UNL A   1      35.961  17.405  25.010  1.00  0.00     0.158 HD
ATOM     25  H   UNL A   1      35.088  15.958  24.787  1.00  0.00     0.158 HD
ENDBRANCH  19  23
ENDBRANCH  16  18
ENDBRANCH   9  16
ENDBRANCH   7   8
ENDBRANCH   4   7
ENDBRANCH   2   3
ENDBRANCH   1   2
BRANCH   1  26
ATOM     26  C   UNL A   1      32.533  27.808  27.178  1.00  0.00     0.023 C 
BRANCH  26  27
ATOM     27  C   UNL A   1      33.774  28.647  26.967  1.00  0.00     0.116 C 
BRANCH  27  28
ATOM     28  N   UNL A   1      33.708  29.969  27.581  1.00  0.00    -0.352 N 
ATOM     29  C   UNL A   1      34.700  30.636  28.271  1.00  0.00     0.251 C 
ATOM     30  H   UNL A   1      32.851  30.444  27.492  1.00  0.00     0.163 HD
ATOM     31  O   UNL A   1      34.478  31.713  28.798  1.00  0.00    -0.269 OA
BRANCH  29  32
ATOM     32  C   UNL A   1      36.021  29.981  28.402  1.00  0.00     0.039 A 
ATOM     33  C   UNL A   1      36.949  30.110  27.366  1.00  0.00     0.014 A 
ATOM     34  C   UNL A   1      36.373  29.357  29.600  1.00  0.00     0.014 A 
ATOM     35  C   UNL A   1      38.265  29.692  27.575  1.00  0.00     0.010 A 
ATOM     36  C   UNL A   1      37.704  29.055  29.844  1.00  0.00     0.010 A 
ATOM     37  C   UNL A   1      38.663  29.208  28.832  1.00  0.00    -0.014 A 
BRANCH  37  38
ATOM     38  C   UNL A   1      40.066  28.816  29.113  1.00  0.00     0.031 A 
ATOM     39  C   UNL A   1      40.996  29.813  29.752  1.00  0.00     0.074 A 
ATOM     40  C   UNL A   1      40.525  27.609  28.725  1.00  0.00     0.049 A 
ATOM     41  N   UNL A   1      42.278  29.715  29.986  1.00  0.00    -0.248 NA
ATOM     42  C   UNL A   1      40.413  31.111  30.141  1.00  0.00     0.031 C 
ATOM     43  C   UNL A   1      39.739  26.575  28.044  1.00  0.00     0.029 A 
ATOM     44  N   UNL A   1      41.771  27.048  28.847  1.00  0.00    -0.354 N 
ATOM     45  C   UNL A   1      42.657  30.943  30.517  1.00  0.00     0.074 A 
ATOM     46  C   UNL A   1      41.486  31.791  30.508  1.00  0.00     0.031 C 
ATOM     47  C   UNL A   1      40.512  25.493  27.845  1.00  0.00     0.029 A 
ATOM     48  C   UNL A   1      41.854  25.768  28.347  1.00  0.00     0.049 A 
ATOM     49  H   UNL A   1      42.535  27.518  29.253  1.00  0.00     0.167 HD
ATOM     50  C   UNL A   1      43.862  31.323  31.003  1.00  0.00     0.031 A 
ATOM     51  C   UNL A   1      42.894  24.914  28.306  1.00  0.00     0.031 A 
ATOM     52  C   UNL A   1      45.011  30.464  31.052  1.00  0.00     0.049 A 
ATOM     53  C   UNL A   1      44.216  25.346  28.884  1.00  0.00     0.074 A 
ATOM     54  C   UNL A   1      46.264  30.730  31.571  1.00  0.00     0.029 A 
ATOM     55  N   UNL A   1      45.039  29.162  30.577  1.00  0.00    -0.354 N 
ATOM     56  N   UNL A   1      44.541  26.495  29.426  1.00  0.00    -0.248 NA
ATOM     57  C   UNL A   1      45.304  24.360  28.859  1.00  0.00     0.031 C 
ATOM     58  C   UNL A   1      47.062  29.596  31.386  1.00  0.00     0.029 A 
ATOM     59  C   UNL A   1      46.289  28.610  30.790  1.00  0.00     0.049 A 
ATOM     60  H   UNL A   1      44.283  28.699  30.151  1.00  0.00     0.167 HD
ATOM     61  C   UNL A   1      45.863  26.358  29.836  1.00  0.00     0.074 A 
ATOM     62  C   UNL A   1      46.272  25.013  29.489  1.00  0.00     0.031 C 
ATOM     63  C   UNL A   1      46.666  27.263  30.447  1.00  0.00     0.031 A 
BRANCH  50  64
ATOM     64  C   UNL A   1      43.977  32.726  31.537  1.00  0.00    -0.014 A 
ATOM     65  C   UNL A   1      43.665  33.017  32.878  1.00  0.00     0.010 A 
ATOM     66  C   UNL A   1      44.405  33.765  30.692  1.00  0.00     0.010 A 
ATOM     67  C   UNL A   1      43.727  34.329  33.350  1.00  0.00     0.020 A 
ATOM     68  C   UNL A   1      44.498  35.076  31.171  1.00  0.00     0.020 A 
ATOM     69  C   UNL A   1      44.137  35.351  32.492  1.00  0.00     0.054 A 
BRANCH  69  70
ATOM     70  S   UNL A   1      44.219  37.046  33.134  1.00  0.00     0.124 S 
ATOM     71  O   UNL A   1      43.231  37.005  34.209  1.00  0.00    -0.237 OA
ATOM     72  O   UNL A   1      45.610  37.161  33.564  1.00  0.00    -0.237 OA
ATOM     73  O   UNL A   1      43.854  37.869  31.983  1.00  0.00    -0.744 OA
ENDBRANCH  69  70
ENDBRANCH  50  64
BRANCH  51  74
ATOM     74  C   UNL A   1      42.724  23.550  27.735  1.00  0.00    -0.014 A 
ATOM     75  C   UNL A   1      41.978  22.579  28.426  1.00  0.00     0.010 A 
ATOM     76  C   UNL A   1      43.308  23.211  26.500  1.00  0.00     0.010 A 
ATOM     77  C   UNL A   1      41.840  21.288  27.909  1.00  0.00     0.020 A 
ATOM     78  C   UNL A   1      43.151  21.929  25.967  1.00  0.00     0.020 A 
ATOM     79  C   UNL A   1      42.429  20.970  26.683  1.00  0.00     0.054 A 
BRANCH  79  80
ATOM     80  S   UNL A   1      42.208  19.299  26.010  1.00  0.00     0.124 S 
ATOM     81  O   UNL A   1      42.975  19.367  24.772  1.00  0.00    -0.237 OA
ATOM     82  O   UNL A   1      42.773  18.457  27.061  1.00  0.00    -0.237 OA
ATOM     83  O   UNL A   1      40.760  19.189  25.847  1.00  0.00    -0.744 OA
ENDBRANCH  79  80
ENDBRANCH  51  74
BRANCH  63  84
ATOM     84  C   UNL A   1      48.051  26.813  30.823  1.00  0.00    -0.014 A 
ATOM     85  C   UNL A   1      49.135  26.982  29.945  1.00  0.00     0.010 A 
ATOM     86  C   UNL A   1      48.275  26.265  32.098  1.00  0.00     0.010 A 
ATOM     87  C   UNL A   1      50.417  26.580  30.325  1.00  0.00     0.020 A 
ATOM     88  C   UNL A   1      49.559  25.885  32.491  1.00  0.00     0.020 A 
ATOM     89  C   UNL A   1      50.621  26.032  31.595  1.00  0.00     0.054 A 
BRANCH  89  90
ATOM     90  S   UNL A   1      52.302  25.557  32.084  1.00  0.00     0.124 S 
ATOM     91  O   UNL A   1      53.075  25.922  30.900  1.00  0.00    -0.237 OA
ATOM     92  O   UNL A   1      52.538  26.379  33.268  1.00  0.00    -0.237 OA
ATOM     93  O   UNL A   1      52.193  24.122  32.342  1.00  0.00    -0.744 OA
ENDBRANCH  89  90
ENDBRANCH  63  84
ENDBRANCH  37  38
ENDBRANCH  29  32
ENDBRANCH  27  28
ENDBRANCH  26  27
ENDBRANCH   1  26
TORSDOF 18
ENDMDL
MODEL 2
REMARK VINA RESULT:     -11.2      1.448      2.429
REMARK SMILES Nc1nonc1C(=O)N1[C@@H]2CC[C@H]1C[C@H](CC(=O)NCCCCNC(=O)c1ccc(-c3c4nc(c(-c5ccc(S(=O)(=O)[O-])cc5)c5ccc([nH]5)c(-c5ccc(S(=O)(=O)[O-])cc5)c5nc(c(-c6ccc(S(=O)(=O)[O-])cc6)c6ccc3[nH]6)C=C5)C=C4)cc1)C2
REMARK SMILES IDX 21 1 20 2 19 3 17 4 18 5 16 7 15 8 9 9 10 10 13 11 11 12
REMARK SMILES IDX 87 13 12 14 14 15 7 16 8 17 6 18 2 19 3 20 4 21 5 22 1 23
REMARK SMILES IDX 22 26 23 27 24 28 25 29 26 31 27 32 28 33 86 34 29 35 85 36
REMARK SMILES IDX 30 37 31 38 32 39 79 40 33 41 84 42 78 43 80 44 34 45 83 46
REMARK SMILES IDX 77 47 76 48 35 50 65 51 46 52 64 53 47 54 50 55 63 56 81 57
REMARK SMILES IDX 48 58 49 59 62 61 82 62 51 63 36 64 37 65 45 66 38 67 44 68
REMARK SMILES IDX 39 69 40 70 41 71 42 72 43 73 66 74 67 75 75 76 68 77 74 78
REMARK SMILES IDX 69 79 70 80 71 81 72 82 73 83 52 84 53 85 61 86 54 87 60 88
REMARK SMILES IDX 55 89 56 90 57 91 58 92 59 93
REMARK H PARENT 19 6 1 24 1 25 24 30 80 49 50 60
REMARK Flexibility Score: inf
ROOT
ATOM      1  C   UNL A   1      33.702  29.121  24.820  1.00  0.00     0.023 C 
ENDROOT
BRANCH   1   2
ATOM      2  C   UNL A   1      33.894  28.540  23.413  1.00  0.00     0.116 C 
BRANCH   2   3
ATOM      3  N   UNL A   1      32.621  28.138  22.832  1.00  0.00    -0.356 N 
ATOM      4  C   UNL A   1      32.218  26.969  22.256  1.00  0.00     0.220 C 
ATOM      5  O   UNL A   1      31.088  26.922  21.764  1.00  0.00    -0.275 OA
ATOM      6  H   UNL A   1      31.926  28.834  22.861  1.00  0.00     0.163 HD
BRANCH   4   7
ATOM      7  C   UNL A   1      33.122  25.745  22.209  1.00  0.00     0.103 C 
BRANCH   7   8
ATOM      8  C   UNL A   1      32.553  24.508  22.948  1.00  0.00     0.002 C 
ATOM      9  N   UNL A   1      33.899  23.000  24.981  1.00  0.00    -0.331 N 
ATOM     10  C   UNL A   1      32.603  23.559  25.343  1.00  0.00     0.086 C 
ATOM     11  C   UNL A   1      33.630  22.253  23.771  1.00  0.00     0.086 C 
ATOM     12  C   UNL A   1      31.585  22.449  25.003  1.00  0.00     0.027 C 
ATOM     13  C   UNL A   1      32.412  24.803  24.463  1.00  0.00     0.029 C 
ATOM     14  C   UNL A   1      32.337  21.504  24.064  1.00  0.00     0.027 C 
ATOM     15  C   UNL A   1      33.423  23.271  22.652  1.00  0.00     0.029 C 
BRANCH   9  16
ATOM     16  C   UNL A   1      34.679  22.436  25.989  1.00  0.00     0.280 C 
ATOM     17  O   UNL A   1      34.351  22.539  27.170  1.00  0.00    -0.267 OA
BRANCH  16  18
ATOM     18  C   UNL A   1      35.949  21.843  25.561  1.00  0.00     0.216 A 
ATOM     19  C   UNL A   1      36.296  20.548  25.085  1.00  0.00     0.201 A 
ATOM     20  N   UNL A   1      37.586  20.525  24.755  1.00  0.00    -0.032 NA
ATOM     21  O   UNL A   1      38.066  21.784  25.064  1.00  0.00    -0.242 OA
ATOM     22  N   UNL A   1      37.063  22.593  25.566  1.00  0.00    -0.042 NA
BRANCH  19  23
ATOM     23  N   UNL A   1      35.517  19.459  24.985  1.00  0.00    -0.379 N 
ATOM     24  H   UNL A   1      34.619  19.457  25.387  1.00  0.00     0.158 HD
ATOM     25  H   UNL A   1      35.845  18.661  24.510  1.00  0.00     0.158 HD
ENDBRANCH  19  23
ENDBRANCH  16  18
ENDBRANCH   9  16
ENDBRANCH   7   8
ENDBRANCH   4   7
ENDBRANCH   2   3
ENDBRANCH   1   2
BRANCH   1  26
ATOM     26  C   UNL A   1      33.042  28.212  25.838  1.00  0.00     0.023 C 
BRANCH  26  27
ATOM     27  C   UNL A   1      33.453  28.492  27.268  1.00  0.00     0.116 C 
BRANCH  27  28
ATOM     28  N   UNL A   1      33.443  29.907  27.622  1.00  0.00    -0.352 N 
ATOM     29  C   UNL A   1      34.485  30.665  28.119  1.00  0.00     0.251 C 
ATOM     30  H   UNL A   1      32.591  30.379  27.489  1.00  0.00     0.163 HD
ATOM     31  O   UNL A   1      34.310  31.829  28.443  1.00  0.00    -0.269 OA
BRANCH  29  32
ATOM     32  C   UNL A   1      35.799  30.011  28.302  1.00  0.00     0.039 A 
ATOM     33  C   UNL A   1      36.734  30.063  27.266  1.00  0.00     0.014 A 
ATOM     34  C   UNL A   1      36.140  29.467  29.542  1.00  0.00     0.014 A 
ATOM     35  C   UNL A   1      38.046  29.651  27.511  1.00  0.00     0.010 A 
ATOM     36  C   UNL A   1      37.467  29.173  29.814  1.00  0.00     0.010 A 
ATOM     37  C   UNL A   1      38.433  29.250  28.800  1.00  0.00    -0.014 A 
BRANCH  37  38
ATOM     38  C   UNL A   1      39.831  28.868  29.115  1.00  0.00     0.031 A 
ATOM     39  C   UNL A   1      40.740  29.874  29.770  1.00  0.00     0.074 A 
ATOM     40  C   UNL A   1      40.306  27.661  28.746  1.00  0.00     0.049 A 
ATOM     41  N   UNL A   1      42.018  29.785  30.034  1.00  0.00    -0.248 NA
ATOM     42  C   UNL A   1      40.142  31.171  30.137  1.00  0.00     0.031 C 
ATOM     43  C   UNL A   1      39.542  26.619  28.053  1.00  0.00     0.029 A 
ATOM     44  N   UNL A   1      41.552  27.108  28.899  1.00  0.00    -0.354 N 
ATOM     45  C   UNL A   1      42.377  31.018  30.567  1.00  0.00     0.074 A 
ATOM     46  C   UNL A   1      41.202  31.859  30.525  1.00  0.00     0.031 C 
ATOM     47  C   UNL A   1      40.326  25.541  27.878  1.00  0.00     0.029 A 
ATOM     48  C   UNL A   1      41.654  25.826  28.410  1.00  0.00     0.049 A 
ATOM     49  H   UNL A   1      42.304  27.585  29.320  1.00  0.00     0.167 HD
ATOM     50  C   UNL A   1      43.568  31.408  31.078  1.00  0.00     0.031 A 
ATOM     51  C   UNL A   1      42.700  24.978  28.398  1.00  0.00     0.031 A 
ATOM     52  C   UNL A   1      44.720  30.556  31.158  1.00  0.00     0.049 A 
ATOM     53  C   UNL A   1      44.005  25.421  29.003  1.00  0.00     0.074 A 
ATOM     54  C   UNL A   1      45.960  30.833  31.705  1.00  0.00     0.029 A 
ATOM     55  N   UNL A   1      44.767  29.252  30.692  1.00  0.00    -0.354 N 
ATOM     56  N   UNL A   1      44.311  26.575  29.546  1.00  0.00    -0.248 NA
ATOM     57  C   UNL A   1      45.099  24.441  29.009  1.00  0.00     0.031 C 
ATOM     58  C   UNL A   1      46.768  29.702  31.545  1.00  0.00     0.029 A 
ATOM     59  C   UNL A   1      46.015  28.708  30.937  1.00  0.00     0.049 A 
ATOM     60  H   UNL A   1      44.023  28.781  30.251  1.00  0.00     0.167 HD
ATOM     61  C   UNL A   1      45.624  26.448  29.988  1.00  0.00     0.074 A 
ATOM     62  C   UNL A   1      46.048  25.103  29.658  1.00  0.00     0.031 C 
ATOM     63  C   UNL A   1      46.408  27.362  30.611  1.00  0.00     0.031 A 
BRANCH  50  64
ATOM     64  C   UNL A   1      43.663  32.815  31.606  1.00  0.00    -0.014 A 
ATOM     65  C   UNL A   1      43.912  33.895  30.739  1.00  0.00     0.010 A 
ATOM     66  C   UNL A   1      43.497  33.062  32.979  1.00  0.00     0.010 A 
ATOM     67  C   UNL A   1      44.047  35.190  31.243  1.00  0.00     0.020 A 
ATOM     68  C   UNL A   1      43.601  34.363  33.484  1.00  0.00     0.020 A 
ATOM     69  C   UNL A   1      43.897  35.414  32.613  1.00  0.00     0.054 A 
BRANCH  69  70
ATOM     70  S   UNL A   1      44.068  37.108  33.241  1.00  0.00     0.124 S 
ATOM     71  O   UNL A   1      44.330  37.856  32.014  1.00  0.00    -0.237 OA
ATOM     72  O   UNL A   1      42.768  37.354  33.861  1.00  0.00    -0.237 OA
ATOM     73  O   UNL A   1      45.192  37.020  34.170  1.00  0.00    -0.744 OA
ENDBRANCH  69  70
ENDBRANCH  50  64
BRANCH  51  74
ATOM     74  C   UNL A   1      42.551  23.610  27.831  1.00  0.00    -0.014 A 
ATOM     75  C   UNL A   1      42.807  23.374  26.468  1.00  0.00     0.010 A 
ATOM     76  C   UNL A   1      42.149  22.535  28.645  1.00  0.00     0.010 A 
ATOM     77  C   UNL A   1      42.640  22.098  25.924  1.00  0.00     0.020 A 
ATOM     78  C   UNL A   1      42.005  21.252  28.110  1.00  0.00     0.020 A 
ATOM     79  C   UNL A   1      42.238  21.045  26.748  1.00  0.00     0.054 A 
BRANCH  79  80
ATOM     80  S   UNL A   1      42.062  19.387  26.030  1.00  0.00     0.124 S 
ATOM     81  O   UNL A   1      40.626  19.313  25.786  1.00  0.00    -0.237 OA
ATOM     82  O   UNL A   1      42.904  19.466  24.839  1.00  0.00    -0.237 OA
ATOM     83  O   UNL A   1      42.567  18.507  27.082  1.00  0.00    -0.744 OA
ENDBRANCH  79  80
ENDBRANCH  51  74
BRANCH  63  84
ATOM     84  C   UNL A   1      47.785  26.922  31.021  1.00  0.00    -0.014 A 
ATOM     85  C   UNL A   1      48.028  26.377  32.294  1.00  0.00     0.010 A 
ATOM     86  C   UNL A   1      48.841  27.004  30.095  1.00  0.00     0.010 A 
ATOM     87  C   UNL A   1      49.310  25.951  32.645  1.00  0.00     0.020 A 
ATOM     88  C   UNL A   1      50.118  26.556  30.432  1.00  0.00     0.020 A 
ATOM     89  C   UNL A   1      50.348  26.045  31.712  1.00  0.00     0.054 A 
BRANCH  89  90
ATOM     90  S   UNL A   1      51.997  25.445  32.174  1.00  0.00     0.124 S 
ATOM     91  O   UNL A   1      52.167  26.024  33.504  1.00  0.00    -0.237 OA
ATOM     92  O   UNL A   1      51.835  23.994  32.135  1.00  0.00    -0.237 OA
ATOM     93  O   UNL A   1      52.867  25.996  31.137  1.00  0.00    -0.744 OA
ENDBRANCH  89  90
ENDBRANCH  63  84
ENDBRANCH  37  38
ENDBRANCH  29  32
ENDBRANCH  27  28
ENDBRANCH  26  27
ENDBRANCH   1  26
TORSDOF 18
ENDMDL
MODEL 3
REMARK VINA RESULT:     -11.2      1.554      2.175
REMARK SMILES Nc1nonc1C(=O)N1[C@@H]2CC[C@H]1C[C@H](CC(=O)NCCCCNC(=O)c1ccc(-c3c4nc(c(-c5ccc(S(=O)(=O)[O-])cc5)c5ccc([nH]5)c(-c5ccc(S(=O)(=O)[O-])cc5)c5nc(c(-c6ccc(S(=O)(=O)[O-])cc6)c6ccc3[nH]6)C=C5)C=C4)cc1)C2
REMARK SMILES IDX 21 1 20 2 19 3 17 4 18 5 16 7 15 8 9 9 10 10 13 11 11 12
REMARK SMILES IDX 87 13 12 14 14 15 7 16 8 17 6 18 2 19 3 20 4 21 5 22 1 23
REMARK SMILES IDX 22 26 23 27 24 28 25 29 26 31 27 32 28 33 86 34 29 35 85 36
REMARK SMILES IDX 30 37 31 38 32 39 79 40 33 41 84 42 78 43 80 44 34 45 83 46
REMARK SMILES IDX 77 47 76 48 35 50 65 51 46 52 64 53 47 54 50 55 63 56 81 57
REMARK SMILES IDX 48 58 49 59 62 61 82 62 51 63 36 64 37 65 45 66 38 67 44 68
REMARK SMILES IDX 39 69 40 70 41 71 42 72 43 73 66 74 67 75 75 76 68 77 74 78
REMARK SMILES IDX 69 79 70 80 71 81 72 82 73 83 52 84 53 85 61 86 54 87 60 88
REMARK SMILES IDX 55 89 56 90 57 91 58 92 59 93
REMARK H PARENT 19 6 1 24 1 25 24 30 80 49 50 60
REMARK Flexibility Score: inf
ROOT
ATOM      1  C   UNL A   1      31.833  27.889  26.966  1.00  0.00     0.023 C 
ENDROOT
BRANCH   1   2
ATOM      2  C   UNL A   1      30.985  27.151  25.922  1.00  0.00     0.116 C 
BRANCH   2   3
ATOM      3  N   UNL A   1      30.255  26.045  26.523  1.00  0.00    -0.356 N 
ATOM      4  C   UNL A   1      30.618  24.757  26.786  1.00  0.00     0.220 C 
ATOM      5  O   UNL A   1      29.762  23.992  27.238  1.00  0.00    -0.275 OA
ATOM      6  H   UNL A   1      29.333  26.267  26.790  1.00  0.00     0.163 HD
BRANCH   4   7
ATOM      7  C   UNL A   1      32.033  24.256  26.535  1.00  0.00     0.103 C 
BRANCH   7   8
ATOM      8  C   UNL A   1      32.307  23.842  25.067  1.00  0.00     0.002 C 
ATOM      9  N   UNL A   1      34.881  23.288  23.932  1.00  0.00    -0.331 N 
ATOM     10  C   UNL A   1      33.890  22.226  23.833  1.00  0.00     0.086 C 
ATOM     11  C   UNL A   1      34.216  24.438  23.358  1.00  0.00     0.086 C 
ATOM     12  C   UNL A   1      33.191  22.462  22.477  1.00  0.00     0.027 C 
ATOM     13  C   UNL A   1      32.930  22.424  25.016  1.00  0.00     0.029 C 
ATOM     14  C   UNL A   1      33.541  23.903  22.103  1.00  0.00     0.027 C 
ATOM     15  C   UNL A   1      33.176  24.908  24.372  1.00  0.00     0.029 C 
BRANCH   9  16
ATOM     16  C   UNL A   1      36.198  22.998  23.579  1.00  0.00     0.280 C 
ATOM     17  O   UNL A   1      36.507  22.810  22.404  1.00  0.00    -0.267 OA
BRANCH  16  18
ATOM     18  C   UNL A   1      37.132  22.807  24.692  1.00  0.00     0.216 A 
ATOM     19  C   UNL A   1      37.831  21.668  25.180  1.00  0.00     0.201 A 
ATOM     20  N   UNL A   1      38.625  22.029  26.186  1.00  0.00    -0.032 NA
ATOM     21  O   UNL A   1      38.398  23.380  26.367  1.00  0.00    -0.242 OA
ATOM     22  N   UNL A   1      37.475  23.859  25.454  1.00  0.00    -0.042 NA
BRANCH  19  23
ATOM     23  N   UNL A   1      37.736  20.393  24.772  1.00  0.00    -0.379 N 
ATOM     24  H   UNL A   1      37.512  20.191  23.835  1.00  0.00     0.158 HD
ATOM     25  H   UNL A   1      37.890  19.659  25.410  1.00  0.00     0.158 HD
ENDBRANCH  19  23
ENDBRANCH  16  18
ENDBRANCH   9  16
ENDBRANCH   7   8
ENDBRANCH   4   7
ENDBRANCH   2   3
ENDBRANCH   1   2
BRANCH   1  26
ATOM     26  C   UNL A   1      33.334  27.856  26.759  1.00  0.00     0.023 C 
BRANCH  26  27
ATOM     27  C   UNL A   1      33.904  29.139  26.192  1.00  0.00     0.116 C 
BRANCH  27  28
ATOM     28  N   UNL A   1      33.712  30.303  27.051  1.00  0.00    -0.352 N 
ATOM     29  C   UNL A   1      34.574  30.805  28.006  1.00  0.00     0.251 C 
ATOM     30  H   UNL A   1      32.866  30.791  26.935  1.00  0.00     0.163 HD
ATOM     31  O   UNL A   1      34.247  31.749  28.706  1.00  0.00    -0.269 OA
BRANCH  29  32
ATOM     32  C   UNL A   1      35.877  30.130  28.194  1.00  0.00     0.039 A 
ATOM     33  C   UNL A   1      36.843  30.225  27.190  1.00  0.00     0.014 A 
ATOM     34  C   UNL A   1      36.177  29.522  29.414  1.00  0.00     0.014 A 
ATOM     35  C   UNL A   1      38.144  29.789  27.451  1.00  0.00     0.010 A 
ATOM     36  C   UNL A   1      37.493  29.203  29.710  1.00  0.00     0.010 A 
ATOM     37  C   UNL A   1      38.489  29.321  28.730  1.00  0.00    -0.014 A 
BRANCH  37  38
ATOM     38  C   UNL A   1      39.874  28.910  29.066  1.00  0.00     0.031 A 
ATOM     39  C   UNL A   1      40.788  29.892  29.750  1.00  0.00     0.074 A 
ATOM     40  C   UNL A   1      40.335  27.700  28.690  1.00  0.00     0.049 A 
ATOM     41  N   UNL A   1      42.058  29.777  30.037  1.00  0.00    -0.248 NA
ATOM     42  C   UNL A   1      40.205  31.194  30.123  1.00  0.00     0.031 C 
ATOM     43  C   UNL A   1      39.566  26.680  27.970  1.00  0.00     0.029 A 
ATOM     44  N   UNL A   1      41.568  27.124  28.860  1.00  0.00    -0.354 N 
ATOM     45  C   UNL A   1      42.429  30.997  30.593  1.00  0.00     0.074 A 
ATOM     46  C   UNL A   1      41.270  31.859  30.540  1.00  0.00     0.031 C 
ATOM     47  C   UNL A   1      40.334  25.591  27.795  1.00  0.00     0.029 A 
ATOM     48  C   UNL A   1      41.657  25.846  28.355  1.00  0.00     0.049 A 
ATOM     49  H   UNL A   1      42.320  27.581  29.300  1.00  0.00     0.167 HD
ATOM     50  C   UNL A   1      43.616  31.359  31.131  1.00  0.00     0.031 A 
ATOM     51  C   UNL A   1      42.688  24.980  28.352  1.00  0.00     0.031 A 
ATOM     52  C   UNL A   1      44.752  30.487  31.222  1.00  0.00     0.049 A 
ATOM     53  C   UNL A   1      43.989  25.392  28.987  1.00  0.00     0.074 A 
ATOM     54  C   UNL A   1      45.986  30.734  31.795  1.00  0.00     0.029 A 
ATOM     55  N   UNL A   1      44.786  29.187  30.739  1.00  0.00    -0.354 N 
ATOM     56  N   UNL A   1      44.304  26.534  29.551  1.00  0.00    -0.248 NA
ATOM     57  C   UNL A   1      45.066  24.393  29.001  1.00  0.00     0.031 C 
ATOM     58  C   UNL A   1      46.777  29.592  31.635  1.00  0.00     0.029 A 
ATOM     59  C   UNL A   1      46.019  28.619  31.001  1.00  0.00     0.049 A 
ATOM     60  H   UNL A   1      44.042  28.736  30.279  1.00  0.00     0.167 HD
ATOM     61  C   UNL A   1      45.606  26.378  30.015  1.00  0.00     0.074 A 
ATOM     62  C   UNL A   1      46.014  25.030  29.676  1.00  0.00     0.031 C 
ATOM     63  C   UNL A   1      46.394  27.270  30.665  1.00  0.00     0.031 A 
BRANCH  50  64
ATOM     64  C   UNL A   1      43.725  32.758  31.678  1.00  0.00    -0.014 A 
ATOM     65  C   UNL A   1      43.483  33.021  33.039  1.00  0.00     0.010 A 
ATOM     66  C   UNL A   1      44.078  33.819  30.827  1.00  0.00     0.010 A 
ATOM     67  C   UNL A   1      43.538  34.328  33.528  1.00  0.00     0.020 A 
ATOM     68  C   UNL A   1      44.165  35.125  31.319  1.00  0.00     0.020 A 
ATOM     69  C   UNL A   1      43.872  35.372  32.663  1.00  0.00     0.054 A 
BRANCH  69  70
ATOM     70  S   UNL A   1      43.946  37.060  33.325  1.00  0.00     0.124 S 
ATOM     71  O   UNL A   1      45.142  37.000  34.162  1.00  0.00    -0.237 OA
ATOM     72  O   UNL A   1      44.066  37.874  32.118  1.00  0.00    -0.237 OA
ATOM     73  O   UNL A   1      42.685  37.203  34.048  1.00  0.00    -0.744 OA
ENDBRANCH  69  70
ENDBRANCH  50  64
BRANCH  51  74
ATOM     74  C   UNL A   1      42.526  23.622  27.764  1.00  0.00    -0.014 A 
ATOM     75  C   UNL A   1      42.063  22.556  28.557  1.00  0.00     0.010 A 
ATOM     76  C   UNL A   1      42.835  23.383  26.413  1.00  0.00     0.010 A 
ATOM     77  C   UNL A   1      41.938  21.273  28.019  1.00  0.00     0.020 A 
ATOM     78  C   UNL A   1      42.687  22.106  25.864  1.00  0.00     0.020 A 
ATOM     79  C   UNL A   1      42.253  21.055  26.676  1.00  0.00     0.054 A 
BRANCH  79  80
ATOM     80  S   UNL A   1      42.048  19.389  25.986  1.00  0.00     0.124 S 
ATOM     81  O   UNL A   1      42.522  18.547  27.079  1.00  0.00    -0.237 OA
ATOM     82  O   UNL A   1      40.613  19.331  25.717  1.00  0.00    -0.237 OA
ATOM     83  O   UNL A   1      42.895  19.408  24.795  1.00  0.00    -0.744 OA
ENDBRANCH  79  80
ENDBRANCH  51  74
BRANCH  63  84
ATOM     84  C   UNL A   1      47.756  26.801  31.095  1.00  0.00    -0.014 A 
ATOM     85  C   UNL A   1      48.866  26.904  30.239  1.00  0.00     0.010 A 
ATOM     86  C   UNL A   1      47.934  26.301  32.398  1.00  0.00     0.010 A 
ATOM     87  C   UNL A   1      50.127  26.486  30.669  1.00  0.00     0.020 A 
ATOM     88  C   UNL A   1      49.197  25.906  32.840  1.00  0.00     0.020 A 
ATOM     89  C   UNL A   1      50.284  25.987  31.966  1.00  0.00     0.054 A 
BRANCH  89  90
ATOM     90  S   UNL A   1      51.939  25.491  32.519  1.00  0.00     0.124 S 
ATOM     91  O   UNL A   1      51.834  24.034  32.515  1.00  0.00    -0.237 OA
ATOM     92  O   UNL A   1      52.807  26.062  31.492  1.00  0.00    -0.237 OA
ATOM     93  O   UNL A   1      52.061  26.104  33.839  1.00  0.00    -0.744 OA
ENDBRANCH  89  90
ENDBRANCH  63  84
ENDBRANCH  37  38
ENDBRANCH  29  32
ENDBRANCH  27  28
ENDBRANCH  26  27
ENDBRANCH   1  26
TORSDOF 18
ENDMDL
