MODEL 1
REMARK VINA RESULT:     -12.5      0.000      0.000
REMARK SMILES O=C(NCCCCNC(=O)[C@H]1C[C@](O)(c2ccc(F)cc2)[C@@H](c2ccc(F)cc2)O1)c1ccc(-c2c3nc(c(-c4ccc(S(=O)(=O)[O-])cc4)c4ccc([nH]4)c(-c4ccc(S(=O)(=O)[O-])cc4)c4nc(c(-c5ccc(S(=O)(=O)[O-])cc5)c5ccc2[nH]5)C=C4)C=C3)cc1
REMARK SMILES IDX 4 1 3 2 1 3 2 4 31 6 32 7 90 8 33 9 89 10 34 11 35 12 36 13
REMARK SMILES IDX 83 14 37 15 88 16 82 17 84 18 38 19 87 20 81 21 80 22 39 24
REMARK SMILES IDX 69 25 50 26 68 27 51 28 54 29 67 30 85 31 52 32 53 33 66 35
REMARK SMILES IDX 86 36 55 37 40 38 41 39 49 40 42 41 48 42 43 43 44 44 45 45
REMARK SMILES IDX 46 46 47 47 70 48 71 49 79 50 72 51 78 52 73 53 74 54 75 55
REMARK SMILES IDX 76 56 77 57 56 58 57 59 65 60 58 61 64 62 59 63 60 64 61 65
REMARK SMILES IDX 62 66 63 67 5 68 6 69 7 70 8 71 9 72 10 74 11 75 12 76 30 77
REMARK SMILES IDX 13 78 22 79 15 80 16 81 21 82 17 83 20 84 18 85 19 86 14 87
REMARK SMILES IDX 23 89 24 90 29 91 25 92 28 93 26 94 27 95
REMARK H PARENT 3 5 84 23 54 34 8 73 14 88
REMARK Flexibility Score: inf
ROOT
ATOM      1  C   UNL A   1      41.146  23.030  27.247  1.00  0.00     0.116 C 
ENDROOT
BRANCH   1   2
ATOM      2  N   UNL A   1      41.731  23.764  26.136  1.00  0.00    -0.352 N 
ATOM      3  O   UNL A   1      42.338  25.562  24.928  1.00  0.00    -0.269 OA
ATOM      4  C   UNL A   1      41.967  25.110  26.008  1.00  0.00     0.251 C 
ATOM      5  H   UNL A   1      41.995  23.216  25.363  1.00  0.00     0.163 HD
BRANCH   4   6
ATOM      6  C   UNL A   1      41.752  26.010  27.159  1.00  0.00     0.039 A 
ATOM      7  C   UNL A   1      40.691  25.803  28.046  1.00  0.00     0.014 A 
ATOM      8  C   UNL A   1      42.641  27.069  27.358  1.00  0.00     0.014 A 
ATOM      9  C   UNL A   1      40.452  26.719  29.066  1.00  0.00     0.010 A 
ATOM     10  C   UNL A   1      42.440  27.948  28.423  1.00  0.00     0.010 A 
ATOM     11  C   UNL A   1      41.331  27.793  29.271  1.00  0.00    -0.014 A 
BRANCH  11  12
ATOM     12  C   UNL A   1      41.125  28.720  30.410  1.00  0.00     0.031 A 
ATOM     13  C   UNL A   1      41.950  28.598  31.658  1.00  0.00     0.074 A 
ATOM     14  C   UNL A   1      40.155  29.650  30.324  1.00  0.00     0.049 A 
ATOM     15  N   UNL A   1      41.850  29.269  32.777  1.00  0.00    -0.248 NA
ATOM     16  C   UNL A   1      43.017  27.586  31.655  1.00  0.00     0.031 C 
ATOM     17  C   UNL A   1      39.288  29.857  29.161  1.00  0.00     0.029 A 
ATOM     18  N   UNL A   1      39.724  30.581  31.233  1.00  0.00    -0.354 N 
ATOM     19  C   UNL A   1      42.820  28.743  33.623  1.00  0.00     0.074 A 
ATOM     20  C   UNL A   1      43.485  27.685  32.891  1.00  0.00     0.031 C 
ATOM     21  C   UNL A   1      38.431  30.853  29.426  1.00  0.00     0.029 A 
ATOM     22  C   UNL A   1      38.646  31.313  30.793  1.00  0.00     0.049 A 
ATOM     23  H   UNL A   1      40.144  30.713  32.113  1.00  0.00     0.167 HD
ATOM     24  C   UNL A   1      43.124  29.108  34.892  1.00  0.00     0.031 A 
ATOM     25  C   UNL A   1      37.885  32.225  31.428  1.00  0.00     0.031 A 
ATOM     26  C   UNL A   1      42.444  30.153  35.613  1.00  0.00     0.049 A 
ATOM     27  C   UNL A   1      38.214  32.591  32.845  1.00  0.00     0.074 A 
ATOM     28  C   UNL A   1      42.702  30.627  36.887  1.00  0.00     0.029 A 
ATOM     29  N   UNL A   1      41.361  30.874  35.130  1.00  0.00    -0.354 N 
ATOM     30  N   UNL A   1      39.167  32.120  33.613  1.00  0.00    -0.248 NA
ATOM     31  C   UNL A   1      37.375  33.615  33.480  1.00  0.00     0.031 C 
ATOM     32  C   UNL A   1      41.739  31.594  37.196  1.00  0.00     0.029 A 
ATOM     33  C   UNL A   1      40.920  31.768  36.091  1.00  0.00     0.049 A 
ATOM     34  H   UNL A   1      40.964  30.765  34.235  1.00  0.00     0.167 HD
ATOM     35  C   UNL A   1      39.057  32.803  34.816  1.00  0.00     0.074 A 
ATOM     36  C   UNL A   1      37.947  33.725  34.673  1.00  0.00     0.031 C 
ATOM     37  C   UNL A   1      39.812  32.681  35.934  1.00  0.00     0.031 A 
BRANCH  24  38
ATOM     38  C   UNL A   1      44.207  28.331  35.597  1.00  0.00    -0.014 A 
ATOM     39  C   UNL A   1      43.911  27.193  36.369  1.00  0.00     0.010 A 
ATOM     40  C   UNL A   1      45.546  28.747  35.480  1.00  0.00     0.010 A 
ATOM     41  C   UNL A   1      44.924  26.526  37.065  1.00  0.00     0.020 A 
ATOM     42  C   UNL A   1      46.566  28.065  36.150  1.00  0.00     0.020 A 
ATOM     43  C   UNL A   1      46.245  26.976  36.961  1.00  0.00     0.054 A 
BRANCH  43  44
ATOM     44  S   UNL A   1      47.537  26.116  37.899  1.00  0.00     0.124 S 
ATOM     45  O   UNL A   1      46.931  26.017  39.225  1.00  0.00    -0.237 OA
ATOM     46  O   UNL A   1      47.674  24.853  37.177  1.00  0.00    -0.237 OA
ATOM     47  O   UNL A   1      48.688  27.009  37.806  1.00  0.00    -0.744 OA
ENDBRANCH  43  44
ENDBRANCH  24  38
BRANCH  25  48
ATOM     48  C   UNL A   1      36.730  32.820  30.707  1.00  0.00    -0.014 A 
ATOM     49  C   UNL A   1      35.416  32.429  31.012  1.00  0.00     0.010 A 
ATOM     50  C   UNL A   1      36.940  33.859  29.780  1.00  0.00     0.010 A 
ATOM     51  C   UNL A   1      34.332  33.077  30.412  1.00  0.00     0.020 A 
ATOM     52  C   UNL A   1      35.859  34.526  29.200  1.00  0.00     0.020 A 
ATOM     53  C   UNL A   1      34.560  34.129  29.520  1.00  0.00     0.054 A 
BRANCH  53  54
ATOM     54  S   UNL A   1      33.136  35.026  28.840  1.00  0.00     0.124 S 
ATOM     55  O   UNL A   1      32.387  35.363  30.045  1.00  0.00    -0.237 OA
ATOM     56  O   UNL A   1      33.771  36.150  28.155  1.00  0.00    -0.237 OA
ATOM     57  O   UNL A   1      32.504  34.048  27.960  1.00  0.00    -0.744 OA
ENDBRANCH  53  54
ENDBRANCH  25  48
BRANCH  37  58
ATOM     58  C   UNL A   1      39.498  33.587  37.094  1.00  0.00    -0.014 A 
ATOM     59  C   UNL A   1      38.739  33.137  38.188  1.00  0.00     0.010 A 
ATOM     60  C   UNL A   1      40.062  34.877  37.132  1.00  0.00     0.010 A 
ATOM     61  C   UNL A   1      38.547  33.962  39.299  1.00  0.00     0.020 A 
ATOM     62  C   UNL A   1      39.891  35.694  38.251  1.00  0.00     0.020 A 
ATOM     63  C   UNL A   1      39.132  35.232  39.327  1.00  0.00     0.054 A 
BRANCH  63  64
ATOM     64  S   UNL A   1      38.947  36.247  40.819  1.00  0.00     0.124 S 
ATOM     65  O   UNL A   1      38.610  37.553  40.261  1.00  0.00    -0.237 OA
ATOM     66  O   UNL A   1      37.867  35.572  41.534  1.00  0.00    -0.237 OA
ATOM     67  O   UNL A   1      40.257  36.163  41.461  1.00  0.00    -0.744 OA
ENDBRANCH  63  64
ENDBRANCH  37  58
ENDBRANCH  11  12
ENDBRANCH   4   6
ENDBRANCH   1   2
BRANCH   1  68
ATOM     68  C   UNL A   1      40.017  22.105  26.811  1.00  0.00     0.023 C 
BRANCH  68  69
ATOM     69  C   UNL A   1      38.805  22.805  26.195  1.00  0.00     0.023 C 
BRANCH  69  70
ATOM     70  C   UNL A   1      37.669  21.885  25.754  1.00  0.00     0.116 C 
BRANCH  70  71
ATOM     71  N   UNL A   1      37.281  22.076  24.371  1.00  0.00    -0.354 N 
ATOM     72  C   UNL A   1      36.379  22.961  23.855  1.00  0.00     0.249 C 
ATOM     73  H   UNL A   1      37.727  21.490  23.717  1.00  0.00     0.163 HD
ATOM     74  O   UNL A   1      36.273  23.016  22.628  1.00  0.00    -0.272 OA
BRANCH  72  75
ATOM     75  C   UNL A   1      35.580  23.891  24.806  1.00  0.00     0.211 C 
ATOM     76  C   UNL A   1      34.764  24.933  24.038  1.00  0.00     0.085 C 
ATOM     77  O   UNL A   1      34.680  23.187  25.668  1.00  0.00    -0.357 OA
ATOM     78  C   UNL A   1      33.315  24.742  24.489  1.00  0.00     0.123 C 
ATOM     79  C   UNL A   1      33.341  23.351  25.174  1.00  0.00     0.186 C 
BRANCH  78  80
ATOM     80  C   UNL A   1      32.896  25.923  25.383  1.00  0.00    -0.013 A 
ATOM     81  C   UNL A   1      31.541  26.035  25.769  1.00  0.00     0.010 A 
ATOM     82  C   UNL A   1      33.783  26.913  25.845  1.00  0.00     0.010 A 
ATOM     83  C   UNL A   1      31.103  27.062  26.608  1.00  0.00     0.039 A 
ATOM     84  C   UNL A   1      33.349  27.930  26.701  1.00  0.00     0.039 A 
ATOM     85  C   UNL A   1      32.016  27.993  27.079  1.00  0.00     0.123 A 
ATOM     86  F   UNL A   1      31.605  28.967  27.900  1.00  0.00    -0.207 F 
ENDBRANCH  78  80
BRANCH  78  87
ATOM     87  O   UNL A   1      32.453  24.789  23.346  1.00  0.00    -0.382 OA
ATOM     88  H   UNL A   1      31.545  24.582  23.618  1.00  0.00     0.212 HD
ENDBRANCH  78  87
BRANCH  79  89
ATOM     89  C   UNL A   1      32.946  22.097  24.404  1.00  0.00    -0.016 A 
ATOM     90  C   UNL A   1      32.312  22.127  23.152  1.00  0.00     0.009 A 
ATOM     91  C   UNL A   1      33.295  20.842  24.943  1.00  0.00     0.009 A 
ATOM     92  C   UNL A   1      32.060  20.944  22.452  1.00  0.00     0.039 A 
ATOM     93  C   UNL A   1      33.027  19.660  24.251  1.00  0.00     0.039 A 
ATOM     94  C   UNL A   1      32.420  19.723  23.006  1.00  0.00     0.123 A 
ATOM     95  F   UNL A   1      32.181  18.593  22.330  1.00  0.00    -0.207 F 
ENDBRANCH  79  89
ENDBRANCH  72  75
ENDBRANCH  70  71
ENDBRANCH  69  70
ENDBRANCH  68  69
ENDBRANCH   1  68
TORSDOF 17
ENDMDL
MODEL 2
REMARK VINA RESULT:     -12.5      1.578      3.513
REMARK SMILES O=C(NCCCCNC(=O)[C@H]1C[C@](O)(c2ccc(F)cc2)[C@@H](c2ccc(F)cc2)O1)c1ccc(-c2c3nc(c(-c4ccc(S(=O)(=O)[O-])cc4)c4ccc([nH]4)c(-c4ccc(S(=O)(=O)[O-])cc4)c4nc(c(-c5ccc(S(=O)(=O)[O-])cc5)c5ccc2[nH]5)C=C4)C=C3)cc1
REMARK SMILES IDX 4 1 3 2 1 3 2 4 31 6 32 7 90 8 33 9 89 10 34 11 35 12 36 13
REMARK SMILES IDX 83 14 37 15 88 16 82 17 84 18 38 19 87 20 81 21 80 22 39 24
REMARK SMILES IDX 69 25 50 26 68 27 51 28 54 29 67 30 85 31 52 32 53 33 66 35
REMARK SMILES IDX 86 36 55 37 40 38 41 39 49 40 42 41 48 42 43 43 44 44 45 45
REMARK SMILES IDX 46 46 47 47 70 48 71 49 79 50 72 51 78 52 73 53 74 54 75 55
REMARK SMILES IDX 76 56 77 57 56 58 57 59 65 60 58 61 64 62 59 63 60 64 61 65
REMARK SMILES IDX 62 66 63 67 5 68 6 69 7 70 8 71 9 72 10 74 11 75 12 76 30 77
REMARK SMILES IDX 13 78 22 79 15 80 16 81 21 82 17 83 20 84 18 85 19 86 14 87
REMARK SMILES IDX 23 89 24 90 29 91 25 92 28 93 26 94 27 95
REMARK H PARENT 3 5 84 23 54 34 8 73 14 88
REMARK Flexibility Score: inf
ROOT
ATOM      1  C   UNL A   1      40.663  23.181  27.183  1.00  0.00     0.116 C 
ENDROOT
BRANCH   1   2
ATOM      2  N   UNL A   1      41.459  23.836  26.157  1.00  0.00    -0.352 N 
ATOM      3  O   UNL A   1      42.440  25.540  25.064  1.00  0.00    -0.269 OA
ATOM      4  C   UNL A   1      41.897  25.134  26.089  1.00  0.00     0.251 C 
ATOM      5  H   UNL A   1      41.722  23.263  25.400  1.00  0.00     0.163 HD
BRANCH   4   6
ATOM      6  C   UNL A   1      41.694  26.042  27.235  1.00  0.00     0.039 A 
ATOM      7  C   UNL A   1      40.630  25.854  28.123  1.00  0.00     0.014 A 
ATOM      8  C   UNL A   1      42.597  27.091  27.429  1.00  0.00     0.014 A 
ATOM      9  C   UNL A   1      40.403  26.779  29.137  1.00  0.00     0.010 A 
ATOM     10  C   UNL A   1      42.407  27.978  28.489  1.00  0.00     0.010 A 
ATOM     11  C   UNL A   1      41.296  27.842  29.338  1.00  0.00    -0.014 A 
BRANCH  11  12
ATOM     12  C   UNL A   1      41.102  28.777  30.471  1.00  0.00     0.031 A 
ATOM     13  C   UNL A   1      41.939  28.665  31.712  1.00  0.00     0.074 A 
ATOM     14  C   UNL A   1      40.131  29.707  30.389  1.00  0.00     0.049 A 
ATOM     15  N   UNL A   1      41.851  29.343  32.827  1.00  0.00    -0.248 NA
ATOM     16  C   UNL A   1      43.006  27.652  31.705  1.00  0.00     0.031 C 
ATOM     17  C   UNL A   1      39.253  29.906  29.233  1.00  0.00     0.029 A 
ATOM     18  N   UNL A   1      39.710  30.645  31.295  1.00  0.00    -0.354 N 
ATOM     19  C   UNL A   1      42.830  28.824  33.667  1.00  0.00     0.074 A 
ATOM     20  C   UNL A   1      43.487  27.760  32.936  1.00  0.00     0.031 C 
ATOM     21  C   UNL A   1      38.399  30.905  29.500  1.00  0.00     0.029 A 
ATOM     22  C   UNL A   1      38.628  31.374  30.862  1.00  0.00     0.049 A 
ATOM     23  H   UNL A   1      40.139  30.783  32.170  1.00  0.00     0.167 HD
ATOM     24  C   UNL A   1      43.147  29.198  34.930  1.00  0.00     0.031 A 
ATOM     25  C   UNL A   1      37.874  32.291  31.497  1.00  0.00     0.031 A 
ATOM     26  C   UNL A   1      42.475  30.248  35.651  1.00  0.00     0.049 A 
ATOM     27  C   UNL A   1      38.218  32.668  32.908  1.00  0.00     0.074 A 
ATOM     28  C   UNL A   1      42.746  30.732  36.918  1.00  0.00     0.029 A 
ATOM     29  N   UNL A   1      41.387  30.966  35.173  1.00  0.00    -0.354 N 
ATOM     30  N   UNL A   1      39.178  32.201  33.669  1.00  0.00    -0.248 NA
ATOM     31  C   UNL A   1      37.385  33.696  33.544  1.00  0.00     0.031 C 
ATOM     32  C   UNL A   1      41.786  31.701  37.230  1.00  0.00     0.029 A 
ATOM     33  C   UNL A   1      40.956  31.867  36.132  1.00  0.00     0.049 A 
ATOM     34  H   UNL A   1      40.981  30.851  34.283  1.00  0.00     0.167 HD
ATOM     35  C   UNL A   1      39.081  32.894  34.869  1.00  0.00     0.074 A 
ATOM     36  C   UNL A   1      37.970  33.815  34.730  1.00  0.00     0.031 C 
ATOM     37  C   UNL A   1      39.848  32.779  35.980  1.00  0.00     0.031 A 
BRANCH  24  38
ATOM     38  C   UNL A   1      44.237  28.425  35.629  1.00  0.00    -0.014 A 
ATOM     39  C   UNL A   1      45.587  28.811  35.537  1.00  0.00     0.010 A 
ATOM     40  C   UNL A   1      43.902  27.294  36.397  1.00  0.00     0.010 A 
ATOM     41  C   UNL A   1      46.586  28.042  36.142  1.00  0.00     0.020 A 
ATOM     42  C   UNL A   1      44.895  26.540  37.028  1.00  0.00     0.020 A 
ATOM     43  C   UNL A   1      46.234  26.904  36.873  1.00  0.00     0.054 A 
BRANCH  43  44
ATOM     44  S   UNL A   1      47.549  25.904  37.621  1.00  0.00     0.124 S 
ATOM     45  O   UNL A   1      47.803  26.624  38.866  1.00  0.00    -0.237 OA
ATOM     46  O   UNL A   1      46.914  24.596  37.771  1.00  0.00    -0.237 OA
ATOM     47  O   UNL A   1      48.629  25.958  36.639  1.00  0.00    -0.744 OA
ENDBRANCH  43  44
ENDBRANCH  24  38
BRANCH  25  48
ATOM     48  C   UNL A   1      36.712  32.881  30.784  1.00  0.00    -0.014 A 
ATOM     49  C   UNL A   1      35.398  32.592  31.190  1.00  0.00     0.010 A 
ATOM     50  C   UNL A   1      36.922  33.820  29.755  1.00  0.00     0.010 A 
ATOM     51  C   UNL A   1      34.317  33.242  30.588  1.00  0.00     0.020 A 
ATOM     52  C   UNL A   1      35.845  34.490  29.171  1.00  0.00     0.020 A 
ATOM     53  C   UNL A   1      34.547  34.195  29.592  1.00  0.00     0.054 A 
BRANCH  53  54
ATOM     54  S   UNL A   1      33.134  35.104  28.906  1.00  0.00     0.124 S 
ATOM     55  O   UNL A   1      33.783  36.261  28.298  1.00  0.00    -0.237 OA
ATOM     56  O   UNL A   1      32.561  34.137  27.973  1.00  0.00    -0.237 OA
ATOM     57  O   UNL A   1      32.310  35.391  30.077  1.00  0.00    -0.744 OA
ENDBRANCH  53  54
ENDBRANCH  25  48
BRANCH  37  58
ATOM     58  C   UNL A   1      39.545  33.694  37.137  1.00  0.00    -0.014 A 
ATOM     59  C   UNL A   1      38.679  33.302  38.171  1.00  0.00     0.010 A 
ATOM     60  C   UNL A   1      40.223  34.924  37.236  1.00  0.00     0.010 A 
ATOM     61  C   UNL A   1      38.494  34.125  39.285  1.00  0.00     0.020 A 
ATOM     62  C   UNL A   1      40.058  35.738  38.358  1.00  0.00     0.020 A 
ATOM     63  C   UNL A   1      39.192  35.334  39.375  1.00  0.00     0.054 A 
BRANCH  63  64
ATOM     64  S   UNL A   1      39.007  36.340  40.874  1.00  0.00     0.124 S 
ATOM     65  O   UNL A   1      37.954  35.627  41.592  1.00  0.00    -0.237 OA
ATOM     66  O   UNL A   1      40.336  36.268  41.474  1.00  0.00    -0.237 OA
ATOM     67  O   UNL A   1      38.631  37.657  40.363  1.00  0.00    -0.744 OA
ENDBRANCH  63  64
ENDBRANCH  37  58
ENDBRANCH  11  12
ENDBRANCH   4   6
ENDBRANCH   1   2
BRANCH   1  68
ATOM     68  C   UNL A   1      39.256  22.841  26.707  1.00  0.00     0.023 C 
BRANCH  68  69
ATOM     69  C   UNL A   1      38.485  24.002  26.078  1.00  0.00     0.023 C 
BRANCH  69  70
ATOM     70  C   UNL A   1      37.254  23.609  25.264  1.00  0.00     0.116 C 
BRANCH  70  71
ATOM     71  N   UNL A   1      36.010  24.057  25.854  1.00  0.00    -0.354 N 
ATOM     72  C   UNL A   1      34.847  23.361  26.024  1.00  0.00     0.249 C 
ATOM     73  H   UNL A   1      36.000  24.989  26.176  1.00  0.00     0.163 HD
ATOM     74  O   UNL A   1      33.935  23.915  26.640  1.00  0.00    -0.272 OA
BRANCH  72  75
ATOM     75  C   UNL A   1      34.739  21.904  25.501  1.00  0.00     0.211 C 
ATOM     76  C   UNL A   1      33.573  21.149  26.142  1.00  0.00     0.085 C 
ATOM     77  O   UNL A   1      34.580  21.818  24.081  1.00  0.00    -0.357 OA
ATOM     78  C   UNL A   1      32.703  20.664  24.982  1.00  0.00     0.123 C 
ATOM     79  C   UNL A   1      33.209  21.511  23.786  1.00  0.00     0.186 C 
BRANCH  78  80
ATOM     80  C   UNL A   1      32.848  19.138  24.834  1.00  0.00    -0.013 A 
ATOM     81  C   UNL A   1      32.748  18.331  25.990  1.00  0.00     0.010 A 
ATOM     82  C   UNL A   1      33.080  18.486  23.609  1.00  0.00     0.010 A 
ATOM     83  C   UNL A   1      32.835  16.939  25.918  1.00  0.00     0.039 A 
ATOM     84  C   UNL A   1      33.147  17.091  23.534  1.00  0.00     0.039 A 
ATOM     85  C   UNL A   1      33.020  16.330  24.687  1.00  0.00     0.123 A 
ATOM     86  F   UNL A   1      33.082  14.995  24.610  1.00  0.00    -0.207 F 
ENDBRANCH  78  80
BRANCH  78  87
ATOM     87  O   UNL A   1      31.324  20.898  25.292  1.00  0.00    -0.382 OA
ATOM     88  H   UNL A   1      31.235  21.753  25.741  1.00  0.00     0.212 HD
ENDBRANCH  78  87
BRANCH  79  89
ATOM     89  C   UNL A   1      32.494  22.794  23.384  1.00  0.00    -0.016 A 
ATOM     90  C   UNL A   1      31.206  23.132  23.826  1.00  0.00     0.009 A 
ATOM     91  C   UNL A   1      33.186  23.724  22.580  1.00  0.00     0.009 A 
ATOM     92  C   UNL A   1      30.641  24.368  23.499  1.00  0.00     0.039 A 
ATOM     93  C   UNL A   1      32.614  24.950  22.240  1.00  0.00     0.039 A 
ATOM     94  C   UNL A   1      31.349  25.265  22.711  1.00  0.00     0.123 A 
ATOM     95  F   UNL A   1      30.806  26.449  22.404  1.00  0.00    -0.207 F 
ENDBRANCH  79  89
ENDBRANCH  72  75
ENDBRANCH  70  71
ENDBRANCH  69  70
ENDBRANCH  68  69
ENDBRANCH   1  68
TORSDOF 17
ENDMDL
MODEL 3
REMARK VINA RESULT:     -12.4      6.142     11.929
REMARK SMILES O=C(NCCCCNC(=O)[C@H]1C[C@](O)(c2ccc(F)cc2)[C@@H](c2ccc(F)cc2)O1)c1ccc(-c2c3nc(c(-c4ccc(S(=O)(=O)[O-])cc4)c4ccc([nH]4)c(-c4ccc(S(=O)(=O)[O-])cc4)c4nc(c(-c5ccc(S(=O)(=O)[O-])cc5)c5ccc2[nH]5)C=C4)C=C3)cc1
REMARK SMILES IDX 4 1 3 2 1 3 2 4 31 6 32 7 90 8 33 9 89 10 34 11 35 12 36 13
REMARK SMILES IDX 83 14 37 15 88 16 82 17 84 18 38 19 87 20 81 21 80 22 39 24
REMARK SMILES IDX 69 25 50 26 68 27 51 28 54 29 67 30 85 31 52 32 53 33 66 35
REMARK SMILES IDX 86 36 55 37 40 38 41 39 49 40 42 41 48 42 43 43 44 44 45 45
REMARK SMILES IDX 46 46 47 47 70 48 71 49 79 50 72 51 78 52 73 53 74 54 75 55
REMARK SMILES IDX 76 56 77 57 56 58 57 59 65 60 58 61 64 62 59 63 60 64 61 65
REMARK SMILES IDX 62 66 63 67 5 68 6 69 7 70 8 71 9 72 10 74 11 75 12 76 30 77
REMARK SMILES IDX 13 78 22 79 15 80 16 81 21 82 17 83 20 84 18 85 19 86 14 87
REMARK SMILES IDX 23 89 24 90 29 91 25 92 28 93 26 94 27 95
REMARK H PARENT 3 5 84 23 54 34 8 73 14 88
REMARK Flexibility Score: inf
ROOT
ATOM      1  C   UNL A   1      36.533  32.602  29.194  1.00  0.00     0.116 C 
ENDROOT
BRANCH   1   2
ATOM      2  N   UNL A   1      36.054  31.740  30.263  1.00  0.00    -0.352 N 
ATOM      3  O   UNL A   1      35.984  29.925  31.591  1.00  0.00    -0.269 OA
ATOM      4  C   UNL A   1      36.615  30.601  30.782  1.00  0.00     0.251 C 
ATOM      5  H   UNL A   1      35.203  32.014  30.675  1.00  0.00     0.163 HD
BRANCH   4   6
ATOM      6  C   UNL A   1      37.962  30.178  30.349  1.00  0.00     0.039 A 
ATOM      7  C   UNL A   1      38.992  29.995  31.278  1.00  0.00     0.014 A 
ATOM      8  C   UNL A   1      38.190  29.947  28.990  1.00  0.00     0.014 A 
ATOM      9  C   UNL A   1      40.276  29.691  30.837  1.00  0.00     0.010 A 
ATOM     10  C   UNL A   1      39.463  29.575  28.557  1.00  0.00     0.010 A 
ATOM     11  C   UNL A   1      40.521  29.467  29.475  1.00  0.00    -0.014 A 
BRANCH  11  12
ATOM     12  C   UNL A   1      41.870  29.059  29.015  1.00  0.00     0.031 A 
ATOM     13  C   UNL A   1      42.982  30.062  28.906  1.00  0.00     0.074 A 
ATOM     14  C   UNL A   1      42.074  27.777  28.655  1.00  0.00     0.049 A 
ATOM     15  N   UNL A   1      44.196  29.897  28.448  1.00  0.00    -0.248 NA
ATOM     16  C   UNL A   1      42.690  31.430  29.360  1.00  0.00     0.031 C 
ATOM     17  C   UNL A   1      41.066  26.715  28.714  1.00  0.00     0.029 A 
ATOM     18  N   UNL A   1      43.187  27.153  28.153  1.00  0.00    -0.354 N 
ATOM     19  C   UNL A   1      44.806  31.143  28.530  1.00  0.00     0.074 A 
ATOM     20  C   UNL A   1      43.819  32.058  29.066  1.00  0.00     0.031 C 
ATOM     21  C   UNL A   1      41.607  25.573  28.270  1.00  0.00     0.029 A 
ATOM     22  C   UNL A   1      42.976  25.833  27.838  1.00  0.00     0.049 A 
ATOM     23  H   UNL A   1      44.052  27.607  28.031  1.00  0.00     0.167 HD
ATOM     24  C   UNL A   1      46.070  31.491  28.187  1.00  0.00     0.031 A 
ATOM     25  C   UNL A   1      43.776  24.935  27.232  1.00  0.00     0.031 A 
ATOM     26  C   UNL A   1      47.036  30.573  27.640  1.00  0.00     0.049 A 
ATOM     27  C   UNL A   1      45.160  25.347  26.826  1.00  0.00     0.074 A 
ATOM     28  C   UNL A   1      48.355  30.815  27.298  1.00  0.00     0.029 A 
ATOM     29  N   UNL A   1      46.783  29.242  27.341  1.00  0.00    -0.354 N 
ATOM     30  N   UNL A   1      45.738  26.517  26.957  1.00  0.00    -0.248 NA
ATOM     31  C   UNL A   1      46.003  24.321  26.200  1.00  0.00     0.031 C 
ATOM     32  C   UNL A   1      48.882  29.646  26.738  1.00  0.00     0.029 A 
ATOM     33  C   UNL A   1      47.912  28.657  26.790  1.00  0.00     0.049 A 
ATOM     34  H   UNL A   1      45.928  28.780  27.497  1.00  0.00     0.167 HD
ATOM     35  C   UNL A   1      47.021  26.365  26.449  1.00  0.00     0.074 A 
ATOM     36  C   UNL A   1      47.137  24.987  26.012  1.00  0.00     0.031 C 
ATOM     37  C   UNL A   1      48.013  27.283  26.359  1.00  0.00     0.031 A 
BRANCH  24  38
ATOM     38  C   UNL A   1      46.458  32.939  28.343  1.00  0.00    -0.014 A 
ATOM     39  C   UNL A   1      46.261  33.870  27.307  1.00  0.00     0.010 A 
ATOM     40  C   UNL A   1      47.028  33.377  29.553  1.00  0.00     0.010 A 
ATOM     41  C   UNL A   1      46.687  35.194  27.453  1.00  0.00     0.020 A 
ATOM     42  C   UNL A   1      47.428  34.707  29.714  1.00  0.00     0.020 A 
ATOM     43  C   UNL A   1      47.280  35.600  28.652  1.00  0.00     0.054 A 
BRANCH  43  44
ATOM     44  S   UNL A   1      47.855  37.313  28.806  1.00  0.00     0.124 S 
ATOM     45  O   UNL A   1      48.390  37.329  30.166  1.00  0.00    -0.237 OA
ATOM     46  O   UNL A   1      48.850  37.416  27.740  1.00  0.00    -0.237 OA
ATOM     47  O   UNL A   1      46.646  38.106  28.603  1.00  0.00    -0.744 OA
ENDBRANCH  43  44
ENDBRANCH  24  38
BRANCH  25  48
ATOM     48  C   UNL A   1      43.249  23.571  26.965  1.00  0.00    -0.014 A 
ATOM     49  C   UNL A   1      42.986  23.147  25.652  1.00  0.00     0.010 A 
ATOM     50  C   UNL A   1      43.105  22.654  28.024  1.00  0.00     0.010 A 
ATOM     51  C   UNL A   1      42.601  21.827  25.402  1.00  0.00     0.020 A 
ATOM     52  C   UNL A   1      42.748  21.327  27.775  1.00  0.00     0.020 A 
ATOM     53  C   UNL A   1      42.497  20.922  26.463  1.00  0.00     0.054 A 
BRANCH  53  54
ATOM     54  S   UNL A   1      42.105  19.188  26.100  1.00  0.00     0.124 S 
ATOM     55  O   UNL A   1      40.667  19.245  25.861  1.00  0.00    -0.237 OA
ATOM     56  O   UNL A   1      42.932  18.918  24.927  1.00  0.00    -0.237 OA
ATOM     57  O   UNL A   1      42.512  18.484  27.314  1.00  0.00    -0.744 OA
ENDBRANCH  53  54
ENDBRANCH  25  48
BRANCH  37  58
ATOM     58  C   UNL A   1      49.335  26.833  25.798  1.00  0.00    -0.014 A 
ATOM     59  C   UNL A   1      49.686  27.087  24.462  1.00  0.00     0.010 A 
ATOM     60  C   UNL A   1      50.279  26.237  26.657  1.00  0.00     0.010 A 
ATOM     61  C   UNL A   1      50.959  26.752  23.992  1.00  0.00     0.020 A 
ATOM     62  C   UNL A   1      51.559  25.923  26.196  1.00  0.00     0.020 A 
ATOM     63  C   UNL A   1      51.890  26.180  24.865  1.00  0.00     0.054 A 
BRANCH  63  64
ATOM     64  S   UNL A   1      53.565  25.841  24.256  1.00  0.00     0.124 S 
ATOM     65  O   UNL A   1      53.401  25.987  22.812  1.00  0.00    -0.237 OA
ATOM     66  O   UNL A   1      54.359  26.880  24.906  1.00  0.00    -0.237 OA
ATOM     67  O   UNL A   1      53.833  24.480  24.718  1.00  0.00    -0.744 OA
ENDBRANCH  63  64
ENDBRANCH  37  58
ENDBRANCH  11  12
ENDBRANCH   4   6
ENDBRANCH   1   2
BRANCH   1  68
ATOM     68  C   UNL A   1      35.780  32.391  27.888  1.00  0.00     0.023 C 
BRANCH  68  69
ATOM     69  C   UNL A   1      34.419  31.707  28.026  1.00  0.00     0.023 C 
BRANCH  69  70
ATOM     70  C   UNL A   1      34.303  30.335  27.365  1.00  0.00     0.116 C 
BRANCH  70  71
ATOM     71  N   UNL A   1      32.976  29.762  27.463  1.00  0.00    -0.354 N 
ATOM     72  C   UNL A   1      32.548  28.531  27.057  1.00  0.00     0.249 C 
ATOM     73  H   UNL A   1      32.292  30.338  27.876  1.00  0.00     0.163 HD
ATOM     74  O   UNL A   1      31.388  28.214  27.325  1.00  0.00    -0.272 OA
BRANCH  72  75
ATOM     75  C   UNL A   1      33.534  27.569  26.342  1.00  0.00     0.211 C 
ATOM     76  C   UNL A   1      33.076  26.111  26.427  1.00  0.00     0.085 C 
ATOM     77  O   UNL A   1      33.733  27.880  24.960  1.00  0.00    -0.357 OA
ATOM     78  C   UNL A   1      32.979  25.622  24.981  1.00  0.00     0.123 C 
ATOM     79  C   UNL A   1      32.998  26.938  24.162  1.00  0.00     0.186 C 
BRANCH  78  80
ATOM     80  C   UNL A   1      34.127  24.636  24.695  1.00  0.00    -0.013 A 
ATOM     81  C   UNL A   1      34.312  24.174  23.373  1.00  0.00     0.010 A 
ATOM     82  C   UNL A   1      35.014  24.157  25.677  1.00  0.00     0.010 A 
ATOM     83  C   UNL A   1      35.356  23.308  23.041  1.00  0.00     0.039 A 
ATOM     84  C   UNL A   1      36.072  23.306  25.342  1.00  0.00     0.039 A 
ATOM     85  C   UNL A   1      36.237  22.892  24.028  1.00  0.00     0.123 A 
ATOM     86  F   UNL A   1      37.252  22.079  23.711  1.00  0.00    -0.207 F 
ENDBRANCH  78  80
BRANCH  78  87
ATOM     87  O   UNL A   1      31.769  24.874  24.813  1.00  0.00    -0.382 OA
ATOM     88  H   UNL A   1      31.187  25.336  24.190  1.00  0.00     0.212 HD
ENDBRANCH  78  87
BRANCH  79  89
ATOM     89  C   UNL A   1      31.699  27.590  23.707  1.00  0.00    -0.016 A 
ATOM     90  C   UNL A   1      31.650  28.788  22.977  1.00  0.00     0.009 A 
ATOM     91  C   UNL A   1      30.486  26.923  23.972  1.00  0.00     0.009 A 
ATOM     92  C   UNL A   1      30.432  29.286  22.506  1.00  0.00     0.039 A 
ATOM     93  C   UNL A   1      29.268  27.431  23.516  1.00  0.00     0.039 A 
ATOM     94  C   UNL A   1      29.254  28.604  22.778  1.00  0.00     0.123 A 
ATOM     95  F   UNL A   1      28.091  29.083  22.321  1.00  0.00    -0.207 F 
ENDBRANCH  79  89
ENDBRANCH  72  75
ENDBRANCH  70  71
ENDBRANCH  69  70
ENDBRANCH  68  69
ENDBRANCH   1  68
TORSDOF 17
ENDMDL
