MODEL 1
REMARK VINA RESULT:     -10.6      0.000      0.000
REMARK SMILES C[C@@H](c1ccccc1)[C@@H]1[NH2+][C@@H](C(=O)NCCCCNC(=O)c2ccc(-c3c4nc(c(-c5ccc(S(=O)(=O)[O-])cc5)c5ccc([nH]5)c(-c5ccc(S(=O)(=O)[O-])cc5)c5nc(c(-c6ccc(S(=O)(=O)[O-])cc6)c6ccc3[nH]6)C=C5)C=C4)cc2)CS1
REMARK SMILES IDX 17 1 16 2 15 3 14 4 12 5 13 6 11 8 9 9 10 10 83 11 82 14
REMARK SMILES IDX 2 15 1 16 3 17 4 18 8 19 5 20 7 21 6 22 18 23 19 24 20 25
REMARK SMILES IDX 21 27 22 28 23 29 81 30 24 31 80 32 25 33 26 34 27 35 74 36
REMARK SMILES IDX 28 37 79 38 73 39 75 40 29 41 78 42 72 43 71 44 30 46 60 47
REMARK SMILES IDX 41 48 59 49 42 50 45 51 58 52 76 53 43 54 44 55 57 57 77 58
REMARK SMILES IDX 46 59 31 60 32 61 40 62 33 63 39 64 34 65 35 66 36 67 37 68
REMARK SMILES IDX 38 69 61 70 62 71 70 72 63 73 69 74 64 75 65 76 66 77 67 78
REMARK SMILES IDX 68 79 47 80 48 81 56 82 49 83 55 84 50 85 51 86 52 87 53 88
REMARK SMILES IDX 54 89
REMARK H PARENT 14 7 10 12 10 13 19 26 75 45 45 56
REMARK Flexibility Score: inf
ROOT
ATOM      1  C   UNL A   1      35.759  23.815  25.709  1.00  0.00     0.023 C 
ENDROOT
BRANCH   1   2
ATOM      2  C   UNL A   1      35.110  22.463  26.020  1.00  0.00     0.023 C 
BRANCH   2   3
ATOM      3  C   UNL A   1      33.741  22.250  25.375  1.00  0.00     0.116 C 
BRANCH   3   4
ATOM      4  N   UNL A   1      32.672  22.357  26.352  1.00  0.00    -0.351 N 
ATOM      5  C   UNL A   1      31.831  23.392  26.632  1.00  0.00     0.279 C 
ATOM      6  O   UNL A   1      31.071  23.282  27.598  1.00  0.00    -0.268 OA
ATOM      7  H   UNL A   1      32.531  21.552  26.900  1.00  0.00     0.163 HD
BRANCH   5   8
ATOM      8  C   UNL A   1      31.813  24.647  25.751  1.00  0.00     0.283 C 
ATOM      9  C   UNL A   1      30.875  26.827  25.622  1.00  0.00     0.249 C 
ATOM     10  N   UNL A   1      31.360  25.806  26.559  1.00  0.00    -0.324 N 
ATOM     11  S   UNL A   1      29.853  25.903  24.434  1.00  0.00    -0.092 SA
ATOM     12  H   UNL A   1      30.607  25.522  27.187  1.00  0.00     0.347 HD
ATOM     13  H   UNL A   1      32.123  26.171  27.129  1.00  0.00     0.347 HD
ATOM     14  C   UNL A   1      30.871  24.407  24.567  1.00  0.00     0.151 C 
BRANCH   9  15
ATOM     15  C   UNL A   1      31.970  27.777  25.000  1.00  0.00     0.085 C 
ATOM     16  C   UNL A   1      31.420  28.578  23.808  1.00  0.00     0.020 C 
BRANCH  15  17
ATOM     17  C   UNL A   1      32.778  28.643  25.968  1.00  0.00    -0.038 A 
ATOM     18  C   UNL A   1      34.060  28.301  26.419  1.00  0.00     0.004 A 
ATOM     19  C   UNL A   1      32.232  29.867  26.395  1.00  0.00     0.004 A 
ATOM     20  C   UNL A   1      34.802  29.187  27.207  1.00  0.00     0.000 A 
ATOM     21  C   UNL A   1      32.964  30.743  27.197  1.00  0.00     0.000 A 
ATOM     22  C   UNL A   1      34.257  30.411  27.589  1.00  0.00     0.000 A 
ENDBRANCH  15  17
ENDBRANCH   9  15
ENDBRANCH   5   8
ENDBRANCH   3   4
ENDBRANCH   2   3
ENDBRANCH   1   2
BRANCH   1  23
ATOM     23  C   UNL A   1      37.050  23.746  24.901  1.00  0.00     0.116 C 
BRANCH  23  24
ATOM     24  N   UNL A   1      37.966  22.725  25.386  1.00  0.00    -0.352 N 
ATOM     25  C   UNL A   1      39.063  22.865  26.202  1.00  0.00     0.251 C 
ATOM     26  H   UNL A   1      37.772  21.807  25.088  1.00  0.00     0.163 HD
ATOM     27  O   UNL A   1      39.809  21.909  26.391  1.00  0.00    -0.269 OA
BRANCH  25  28
ATOM     28  C   UNL A   1      39.359  24.176  26.822  1.00  0.00     0.039 A 
ATOM     29  C   UNL A   1      38.912  24.423  28.122  1.00  0.00     0.014 A 
ATOM     30  C   UNL A   1      40.090  25.149  26.134  1.00  0.00     0.014 A 
ATOM     31  C   UNL A   1      39.260  25.618  28.757  1.00  0.00     0.010 A 
ATOM     32  C   UNL A   1      40.497  26.307  26.794  1.00  0.00     0.010 A 
ATOM     33  C   UNL A   1      40.089  26.553  28.114  1.00  0.00    -0.014 A 
BRANCH  33  34
ATOM     34  C   UNL A   1      40.553  27.779  28.814  1.00  0.00     0.031 A 
ATOM     35  C   UNL A   1      41.923  27.833  29.435  1.00  0.00     0.074 A 
ATOM     36  C   UNL A   1      39.714  28.829  28.942  1.00  0.00     0.049 A 
ATOM     37  N   UNL A   1      42.479  28.798  30.122  1.00  0.00    -0.248 NA
ATOM     38  C   UNL A   1      42.769  26.638  29.285  1.00  0.00     0.031 C 
ATOM     39  C   UNL A   1      38.345  28.890  28.424  1.00  0.00     0.029 A 
ATOM     40  N   UNL A   1      39.889  30.046  29.554  1.00  0.00    -0.354 N 
ATOM     41  C   UNL A   1      43.732  28.324  30.496  1.00  0.00     0.074 A 
ATOM     42  C   UNL A   1      43.834  26.969  30.003  1.00  0.00     0.031 C 
ATOM     43  C   UNL A   1      37.816  30.089  28.714  1.00  0.00     0.029 A 
ATOM     44  C   UNL A   1      38.788  30.867  29.475  1.00  0.00     0.049 A 
ATOM     45  H   UNL A   1      40.723  30.306  30.007  1.00  0.00     0.167 HD
ATOM     46  C   UNL A   1      44.716  28.966  31.169  1.00  0.00     0.031 A 
ATOM     47  C   UNL A   1      38.577  32.104  29.967  1.00  0.00     0.031 A 
ATOM     48  C   UNL A   1      44.615  30.318  31.653  1.00  0.00     0.049 A 
ATOM     49  C   UNL A   1      39.680  32.789  30.728  1.00  0.00     0.074 A 
ATOM     50  C   UNL A   1      45.578  31.074  32.299  1.00  0.00     0.029 A 
ATOM     51  N   UNL A   1      43.485  31.117  31.550  1.00  0.00    -0.354 N 
ATOM     52  N   UNL A   1      40.884  32.349  31.008  1.00  0.00    -0.248 NA
ATOM     53  C   UNL A   1      39.399  34.142  31.228  1.00  0.00     0.031 C 
ATOM     54  C   UNL A   1      45.012  32.308  32.637  1.00  0.00     0.029 A 
ATOM     55  C   UNL A   1      43.718  32.345  32.144  1.00  0.00     0.049 A 
ATOM     56  H   UNL A   1      42.643  30.848  31.117  1.00  0.00     0.167 HD
ATOM     57  C   UNL A   1      41.512  33.383  31.694  1.00  0.00     0.074 A 
ATOM     58  C   UNL A   1      40.564  34.474  31.770  1.00  0.00     0.031 C 
ATOM     59  C   UNL A   1      42.764  33.423  32.215  1.00  0.00     0.031 A 
BRANCH  46  60
ATOM     60  C   UNL A   1      45.993  28.210  31.429  1.00  0.00    -0.014 A 
ATOM     61  C   UNL A   1      46.209  27.546  32.651  1.00  0.00     0.010 A 
ATOM     62  C   UNL A   1      46.971  28.118  30.422  1.00  0.00     0.010 A 
ATOM     63  C   UNL A   1      47.393  26.839  32.874  1.00  0.00     0.020 A 
ATOM     64  C   UNL A   1      48.144  27.387  30.630  1.00  0.00     0.020 A 
ATOM     65  C   UNL A   1      48.354  26.764  31.862  1.00  0.00     0.054 A 
BRANCH  65  66
ATOM     66  S   UNL A   1      49.869  25.816  32.172  1.00  0.00     0.124 S 
ATOM     67  O   UNL A   1      50.388  25.630  30.819  1.00  0.00    -0.237 OA
ATOM     68  O   UNL A   1      50.642  26.716  33.023  1.00  0.00    -0.237 OA
ATOM     69  O   UNL A   1      49.391  24.601  32.827  1.00  0.00    -0.744 OA
ENDBRANCH  65  66
ENDBRANCH  46  60
BRANCH  47  70
ATOM     70  C   UNL A   1      37.269  32.782  29.746  1.00  0.00    -0.014 A 
ATOM     71  C   UNL A   1      37.041  33.537  28.582  1.00  0.00     0.010 A 
ATOM     72  C   UNL A   1      36.241  32.675  30.701  1.00  0.00     0.010 A 
ATOM     73  C   UNL A   1      35.821  34.190  28.388  1.00  0.00     0.020 A 
ATOM     74  C   UNL A   1      35.009  33.300  30.497  1.00  0.00     0.020 A 
ATOM     75  C   UNL A   1      34.811  34.066  29.346  1.00  0.00     0.054 A 
BRANCH  75  76
ATOM     76  S   UNL A   1      33.221  34.888  29.052  1.00  0.00     0.124 S 
ATOM     77  O   UNL A   1      32.624  34.039  28.027  1.00  0.00    -0.237 OA
ATOM     78  O   UNL A   1      32.589  34.833  30.369  1.00  0.00    -0.237 OA
ATOM     79  O   UNL A   1      33.606  36.228  28.611  1.00  0.00    -0.744 OA
ENDBRANCH  75  76
ENDBRANCH  47  70
BRANCH  59  80
ATOM     80  C   UNL A   1      43.197  34.703  32.883  1.00  0.00    -0.014 A 
ATOM     81  C   UNL A   1      43.735  35.770  32.142  1.00  0.00     0.010 A 
ATOM     82  C   UNL A   1      43.014  34.856  34.269  1.00  0.00     0.010 A 
ATOM     83  C   UNL A   1      44.114  36.953  32.781  1.00  0.00     0.020 A 
ATOM     84  C   UNL A   1      43.365  36.049  34.908  1.00  0.00     0.020 A 
ATOM     85  C   UNL A   1      43.927  37.085  34.160  1.00  0.00     0.054 A 
BRANCH  85  86
ATOM     86  S   UNL A   1      44.391  38.645  34.959  1.00  0.00     0.124 S 
ATOM     87  O   UNL A   1      45.803  38.761  34.604  1.00  0.00    -0.237 OA
ATOM     88  O   UNL A   1      43.502  39.611  34.318  1.00  0.00    -0.237 OA
ATOM     89  O   UNL A   1      44.123  38.405  36.375  1.00  0.00    -0.744 OA
ENDBRANCH  85  86
ENDBRANCH  59  80
ENDBRANCH  33  34
ENDBRANCH  25  28
ENDBRANCH  23  24
ENDBRANCH   1  23
TORSDOF 16
ENDMDL
MODEL 2
REMARK VINA RESULT:     -10.6      2.736      9.653
REMARK SMILES C[C@@H](c1ccccc1)[C@@H]1[NH2+][C@@H](C(=O)NCCCCNC(=O)c2ccc(-c3c4nc(c(-c5ccc(S(=O)(=O)[O-])cc5)c5ccc([nH]5)c(-c5ccc(S(=O)(=O)[O-])cc5)c5nc(c(-c6ccc(S(=O)(=O)[O-])cc6)c6ccc3[nH]6)C=C5)C=C4)cc2)CS1
REMARK SMILES IDX 17 1 16 2 15 3 14 4 12 5 13 6 11 8 9 9 10 10 83 11 82 14
REMARK SMILES IDX 2 15 1 16 3 17 4 18 8 19 5 20 7 21 6 22 18 23 19 24 20 25
REMARK SMILES IDX 21 27 22 28 23 29 81 30 24 31 80 32 25 33 26 34 27 35 74 36
REMARK SMILES IDX 28 37 79 38 73 39 75 40 29 41 78 42 72 43 71 44 30 46 60 47
REMARK SMILES IDX 41 48 59 49 42 50 45 51 58 52 76 53 43 54 44 55 57 57 77 58
REMARK SMILES IDX 46 59 31 60 32 61 40 62 33 63 39 64 34 65 35 66 36 67 37 68
REMARK SMILES IDX 38 69 61 70 62 71 70 72 63 73 69 74 64 75 65 76 66 77 67 78
REMARK SMILES IDX 68 79 47 80 48 81 56 82 49 83 55 84 50 85 51 86 52 87 53 88
REMARK SMILES IDX 54 89
REMARK H PARENT 14 7 10 12 10 13 19 26 75 45 45 56
REMARK Flexibility Score: inf
ROOT
ATOM      1  C   UNL A   1      32.484  28.112  25.955  1.00  0.00     0.023 C 
ENDROOT
BRANCH   1   2
ATOM      2  C   UNL A   1      31.354  27.300  26.596  1.00  0.00     0.023 C 
BRANCH   2   3
ATOM      3  C   UNL A   1      30.864  26.119  25.759  1.00  0.00     0.116 C 
BRANCH   3   4
ATOM      4  N   UNL A   1      30.202  25.123  26.582  1.00  0.00    -0.351 N 
ATOM      5  C   UNL A   1      30.478  23.801  26.764  1.00  0.00     0.279 C 
ATOM      6  O   UNL A   1      29.689  23.127  27.433  1.00  0.00    -0.268 OA
ATOM      7  H   UNL A   1      29.428  25.456  27.091  1.00  0.00     0.163 HD
BRANCH   5   8
ATOM      8  C   UNL A   1      31.749  23.179  26.177  1.00  0.00     0.283 C 
ATOM      9  C   UNL A   1      33.062  21.198  26.239  1.00  0.00     0.249 C 
ATOM     10  N   UNL A   1      31.686  21.704  26.326  1.00  0.00    -0.324 N 
ATOM     11  S   UNL A   1      34.026  22.325  27.291  1.00  0.00    -0.092 SA
ATOM     12  H   UNL A   1      31.281  21.460  27.231  1.00  0.00     0.347 HD
ATOM     13  H   UNL A   1      31.102  21.290  25.599  1.00  0.00     0.347 HD
ATOM     14  C   UNL A   1      32.966  23.748  26.913  1.00  0.00     0.151 C 
BRANCH   9  15
ATOM     15  C   UNL A   1      33.624  20.957  24.785  1.00  0.00     0.085 C 
ATOM     16  C   UNL A   1      35.009  21.600  24.595  1.00  0.00     0.020 C 
BRANCH  15  17
ATOM     17  C   UNL A   1      33.557  19.532  24.235  1.00  0.00    -0.038 A 
ATOM     18  C   UNL A   1      32.554  19.091  23.362  1.00  0.00     0.004 A 
ATOM     19  C   UNL A   1      34.575  18.625  24.583  1.00  0.00     0.004 A 
ATOM     20  C   UNL A   1      32.609  17.813  22.794  1.00  0.00     0.000 A 
ATOM     21  C   UNL A   1      34.620  17.343  24.032  1.00  0.00     0.000 A 
ATOM     22  C   UNL A   1      33.645  16.944  23.123  1.00  0.00     0.000 A 
ENDBRANCH  15  17
ENDBRANCH   9  15
ENDBRANCH   5   8
ENDBRANCH   3   4
ENDBRANCH   2   3
ENDBRANCH   1   2
BRANCH   1  23
ATOM     23  C   UNL A   1      33.610  28.517  26.898  1.00  0.00     0.116 C 
BRANCH  23  24
ATOM     24  N   UNL A   1      33.534  29.912  27.304  1.00  0.00    -0.352 N 
ATOM     25  C   UNL A   1      34.454  30.662  27.996  1.00  0.00     0.251 C 
ATOM     26  H   UNL A   1      32.709  30.383  27.045  1.00  0.00     0.163 HD
ATOM     27  O   UNL A   1      34.157  31.791  28.379  1.00  0.00    -0.269 OA
BRANCH  25  28
ATOM     28  C   UNL A   1      35.785  30.096  28.305  1.00  0.00     0.039 A 
ATOM     29  C   UNL A   1      36.773  30.115  27.318  1.00  0.00     0.014 A 
ATOM     30  C   UNL A   1      36.066  29.566  29.568  1.00  0.00     0.014 A 
ATOM     31  C   UNL A   1      38.062  29.669  27.619  1.00  0.00     0.010 A 
ATOM     32  C   UNL A   1      37.370  29.190  29.888  1.00  0.00     0.010 A 
ATOM     33  C   UNL A   1      38.382  29.240  28.919  1.00  0.00    -0.014 A 
BRANCH  33  34
ATOM     34  C   UNL A   1      39.773  28.861  29.282  1.00  0.00     0.031 A 
ATOM     35  C   UNL A   1      40.674  29.843  29.982  1.00  0.00     0.074 A 
ATOM     36  C   UNL A   1      40.246  27.648  28.928  1.00  0.00     0.049 A 
ATOM     37  N   UNL A   1      41.926  29.705  30.336  1.00  0.00    -0.248 NA
ATOM     38  C   UNL A   1      40.101  31.159  30.307  1.00  0.00     0.031 C 
ATOM     39  C   UNL A   1      39.489  26.620  28.208  1.00  0.00     0.029 A 
ATOM     40  N   UNL A   1      41.479  27.076  29.120  1.00  0.00    -0.354 N 
ATOM     41  C   UNL A   1      42.294  30.915  30.912  1.00  0.00     0.074 A 
ATOM     42  C   UNL A   1      41.149  31.793  30.815  1.00  0.00     0.031 C 
ATOM     43  C   UNL A   1      40.264  25.535  28.046  1.00  0.00     0.029 A 
ATOM     44  C   UNL A   1      41.584  25.803  28.608  1.00  0.00     0.049 A 
ATOM     45  H   UNL A   1      42.219  27.533  29.580  1.00  0.00     0.167 HD
ATOM     46  C   UNL A   1      43.471  31.259  31.488  1.00  0.00     0.031 A 
ATOM     47  C   UNL A   1      42.625  24.948  28.584  1.00  0.00     0.031 A 
ATOM     48  C   UNL A   1      44.608  30.382  31.589  1.00  0.00     0.049 A 
ATOM     49  C   UNL A   1      43.928  25.361  29.215  1.00  0.00     0.074 A 
ATOM     50  C   UNL A   1      45.825  30.620  32.203  1.00  0.00     0.029 A 
ATOM     51  N   UNL A   1      44.672  29.101  31.062  1.00  0.00    -0.354 N 
ATOM     52  N   UNL A   1      44.231  26.486  29.817  1.00  0.00    -0.248 NA
ATOM     53  C   UNL A   1      45.024  24.383  29.172  1.00  0.00     0.031 C 
ATOM     54  C   UNL A   1      46.645  29.506  31.997  1.00  0.00     0.029 A 
ATOM     55  C   UNL A   1      45.916  28.548  31.312  1.00  0.00     0.049 A 
ATOM     56  H   UNL A   1      43.939  28.651  30.581  1.00  0.00     0.167 HD
ATOM     57  C   UNL A   1      45.545  26.339  30.249  1.00  0.00     0.074 A 
ATOM     58  C   UNL A   1      45.971  25.012  29.855  1.00  0.00     0.031 C 
ATOM     59  C   UNL A   1      46.328  27.225  30.913  1.00  0.00     0.031 A 
BRANCH  46  60
ATOM     60  C   UNL A   1      43.592  32.651  32.052  1.00  0.00    -0.014 A 
ATOM     61  C   UNL A   1      43.197  32.938  33.372  1.00  0.00     0.010 A 
ATOM     62  C   UNL A   1      44.156  33.677  31.271  1.00  0.00     0.010 A 
ATOM     63  C   UNL A   1      43.327  34.231  33.885  1.00  0.00     0.020 A 
ATOM     64  C   UNL A   1      44.315  34.964  31.791  1.00  0.00     0.020 A 
ATOM     65  C   UNL A   1      43.884  35.237  33.091  1.00  0.00     0.054 A 
BRANCH  65  66
ATOM     66  S   UNL A   1      44.066  36.898  33.795  1.00  0.00     0.124 S 
ATOM     67  O   UNL A   1      43.173  36.834  34.950  1.00  0.00    -0.237 OA
ATOM     68  O   UNL A   1      45.491  36.960  34.107  1.00  0.00    -0.237 OA
ATOM     69  O   UNL A   1      43.628  37.782  32.719  1.00  0.00    -0.744 OA
ENDBRANCH  65  66
ENDBRANCH  46  60
BRANCH  47  70
ATOM     70  C   UNL A   1      42.476  23.609  27.949  1.00  0.00    -0.014 A 
ATOM     71  C   UNL A   1      42.044  22.503  28.702  1.00  0.00     0.010 A 
ATOM     72  C   UNL A   1      42.767  23.432  26.583  1.00  0.00     0.010 A 
ATOM     73  C   UNL A   1      41.927  21.242  28.108  1.00  0.00     0.020 A 
ATOM     74  C   UNL A   1      42.622  22.182  25.979  1.00  0.00     0.020 A 
ATOM     75  C   UNL A   1      42.215  21.091  26.749  1.00  0.00     0.054 A 
BRANCH  75  76
ATOM     76  S   UNL A   1      42.015  19.455  25.991  1.00  0.00     0.124 S 
ATOM     77  O   UNL A   1      42.854  19.564  24.803  1.00  0.00    -0.237 OA
ATOM     78  O   UNL A   1      42.508  18.560  27.036  1.00  0.00    -0.237 OA
ATOM     79  O   UNL A   1      40.577  19.370  25.738  1.00  0.00    -0.744 OA
ENDBRANCH  75  76
ENDBRANCH  47  70
BRANCH  59  80
ATOM     80  C   UNL A   1      47.718  26.778  31.288  1.00  0.00    -0.014 A 
ATOM     81  C   UNL A   1      47.991  26.223  32.551  1.00  0.00     0.010 A 
ATOM     82  C   UNL A   1      48.754  26.870  30.341  1.00  0.00     0.010 A 
ATOM     83  C   UNL A   1      49.284  25.800  32.872  1.00  0.00     0.020 A 
ATOM     84  C   UNL A   1      50.042  26.422  30.648  1.00  0.00     0.020 A 
ATOM     85  C   UNL A   1      50.301  25.903  31.918  1.00  0.00     0.054 A 
BRANCH  85  86
ATOM     86  S   UNL A   1      51.962  25.311  32.345  1.00  0.00     0.124 S 
ATOM     87  O   UNL A   1      52.800  26.056  31.409  1.00  0.00    -0.237 OA
ATOM     88  O   UNL A   1      52.089  25.700  33.748  1.00  0.00    -0.237 OA
ATOM     89  O   UNL A   1      51.890  23.872  32.108  1.00  0.00    -0.744 OA
ENDBRANCH  85  86
ENDBRANCH  59  80
ENDBRANCH  33  34
ENDBRANCH  25  28
ENDBRANCH  23  24
ENDBRANCH   1  23
TORSDOF 16
ENDMDL
MODEL 3
REMARK VINA RESULT:     -10.4      2.695      9.311
REMARK SMILES C[C@@H](c1ccccc1)[C@@H]1[NH2+][C@@H](C(=O)NCCCCNC(=O)c2ccc(-c3c4nc(c(-c5ccc(S(=O)(=O)[O-])cc5)c5ccc([nH]5)c(-c5ccc(S(=O)(=O)[O-])cc5)c5nc(c(-c6ccc(S(=O)(=O)[O-])cc6)c6ccc3[nH]6)C=C5)C=C4)cc2)CS1
REMARK SMILES IDX 17 1 16 2 15 3 14 4 12 5 13 6 11 8 9 9 10 10 83 11 82 14
REMARK SMILES IDX 2 15 1 16 3 17 4 18 8 19 5 20 7 21 6 22 18 23 19 24 20 25
REMARK SMILES IDX 21 27 22 28 23 29 81 30 24 31 80 32 25 33 26 34 27 35 74 36
REMARK SMILES IDX 28 37 79 38 73 39 75 40 29 41 78 42 72 43 71 44 30 46 60 47
REMARK SMILES IDX 41 48 59 49 42 50 45 51 58 52 76 53 43 54 44 55 57 57 77 58
REMARK SMILES IDX 46 59 31 60 32 61 40 62 33 63 39 64 34 65 35 66 36 67 37 68
REMARK SMILES IDX 38 69 61 70 62 71 70 72 63 73 69 74 64 75 65 76 66 77 67 78
REMARK SMILES IDX 68 79 47 80 48 81 56 82 49 83 55 84 50 85 51 86 52 87 53 88
REMARK SMILES IDX 54 89
REMARK H PARENT 14 7 10 12 10 13 19 26 75 45 45 56
REMARK Flexibility Score: inf
ROOT
ATOM      1  C   UNL A   1      33.803  28.338  25.775  1.00  0.00     0.023 C 
ENDROOT
BRANCH   1   2
ATOM      2  C   UNL A   1      33.109  29.363  24.872  1.00  0.00     0.023 C 
BRANCH   2   3
ATOM      3  C   UNL A   1      31.582  29.346  24.946  1.00  0.00     0.116 C 
BRANCH   3   4
ATOM      4  N   UNL A   1      30.993  28.938  23.684  1.00  0.00    -0.351 N 
ATOM      5  C   UNL A   1      30.924  27.710  23.097  1.00  0.00     0.279 C 
ATOM      6  O   UNL A   1      30.469  27.635  21.952  1.00  0.00    -0.268 OA
ATOM      7  H   UNL A   1      30.576  29.665  23.168  1.00  0.00     0.163 HD
BRANCH   5   8
ATOM      8  C   UNL A   1      31.374  26.454  23.852  1.00  0.00     0.283 C 
ATOM      9  C   UNL A   1      32.582  24.429  23.559  1.00  0.00     0.249 C 
ATOM     10  N   UNL A   1      32.513  25.832  23.132  1.00  0.00    -0.324 N 
ATOM     11  S   UNL A   1      30.858  23.853  23.505  1.00  0.00    -0.092 SA
ATOM     12  H   UNL A   1      32.361  25.884  22.125  1.00  0.00     0.347 HD
ATOM     13  H   UNL A   1      33.385  26.318  23.344  1.00  0.00     0.347 HD
ATOM     14  C   UNL A   1      30.193  25.483  23.946  1.00  0.00     0.151 C 
BRANCH   9  15
ATOM     15  C   UNL A   1      33.365  24.146  24.899  1.00  0.00     0.085 C 
ATOM     16  C   UNL A   1      32.520  23.327  25.891  1.00  0.00     0.020 C 
BRANCH  15  17
ATOM     17  C   UNL A   1      34.797  23.625  24.777  1.00  0.00    -0.038 A 
ATOM     18  C   UNL A   1      35.623  23.380  25.883  1.00  0.00     0.004 A 
ATOM     19  C   UNL A   1      35.303  23.331  23.498  1.00  0.00     0.004 A 
ATOM     20  C   UNL A   1      36.881  22.791  25.721  1.00  0.00     0.000 A 
ATOM     21  C   UNL A   1      36.566  22.761  23.334  1.00  0.00     0.000 A 
ATOM     22  C   UNL A   1      37.349  22.474  24.448  1.00  0.00     0.000 A 
ENDBRANCH  15  17
ENDBRANCH   9  15
ENDBRANCH   5   8
ENDBRANCH   3   4
ENDBRANCH   2   3
ENDBRANCH   1   2
BRANCH   1  23
ATOM     23  C   UNL A   1      33.555  28.515  27.269  1.00  0.00     0.116 C 
BRANCH  23  24
ATOM     24  N   UNL A   1      33.478  29.911  27.668  1.00  0.00    -0.352 N 
ATOM     25  C   UNL A   1      34.432  30.689  28.280  1.00  0.00     0.251 C 
ATOM     26  H   UNL A   1      32.625  30.362  27.471  1.00  0.00     0.163 HD
ATOM     27  O   UNL A   1      34.141  31.814  28.676  1.00  0.00    -0.269 OA
BRANCH  25  28
ATOM     28  C   UNL A   1      35.796  30.155  28.489  1.00  0.00     0.039 A 
ATOM     29  C   UNL A   1      36.710  30.206  27.433  1.00  0.00     0.014 A 
ATOM     30  C   UNL A   1      36.181  29.625  29.724  1.00  0.00     0.014 A 
ATOM     31  C   UNL A   1      38.028  29.791  27.638  1.00  0.00     0.010 A 
ATOM     32  C   UNL A   1      37.513  29.281  29.947  1.00  0.00     0.010 A 
ATOM     33  C   UNL A   1      38.452  29.363  28.908  1.00  0.00    -0.014 A 
BRANCH  33  34
ATOM     34  C   UNL A   1      39.874  29.017  29.168  1.00  0.00     0.031 A 
ATOM     35  C   UNL A   1      40.814  30.040  29.748  1.00  0.00     0.074 A 
ATOM     36  C   UNL A   1      40.335  27.796  28.825  1.00  0.00     0.049 A 
ATOM     37  N   UNL A   1      42.094  29.933  30.000  1.00  0.00    -0.248 NA
ATOM     38  C   UNL A   1      40.249  31.361  30.065  1.00  0.00     0.031 C 
ATOM     39  C   UNL A   1      39.538  26.729  28.215  1.00  0.00     0.029 A 
ATOM     40  N   UNL A   1      41.589  27.249  28.935  1.00  0.00    -0.354 N 
ATOM     41  C   UNL A   1      42.489  31.172  30.492  1.00  0.00     0.074 A 
ATOM     42  C   UNL A   1      41.325  32.030  30.456  1.00  0.00     0.031 C 
ATOM     43  C   UNL A   1      40.314  25.648  28.033  1.00  0.00     0.029 A 
ATOM     44  C   UNL A   1      41.672  25.957  28.470  1.00  0.00     0.049 A 
ATOM     45  H   UNL A   1      42.358  27.735  29.312  1.00  0.00     0.167 HD
ATOM     46  C   UNL A   1      43.704  31.555  30.952  1.00  0.00     0.031 A 
ATOM     47  C   UNL A   1      42.721  25.115  28.394  1.00  0.00     0.031 A 
ATOM     48  C   UNL A   1      44.860  30.697  30.993  1.00  0.00     0.049 A 
ATOM     49  C   UNL A   1      44.066  25.571  28.894  1.00  0.00     0.074 A 
ATOM     50  C   UNL A   1      46.120  30.977  31.491  1.00  0.00     0.029 A 
ATOM     51  N   UNL A   1      44.900  29.396  30.516  1.00  0.00    -0.354 N 
ATOM     52  N   UNL A   1      44.400  26.725  29.422  1.00  0.00    -0.248 NA
ATOM     53  C   UNL A   1      45.170  24.607  28.799  1.00  0.00     0.031 C 
ATOM     54  C   UNL A   1      46.938  29.866  31.263  1.00  0.00     0.029 A 
ATOM     55  C   UNL A   1      46.170  28.870  30.682  1.00  0.00     0.049 A 
ATOM     56  H   UNL A   1      44.137  28.917  30.118  1.00  0.00     0.167 HD
ATOM     57  C   UNL A   1      45.748  26.614  29.746  1.00  0.00     0.074 A 
ATOM     58  C   UNL A   1      46.160  25.277  29.374  1.00  0.00     0.031 C 
ATOM     59  C   UNL A   1      46.569  27.538  30.304  1.00  0.00     0.031 A 
BRANCH  46  60
ATOM     60  C   UNL A   1      43.849  32.971  31.445  1.00  0.00    -0.014 A 
ATOM     61  C   UNL A   1      43.630  33.296  32.797  1.00  0.00     0.010 A 
ATOM     62  C   UNL A   1      44.260  33.983  30.559  1.00  0.00     0.010 A 
ATOM     63  C   UNL A   1      43.781  34.611  33.243  1.00  0.00     0.020 A 
ATOM     64  C   UNL A   1      44.441  35.295  31.008  1.00  0.00     0.020 A 
ATOM     65  C   UNL A   1      44.184  35.604  32.345  1.00  0.00     0.054 A 
BRANCH  65  66
ATOM     66  S   UNL A   1      44.398  37.296  32.960  1.00  0.00     0.124 S 
ATOM     67  O   UNL A   1      43.203  37.470  33.783  1.00  0.00    -0.237 OA
ATOM     68  O   UNL A   1      45.659  37.214  33.693  1.00  0.00    -0.237 OA
ATOM     69  O   UNL A   1      44.439  38.105  31.745  1.00  0.00    -0.744 OA
ENDBRANCH  65  66
ENDBRANCH  46  60
BRANCH  47  70
ATOM     70  C   UNL A   1      42.542  23.749  27.829  1.00  0.00    -0.014 A 
ATOM     71  C   UNL A   1      42.190  22.670  28.660  1.00  0.00     0.010 A 
ATOM     72  C   UNL A   1      42.723  23.518  26.453  1.00  0.00     0.010 A 
ATOM     73  C   UNL A   1      42.044  21.385  28.131  1.00  0.00     0.020 A 
ATOM     74  C   UNL A   1      42.548  22.240  25.914  1.00  0.00     0.020 A 
ATOM     75  C   UNL A   1      42.223  21.179  26.760  1.00  0.00     0.054 A 
BRANCH  75  76
ATOM     76  S   UNL A   1      41.987  19.509  26.090  1.00  0.00     0.124 S 
ATOM     77  O   UNL A   1      42.448  18.671  27.191  1.00  0.00    -0.237 OA
ATOM     78  O   UNL A   1      40.550  19.476  25.825  1.00  0.00    -0.237 OA
ATOM     79  O   UNL A   1      42.831  19.498  24.896  1.00  0.00    -0.744 OA
ENDBRANCH  75  76
ENDBRANCH  47  70
BRANCH  59  80
ATOM     80  C   UNL A   1      47.992  27.125  30.580  1.00  0.00    -0.014 A 
ATOM     81  C   UNL A   1      49.021  27.383  29.657  1.00  0.00     0.010 A 
ATOM     82  C   UNL A   1      48.310  26.512  31.806  1.00  0.00     0.010 A 
ATOM     83  C   UNL A   1      50.336  27.005  29.940  1.00  0.00     0.020 A 
ATOM     84  C   UNL A   1      49.629  26.160  32.106  1.00  0.00     0.020 A 
ATOM     85  C   UNL A   1      50.632  26.395  31.163  1.00  0.00     0.054 A 
BRANCH  85  86
ATOM     86  S   UNL A   1      52.352  25.950  31.523  1.00  0.00     0.124 S 
ATOM     87  O   UNL A   1      52.977  26.060  30.208  1.00  0.00    -0.237 OA
ATOM     88  O   UNL A   1      52.749  26.967  32.494  1.00  0.00    -0.237 OA
ATOM     89  O   UNL A   1      52.257  24.593  32.055  1.00  0.00    -0.744 OA
ENDBRANCH  85  86
ENDBRANCH  59  80
ENDBRANCH  33  34
ENDBRANCH  25  28
ENDBRANCH  23  24
ENDBRANCH   1  23
TORSDOF 16
ENDMDL
