MODEL 1
REMARK VINA RESULT:     -12.1      0.000      0.000
REMARK SMILES O=C(Cc1cc(=O)[nH]c(=O)[nH]1)Nc1cccc(C(=O)NCCCCNC(=O)c2ccc(-c3c4nc(c(-c5ccc(S(=O)(=O)[O-])cc5)c5ccc([nH]5)c(-c5ccc(S(=O)(=O)[O-])cc5)c5nc(c(-c6ccc(S(=O)(=O)[O-])cc6)c6ccc3[nH]6)C=C5)C=C4)cc2)c1
REMARK SMILES IDX 22 1 21 2 20 3 18 4 19 5 17 7 13 8 14 9 88 10 15 11 16 12
REMARK SMILES IDX 12 13 1 14 2 15 3 17 4 18 5 19 11 20 6 21 9 22 7 24 8 25
REMARK SMILES IDX 10 26 23 28 24 29 25 30 26 31 27 33 28 34 29 35 87 36 30 37
REMARK SMILES IDX 86 38 31 39 32 40 33 41 80 42 34 43 85 44 79 45 81 46 35 47
REMARK SMILES IDX 84 48 78 49 77 50 36 52 66 53 47 54 65 55 48 56 51 57 64 58
REMARK SMILES IDX 82 59 49 60 50 61 63 63 83 64 52 65 37 66 38 67 46 68 39 69
REMARK SMILES IDX 45 70 40 71 41 72 42 73 43 74 44 75 67 76 68 77 76 78 69 79
REMARK SMILES IDX 75 80 70 81 71 82 72 83 73 84 74 85 53 86 54 87 62 88 55 89
REMARK SMILES IDX 61 90 56 91 57 92 58 93 59 94 60 95
REMARK H PARENT 20 6 12 16 11 23 8 27 25 32 81 51 51 62
REMARK Flexibility Score: inf
ROOT
ATOM      1  C   UNL A   1      32.804  28.802  26.588  1.00  0.00     0.023 C 
ENDROOT
BRANCH   1   2
ATOM      2  C   UNL A   1      32.930  29.478  25.229  1.00  0.00     0.116 C 
BRANCH   2   3
ATOM      3  N   UNL A   1      31.692  30.050  24.718  1.00  0.00    -0.352 N 
ATOM      4  C   UNL A   1      30.660  29.464  24.017  1.00  0.00     0.251 C 
ATOM      5  O   UNL A   1      29.701  30.145  23.662  1.00  0.00    -0.269 OA
ATOM      6  H   UNL A   1      31.573  31.011  24.904  1.00  0.00     0.163 HD
BRANCH   4   7
ATOM      7  C   UNL A   1      30.722  28.036  23.610  1.00  0.00     0.041 A 
ATOM      8  C   UNL A   1      30.478  25.695  24.164  1.00  0.00     0.041 A 
ATOM      9  C   UNL A   1      31.200  25.360  23.012  1.00  0.00     0.026 A 
ATOM     10  C   UNL A   1      30.150  27.029  24.389  1.00  0.00     0.040 A 
ATOM     11  C   UNL A   1      31.645  26.357  22.139  1.00  0.00     0.003 A 
ATOM     12  C   UNL A   1      31.430  27.699  22.453  1.00  0.00     0.014 A 
BRANCH   8  13
ATOM     13  N   UNL A   1      30.243  24.678  25.113  1.00  0.00    -0.326 N 
ATOM     14  O   UNL A   1      31.659  25.287  26.865  1.00  0.00    -0.274 OA
ATOM     15  C   UNL A   1      30.929  24.474  26.305  1.00  0.00     0.230 C 
ATOM     16  H   UNL A   1      29.517  24.045  24.910  1.00  0.00     0.169 HD
BRANCH  15  17
ATOM     17  C   UNL A   1      30.829  23.045  26.841  1.00  0.00     0.154 C 
BRANCH  17  18
ATOM     18  C   UNL A   1      31.969  22.172  26.403  1.00  0.00     0.034 A 
ATOM     19  C   UNL A   1      33.248  22.455  26.687  1.00  0.00     0.093 A 
ATOM     20  N   UNL A   1      31.669  21.058  25.652  1.00  0.00    -0.311 N 
ATOM     21  C   UNL A   1      34.310  21.548  26.212  1.00  0.00     0.253 A 
ATOM     22  C   UNL A   1      32.597  20.145  25.233  1.00  0.00     0.325 A 
ATOM     23  H   UNL A   1      30.728  20.911  25.399  1.00  0.00     0.171 HD
ATOM     24  O   UNL A   1      35.494  21.805  26.400  1.00  0.00    -0.269 OA
ATOM     25  N   UNL A   1      33.891  20.425  25.559  1.00  0.00    -0.274 N 
ATOM     26  O   UNL A   1      32.270  19.146  24.607  1.00  0.00    -0.248 OA
ATOM     27  H   UNL A   1      34.577  19.766  25.304  1.00  0.00     0.175 HD
ENDBRANCH  17  18
ENDBRANCH  15  17
ENDBRANCH   8  13
ENDBRANCH   4   7
ENDBRANCH   2   3
ENDBRANCH   1   2
BRANCH   1  28
ATOM     28  C   UNL A   1      34.109  28.497  27.314  1.00  0.00     0.023 C 
BRANCH  28  29
ATOM     29  C   UNL A   1      35.120  29.635  27.384  1.00  0.00     0.116 C 
BRANCH  29  30
ATOM     30  N   UNL A   1      35.198  30.276  28.688  1.00  0.00    -0.352 N 
ATOM     31  C   UNL A   1      36.243  30.335  29.581  1.00  0.00     0.251 C 
ATOM     32  H   UNL A   1      34.377  30.736  28.977  1.00  0.00     0.163 HD
ATOM     33  O   UNL A   1      36.075  30.854  30.681  1.00  0.00    -0.269 OA
BRANCH  31  34
ATOM     34  C   UNL A   1      37.555  29.740  29.237  1.00  0.00     0.039 A 
ATOM     35  C   UNL A   1      37.973  29.757  27.903  1.00  0.00     0.014 A 
ATOM     36  C   UNL A   1      38.383  29.188  30.218  1.00  0.00     0.014 A 
ATOM     37  C   UNL A   1      39.254  29.310  27.571  1.00  0.00     0.010 A 
ATOM     38  C   UNL A   1      39.689  28.821  29.899  1.00  0.00     0.010 A 
ATOM     39  C   UNL A   1      40.142  28.885  28.573  1.00  0.00    -0.014 A 
BRANCH  39  40
ATOM     40  C   UNL A   1      41.553  28.537  28.255  1.00  0.00     0.031 A 
ATOM     41  C   UNL A   1      42.614  29.604  28.211  1.00  0.00     0.074 A 
ATOM     42  C   UNL A   1      41.866  27.265  27.934  1.00  0.00     0.049 A 
ATOM     43  N   UNL A   1      43.885  29.490  27.919  1.00  0.00    -0.248 NA
ATOM     44  C   UNL A   1      42.189  30.982  28.508  1.00  0.00     0.031 C 
ATOM     45  C   UNL A   1      40.920  26.146  27.875  1.00  0.00     0.029 A 
ATOM     46  N   UNL A   1      43.068  26.696  27.592  1.00  0.00    -0.354 N 
ATOM     47  C   UNL A   1      44.406  30.778  27.976  1.00  0.00     0.074 A 
ATOM     48  C   UNL A   1      43.305  31.663  28.286  1.00  0.00     0.031 C 
ATOM     49  C   UNL A   1      41.581  25.025  27.546  1.00  0.00     0.029 A 
ATOM     50  C   UNL A   1      42.990  25.346  27.335  1.00  0.00     0.049 A 
ATOM     51  H   UNL A   1      43.909  27.206  27.534  1.00  0.00     0.167 HD
ATOM     52  C   UNL A   1      45.686  31.185  27.806  1.00  0.00     0.031 A 
ATOM     53  C   UNL A   1      43.940  24.464  26.969  1.00  0.00     0.031 A 
ATOM     54  C   UNL A   1      46.784  30.301  27.516  1.00  0.00     0.049 A 
ATOM     55  C   UNL A   1      45.358  24.938  26.809  1.00  0.00     0.074 A 
ATOM     56  C   UNL A   1      48.129  30.609  27.400  1.00  0.00     0.029 A 
ATOM     57  N   UNL A   1      46.666  28.938  27.292  1.00  0.00    -0.354 N 
ATOM     58  N   UNL A   1      45.844  26.147  26.954  1.00  0.00    -0.248 NA
ATOM     59  C   UNL A   1      46.359  23.923  26.451  1.00  0.00     0.031 C 
ATOM     60  C   UNL A   1      48.818  29.441  27.057  1.00  0.00     0.029 A 
ATOM     61  C   UNL A   1      47.910  28.396  27.014  1.00  0.00     0.049 A 
ATOM     62  H   UNL A   1      45.824  28.431  27.325  1.00  0.00     0.167 HD
ATOM     63  C   UNL A   1      47.211  26.035  26.726  1.00  0.00     0.074 A 
ATOM     64  C   UNL A   1      47.476  24.636  26.455  1.00  0.00     0.031 C 
ATOM     65  C   UNL A   1      48.160  27.003  26.738  1.00  0.00     0.031 A 
BRANCH  52  66
ATOM     66  C   UNL A   1      45.971  32.660  27.930  1.00  0.00    -0.014 A 
ATOM     67  C   UNL A   1      45.921  33.506  26.806  1.00  0.00     0.010 A 
ATOM     68  C   UNL A   1      46.246  33.215  29.193  1.00  0.00     0.010 A 
ATOM     69  C   UNL A   1      46.181  34.873  26.937  1.00  0.00     0.020 A 
ATOM     70  C   UNL A   1      46.478  34.587  29.332  1.00  0.00     0.020 A 
ATOM     71  C   UNL A   1      46.461  35.404  28.200  1.00  0.00     0.054 A 
BRANCH  71  72
ATOM     72  S   UNL A   1      46.765  37.187  28.344  1.00  0.00     0.124 S 
ATOM     73  O   UNL A   1      46.489  37.424  29.759  1.00  0.00    -0.237 OA
ATOM     74  O   UNL A   1      48.166  37.306  27.950  1.00  0.00    -0.237 OA
ATOM     75  O   UNL A   1      45.807  37.779  27.415  1.00  0.00    -0.744 OA
ENDBRANCH  71  72
ENDBRANCH  52  66
BRANCH  53  76
ATOM     76  C   UNL A   1      43.582  23.036  26.744  1.00  0.00    -0.014 A 
ATOM     77  C   UNL A   1      42.957  22.288  27.756  1.00  0.00     0.010 A 
ATOM     78  C   UNL A   1      43.856  22.421  25.510  1.00  0.00     0.010 A 
ATOM     79  C   UNL A   1      42.631  20.945  27.547  1.00  0.00     0.020 A 
ATOM     80  C   UNL A   1      43.507  21.085  25.286  1.00  0.00     0.020 A 
ATOM     81  C   UNL A   1      42.907  20.352  26.311  1.00  0.00     0.054 A 
BRANCH  81  82
ATOM     82  S   UNL A   1      42.428  18.623  26.042  1.00  0.00     0.124 S 
ATOM     83  O   UNL A   1      43.300  18.235  24.938  1.00  0.00    -0.237 OA
ATOM     84  O   UNL A   1      42.728  18.006  27.332  1.00  0.00    -0.237 OA
ATOM     85  O   UNL A   1      41.006  18.709  25.718  1.00  0.00    -0.744 OA
ENDBRANCH  81  82
ENDBRANCH  53  76
BRANCH  65  86
ATOM     86  C   UNL A   1      49.580  26.579  26.475  1.00  0.00    -0.014 A 
ATOM     87  C   UNL A   1      50.382  26.041  27.499  1.00  0.00     0.010 A 
ATOM     88  C   UNL A   1      50.109  26.687  25.176  1.00  0.00     0.010 A 
ATOM     89  C   UNL A   1      51.700  25.658  27.236  1.00  0.00     0.020 A 
ATOM     90  C   UNL A   1      51.416  26.279  24.903  1.00  0.00     0.020 A 
ATOM     91  C   UNL A   1      52.210  25.784  25.940  1.00  0.00     0.054 A 
BRANCH  91  92
ATOM     92  S   UNL A   1      53.916  25.258  25.617  1.00  0.00     0.124 S 
ATOM     93  O   UNL A   1      53.825  23.811  25.787  1.00  0.00    -0.237 OA
ATOM     94  O   UNL A   1      54.140  25.718  24.247  1.00  0.00    -0.237 OA
ATOM     95  O   UNL A   1      54.694  25.959  26.637  1.00  0.00    -0.744 OA
ENDBRANCH  91  92
ENDBRANCH  65  86
ENDBRANCH  39  40
ENDBRANCH  31  34
ENDBRANCH  29  30
ENDBRANCH  28  29
ENDBRANCH   1  28
TORSDOF 17
ENDMDL
MODEL 2
REMARK VINA RESULT:     -11.9      3.307      4.068
REMARK SMILES O=C(Cc1cc(=O)[nH]c(=O)[nH]1)Nc1cccc(C(=O)NCCCCNC(=O)c2ccc(-c3c4nc(c(-c5ccc(S(=O)(=O)[O-])cc5)c5ccc([nH]5)c(-c5ccc(S(=O)(=O)[O-])cc5)c5nc(c(-c6ccc(S(=O)(=O)[O-])cc6)c6ccc3[nH]6)C=C5)C=C4)cc2)c1
REMARK SMILES IDX 22 1 21 2 20 3 18 4 19 5 17 7 13 8 14 9 88 10 15 11 16 12
REMARK SMILES IDX 12 13 1 14 2 15 3 17 4 18 5 19 11 20 6 21 9 22 7 24 8 25
REMARK SMILES IDX 10 26 23 28 24 29 25 30 26 31 27 33 28 34 29 35 87 36 30 37
REMARK SMILES IDX 86 38 31 39 32 40 33 41 80 42 34 43 85 44 79 45 81 46 35 47
REMARK SMILES IDX 84 48 78 49 77 50 36 52 66 53 47 54 65 55 48 56 51 57 64 58
REMARK SMILES IDX 82 59 49 60 50 61 63 63 83 64 52 65 37 66 38 67 46 68 39 69
REMARK SMILES IDX 45 70 40 71 41 72 42 73 43 74 44 75 67 76 68 77 76 78 69 79
REMARK SMILES IDX 75 80 70 81 71 82 72 83 73 84 74 85 53 86 54 87 62 88 55 89
REMARK SMILES IDX 61 90 56 91 57 92 58 93 59 94 60 95
REMARK H PARENT 20 6 12 16 11 23 8 27 25 32 81 51 51 62
REMARK Flexibility Score: inf
ROOT
ATOM      1  C   UNL A   1      32.762  28.679  24.189  1.00  0.00     0.023 C 
ENDROOT
BRANCH   1   2
ATOM      2  C   UNL A   1      34.075  28.155  23.620  1.00  0.00     0.116 C 
BRANCH   2   3
ATOM      3  N   UNL A   1      33.959  27.510  22.319  1.00  0.00    -0.352 N 
ATOM      4  C   UNL A   1      33.210  26.421  21.927  1.00  0.00     0.251 C 
ATOM      5  O   UNL A   1      33.274  26.025  20.764  1.00  0.00    -0.269 OA
ATOM      6  H   UNL A   1      34.503  27.918  21.606  1.00  0.00     0.163 HD
BRANCH   4   7
ATOM      7  C   UNL A   1      32.385  25.664  22.903  1.00  0.00     0.041 A 
ATOM      8  C   UNL A   1      32.146  23.819  24.447  1.00  0.00     0.041 A 
ATOM      9  C   UNL A   1      30.758  23.999  24.429  1.00  0.00     0.026 A 
ATOM     10  C   UNL A   1      32.953  24.728  23.769  1.00  0.00     0.040 A 
ATOM     11  C   UNL A   1      30.188  25.037  23.685  1.00  0.00     0.003 A 
ATOM     12  C   UNL A   1      31.000  25.853  22.898  1.00  0.00     0.014 A 
BRANCH   8  13
ATOM     13  N   UNL A   1      32.648  22.637  25.033  1.00  0.00    -0.326 N 
ATOM     14  O   UNL A   1      32.628  23.157  27.308  1.00  0.00    -0.274 OA
ATOM     15  C   UNL A   1      32.973  22.442  26.370  1.00  0.00     0.230 C 
ATOM     16  H   UNL A   1      32.783  21.869  24.431  1.00  0.00     0.169 HD
BRANCH  15  17
ATOM     17  C   UNL A   1      33.961  21.299  26.607  1.00  0.00     0.154 C 
BRANCH  17  18
ATOM     18  C   UNL A   1      35.337  21.592  26.083  1.00  0.00     0.034 A 
ATOM     19  C   UNL A   1      35.906  22.802  26.181  1.00  0.00     0.093 A 
ATOM     20  N   UNL A   1      36.010  20.573  25.450  1.00  0.00    -0.311 N 
ATOM     21  C   UNL A   1      37.260  23.009  25.632  1.00  0.00     0.253 A 
ATOM     22  C   UNL A   1      37.289  20.679  24.974  1.00  0.00     0.325 A 
ATOM     23  H   UNL A   1      35.543  19.714  25.332  1.00  0.00     0.171 HD
ATOM     24  O   UNL A   1      37.788  24.116  25.648  1.00  0.00    -0.269 OA
ATOM     25  N   UNL A   1      37.871  21.905  25.112  1.00  0.00    -0.274 N 
ATOM     26  O   UNL A   1      37.859  19.726  24.462  1.00  0.00    -0.248 OA
ATOM     27  H   UNL A   1      38.804  22.001  24.813  1.00  0.00     0.175 HD
ENDBRANCH  17  18
ENDBRANCH  15  17
ENDBRANCH   8  13
ENDBRANCH   4   7
ENDBRANCH   2   3
ENDBRANCH   1   2
BRANCH   1  28
ATOM     28  C   UNL A   1      32.491  28.370  25.656  1.00  0.00     0.023 C 
BRANCH  28  29
ATOM     29  C   UNL A   1      33.610  28.712  26.631  1.00  0.00     0.116 C 
BRANCH  29  30
ATOM     30  N   UNL A   1      33.517  30.052  27.191  1.00  0.00    -0.352 N 
ATOM     31  C   UNL A   1      34.424  30.758  27.948  1.00  0.00     0.251 C 
ATOM     32  H   UNL A   1      32.675  30.525  27.001  1.00  0.00     0.163 HD
ATOM     33  O   UNL A   1      34.113  31.854  28.406  1.00  0.00    -0.269 OA
BRANCH  31  34
ATOM     34  C   UNL A   1      35.756  30.182  28.247  1.00  0.00     0.039 A 
ATOM     35  C   UNL A   1      36.764  30.281  27.284  1.00  0.00     0.014 A 
ATOM     36  C   UNL A   1      36.024  29.570  29.474  1.00  0.00     0.014 A 
ATOM     37  C   UNL A   1      38.059  29.853  27.587  1.00  0.00     0.010 A 
ATOM     38  C   UNL A   1      37.332  29.221  29.806  1.00  0.00     0.010 A 
ATOM     39  C   UNL A   1      38.366  29.366  28.869  1.00  0.00    -0.014 A 
BRANCH  39  40
ATOM     40  C   UNL A   1      39.765  29.036  29.252  1.00  0.00     0.031 A 
ATOM     41  C   UNL A   1      40.631  30.056  29.942  1.00  0.00     0.074 A 
ATOM     42  C   UNL A   1      40.280  27.836  28.914  1.00  0.00     0.049 A 
ATOM     43  N   UNL A   1      41.881  29.955  30.318  1.00  0.00    -0.248 NA
ATOM     44  C   UNL A   1      40.025  31.368  30.223  1.00  0.00     0.031 C 
ATOM     45  C   UNL A   1      39.568  26.781  28.187  1.00  0.00     0.029 A 
ATOM     46  N   UNL A   1      41.525  27.301  29.132  1.00  0.00    -0.354 N 
ATOM     47  C   UNL A   1      42.216  31.192  30.858  1.00  0.00     0.074 A 
ATOM     48  C   UNL A   1      41.053  32.040  30.720  1.00  0.00     0.031 C 
ATOM     49  C   UNL A   1      40.377  25.719  28.045  1.00  0.00     0.029 A 
ATOM     50  C   UNL A   1      41.675  26.026  28.636  1.00  0.00     0.049 A 
ATOM     51  H   UNL A   1      42.245  27.783  29.600  1.00  0.00     0.167 HD
ATOM     52  C   UNL A   1      43.378  31.580  31.436  1.00  0.00     0.031 A 
ATOM     53  C   UNL A   1      42.736  25.196  28.651  1.00  0.00     0.031 A 
ATOM     54  C   UNL A   1      44.528  30.729  31.590  1.00  0.00     0.049 A 
ATOM     55  C   UNL A   1      44.008  25.643  29.318  1.00  0.00     0.074 A 
ATOM     56  C   UNL A   1      45.725  31.008  32.228  1.00  0.00     0.029 A 
ATOM     57  N   UNL A   1      44.630  29.436  31.098  1.00  0.00    -0.354 N 
ATOM     58  N   UNL A   1      44.274  26.787  29.901  1.00  0.00    -0.248 NA
ATOM     59  C   UNL A   1      45.118  24.679  29.342  1.00  0.00     0.031 C 
ATOM     60  C   UNL A   1      46.568  29.902  32.078  1.00  0.00     0.029 A 
ATOM     61  C   UNL A   1      45.876  28.914  31.397  1.00  0.00     0.049 A 
ATOM     62  H   UNL A   1      43.920  28.961  30.610  1.00  0.00     0.167 HD
ATOM     63  C   UNL A   1      45.575  26.674  30.381  1.00  0.00     0.074 A 
ATOM     64  C   UNL A   1      46.031  25.342  30.037  1.00  0.00     0.031 C 
ATOM     65  C   UNL A   1      46.322  27.589  31.044  1.00  0.00     0.031 A 
BRANCH  52  66
ATOM     66  C   UNL A   1      43.464  32.995  31.946  1.00  0.00    -0.014 A 
ATOM     67  C   UNL A   1      43.920  34.039  31.120  1.00  0.00     0.010 A 
ATOM     68  C   UNL A   1      43.040  33.294  33.254  1.00  0.00     0.010 A 
ATOM     69  C   UNL A   1      43.989  35.348  31.605  1.00  0.00     0.020 A 
ATOM     70  C   UNL A   1      43.079  34.607  33.733  1.00  0.00     0.020 A 
ATOM     71  C   UNL A   1      43.570  35.623  32.910  1.00  0.00     0.054 A 
BRANCH  71  72
ATOM     72  S   UNL A   1      43.642  37.336  33.503  1.00  0.00     0.124 S 
ATOM     73  O   UNL A   1      42.396  37.445  34.258  1.00  0.00    -0.237 OA
ATOM     74  O   UNL A   1      44.863  37.348  34.304  1.00  0.00    -0.237 OA
ATOM     75  O   UNL A   1      43.697  38.126  32.276  1.00  0.00    -0.744 OA
ENDBRANCH  71  72
ENDBRANCH  52  66
BRANCH  53  76
ATOM     76  C   UNL A   1      42.636  23.848  28.027  1.00  0.00    -0.014 A 
ATOM     77  C   UNL A   1      42.038  22.782  28.721  1.00  0.00     0.010 A 
ATOM     78  C   UNL A   1      43.127  23.627  26.728  1.00  0.00     0.010 A 
ATOM     79  C   UNL A   1      41.953  21.514  28.137  1.00  0.00     0.020 A 
ATOM     80  C   UNL A   1      43.020  22.369  26.129  1.00  0.00     0.020 A 
ATOM     81  C   UNL A   1      42.444  21.316  26.843  1.00  0.00     0.054 A 
BRANCH  81  82
ATOM     82  S   UNL A   1      42.276  19.677  26.083  1.00  0.00     0.124 S 
ATOM     83  O   UNL A   1      40.855  19.640  25.752  1.00  0.00    -0.237 OA
ATOM     84  O   UNL A   1      43.188  19.760  24.945  1.00  0.00    -0.237 OA
ATOM     85  O   UNL A   1      42.697  18.765  27.144  1.00  0.00    -0.744 OA
ENDBRANCH  81  82
ENDBRANCH  53  76
BRANCH  65  86
ATOM     86  C   UNL A   1      47.707  27.174  31.465  1.00  0.00    -0.014 A 
ATOM     87  C   UNL A   1      47.937  26.566  32.713  1.00  0.00     0.010 A 
ATOM     88  C   UNL A   1      48.787  27.362  30.583  1.00  0.00     0.010 A 
ATOM     89  C   UNL A   1      49.231  26.193  33.088  1.00  0.00     0.020 A 
ATOM     90  C   UNL A   1      50.077  26.964  30.944  1.00  0.00     0.020 A 
ATOM     91  C   UNL A   1      50.293  26.399  32.202  1.00  0.00     0.054 A 
BRANCH  91  92
ATOM     92  S   UNL A   1      51.959  25.884  32.701  1.00  0.00     0.124 S 
ATOM     93  O   UNL A   1      52.334  24.979  31.618  1.00  0.00    -0.237 OA
ATOM     94  O   UNL A   1      52.688  27.150  32.743  1.00  0.00    -0.237 OA
ATOM     95  O   UNL A   1      51.752  25.249  34.001  1.00  0.00    -0.744 OA
ENDBRANCH  91  92
ENDBRANCH  65  86
ENDBRANCH  39  40
ENDBRANCH  31  34
ENDBRANCH  29  30
ENDBRANCH  28  29
ENDBRANCH   1  28
TORSDOF 17
ENDMDL
MODEL 3
REMARK VINA RESULT:     -11.9      2.155      9.013
REMARK SMILES O=C(Cc1cc(=O)[nH]c(=O)[nH]1)Nc1cccc(C(=O)NCCCCNC(=O)c2ccc(-c3c4nc(c(-c5ccc(S(=O)(=O)[O-])cc5)c5ccc([nH]5)c(-c5ccc(S(=O)(=O)[O-])cc5)c5nc(c(-c6ccc(S(=O)(=O)[O-])cc6)c6ccc3[nH]6)C=C5)C=C4)cc2)c1
REMARK SMILES IDX 22 1 21 2 20 3 18 4 19 5 17 7 13 8 14 9 88 10 15 11 16 12
REMARK SMILES IDX 12 13 1 14 2 15 3 17 4 18 5 19 11 20 6 21 9 22 7 24 8 25
REMARK SMILES IDX 10 26 23 28 24 29 25 30 26 31 27 33 28 34 29 35 87 36 30 37
REMARK SMILES IDX 86 38 31 39 32 40 33 41 80 42 34 43 85 44 79 45 81 46 35 47
REMARK SMILES IDX 84 48 78 49 77 50 36 52 66 53 47 54 65 55 48 56 51 57 64 58
REMARK SMILES IDX 82 59 49 60 50 61 63 63 83 64 52 65 37 66 38 67 46 68 39 69
REMARK SMILES IDX 45 70 40 71 41 72 42 73 43 74 44 75 67 76 68 77 76 78 69 79
REMARK SMILES IDX 75 80 70 81 71 82 72 83 73 84 74 85 53 86 54 87 62 88 55 89
REMARK SMILES IDX 61 90 56 91 57 92 58 93 59 94 60 95
REMARK H PARENT 20 6 12 16 11 23 8 27 25 32 81 51 51 62
REMARK Flexibility Score: inf
ROOT
ATOM      1  C   UNL A   1      37.426  21.910  24.423  1.00  0.00     0.023 C 
ENDROOT
BRANCH   1   2
ATOM      2  C   UNL A   1      36.636  22.902  25.268  1.00  0.00     0.116 C 
BRANCH   2   3
ATOM      3  N   UNL A   1      35.885  22.303  26.363  1.00  0.00    -0.352 N 
ATOM      4  C   UNL A   1      34.575  21.875  26.418  1.00  0.00     0.251 C 
ATOM      5  O   UNL A   1      34.130  21.408  27.464  1.00  0.00    -0.269 OA
ATOM      6  H   UNL A   1      36.394  22.185  27.198  1.00  0.00     0.163 HD
BRANCH   4   7
ATOM      7  C   UNL A   1      33.663  22.042  25.256  1.00  0.00     0.041 A 
ATOM      8  C   UNL A   1      31.958  23.312  24.106  1.00  0.00     0.041 A 
ATOM      9  C   UNL A   1      31.675  22.193  23.314  1.00  0.00     0.026 A 
ATOM     10  C   UNL A   1      33.030  23.257  24.993  1.00  0.00     0.040 A 
ATOM     11  C   UNL A   1      32.412  21.014  23.464  1.00  0.00     0.003 A 
ATOM     12  C   UNL A   1      33.389  20.929  24.456  1.00  0.00     0.014 A 
BRANCH   8  13
ATOM     13  N   UNL A   1      31.051  24.393  24.066  1.00  0.00    -0.326 N 
ATOM     14  O   UNL A   1      31.533  25.379  22.007  1.00  0.00    -0.274 OA
ATOM     15  C   UNL A   1      30.996  25.401  23.111  1.00  0.00     0.230 C 
ATOM     16  H   UNL A   1      30.387  24.438  24.792  1.00  0.00     0.169 HD
BRANCH  15  17
ATOM     17  C   UNL A   1      30.304  26.676  23.596  1.00  0.00     0.154 C 
BRANCH  17  18
ATOM     18  C   UNL A   1      31.269  27.775  23.938  1.00  0.00     0.034 A 
ATOM     19  C   UNL A   1      31.045  28.652  24.926  1.00  0.00     0.093 A 
ATOM     20  N   UNL A   1      32.406  27.888  23.172  1.00  0.00    -0.311 N 
ATOM     21  C   UNL A   1      32.040  29.709  25.193  1.00  0.00     0.253 A 
ATOM     22  C   UNL A   1      33.397  28.803  23.404  1.00  0.00     0.325 A 
ATOM     23  H   UNL A   1      32.513  27.273  22.410  1.00  0.00     0.171 HD
ATOM     24  O   UNL A   1      31.843  30.566  26.047  1.00  0.00    -0.269 OA
ATOM     25  N   UNL A   1      33.175  29.667  24.434  1.00  0.00    -0.274 N 
ATOM     26  O   UNL A   1      34.411  28.829  22.720  1.00  0.00    -0.248 OA
ATOM     27  H   UNL A   1      33.887  30.312  24.648  1.00  0.00     0.175 HD
ENDBRANCH  17  18
ENDBRANCH  15  17
ENDBRANCH   8  13
ENDBRANCH   4   7
ENDBRANCH   2   3
ENDBRANCH   1   2
BRANCH   1  28
ATOM     28  C   UNL A   1      37.937  20.667  25.141  1.00  0.00     0.023 C 
BRANCH  28  29
ATOM     29  C   UNL A   1      39.148  20.865  26.045  1.00  0.00     0.116 C 
BRANCH  29  30
ATOM     30  N   UNL A   1      40.067  19.736  26.055  1.00  0.00    -0.352 N 
ATOM     31  C   UNL A   1      41.435  19.714  26.203  1.00  0.00     0.251 C 
ATOM     32  H   UNL A   1      39.647  18.855  25.936  1.00  0.00     0.163 HD
ATOM     33  O   UNL A   1      42.043  18.653  26.089  1.00  0.00    -0.269 OA
BRANCH  31  34
ATOM     34  C   UNL A   1      42.180  20.969  26.455  1.00  0.00     0.039 A 
ATOM     35  C   UNL A   1      42.525  21.777  25.368  1.00  0.00     0.014 A 
ATOM     36  C   UNL A   1      42.518  21.366  27.751  1.00  0.00     0.014 A 
ATOM     37  C   UNL A   1      43.122  23.021  25.589  1.00  0.00     0.010 A 
ATOM     38  C   UNL A   1      43.036  22.640  27.975  1.00  0.00     0.010 A 
ATOM     39  C   UNL A   1      43.336  23.486  26.897  1.00  0.00    -0.014 A 
BRANCH  39  40
ATOM     40  C   UNL A   1      43.841  24.861  27.152  1.00  0.00     0.031 A 
ATOM     41  C   UNL A   1      45.291  25.199  26.930  1.00  0.00     0.074 A 
ATOM     42  C   UNL A   1      43.004  25.793  27.654  1.00  0.00     0.049 A 
ATOM     43  N   UNL A   1      45.913  26.333  27.132  1.00  0.00    -0.248 NA
ATOM     44  C   UNL A   1      46.162  24.117  26.442  1.00  0.00     0.031 C 
ATOM     45  C   UNL A   1      41.590  25.578  27.978  1.00  0.00     0.029 A 
ATOM     46  N   UNL A   1      43.221  27.107  27.987  1.00  0.00    -0.354 N 
ATOM     47  C   UNL A   1      47.247  26.097  26.818  1.00  0.00     0.074 A 
ATOM     48  C   UNL A   1      47.352  24.700  26.456  1.00  0.00     0.031 C 
ATOM     49  C   UNL A   1      41.062  26.725  28.434  1.00  0.00     0.029 A 
ATOM     50  C   UNL A   1      42.103  27.748  28.471  1.00  0.00     0.049 A 
ATOM     51  H   UNL A   1      44.094  27.551  27.889  1.00  0.00     0.167 HD
ATOM     52  C   UNL A   1      48.285  26.966  26.811  1.00  0.00     0.031 A 
ATOM     53  C   UNL A   1      41.932  29.013  28.901  1.00  0.00     0.031 A 
ATOM     54  C   UNL A   1      48.175  28.360  27.154  1.00  0.00     0.049 A 
ATOM     55  C   UNL A   1      43.095  29.965  28.862  1.00  0.00     0.074 A 
ATOM     56  C   UNL A   1      49.155  29.337  27.106  1.00  0.00     0.029 A 
ATOM     57  N   UNL A   1      47.020  28.975  27.612  1.00  0.00    -0.354 N 
ATOM     58  N   UNL A   1      44.329  29.742  28.478  1.00  0.00    -0.248 NA
ATOM     59  C   UNL A   1      42.838  31.344  29.302  1.00  0.00     0.031 C 
ATOM     60  C   UNL A   1      48.605  30.532  27.582  1.00  0.00     0.029 A 
ATOM     61  C   UNL A   1      47.268  30.312  27.873  1.00  0.00     0.049 A 
ATOM     62  H   UNL A   1      46.152  28.527  27.733  1.00  0.00     0.167 HD
ATOM     63  C   UNL A   1      44.991  30.958  28.609  1.00  0.00     0.074 A 
ATOM     64  C   UNL A   1      44.015  31.916  29.087  1.00  0.00     0.031 C 
ATOM     65  C   UNL A   1      46.290  31.254  28.356  1.00  0.00     0.031 A 
BRANCH  52  66
ATOM     66  C   UNL A   1      49.639  26.432  26.420  1.00  0.00    -0.014 A 
ATOM     67  C   UNL A   1      50.127  26.580  25.108  1.00  0.00     0.010 A 
ATOM     68  C   UNL A   1      50.454  25.816  27.387  1.00  0.00     0.010 A 
ATOM     69  C   UNL A   1      51.387  26.086  24.761  1.00  0.00     0.020 A 
ATOM     70  C   UNL A   1      51.727  25.347  27.050  1.00  0.00     0.020 A 
ATOM     71  C   UNL A   1      52.178  25.469  25.735  1.00  0.00     0.054 A 
BRANCH  71  72
ATOM     72  S   UNL A   1      53.822  24.864  25.263  1.00  0.00     0.124 S 
ATOM     73  O   UNL A   1      54.071  25.603  24.028  1.00  0.00    -0.237 OA
ATOM     74  O   UNL A   1      54.647  25.253  26.404  1.00  0.00    -0.237 OA
ATOM     75  O   UNL A   1      53.628  23.425  25.100  1.00  0.00    -0.744 OA
ENDBRANCH  71  72
ENDBRANCH  52  66
BRANCH  53  76
ATOM     76  C   UNL A   1      40.598  29.458  29.390  1.00  0.00    -0.014 A 
ATOM     77  C   UNL A   1      40.321  29.507  30.767  1.00  0.00     0.010 A 
ATOM     78  C   UNL A   1      39.600  29.848  28.479  1.00  0.00     0.010 A 
ATOM     79  C   UNL A   1      39.065  29.916  31.224  1.00  0.00     0.020 A 
ATOM     80  C   UNL A   1      38.351  30.285  28.932  1.00  0.00     0.020 A 
ATOM     81  C   UNL A   1      38.088  30.304  30.303  1.00  0.00     0.054 A 
BRANCH  81  82
ATOM     82  S   UNL A   1      36.483  30.882  30.919  1.00  0.00     0.124 S 
ATOM     83  O   UNL A   1      35.705  30.988  29.689  1.00  0.00    -0.237 OA
ATOM     84  O   UNL A   1      36.086  29.809  31.828  1.00  0.00    -0.237 OA
ATOM     85  O   UNL A   1      36.803  32.151  31.569  1.00  0.00    -0.744 OA
ENDBRANCH  81  82
ENDBRANCH  53  76
BRANCH  65  86
ATOM     86  C   UNL A   1      46.726  32.679  28.570  1.00  0.00    -0.014 A 
ATOM     87  C   UNL A   1      46.623  33.634  27.541  1.00  0.00     0.010 A 
ATOM     88  C   UNL A   1      47.212  33.076  29.828  1.00  0.00     0.010 A 
ATOM     89  C   UNL A   1      47.039  34.950  27.757  1.00  0.00     0.020 A 
ATOM     90  C   UNL A   1      47.601  34.398  30.056  1.00  0.00     0.020 A 
ATOM     91  C   UNL A   1      47.530  35.323  29.012  1.00  0.00     0.054 A 
BRANCH  91  92
ATOM     92  S   UNL A   1      48.040  37.043  29.276  1.00  0.00     0.124 S 
ATOM     93  O   UNL A   1      46.810  37.652  29.772  1.00  0.00    -0.237 OA
ATOM     94  O   UNL A   1      49.117  36.912  30.256  1.00  0.00    -0.237 OA
ATOM     95  O   UNL A   1      48.465  37.486  27.949  1.00  0.00    -0.744 OA
ENDBRANCH  91  92
ENDBRANCH  65  86
ENDBRANCH  39  40
ENDBRANCH  31  34
ENDBRANCH  29  30
ENDBRANCH  28  29
ENDBRANCH   1  28
TORSDOF 17
ENDMDL
