MODEL 1
REMARK VINA RESULT:     -12.2      0.000      0.000
REMARK SMILES Cc1ccnc(C(=O)c2[nH]c3cc(F)ccc3c2CC(=O)NCCCCNC(=O)c2ccc(-c3c4nc(c(-c5ccc(S(=O)(=O)[O-])cc5)c5ccc([nH]5)c(-c5ccc(S(=O)(=O)[O-])cc5)c5nc(c(-c6ccc(S(=O)(=O)[O-])cc6)c6ccc3[nH]6)C=C5)C=C4)cc2)c1
REMARK SMILES IDX 24 1 23 2 22 3 20 4 21 5 19 7 18 8 9 9 10 10 11 11 17 13
REMARK SMILES IDX 12 14 16 15 13 16 15 17 14 18 7 19 8 20 6 21 1 22 2 23 3 24
REMARK SMILES IDX 90 25 4 26 5 27 25 28 26 29 27 30 28 31 29 33 30 34 31 35
REMARK SMILES IDX 89 36 32 37 88 38 33 39 34 40 35 41 82 42 36 43 87 44 81 45
REMARK SMILES IDX 83 46 37 47 86 48 80 49 79 50 38 52 68 53 49 54 67 55 50 56
REMARK SMILES IDX 53 57 66 58 84 59 51 60 52 61 65 63 85 64 54 65 39 66 40 67
REMARK SMILES IDX 48 68 41 69 47 70 42 71 43 72 44 73 45 74 46 75 69 76 70 77
REMARK SMILES IDX 78 78 71 79 77 80 72 81 73 82 74 83 75 84 76 85 55 86 56 87
REMARK SMILES IDX 64 88 57 89 63 90 58 91 59 92 60 93 61 94 62 95
REMARK H PARENT 22 6 10 12 27 32 83 51 53 62
REMARK Flexibility Score: inf
ROOT
ATOM      1  C   UNL A   1      32.029  26.698  25.648  1.00  0.00     0.023 C 
ENDROOT
BRANCH   1   2
ATOM      2  C   UNL A   1      30.932  25.673  25.933  1.00  0.00     0.116 C 
BRANCH   2   3
ATOM      3  N   UNL A   1      31.316  24.684  26.917  1.00  0.00    -0.356 N 
ATOM      4  C   UNL A   1      32.170  23.626  26.788  1.00  0.00     0.224 C 
ATOM      5  O   UNL A   1      32.509  23.018  27.808  1.00  0.00    -0.275 OA
ATOM      6  H   UNL A   1      30.903  24.789  27.806  1.00  0.00     0.163 HD
BRANCH   4   7
ATOM      7  C   UNL A   1      32.790  23.284  25.443  1.00  0.00     0.138 C 
BRANCH   7   8
ATOM      8  C   UNL A   1      33.955  22.335  25.487  1.00  0.00    -0.002 A 
ATOM      9  C   UNL A   1      33.921  20.946  25.409  1.00  0.00     0.093 A 
ATOM     10  N   UNL A   1      35.223  20.499  25.431  1.00  0.00    -0.351 N 
ATOM     11  C   UNL A   1      36.093  21.542  25.620  1.00  0.00     0.049 A 
ATOM     12  H   UNL A   1      35.493  19.558  25.326  1.00  0.00     0.167 HD
ATOM     13  C   UNL A   1      35.330  22.709  25.673  1.00  0.00     0.004 A 
ATOM     14  C   UNL A   1      37.489  21.541  25.728  1.00  0.00     0.066 A 
ATOM     15  C   UNL A   1      35.999  23.940  25.855  1.00  0.00     0.013 A 
ATOM     16  C   UNL A   1      38.114  22.774  25.904  1.00  0.00     0.125 A 
ATOM     17  C   UNL A   1      37.395  23.958  25.970  1.00  0.00     0.040 A 
ATOM     18  F   UNL A   1      39.449  22.816  26.015  1.00  0.00    -0.207 F 
BRANCH   9  19
ATOM     19  C   UNL A   1      32.787  20.051  25.236  1.00  0.00     0.227 C 
ATOM     20  O   UNL A   1      31.636  20.453  25.350  1.00  0.00    -0.285 OA
BRANCH  19  21
ATOM     21  C   UNL A   1      33.064  18.615  24.864  1.00  0.00     0.113 A 
ATOM     22  C   UNL A   1      32.288  15.068  25.962  1.00  0.00     0.044 C 
ATOM     23  C   UNL A   1      32.845  16.242  25.215  1.00  0.00    -0.047 A 
ATOM     24  C   UNL A   1      33.659  16.048  24.098  1.00  0.00     0.023 A 
ATOM     25  C   UNL A   1      32.524  17.552  25.589  1.00  0.00     0.036 A 
ATOM     26  C   UNL A   1      34.141  17.158  23.425  1.00  0.00     0.112 A 
ATOM     27  N   UNL A   1      33.874  18.428  23.790  1.00  0.00    -0.253 NA
ENDBRANCH  19  21
ENDBRANCH   9  19
ENDBRANCH   7   8
ENDBRANCH   4   7
ENDBRANCH   2   3
ENDBRANCH   1   2
BRANCH   1  28
ATOM     28  C   UNL A   1      32.393  27.623  26.813  1.00  0.00     0.023 C 
BRANCH  28  29
ATOM     29  C   UNL A   1      33.679  28.431  26.654  1.00  0.00     0.116 C 
BRANCH  29  30
ATOM     30  N   UNL A   1      33.543  29.815  27.075  1.00  0.00    -0.352 N 
ATOM     31  C   UNL A   1      34.417  30.604  27.780  1.00  0.00     0.251 C 
ATOM     32  H   UNL A   1      32.699  30.251  26.817  1.00  0.00     0.163 HD
ATOM     33  O   UNL A   1      34.072  31.735  28.113  1.00  0.00    -0.269 OA
BRANCH  31  34
ATOM     34  C   UNL A   1      35.749  30.095  28.178  1.00  0.00     0.039 A 
ATOM     35  C   UNL A   1      36.783  30.146  27.236  1.00  0.00     0.014 A 
ATOM     36  C   UNL A   1      35.982  29.542  29.442  1.00  0.00     0.014 A 
ATOM     37  C   UNL A   1      38.064  29.706  27.580  1.00  0.00     0.010 A 
ATOM     38  C   UNL A   1      37.268  29.128  29.793  1.00  0.00     0.010 A 
ATOM     39  C   UNL A   1      38.319  29.216  28.868  1.00  0.00    -0.014 A 
BRANCH  39  40
ATOM     40  C   UNL A   1      39.685  28.812  29.271  1.00  0.00     0.031 A 
ATOM     41  C   UNL A   1      40.559  29.751  30.045  1.00  0.00     0.074 A 
ATOM     42  C   UNL A   1      40.160  27.611  28.892  1.00  0.00     0.049 A 
ATOM     43  N   UNL A   1      41.817  29.618  30.378  1.00  0.00    -0.248 NA
ATOM     44  C   UNL A   1      39.941  31.009  30.491  1.00  0.00     0.031 C 
ATOM     45  C   UNL A   1      39.417  26.610  28.124  1.00  0.00     0.029 A 
ATOM     46  N   UNL A   1      41.387  27.036  29.098  1.00  0.00    -0.354 N 
ATOM     47  C   UNL A   1      42.158  30.791  31.036  1.00  0.00     0.074 A 
ATOM     48  C   UNL A   1      40.967  31.616  31.074  1.00  0.00     0.031 C 
ATOM     49  C   UNL A   1      40.201  25.535  27.936  1.00  0.00     0.029 A 
ATOM     50  C   UNL A   1      41.504  25.784  28.548  1.00  0.00     0.049 A 
ATOM     51  H   UNL A   1      42.114  27.478  29.592  1.00  0.00     0.167 HD
ATOM     52  C   UNL A   1      43.356  31.156  31.554  1.00  0.00     0.031 A 
ATOM     53  C   UNL A   1      42.545  24.933  28.527  1.00  0.00     0.031 A 
ATOM     54  C   UNL A   1      44.533  30.334  31.554  1.00  0.00     0.049 A 
ATOM     55  C   UNL A   1      43.844  25.329  29.162  1.00  0.00     0.074 A 
ATOM     56  C   UNL A   1      45.790  30.620  32.059  1.00  0.00     0.029 A 
ATOM     57  N   UNL A   1      44.595  29.052  31.032  1.00  0.00    -0.354 N 
ATOM     58  N   UNL A   1      44.155  26.454  29.758  1.00  0.00    -0.248 NA
ATOM     59  C   UNL A   1      44.932  24.343  29.114  1.00  0.00     0.031 C 
ATOM     60  C   UNL A   1      46.612  29.503  31.847  1.00  0.00     0.029 A 
ATOM     61  C   UNL A   1      45.864  28.526  31.210  1.00  0.00     0.049 A 
ATOM     62  H   UNL A   1      43.847  28.582  30.597  1.00  0.00     0.167 HD
ATOM     63  C   UNL A   1      45.478  26.316  30.154  1.00  0.00     0.074 A 
ATOM     64  C   UNL A   1      45.906  24.995  29.737  1.00  0.00     0.031 C 
ATOM     65  C   UNL A   1      46.269  27.208  30.797  1.00  0.00     0.031 A 
BRANCH  52  66
ATOM     66  C   UNL A   1      43.427  32.533  32.142  1.00  0.00    -0.014 A 
ATOM     67  C   UNL A   1      43.795  33.633  31.348  1.00  0.00     0.010 A 
ATOM     68  C   UNL A   1      43.182  32.719  33.514  1.00  0.00     0.010 A 
ATOM     69  C   UNL A   1      43.968  34.892  31.929  1.00  0.00     0.020 A 
ATOM     70  C   UNL A   1      43.349  33.977  34.095  1.00  0.00     0.020 A 
ATOM     71  C   UNL A   1      43.765  35.051  33.303  1.00  0.00     0.054 A 
BRANCH  71  72
ATOM     72  S   UNL A   1      44.038  36.667  34.080  1.00  0.00     0.124 S 
ATOM     73  O   UNL A   1      44.111  37.549  32.916  1.00  0.00    -0.237 OA
ATOM     74  O   UNL A   1      42.860  36.844  34.924  1.00  0.00    -0.237 OA
ATOM     75  O   UNL A   1      45.294  36.478  34.803  1.00  0.00    -0.744 OA
ENDBRANCH  71  72
ENDBRANCH  52  66
BRANCH  53  76
ATOM     76  C   UNL A   1      42.382  23.612  27.873  1.00  0.00    -0.014 A 
ATOM     77  C   UNL A   1      42.825  23.425  26.553  1.00  0.00     0.010 A 
ATOM     78  C   UNL A   1      41.860  22.524  28.592  1.00  0.00     0.010 A 
ATOM     79  C   UNL A   1      42.761  22.161  25.962  1.00  0.00     0.020 A 
ATOM     80  C   UNL A   1      41.798  21.259  28.003  1.00  0.00     0.020 A 
ATOM     81  C   UNL A   1      42.249  21.084  26.692  1.00  0.00     0.054 A 
BRANCH  81  82
ATOM     82  S   UNL A   1      42.262  19.421  25.966  1.00  0.00     0.124 S 
ATOM     83  O   UNL A   1      40.859  19.232  25.617  1.00  0.00    -0.237 OA
ATOM     84  O   UNL A   1      43.180  19.560  24.837  1.00  0.00    -0.237 OA
ATOM     85  O   UNL A   1      42.760  18.589  27.060  1.00  0.00    -0.744 OA
ENDBRANCH  81  82
ENDBRANCH  53  76
BRANCH  65  86
ATOM     86  C   UNL A   1      47.675  26.773  31.089  1.00  0.00    -0.014 A 
ATOM     87  C   UNL A   1      47.995  26.199  32.331  1.00  0.00     0.010 A 
ATOM     88  C   UNL A   1      48.677  26.924  30.116  1.00  0.00     0.010 A 
ATOM     89  C   UNL A   1      49.306  25.800  32.606  1.00  0.00     0.020 A 
ATOM     90  C   UNL A   1      49.988  26.526  30.388  1.00  0.00     0.020 A 
ATOM     91  C   UNL A   1      50.297  25.977  31.636  1.00  0.00     0.054 A 
BRANCH  91  92
ATOM     92  S   UNL A   1      51.997  25.440  31.980  1.00  0.00     0.124 S 
ATOM     93  O   UNL A   1      52.305  26.177  33.202  1.00  0.00    -0.237 OA
ATOM     94  O   UNL A   1      51.867  23.993  32.136  1.00  0.00    -0.237 OA
ATOM     95  O   UNL A   1      52.728  25.866  30.789  1.00  0.00    -0.744 OA
ENDBRANCH  91  92
ENDBRANCH  65  86
ENDBRANCH  39  40
ENDBRANCH  31  34
ENDBRANCH  29  30
ENDBRANCH  28  29
ENDBRANCH   1  28
TORSDOF 17
ENDMDL
MODEL 2
REMARK VINA RESULT:     -12.1      2.802      3.426
REMARK SMILES Cc1ccnc(C(=O)c2[nH]c3cc(F)ccc3c2CC(=O)NCCCCNC(=O)c2ccc(-c3c4nc(c(-c5ccc(S(=O)(=O)[O-])cc5)c5ccc([nH]5)c(-c5ccc(S(=O)(=O)[O-])cc5)c5nc(c(-c6ccc(S(=O)(=O)[O-])cc6)c6ccc3[nH]6)C=C5)C=C4)cc2)c1
REMARK SMILES IDX 24 1 23 2 22 3 20 4 21 5 19 7 18 8 9 9 10 10 11 11 17 13
REMARK SMILES IDX 12 14 16 15 13 16 15 17 14 18 7 19 8 20 6 21 1 22 2 23 3 24
REMARK SMILES IDX 90 25 4 26 5 27 25 28 26 29 27 30 28 31 29 33 30 34 31 35
REMARK SMILES IDX 89 36 32 37 88 38 33 39 34 40 35 41 82 42 36 43 87 44 81 45
REMARK SMILES IDX 83 46 37 47 86 48 80 49 79 50 38 52 68 53 49 54 67 55 50 56
REMARK SMILES IDX 53 57 66 58 84 59 51 60 52 61 65 63 85 64 54 65 39 66 40 67
REMARK SMILES IDX 48 68 41 69 47 70 42 71 43 72 44 73 45 74 46 75 69 76 70 77
REMARK SMILES IDX 78 78 71 79 77 80 72 81 73 82 74 83 75 84 76 85 55 86 56 87
REMARK SMILES IDX 64 88 57 89 63 90 58 91 59 92 60 93 61 94 62 95
REMARK H PARENT 22 6 10 12 27 32 83 51 53 62
REMARK Flexibility Score: inf
ROOT
ATOM      1  C   UNL A   1      33.528  26.975  26.203  1.00  0.00     0.023 C 
ENDROOT
BRANCH   1   2
ATOM      2  C   UNL A   1      32.155  26.326  26.045  1.00  0.00     0.116 C 
BRANCH   2   3
ATOM      3  N   UNL A   1      31.973  25.161  26.885  1.00  0.00    -0.356 N 
ATOM      4  C   UNL A   1      32.346  23.867  26.657  1.00  0.00     0.224 C 
ATOM      5  O   UNL A   1      32.270  23.062  27.589  1.00  0.00    -0.275 OA
ATOM      6  H   UNL A   1      31.518  25.326  27.743  1.00  0.00     0.163 HD
BRANCH   4   7
ATOM      7  C   UNL A   1      32.958  23.455  25.329  1.00  0.00     0.138 C 
BRANCH   7   8
ATOM      8  C   UNL A   1      34.063  22.439  25.409  1.00  0.00    -0.002 A 
ATOM      9  C   UNL A   1      33.946  21.052  25.353  1.00  0.00     0.093 A 
ATOM     10  N   UNL A   1      35.218  20.528  25.408  1.00  0.00    -0.351 N 
ATOM     11  C   UNL A   1      36.146  21.520  25.596  1.00  0.00     0.049 A 
ATOM     12  H   UNL A   1      35.432  19.571  25.323  1.00  0.00     0.167 HD
ATOM     13  C   UNL A   1      35.455  22.731  25.615  1.00  0.00     0.004 A 
ATOM     14  C   UNL A   1      37.537  21.437  25.730  1.00  0.00     0.066 A 
ATOM     15  C   UNL A   1      36.194  23.923  25.790  1.00  0.00     0.013 A 
ATOM     16  C   UNL A   1      38.233  22.633  25.899  1.00  0.00     0.125 A 
ATOM     17  C   UNL A   1      37.586  23.859  25.931  1.00  0.00     0.040 A 
ATOM     18  F   UNL A   1      39.566  22.596  26.034  1.00  0.00    -0.207 F 
BRANCH   9  19
ATOM     19  C   UNL A   1      32.764  20.225  25.173  1.00  0.00     0.227 C 
ATOM     20  O   UNL A   1      31.637  20.688  25.305  1.00  0.00    -0.285 OA
BRANCH  19  21
ATOM     21  C   UNL A   1      32.958  18.784  24.773  1.00  0.00     0.113 A 
ATOM     22  C   UNL A   1      32.347  15.254  26.022  1.00  0.00     0.044 C 
ATOM     23  C   UNL A   1      32.780  16.416  25.179  1.00  0.00    -0.047 A 
ATOM     24  C   UNL A   1      33.386  16.204  23.941  1.00  0.00     0.023 A 
ATOM     25  C   UNL A   1      32.541  17.731  25.590  1.00  0.00     0.036 A 
ATOM     26  C   UNL A   1      33.756  17.303  23.184  1.00  0.00     0.112 A 
ATOM     27  N   UNL A   1      33.568  18.579  23.577  1.00  0.00    -0.253 NA
ENDBRANCH  19  21
ENDBRANCH   9  19
ENDBRANCH   7   8
ENDBRANCH   4   7
ENDBRANCH   2   3
ENDBRANCH   1   2
BRANCH   1  28
ATOM     28  C   UNL A   1      33.552  28.303  26.966  1.00  0.00     0.023 C 
BRANCH  28  29
ATOM     29  C   UNL A   1      34.933  28.872  27.281  1.00  0.00     0.116 C 
BRANCH  29  30
ATOM     30  N   UNL A   1      34.924  29.828  28.376  1.00  0.00    -0.352 N 
ATOM     31  C   UNL A   1      35.952  30.239  29.186  1.00  0.00     0.251 C 
ATOM     32  H   UNL A   1      34.050  30.241  28.564  1.00  0.00     0.163 HD
ATOM     33  O   UNL A   1      35.714  31.001  30.120  1.00  0.00    -0.269 OA
BRANCH  31  34
ATOM     34  C   UNL A   1      37.331  29.746  28.973  1.00  0.00     0.039 A 
ATOM     35  C   UNL A   1      37.904  29.912  27.707  1.00  0.00     0.014 A 
ATOM     36  C   UNL A   1      38.049  29.098  29.984  1.00  0.00     0.014 A 
ATOM     37  C   UNL A   1      39.214  29.490  27.471  1.00  0.00     0.010 A 
ATOM     38  C   UNL A   1      39.368  28.701  29.756  1.00  0.00     0.010 A 
ATOM     39  C   UNL A   1      39.962  28.903  28.501  1.00  0.00    -0.014 A 
BRANCH  39  40
ATOM     40  C   UNL A   1      41.375  28.515  28.288  1.00  0.00     0.031 A 
ATOM     41  C   UNL A   1      42.466  29.538  28.376  1.00  0.00     0.074 A 
ATOM     42  C   UNL A   1      41.671  27.243  27.963  1.00  0.00     0.049 A 
ATOM     43  N   UNL A   1      43.739  29.408  28.103  1.00  0.00    -0.248 NA
ATOM     44  C   UNL A   1      42.072  30.885  28.815  1.00  0.00     0.031 C 
ATOM     45  C   UNL A   1      40.701  26.154  27.831  1.00  0.00     0.029 A 
ATOM     46  N   UNL A   1      42.876  26.657  27.677  1.00  0.00    -0.354 N 
ATOM     47  C   UNL A   1      44.294  30.665  28.295  1.00  0.00     0.074 A 
ATOM     48  C   UNL A   1      43.223  31.539  28.728  1.00  0.00     0.031 C 
ATOM     49  C   UNL A   1      41.354  25.027  27.503  1.00  0.00     0.029 A 
ATOM     50  C   UNL A   1      42.780  25.321  27.379  1.00  0.00     0.049 A 
ATOM     51  H   UNL A   1      43.730  27.148  27.683  1.00  0.00     0.167 HD
ATOM     52  C   UNL A   1      45.578  31.061  28.118  1.00  0.00     0.031 A 
ATOM     53  C   UNL A   1      43.728  24.432  27.035  1.00  0.00     0.031 A 
ATOM     54  C   UNL A   1      46.655  30.197  27.722  1.00  0.00     0.049 A 
ATOM     55  C   UNL A   1      45.154  24.875  26.906  1.00  0.00     0.074 A 
ATOM     56  C   UNL A   1      47.988  30.511  27.520  1.00  0.00     0.029 A 
ATOM     57  N   UNL A   1      46.523  28.839  27.480  1.00  0.00    -0.354 N 
ATOM     58  N   UNL A   1      45.656  26.075  27.068  1.00  0.00    -0.248 NA
ATOM     59  C   UNL A   1      46.136  23.846  26.542  1.00  0.00     0.031 C 
ATOM     60  C   UNL A   1      48.666  29.335  27.162  1.00  0.00     0.029 A 
ATOM     61  C   UNL A   1      47.751  28.295  27.141  1.00  0.00     0.049 A 
ATOM     62  H   UNL A   1      45.680  28.334  27.540  1.00  0.00     0.167 HD
ATOM     63  C   UNL A   1      47.016  25.948  26.819  1.00  0.00     0.074 A 
ATOM     64  C   UNL A   1      47.259  24.554  26.505  1.00  0.00     0.031 C 
ATOM     65  C   UNL A   1      47.975  26.905  26.841  1.00  0.00     0.031 A 
BRANCH  52  66
ATOM     66  C   UNL A   1      45.854  32.518  28.336  1.00  0.00    -0.014 A 
ATOM     67  C   UNL A   1      45.736  33.436  27.279  1.00  0.00     0.010 A 
ATOM     68  C   UNL A   1      46.293  32.963  29.595  1.00  0.00     0.010 A 
ATOM     69  C   UNL A   1      46.103  34.772  27.464  1.00  0.00     0.020 A 
ATOM     70  C   UNL A   1      46.656  34.299  29.784  1.00  0.00     0.020 A 
ATOM     71  C   UNL A   1      46.581  35.189  28.709  1.00  0.00     0.054 A 
BRANCH  71  72
ATOM     72  S   UNL A   1      47.113  36.907  28.949  1.00  0.00     0.124 S 
ATOM     73  O   UNL A   1      46.418  37.264  30.184  1.00  0.00    -0.237 OA
ATOM     74  O   UNL A   1      48.565  36.804  29.057  1.00  0.00    -0.237 OA
ATOM     75  O   UNL A   1      46.628  37.573  27.742  1.00  0.00    -0.744 OA
ENDBRANCH  71  72
ENDBRANCH  52  66
BRANCH  53  76
ATOM     76  C   UNL A   1      43.338  23.022  26.791  1.00  0.00    -0.014 A 
ATOM     77  C   UNL A   1      43.503  22.460  25.515  1.00  0.00     0.010 A 
ATOM     78  C   UNL A   1      42.876  22.220  27.849  1.00  0.00     0.010 A 
ATOM     79  C   UNL A   1      43.226  21.108  25.300  1.00  0.00     0.020 A 
ATOM     80  C   UNL A   1      42.602  20.867  27.636  1.00  0.00     0.020 A 
ATOM     81  C   UNL A   1      42.779  20.319  26.362  1.00  0.00     0.054 A 
BRANCH  81  82
ATOM     82  S   UNL A   1      42.520  18.540  26.112  1.00  0.00     0.124 S 
ATOM     83  O   UNL A   1      42.859  17.998  27.423  1.00  0.00    -0.237 OA
ATOM     84  O   UNL A   1      41.108  18.460  25.743  1.00  0.00    -0.237 OA
ATOM     85  O   UNL A   1      43.453  18.220  25.034  1.00  0.00    -0.744 OA
ENDBRANCH  81  82
ENDBRANCH  53  76
BRANCH  65  86
ATOM     86  C   UNL A   1      49.373  26.464  26.520  1.00  0.00    -0.014 A 
ATOM     87  C   UNL A   1      49.847  26.522  25.198  1.00  0.00     0.010 A 
ATOM     88  C   UNL A   1      50.220  26.004  27.541  1.00  0.00     0.010 A 
ATOM     89  C   UNL A   1      51.146  26.104  24.898  1.00  0.00     0.020 A 
ATOM     90  C   UNL A   1      51.519  25.586  27.244  1.00  0.00     0.020 A 
ATOM     91  C   UNL A   1      51.971  25.628  25.921  1.00  0.00     0.054 A 
BRANCH  91  92
ATOM     92  S   UNL A   1      53.667  25.105  25.539  1.00  0.00     0.124 S 
ATOM     93  O   UNL A   1      53.508  23.664  25.371  1.00  0.00    -0.237 OA
ATOM     94  O   UNL A   1      53.981  25.848  24.321  1.00  0.00    -0.237 OA
ATOM     95  O   UNL A   1      54.417  25.520  26.722  1.00  0.00    -0.744 OA
ENDBRANCH  91  92
ENDBRANCH  65  86
ENDBRANCH  39  40
ENDBRANCH  31  34
ENDBRANCH  29  30
ENDBRANCH  28  29
ENDBRANCH   1  28
TORSDOF 17
ENDMDL
MODEL 3
REMARK VINA RESULT:     -11.7      0.690      8.010
REMARK SMILES Cc1ccnc(C(=O)c2[nH]c3cc(F)ccc3c2CC(=O)NCCCCNC(=O)c2ccc(-c3c4nc(c(-c5ccc(S(=O)(=O)[O-])cc5)c5ccc([nH]5)c(-c5ccc(S(=O)(=O)[O-])cc5)c5nc(c(-c6ccc(S(=O)(=O)[O-])cc6)c6ccc3[nH]6)C=C5)C=C4)cc2)c1
REMARK SMILES IDX 24 1 23 2 22 3 20 4 21 5 19 7 18 8 9 9 10 10 11 11 17 13
REMARK SMILES IDX 12 14 16 15 13 16 15 17 14 18 7 19 8 20 6 21 1 22 2 23 3 24
REMARK SMILES IDX 90 25 4 26 5 27 25 28 26 29 27 30 28 31 29 33 30 34 31 35
REMARK SMILES IDX 89 36 32 37 88 38 33 39 34 40 35 41 82 42 36 43 87 44 81 45
REMARK SMILES IDX 83 46 37 47 86 48 80 49 79 50 38 52 68 53 49 54 67 55 50 56
REMARK SMILES IDX 53 57 66 58 84 59 51 60 52 61 65 63 85 64 54 65 39 66 40 67
REMARK SMILES IDX 48 68 41 69 47 70 42 71 43 72 44 73 45 74 46 75 69 76 70 77
REMARK SMILES IDX 78 78 71 79 77 80 72 81 73 82 74 83 75 84 76 85 55 86 56 87
REMARK SMILES IDX 64 88 57 89 63 90 58 91 59 92 60 93 61 94 62 95
REMARK H PARENT 22 6 10 12 27 32 83 51 53 62
REMARK Flexibility Score: inf
ROOT
ATOM      1  C   UNL A   1      32.868  26.513  25.598  1.00  0.00     0.023 C 
ENDROOT
BRANCH   1   2
ATOM      2  C   UNL A   1      31.512  25.930  25.993  1.00  0.00     0.116 C 
BRANCH   2   3
ATOM      3  N   UNL A   1      31.614  24.825  26.921  1.00  0.00    -0.356 N 
ATOM      4  C   UNL A   1      32.201  23.604  26.746  1.00  0.00     0.224 C 
ATOM      5  O   UNL A   1      32.347  22.877  27.733  1.00  0.00    -0.275 OA
ATOM      6  H   UNL A   1      31.202  24.974  27.803  1.00  0.00     0.163 HD
BRANCH   4   7
ATOM      7  C   UNL A   1      32.777  23.202  25.399  1.00  0.00     0.138 C 
BRANCH   7   8
ATOM      8  C   UNL A   1      33.954  22.268  25.447  1.00  0.00    -0.002 A 
ATOM      9  C   UNL A   1      33.939  20.878  25.360  1.00  0.00     0.093 A 
ATOM     10  N   UNL A   1      35.245  20.448  25.392  1.00  0.00    -0.351 N 
ATOM     11  C   UNL A   1      36.101  21.500  25.596  1.00  0.00     0.049 A 
ATOM     12  H   UNL A   1      35.529  19.510  25.284  1.00  0.00     0.167 HD
ATOM     13  C   UNL A   1      35.322  22.657  25.649  1.00  0.00     0.004 A 
ATOM     14  C   UNL A   1      37.495  21.516  25.717  1.00  0.00     0.066 A 
ATOM     15  C   UNL A   1      35.974  23.895  25.845  1.00  0.00     0.013 A 
ATOM     16  C   UNL A   1      38.103  22.756  25.908  1.00  0.00     0.125 A 
ATOM     17  C   UNL A   1      37.368  23.930  25.974  1.00  0.00     0.040 A 
ATOM     18  F   UNL A   1      39.436  22.814  26.031  1.00  0.00    -0.207 F 
BRANCH   9  19
ATOM     19  C   UNL A   1      32.818  19.970  25.170  1.00  0.00     0.227 C 
ATOM     20  O   UNL A   1      31.661  20.370  25.215  1.00  0.00    -0.285 OA
BRANCH  19  21
ATOM     21  C   UNL A   1      33.118  18.523  24.869  1.00  0.00     0.113 A 
ATOM     22  C   UNL A   1      32.269  15.015  26.039  1.00  0.00     0.044 C 
ATOM     23  C   UNL A   1      32.875  16.163  25.289  1.00  0.00    -0.047 A 
ATOM     24  C   UNL A   1      33.760  15.931  24.236  1.00  0.00     0.023 A 
ATOM     25  C   UNL A   1      32.531  17.484  25.595  1.00  0.00     0.036 A 
ATOM     26  C   UNL A   1      34.286  17.018  23.556  1.00  0.00     0.112 A 
ATOM     27  N   UNL A   1      33.996  18.299  23.858  1.00  0.00    -0.253 NA
ENDBRANCH  19  21
ENDBRANCH   9  19
ENDBRANCH   7   8
ENDBRANCH   4   7
ENDBRANCH   2   3
ENDBRANCH   1   2
BRANCH   1  28
ATOM     28  C   UNL A   1      33.060  28.004  25.887  1.00  0.00     0.023 C 
BRANCH  28  29
ATOM     29  C   UNL A   1      34.052  28.352  26.995  1.00  0.00     0.116 C 
BRANCH  29  30
ATOM     30  N   UNL A   1      33.849  29.679  27.551  1.00  0.00    -0.352 N 
ATOM     31  C   UNL A   1      34.728  30.487  28.229  1.00  0.00     0.251 C 
ATOM     32  H   UNL A   1      32.948  30.055  27.423  1.00  0.00     0.163 HD
ATOM     33  O   UNL A   1      34.329  31.551  28.696  1.00  0.00    -0.269 OA
BRANCH  31  34
ATOM     34  C   UNL A   1      36.133  30.073  28.437  1.00  0.00     0.039 A 
ATOM     35  C   UNL A   1      37.017  30.167  27.355  1.00  0.00     0.014 A 
ATOM     36  C   UNL A   1      36.582  29.569  29.662  1.00  0.00     0.014 A 
ATOM     37  C   UNL A   1      38.359  29.818  27.517  1.00  0.00     0.010 A 
ATOM     38  C   UNL A   1      37.929  29.246  29.830  1.00  0.00     0.010 A 
ATOM     39  C   UNL A   1      38.828  29.377  28.762  1.00  0.00    -0.014 A 
BRANCH  39  40
ATOM     40  C   UNL A   1      40.262  29.071  28.969  1.00  0.00     0.031 A 
ATOM     41  C   UNL A   1      40.819  27.736  28.578  1.00  0.00     0.074 A 
ATOM     42  C   UNL A   1      41.056  29.983  29.559  1.00  0.00     0.049 A 
ATOM     43  N   UNL A   1      42.015  27.249  28.793  1.00  0.00    -0.248 NA
ATOM     44  C   UNL A   1      39.910  26.826  27.865  1.00  0.00     0.031 C 
ATOM     45  C   UNL A   1      40.635  31.314  30.000  1.00  0.00     0.029 A 
ATOM     46  N   UNL A   1      42.383  29.920  29.896  1.00  0.00    -0.354 N 
ATOM     47  C   UNL A   1      41.992  25.960  28.280  1.00  0.00     0.074 A 
ATOM     48  C   UNL A   1      40.670  25.748  27.725  1.00  0.00     0.031 C 
ATOM     49  C   UNL A   1      41.689  31.949  30.538  1.00  0.00     0.029 A 
ATOM     50  C   UNL A   1      42.849  31.061  30.500  1.00  0.00     0.049 A 
ATOM     51  H   UNL A   1      42.947  29.132  29.723  1.00  0.00     0.167 HD
ATOM     52  C   UNL A   1      42.978  25.030  28.280  1.00  0.00     0.031 A 
ATOM     53  C   UNL A   1      44.070  31.359  30.979  1.00  0.00     0.031 A 
ATOM     54  C   UNL A   1      44.302  25.239  28.796  1.00  0.00     0.049 A 
ATOM     55  C   UNL A   1      45.166  30.339  30.912  1.00  0.00     0.074 A 
ATOM     56  C   UNL A   1      45.366  24.355  28.834  1.00  0.00     0.029 A 
ATOM     57  N   UNL A   1      44.748  26.427  29.352  1.00  0.00    -0.354 N 
ATOM     58  N   UNL A   1      45.119  29.115  30.446  1.00  0.00    -0.248 NA
ATOM     59  C   UNL A   1      46.476  30.740  31.441  1.00  0.00     0.031 C 
ATOM     60  C   UNL A   1      46.463  25.014  29.410  1.00  0.00     0.029 A 
ATOM     61  C   UNL A   1      46.076  26.306  29.729  1.00  0.00     0.049 A 
ATOM     62  H   UNL A   1      44.202  27.238  29.464  1.00  0.00     0.167 HD
ATOM     63  C   UNL A   1      46.393  28.594  30.631  1.00  0.00     0.074 A 
ATOM     64  C   UNL A   1      47.190  29.639  31.243  1.00  0.00     0.031 C 
ATOM     65  C   UNL A   1      46.855  27.357  30.328  1.00  0.00     0.031 A 
BRANCH  52  66
ATOM     66  C   UNL A   1      42.619  23.689  27.713  1.00  0.00    -0.014 A 
ATOM     67  C   UNL A   1      42.107  22.675  28.541  1.00  0.00     0.010 A 
ATOM     68  C   UNL A   1      42.851  23.422  26.353  1.00  0.00     0.010 A 
ATOM     69  C   UNL A   1      41.881  21.395  28.027  1.00  0.00     0.020 A 
ATOM     70  C   UNL A   1      42.621  22.146  25.836  1.00  0.00     0.020 A 
ATOM     71  C   UNL A   1      42.161  21.134  26.683  1.00  0.00     0.054 A 
BRANCH  71  72
ATOM     72  S   UNL A   1      41.924  19.464  26.014  1.00  0.00     0.124 S 
ATOM     73  O   UNL A   1      42.336  18.631  27.142  1.00  0.00    -0.237 OA
ATOM     74  O   UNL A   1      40.500  19.422  25.695  1.00  0.00    -0.237 OA
ATOM     75  O   UNL A   1      42.817  19.441  24.858  1.00  0.00    -0.744 OA
ENDBRANCH  71  72
ENDBRANCH  52  66
BRANCH  53  76
ATOM     76  C   UNL A   1      44.305  32.700  31.567  1.00  0.00    -0.014 A 
ATOM     77  C   UNL A   1      44.543  33.801  30.728  1.00  0.00     0.010 A 
ATOM     78  C   UNL A   1      44.212  32.892  32.956  1.00  0.00     0.010 A 
ATOM     79  C   UNL A   1      44.671  35.082  31.268  1.00  0.00     0.020 A 
ATOM     80  C   UNL A   1      44.337  34.174  33.497  1.00  0.00     0.020 A 
ATOM     81  C   UNL A   1      44.565  35.262  32.649  1.00  0.00     0.054 A 
BRANCH  81  82
ATOM     82  S   UNL A   1      44.626  36.938  33.345  1.00  0.00     0.124 S 
ATOM     83  O   UNL A   1      43.245  37.381  33.186  1.00  0.00    -0.237 OA
ATOM     84  O   UNL A   1      45.061  36.709  34.721  1.00  0.00    -0.237 OA
ATOM     85  O   UNL A   1      45.608  37.610  32.497  1.00  0.00    -0.744 OA
ENDBRANCH  81  82
ENDBRANCH  53  76
BRANCH  65  86
ATOM     86  C   UNL A   1      48.293  27.079  30.653  1.00  0.00    -0.014 A 
ATOM     87  C   UNL A   1      49.302  27.396  29.728  1.00  0.00     0.010 A 
ATOM     88  C   UNL A   1      48.640  26.511  31.890  1.00  0.00     0.010 A 
ATOM     89  C   UNL A   1      50.641  27.130  30.028  1.00  0.00     0.020 A 
ATOM     90  C   UNL A   1      49.977  26.245  32.193  1.00  0.00     0.020 A 
ATOM     91  C   UNL A   1      50.969  26.545  31.254  1.00  0.00     0.054 A 
BRANCH  91  92
ATOM     92  S   UNL A   1      52.709  26.218  31.658  1.00  0.00     0.124 S 
ATOM     93  O   UNL A   1      53.323  26.180  30.334  1.00  0.00    -0.237 OA
ATOM     94  O   UNL A   1      53.081  27.360  32.490  1.00  0.00    -0.237 OA
ATOM     95  O   UNL A   1      52.652  24.939  32.361  1.00  0.00    -0.744 OA
ENDBRANCH  91  92
ENDBRANCH  65  86
ENDBRANCH  39  40
ENDBRANCH  31  34
ENDBRANCH  29  30
ENDBRANCH  28  29
ENDBRANCH   1  28
TORSDOF 17
ENDMDL
