MODEL 1
REMARK VINA RESULT:     -13.1      0.000      0.000
REMARK SMILES O=C(COc1ccccc1/C=C1/SC(=O)N(c2ccc(F)cc2)C1=O)NCCCCNC(=O)c1ccc(-c2c3nc(c(-c4ccc(S(=O)(=O)[O-])cc4)c4ccc([nH]4)c(-c4ccc(S(=O)(=O)[O-])cc4)c4nc(c(-c5ccc(S(=O)(=O)[O-])cc5)c5ccc2[nH]5)C=C4)C=C3)cc1
REMARK SMILES IDX 28 1 27 2 26 3 1 4 2 5 3 7 4 8 5 9 6 10 10 11 7 12 9 13 8 14
REMARK SMILES IDX 11 15 12 16 13 17 24 18 14 19 16 20 25 21 15 22 17 23 18 24
REMARK SMILES IDX 23 25 19 26 22 27 20 28 21 29 29 30 30 31 31 32 32 33 33 35
REMARK SMILES IDX 34 36 35 37 93 38 36 39 92 40 37 41 38 42 39 43 86 44 40 45
REMARK SMILES IDX 91 46 85 47 87 48 41 49 90 50 84 51 83 52 42 54 72 55 53 56
REMARK SMILES IDX 71 57 54 58 57 59 70 60 88 61 55 62 56 63 69 65 89 66 58 67
REMARK SMILES IDX 43 68 44 69 52 70 45 71 51 72 46 73 47 74 48 75 49 76 50 77
REMARK SMILES IDX 73 78 74 79 82 80 75 81 81 82 76 83 77 84 78 85 79 86 80 87
REMARK SMILES IDX 59 88 60 89 68 90 61 91 67 92 62 93 63 94 64 95 65 96 66 97
REMARK H PARENT 26 6 31 34 87 53 57 64
REMARK Flexibility Score: inf
ROOT
ATOM      1  C   UNL A   1      33.217  28.979  27.513  1.00  0.00     0.023 C 
ENDROOT
BRANCH   1   2
ATOM      2  C   UNL A   1      31.972  29.386  26.409  1.00  0.00     0.116 C 
BRANCH   2   3
ATOM      3  N   UNL A   1      31.633  28.739  24.430  1.00  0.00    -0.353 N 
ATOM      4  O   UNL A   1      33.181  28.577  22.516  1.00  0.00    -0.271 OA
ATOM      5  C   UNL A   1      32.131  28.312  23.094  1.00  0.00     0.257 C 
ATOM      6  H   UNL A   1      30.653  28.702  24.349  1.00  0.00     0.163 HD
BRANCH   5   7
ATOM      7  C   UNL A   1      31.153  27.351  22.412  1.00  0.00     0.329 C 
BRANCH   7   8
ATOM      8  O   UNL A   1      31.538  25.995  22.523  1.00  0.00    -0.483 OA
BRANCH   8   9
ATOM      9  C   UNL A   1      31.528  25.437  23.782  1.00  0.00     0.127 A 
ATOM     10  C   UNL A   1      30.271  25.538  24.390  1.00  0.00     0.047 A 
ATOM     11  C   UNL A   1      32.662  25.052  24.546  1.00  0.00     0.018 A 
ATOM     12  C   UNL A   1      30.121  25.299  25.752  1.00  0.00     0.004 A 
ATOM     13  C   UNL A   1      32.489  24.828  25.920  1.00  0.00     0.012 A 
ATOM     14  C   UNL A   1      31.233  24.966  26.519  1.00  0.00     0.001 A 
BRANCH  11  15
ATOM     15  C   UNL A   1      34.048  24.958  24.044  1.00  0.00     0.033 C 
ATOM     16  C   UNL A   1      34.508  23.778  23.583  1.00  0.00     0.084 C 
ATOM     17  S   UNL A   1      36.701  23.294  24.013  1.00  0.00    -0.022 SA
ATOM     18  C   UNL A   1      33.387  22.172  23.755  1.00  0.00     0.272 C 
ATOM     19  C   UNL A   1      36.159  21.116  24.703  1.00  0.00     0.298 C 
ATOM     20  N   UNL A   1      34.404  20.795  24.359  1.00  0.00    -0.236 N 
ATOM     21  O   UNL A   1      32.218  22.126  23.402  1.00  0.00    -0.268 OA
ATOM     22  O   UNL A   1      37.012  20.426  25.238  1.00  0.00    -0.260 OA
BRANCH  20  23
ATOM     23  C   UNL A   1      33.783  19.526  24.607  1.00  0.00     0.053 A 
ATOM     24  C   UNL A   1      33.250  19.233  25.875  1.00  0.00     0.030 A 
ATOM     25  C   UNL A   1      33.659  18.560  23.603  1.00  0.00     0.030 A 
ATOM     26  C   UNL A   1      32.603  18.024  26.135  1.00  0.00     0.041 A 
ATOM     27  C   UNL A   1      33.014  17.342  23.864  1.00  0.00     0.041 A 
ATOM     28  C   UNL A   1      32.490  17.087  25.125  1.00  0.00     0.123 A 
ATOM     29  F   UNL A   1      31.867  15.928  25.369  1.00  0.00    -0.207 F 
ENDBRANCH  20  23
ENDBRANCH  11  15
ENDBRANCH   8   9
ENDBRANCH   7   8
ENDBRANCH   5   7
ENDBRANCH   2   3
ENDBRANCH   1   2
BRANCH   1  30
ATOM     30  C   UNL A   1      34.652  28.860  26.983  1.00  0.00     0.023 C 
BRANCH  30  31
ATOM     31  C   UNL A   1      35.671  29.789  27.621  1.00  0.00     0.116 C 
BRANCH  31  32
ATOM     32  N   UNL A   1      35.438  29.996  29.037  1.00  0.00    -0.352 N 
ATOM     33  C   UNL A   1      36.370  29.876  30.044  1.00  0.00     0.251 C 
ATOM     34  H   UNL A   1      34.525  30.246  29.306  1.00  0.00     0.163 HD
ATOM     35  O   UNL A   1      36.039  29.925  31.222  1.00  0.00    -0.269 OA
BRANCH  33  36
ATOM     36  C   UNL A   1      37.780  29.652  29.658  1.00  0.00     0.039 A 
ATOM     37  C   UNL A   1      38.679  29.173  30.611  1.00  0.00     0.014 A 
ATOM     38  C   UNL A   1      38.170  29.811  28.323  1.00  0.00     0.014 A 
ATOM     39  C   UNL A   1      39.970  28.822  30.215  1.00  0.00     0.010 A 
ATOM     40  C   UNL A   1      39.427  29.375  27.919  1.00  0.00     0.010 A 
ATOM     41  C   UNL A   1      40.350  28.899  28.863  1.00  0.00    -0.014 A 
BRANCH  41  42
ATOM     42  C   UNL A   1      41.724  28.536  28.431  1.00  0.00     0.031 A 
ATOM     43  C   UNL A   1      42.800  29.593  28.402  1.00  0.00     0.074 A 
ATOM     44  C   UNL A   1      42.004  27.276  28.042  1.00  0.00     0.049 A 
ATOM     45  N   UNL A   1      44.058  29.482  28.061  1.00  0.00    -0.248 NA
ATOM     46  C   UNL A   1      42.403  30.961  28.781  1.00  0.00     0.031 C 
ATOM     47  C   UNL A   1      41.043  26.172  27.981  1.00  0.00     0.029 A 
ATOM     48  N   UNL A   1      43.185  26.707  27.632  1.00  0.00    -0.354 N 
ATOM     49  C   UNL A   1      44.591  30.762  28.162  1.00  0.00     0.074 A 
ATOM     50  C   UNL A   1      43.510  31.644  28.536  1.00  0.00     0.031 C 
ATOM     51  C   UNL A   1      41.681  25.052  27.604  1.00  0.00     0.029 A 
ATOM     52  C   UNL A   1      43.086  25.362  27.356  1.00  0.00     0.049 A 
ATOM     53  H   UNL A   1      44.024  27.214  27.544  1.00  0.00     0.167 HD
ATOM     54  C   UNL A   1      45.872  31.166  27.988  1.00  0.00     0.031 A 
ATOM     55  C   UNL A   1      44.022  24.480  26.954  1.00  0.00     0.031 A 
ATOM     56  C   UNL A   1      46.949  30.281  27.639  1.00  0.00     0.049 A 
ATOM     57  C   UNL A   1      45.439  24.952  26.765  1.00  0.00     0.074 A 
ATOM     58  C   UNL A   1      48.295  30.577  27.505  1.00  0.00     0.029 A 
ATOM     59  N   UNL A   1      46.806  28.929  27.368  1.00  0.00    -0.354 N 
ATOM     60  N   UNL A   1      45.940  26.152  26.944  1.00  0.00    -0.248 NA
ATOM     61  C   UNL A   1      46.422  23.948  26.334  1.00  0.00     0.031 C 
ATOM     62  C   UNL A   1      48.955  29.416  27.094  1.00  0.00     0.029 A 
ATOM     63  C   UNL A   1      48.033  28.382  27.038  1.00  0.00     0.049 A 
ATOM     64  H   UNL A   1      45.956  28.433  27.404  1.00  0.00     0.167 HD
ATOM     65  C   UNL A   1      47.300  26.039  26.675  1.00  0.00     0.074 A 
ATOM     66  C   UNL A   1      47.545  24.652  26.337  1.00  0.00     0.031 C 
ATOM     67  C   UNL A   1      48.260  26.997  26.706  1.00  0.00     0.031 A 
BRANCH  54  68
ATOM     68  C   UNL A   1      46.171  32.632  28.168  1.00  0.00    -0.014 A 
ATOM     69  C   UNL A   1      46.056  33.539  27.098  1.00  0.00     0.010 A 
ATOM     70  C   UNL A   1      46.542  33.116  29.435  1.00  0.00     0.010 A 
ATOM     71  C   UNL A   1      46.351  34.892  27.281  1.00  0.00     0.020 A 
ATOM     72  C   UNL A   1      46.806  34.475  29.631  1.00  0.00     0.020 A 
ATOM     73  C   UNL A   1      46.727  35.351  28.547  1.00  0.00     0.054 A 
BRANCH  73  74
ATOM     74  S   UNL A   1      47.081  37.117  28.760  1.00  0.00     0.124 S 
ATOM     75  O   UNL A   1      48.456  37.208  28.275  1.00  0.00    -0.237 OA
ATOM     76  O   UNL A   1      46.074  37.750  27.913  1.00  0.00    -0.237 OA
ATOM     77  O   UNL A   1      46.913  37.336  30.194  1.00  0.00    -0.744 OA
ENDBRANCH  73  74
ENDBRANCH  54  68
BRANCH  55  78
ATOM     78  C   UNL A   1      43.656  23.053  26.728  1.00  0.00    -0.014 A 
ATOM     79  C   UNL A   1      42.996  22.316  27.729  1.00  0.00     0.010 A 
ATOM     80  C   UNL A   1      43.962  22.423  25.508  1.00  0.00     0.010 A 
ATOM     81  C   UNL A   1      42.665  20.973  27.522  1.00  0.00     0.020 A 
ATOM     82  C   UNL A   1      43.607  21.088  25.286  1.00  0.00     0.020 A 
ATOM     83  C   UNL A   1      42.971  20.368  26.299  1.00  0.00     0.054 A 
BRANCH  83  84
ATOM     84  S   UNL A   1      42.490  18.639  26.036  1.00  0.00     0.124 S 
ATOM     85  O   UNL A   1      41.081  18.765  25.679  1.00  0.00    -0.237 OA
ATOM     86  O   UNL A   1      43.383  18.225  24.957  1.00  0.00    -0.237 OA
ATOM     87  O   UNL A   1      42.754  18.010  27.329  1.00  0.00    -0.744 OA
ENDBRANCH  83  84
ENDBRANCH  55  78
BRANCH  67  88
ATOM     88  C   UNL A   1      49.674  26.576  26.403  1.00  0.00    -0.014 A 
ATOM     89  C   UNL A   1      50.223  26.729  25.119  1.00  0.00     0.010 A 
ATOM     90  C   UNL A   1      50.483  26.078  27.441  1.00  0.00     0.010 A 
ATOM     91  C   UNL A   1      51.549  26.361  24.871  1.00  0.00     0.020 A 
ATOM     92  C   UNL A   1      51.817  25.740  27.204  1.00  0.00     0.020 A 
ATOM     93  C   UNL A   1      52.337  25.871  25.917  1.00  0.00     0.054 A 
BRANCH  93  94
ATOM     94  S   UNL A   1      54.067  25.445  25.578  1.00  0.00     0.124 S 
ATOM     95  O   UNL A   1      54.440  26.452  24.589  1.00  0.00    -0.237 OA
ATOM     96  O   UNL A   1      54.695  25.589  26.889  1.00  0.00    -0.237 OA
ATOM     97  O   UNL A   1      53.996  24.075  25.075  1.00  0.00    -0.744 OA
ENDBRANCH  93  94
ENDBRANCH  67  88
ENDBRANCH  41  42
ENDBRANCH  33  36
ENDBRANCH  31  32
ENDBRANCH  30  31
ENDBRANCH   1  30
TORSDOF 18
ENDMDL
MODEL 2
REMARK VINA RESULT:     -12.8      6.336     12.296
REMARK SMILES O=C(COc1ccccc1/C=C1/SC(=O)N(c2ccc(F)cc2)C1=O)NCCCCNC(=O)c1ccc(-c2c3nc(c(-c4ccc(S(=O)(=O)[O-])cc4)c4ccc([nH]4)c(-c4ccc(S(=O)(=O)[O-])cc4)c4nc(c(-c5ccc(S(=O)(=O)[O-])cc5)c5ccc2[nH]5)C=C4)C=C3)cc1
REMARK SMILES IDX 28 1 27 2 26 3 1 4 2 5 3 7 4 8 5 9 6 10 10 11 7 12 9 13 8 14
REMARK SMILES IDX 11 15 12 16 13 17 24 18 14 19 16 20 25 21 15 22 17 23 18 24
REMARK SMILES IDX 23 25 19 26 22 27 20 28 21 29 29 30 30 31 31 32 32 33 33 35
REMARK SMILES IDX 34 36 35 37 93 38 36 39 92 40 37 41 38 42 39 43 86 44 40 45
REMARK SMILES IDX 91 46 85 47 87 48 41 49 90 50 84 51 83 52 42 54 72 55 53 56
REMARK SMILES IDX 71 57 54 58 57 59 70 60 88 61 55 62 56 63 69 65 89 66 58 67
REMARK SMILES IDX 43 68 44 69 52 70 45 71 51 72 46 73 47 74 48 75 49 76 50 77
REMARK SMILES IDX 73 78 74 79 82 80 75 81 81 82 76 83 77 84 78 85 79 86 80 87
REMARK SMILES IDX 59 88 60 89 68 90 61 91 67 92 62 93 63 94 64 95 65 96 66 97
REMARK H PARENT 26 6 31 34 87 53 57 64
REMARK Flexibility Score: inf
ROOT
ATOM      1  C   UNL A   1      46.000  22.823  25.372  1.00  0.00     0.023 C 
ENDROOT
BRANCH   1   2
ATOM      2  C   UNL A   1      45.298  21.290  25.675  1.00  0.00     0.116 C 
BRANCH   2   3
ATOM      3  N   UNL A   1      43.276  20.728  25.882  1.00  0.00    -0.353 N 
ATOM      4  O   UNL A   1      42.213  18.506  25.747  1.00  0.00    -0.271 OA
ATOM      5  C   UNL A   1      42.220  19.694  26.059  1.00  0.00     0.257 C 
ATOM      6  H   UNL A   1      42.781  21.578  25.841  1.00  0.00     0.163 HD
BRANCH   5   7
ATOM      7  C   UNL A   1      41.003  20.255  26.797  1.00  0.00     0.329 C 
BRANCH   7   8
ATOM      8  O   UNL A   1      39.876  20.427  25.961  1.00  0.00    -0.483 OA
BRANCH   8   9
ATOM      9  C   UNL A   1      39.239  21.647  26.003  1.00  0.00     0.127 A 
ATOM     10  C   UNL A   1      40.090  22.667  26.447  1.00  0.00     0.047 A 
ATOM     11  C   UNL A   1      37.841  21.877  25.903  1.00  0.00     0.018 A 
ATOM     12  C   UNL A   1      39.576  23.901  26.830  1.00  0.00     0.004 A 
ATOM     13  C   UNL A   1      37.345  23.125  26.308  1.00  0.00     0.012 A 
ATOM     14  C   UNL A   1      38.204  24.122  26.781  1.00  0.00     0.001 A 
BRANCH  11  15
ATOM     15  C   UNL A   1      36.830  20.877  25.503  1.00  0.00     0.033 C 
ATOM     16  C   UNL A   1      35.904  21.204  24.580  1.00  0.00     0.084 C 
ATOM     17  S   UNL A   1      33.810  20.333  24.873  1.00  0.00    -0.022 SA
ATOM     18  C   UNL A   1      35.809  23.054  23.921  1.00  0.00     0.272 C 
ATOM     19  C   UNL A   1      32.807  22.413  24.447  1.00  0.00     0.298 C 
ATOM     20  N   UNL A   1      34.075  23.588  23.885  1.00  0.00    -0.236 N 
ATOM     21  O   UNL A   1      36.780  23.675  23.515  1.00  0.00    -0.268 OA
ATOM     22  O   UNL A   1      31.614  22.558  24.656  1.00  0.00    -0.260 OA
BRANCH  20  23
ATOM     23  C   UNL A   1      33.766  24.929  23.481  1.00  0.00     0.053 A 
ATOM     24  C   UNL A   1      33.235  25.179  22.203  1.00  0.00     0.030 A 
ATOM     25  C   UNL A   1      33.949  26.017  24.341  1.00  0.00     0.030 A 
ATOM     26  C   UNL A   1      32.885  26.468  21.795  1.00  0.00     0.041 A 
ATOM     27  C   UNL A   1      33.604  27.313  23.930  1.00  0.00     0.041 A 
ATOM     28  C   UNL A   1      33.073  27.526  22.665  1.00  0.00     0.123 A 
ATOM     29  F   UNL A   1      32.735  28.762  22.279  1.00  0.00    -0.207 F 
ENDBRANCH  20  23
ENDBRANCH  11  15
ENDBRANCH   8   9
ENDBRANCH   7   8
ENDBRANCH   5   7
ENDBRANCH   2   3
ENDBRANCH   1   2
BRANCH   1  30
ATOM     30  C   UNL A   1      46.243  23.762  26.561  1.00  0.00     0.023 C 
BRANCH  30  31
ATOM     31  C   UNL A   1      45.072  24.648  26.953  1.00  0.00     0.116 C 
BRANCH  31  32
ATOM     32  N   UNL A   1      44.229  25.000  25.827  1.00  0.00    -0.352 N 
ATOM     33  C   UNL A   1      43.137  25.839  25.856  1.00  0.00     0.251 C 
ATOM     34  H   UNL A   1      44.458  24.601  24.957  1.00  0.00     0.163 HD
ATOM     35  O   UNL A   1      42.402  25.955  24.883  1.00  0.00    -0.269 OA
BRANCH  33  36
ATOM     36  C   UNL A   1      42.860  26.571  27.110  1.00  0.00     0.039 A 
ATOM     37  C   UNL A   1      43.382  27.853  27.280  1.00  0.00     0.014 A 
ATOM     38  C   UNL A   1      41.990  26.022  28.059  1.00  0.00     0.014 A 
ATOM     39  C   UNL A   1      43.004  28.602  28.395  1.00  0.00     0.010 A 
ATOM     40  C   UNL A   1      41.548  26.806  29.119  1.00  0.00     0.010 A 
ATOM     41  C   UNL A   1      42.067  28.095  29.312  1.00  0.00    -0.014 A 
BRANCH  41  42
ATOM     42  C   UNL A   1      41.662  28.880  30.508  1.00  0.00     0.031 A 
ATOM     43  C   UNL A   1      42.468  28.771  31.778  1.00  0.00     0.074 A 
ATOM     44  C   UNL A   1      40.567  29.665  30.467  1.00  0.00     0.049 A 
ATOM     45  N   UNL A   1      42.285  29.371  32.926  1.00  0.00    -0.248 NA
ATOM     46  C   UNL A   1      43.614  27.844  31.766  1.00  0.00     0.031 C 
ATOM     47  C   UNL A   1      39.678  29.823  29.314  1.00  0.00     0.029 A 
ATOM     48  N   UNL A   1      40.020  30.488  31.419  1.00  0.00    -0.354 N 
ATOM     49  C   UNL A   1      43.274  28.879  33.771  1.00  0.00     0.074 A 
ATOM     50  C   UNL A   1      44.014  27.888  33.027  1.00  0.00     0.031 C 
ATOM     51  C   UNL A   1      38.726  30.722  29.612  1.00  0.00     0.029 A 
ATOM     52  C   UNL A   1      38.909  31.176  30.987  1.00  0.00     0.049 A 
ATOM     53  H   UNL A   1      40.388  30.578  32.328  1.00  0.00     0.167 HD
ATOM     54  C   UNL A   1      43.559  29.240  35.045  1.00  0.00     0.031 A 
ATOM     55  C   UNL A   1      38.131  32.072  31.625  1.00  0.00     0.031 A 
ATOM     56  C   UNL A   1      42.835  30.244  35.775  1.00  0.00     0.049 A 
ATOM     57  C   UNL A   1      38.467  32.456  33.042  1.00  0.00     0.074 A 
ATOM     58  C   UNL A   1      43.086  30.731  37.045  1.00  0.00     0.029 A 
ATOM     59  N   UNL A   1      41.717  30.913  35.300  1.00  0.00    -0.354 N 
ATOM     60  N   UNL A   1      39.456  32.039  33.797  1.00  0.00    -0.248 NA
ATOM     61  C   UNL A   1      37.591  33.443  33.688  1.00  0.00     0.031 C 
ATOM     62  C   UNL A   1      42.084  31.652  37.362  1.00  0.00     0.029 A 
ATOM     63  C   UNL A   1      41.249  31.789  36.264  1.00  0.00     0.049 A 
ATOM     64  H   UNL A   1      41.317  30.784  34.410  1.00  0.00     0.167 HD
ATOM     65  C   UNL A   1      39.337  32.733  34.996  1.00  0.00     0.074 A 
ATOM     66  C   UNL A   1      38.190  33.609  34.858  1.00  0.00     0.031 C 
ATOM     67  C   UNL A   1      40.107  32.656  36.109  1.00  0.00     0.031 A 
BRANCH  54  68
ATOM     68  C   UNL A   1      44.704  28.536  35.728  1.00  0.00    -0.014 A 
ATOM     69  C   UNL A   1      46.007  29.066  35.706  1.00  0.00     0.010 A 
ATOM     70  C   UNL A   1      44.467  27.341  36.431  1.00  0.00     0.010 A 
ATOM     71  C   UNL A   1      47.058  28.392  36.333  1.00  0.00     0.020 A 
ATOM     72  C   UNL A   1      45.508  26.680  37.088  1.00  0.00     0.020 A 
ATOM     73  C   UNL A   1      46.802  27.202  37.018  1.00  0.00     0.054 A 
BRANCH  73  74
ATOM     74  S   UNL A   1      48.181  26.361  37.843  1.00  0.00     0.124 S 
ATOM     75  O   UNL A   1      48.292  27.116  39.089  1.00  0.00    -0.237 OA
ATOM     76  O   UNL A   1      47.686  24.994  37.981  1.00  0.00    -0.237 OA
ATOM     77  O   UNL A   1      49.296  26.527  36.915  1.00  0.00    -0.744 OA
ENDBRANCH  73  74
ENDBRANCH  54  68
BRANCH  55  78
ATOM     78  C   UNL A   1      36.971  32.690  30.921  1.00  0.00    -0.014 A 
ATOM     79  C   UNL A   1      37.122  33.900  30.219  1.00  0.00     0.010 A 
ATOM     80  C   UNL A   1      35.709  32.070  30.945  1.00  0.00     0.010 A 
ATOM     81  C   UNL A   1      36.031  34.486  29.570  1.00  0.00     0.020 A 
ATOM     82  C   UNL A   1      34.622  32.638  30.273  1.00  0.00     0.020 A 
ATOM     83  C   UNL A   1      34.787  33.849  29.600  1.00  0.00     0.054 A 
BRANCH  83  84
ATOM     84  S   UNL A   1      33.397  34.605  28.712  1.00  0.00     0.124 S 
ATOM     85  O   UNL A   1      32.977  33.523  27.827  1.00  0.00    -0.237 OA
ATOM     86  O   UNL A   1      32.474  34.934  29.794  1.00  0.00    -0.237 OA
ATOM     87  O   UNL A   1      34.002  35.757  28.047  1.00  0.00    -0.744 OA
ENDBRANCH  83  84
ENDBRANCH  55  78
BRANCH  67  88
ATOM     88  C   UNL A   1      39.763  33.566  37.259  1.00  0.00    -0.014 A 
ATOM     89  C   UNL A   1      38.853  33.174  38.256  1.00  0.00     0.010 A 
ATOM     90  C   UNL A   1      40.413  34.809  37.373  1.00  0.00     0.010 A 
ATOM     91  C   UNL A   1      38.576  34.024  39.330  1.00  0.00     0.020 A 
ATOM     92  C   UNL A   1      40.162  35.646  38.462  1.00  0.00     0.020 A 
ATOM     93  C   UNL A   1      39.234  35.254  39.427  1.00  0.00     0.054 A 
BRANCH  93  94
ATOM     94  S   UNL A   1      38.891  36.316  40.856  1.00  0.00     0.124 S 
ATOM     95  O   UNL A   1      38.492  37.566  40.217  1.00  0.00    -0.237 OA
ATOM     96  O   UNL A   1      37.823  35.593  41.543  1.00  0.00    -0.237 OA
ATOM     97  O   UNL A   1      40.165  36.361  41.571  1.00  0.00    -0.744 OA
ENDBRANCH  93  94
ENDBRANCH  67  88
ENDBRANCH  41  42
ENDBRANCH  33  36
ENDBRANCH  31  32
ENDBRANCH  30  31
ENDBRANCH   1  30
TORSDOF 18
ENDMDL
MODEL 3
REMARK VINA RESULT:     -12.7      5.025      5.912
REMARK SMILES O=C(COc1ccccc1/C=C1/SC(=O)N(c2ccc(F)cc2)C1=O)NCCCCNC(=O)c1ccc(-c2c3nc(c(-c4ccc(S(=O)(=O)[O-])cc4)c4ccc([nH]4)c(-c4ccc(S(=O)(=O)[O-])cc4)c4nc(c(-c5ccc(S(=O)(=O)[O-])cc5)c5ccc2[nH]5)C=C4)C=C3)cc1
REMARK SMILES IDX 28 1 27 2 26 3 1 4 2 5 3 7 4 8 5 9 6 10 10 11 7 12 9 13 8 14
REMARK SMILES IDX 11 15 12 16 13 17 24 18 14 19 16 20 25 21 15 22 17 23 18 24
REMARK SMILES IDX 23 25 19 26 22 27 20 28 21 29 29 30 30 31 31 32 32 33 33 35
REMARK SMILES IDX 34 36 35 37 93 38 36 39 92 40 37 41 38 42 39 43 86 44 40 45
REMARK SMILES IDX 91 46 85 47 87 48 41 49 90 50 84 51 83 52 42 54 72 55 53 56
REMARK SMILES IDX 71 57 54 58 57 59 70 60 88 61 55 62 56 63 69 65 89 66 58 67
REMARK SMILES IDX 43 68 44 69 52 70 45 71 51 72 46 73 47 74 48 75 49 76 50 77
REMARK SMILES IDX 73 78 74 79 82 80 75 81 81 82 76 83 77 84 78 85 79 86 80 87
REMARK SMILES IDX 59 88 60 89 68 90 61 91 67 92 62 93 63 94 64 95 65 96 66 97
REMARK H PARENT 26 6 31 34 87 53 57 64
REMARK Flexibility Score: inf
ROOT
ATOM      1  C   UNL A   1      31.969  29.358  26.961  1.00  0.00     0.023 C 
ENDROOT
BRANCH   1   2
ATOM      2  C   UNL A   1      31.524  29.716  25.346  1.00  0.00     0.116 C 
BRANCH   2   3
ATOM      3  N   UNL A   1      31.571  28.511  23.615  1.00  0.00    -0.353 N 
ATOM      4  O   UNL A   1      33.478  27.763  22.241  1.00  0.00    -0.271 OA
ATOM      5  C   UNL A   1      32.309  27.697  22.612  1.00  0.00     0.257 C 
ATOM      6  H   UNL A   1      30.631  28.465  23.324  1.00  0.00     0.163 HD
BRANCH   5   7
ATOM      7  C   UNL A   1      31.427  26.590  22.029  1.00  0.00     0.329 C 
BRANCH   7   8
ATOM      8  O   UNL A   1      31.860  25.291  22.381  1.00  0.00    -0.483 OA
BRANCH   8   9
ATOM      9  C   UNL A   1      31.846  24.962  23.719  1.00  0.00     0.127 A 
ATOM     10  C   UNL A   1      30.564  25.064  24.270  1.00  0.00     0.047 A 
ATOM     11  C   UNL A   1      32.978  24.811  24.564  1.00  0.00     0.018 A 
ATOM     12  C   UNL A   1      30.383  25.055  25.649  1.00  0.00     0.004 A 
ATOM     13  C   UNL A   1      32.772  24.817  25.951  1.00  0.00     0.012 A 
ATOM     14  C   UNL A   1      31.488  24.954  26.488  1.00  0.00     0.001 A 
BRANCH  11  15
ATOM     15  C   UNL A   1      34.384  24.746  24.118  1.00  0.00     0.033 C 
ATOM     16  C   UNL A   1      34.894  23.570  23.701  1.00  0.00     0.084 C 
ATOM     17  S   UNL A   1      37.081  23.156  24.225  1.00  0.00    -0.022 SA
ATOM     18  C   UNL A   1      33.811  21.937  23.864  1.00  0.00     0.272 C 
ATOM     19  C   UNL A   1      36.571  20.978  24.941  1.00  0.00     0.298 C 
ATOM     20  N   UNL A   1      34.840  20.602  24.537  1.00  0.00    -0.236 N 
ATOM     21  O   UNL A   1      32.658  21.851  23.468  1.00  0.00    -0.268 OA
ATOM     22  O   UNL A   1      37.421  20.324  25.524  1.00  0.00    -0.260 OA
BRANCH  20  23
ATOM     23  C   UNL A   1      34.245  19.321  24.788  1.00  0.00     0.053 A 
ATOM     24  C   UNL A   1      33.074  19.223  25.561  1.00  0.00     0.030 A 
ATOM     25  C   UNL A   1      34.781  18.144  24.256  1.00  0.00     0.030 A 
ATOM     26  C   UNL A   1      32.447  17.996  25.787  1.00  0.00     0.041 A 
ATOM     27  C   UNL A   1      34.156  16.910  24.488  1.00  0.00     0.041 A 
ATOM     28  C   UNL A   1      32.995  16.847  25.248  1.00  0.00     0.123 A 
ATOM     29  F   UNL A   1      32.396  15.671  25.460  1.00  0.00    -0.207 F 
ENDBRANCH  20  23
ENDBRANCH  11  15
ENDBRANCH   8   9
ENDBRANCH   7   8
ENDBRANCH   5   7
ENDBRANCH   2   3
ENDBRANCH   1   2
BRANCH   1  30
ATOM     30  C   UNL A   1      33.307  28.648  27.209  1.00  0.00     0.023 C 
BRANCH  30  31
ATOM     31  C   UNL A   1      34.516  29.554  27.370  1.00  0.00     0.116 C 
BRANCH  31  32
ATOM     32  N   UNL A   1      34.184  30.841  27.950  1.00  0.00    -0.352 N 
ATOM     33  C   UNL A   1      34.889  31.501  28.932  1.00  0.00     0.251 C 
ATOM     34  H   UNL A   1      33.375  31.288  27.609  1.00  0.00     0.163 HD
ATOM     35  O   UNL A   1      34.444  32.512  29.459  1.00  0.00    -0.269 OA
BRANCH  33  36
ATOM     36  C   UNL A   1      36.186  30.929  29.353  1.00  0.00     0.039 A 
ATOM     37  C   UNL A   1      37.368  31.520  28.907  1.00  0.00     0.014 A 
ATOM     38  C   UNL A   1      36.217  29.881  30.280  1.00  0.00     0.014 A 
ATOM     39  C   UNL A   1      38.588  31.077  29.419  1.00  0.00     0.010 A 
ATOM     40  C   UNL A   1      37.427  29.505  30.852  1.00  0.00     0.010 A 
ATOM     41  C   UNL A   1      38.629  30.082  30.411  1.00  0.00    -0.014 A 
BRANCH  41  42
ATOM     42  C   UNL A   1      39.922  29.595  30.957  1.00  0.00     0.031 A 
ATOM     43  C   UNL A   1      40.491  30.230  32.201  1.00  0.00     0.074 A 
ATOM     44  C   UNL A   1      40.597  28.609  30.332  1.00  0.00     0.049 A 
ATOM     45  N   UNL A   1      41.599  29.951  32.838  1.00  0.00    -0.248 NA
ATOM     46  C   UNL A   1      39.728  31.344  32.792  1.00  0.00     0.031 C 
ATOM     47  C   UNL A   1      40.176  27.943  29.097  1.00  0.00     0.029 A 
ATOM     48  N   UNL A   1      41.777  27.987  30.656  1.00  0.00    -0.354 N 
ATOM     49  C   UNL A   1      41.675  30.864  33.884  1.00  0.00     0.074 A 
ATOM     50  C   UNL A   1      40.536  31.744  33.761  1.00  0.00     0.031 C 
ATOM     51  C   UNL A   1      41.060  26.978  28.795  1.00  0.00     0.029 A 
ATOM     52  C   UNL A   1      42.130  26.980  29.788  1.00  0.00     0.049 A 
ATOM     53  H   UNL A   1      42.321  28.239  31.437  1.00  0.00     0.167 HD
ATOM     54  C   UNL A   1      42.593  30.948  34.875  1.00  0.00     0.031 A 
ATOM     55  C   UNL A   1      43.192  26.150  29.794  1.00  0.00     0.031 A 
ATOM     56  C   UNL A   1      43.712  30.055  35.007  1.00  0.00     0.049 A 
ATOM     57  C   UNL A   1      44.202  26.263  30.906  1.00  0.00     0.074 A 
ATOM     58  C   UNL A   1      44.662  30.011  36.012  1.00  0.00     0.029 A 
ATOM     59  N   UNL A   1      44.032  29.051  34.106  1.00  0.00    -0.354 N 
ATOM     60  N   UNL A   1      44.212  27.081  31.931  1.00  0.00    -0.248 NA
ATOM     61  C   UNL A   1      45.335  25.329  30.869  1.00  0.00     0.031 C 
ATOM     62  C   UNL A   1      45.591  29.019  35.687  1.00  0.00     0.029 A 
ATOM     63  C   UNL A   1      45.183  28.400  34.516  1.00  0.00     0.049 A 
ATOM     64  H   UNL A   1      43.518  28.834  33.295  1.00  0.00     0.167 HD
ATOM     65  C   UNL A   1      45.336  26.742  32.676  1.00  0.00     0.074 A 
ATOM     66  C   UNL A   1      45.971  25.634  31.992  1.00  0.00     0.031 C 
ATOM     67  C   UNL A   1      45.800  27.296  33.823  1.00  0.00     0.031 A 
BRANCH  54  68
ATOM     68  C   UNL A   1      42.424  32.048  35.891  1.00  0.00    -0.014 A 
ATOM     69  C   UNL A   1      41.614  31.875  37.029  1.00  0.00     0.010 A 
ATOM     70  C   UNL A   1      43.111  33.264  35.722  1.00  0.00     0.010 A 
ATOM     71  C   UNL A   1      41.459  32.912  37.952  1.00  0.00     0.020 A 
ATOM     72  C   UNL A   1      42.985  34.292  36.660  1.00  0.00     0.020 A 
ATOM     73  C   UNL A   1      42.144  34.115  37.761  1.00  0.00     0.054 A 
BRANCH  73  74
ATOM     74  S   UNL A   1      41.941  35.434  38.988  1.00  0.00     0.124 S 
ATOM     75  O   UNL A   1      41.866  34.676  40.235  1.00  0.00    -0.237 OA
ATOM     76  O   UNL A   1      43.154  36.227  38.809  1.00  0.00    -0.237 OA
ATOM     77  O   UNL A   1      40.702  36.096  38.588  1.00  0.00    -0.744 OA
ENDBRANCH  73  74
ENDBRANCH  54  68
BRANCH  55  78
ATOM     78  C   UNL A   1      43.342  25.121  28.727  1.00  0.00    -0.014 A 
ATOM     79  C   UNL A   1      44.157  25.366  27.606  1.00  0.00     0.010 A 
ATOM     80  C   UNL A   1      42.675  23.887  28.826  1.00  0.00     0.010 A 
ATOM     81  C   UNL A   1      44.286  24.406  26.597  1.00  0.00     0.020 A 
ATOM     82  C   UNL A   1      42.825  22.912  27.835  1.00  0.00     0.020 A 
ATOM     83  C   UNL A   1      43.621  23.182  26.720  1.00  0.00     0.054 A 
BRANCH  83  84
ATOM     84  S   UNL A   1      43.842  21.934  25.423  1.00  0.00     0.124 S 
ATOM     85  O   UNL A   1      43.089  20.803  25.957  1.00  0.00    -0.237 OA
ATOM     86  O   UNL A   1      43.260  22.588  24.254  1.00  0.00    -0.237 OA
ATOM     87  O   UNL A   1      45.291  21.750  25.368  1.00  0.00    -0.744 OA
ENDBRANCH  83  84
ENDBRANCH  55  78
BRANCH  67  88
ATOM     88  C   UNL A   1      47.036  26.693  34.438  1.00  0.00    -0.014 A 
ATOM     89  C   UNL A   1      48.317  27.183  34.135  1.00  0.00     0.010 A 
ATOM     90  C   UNL A   1      46.901  25.659  35.383  1.00  0.00     0.010 A 
ATOM     91  C   UNL A   1      49.446  26.627  34.744  1.00  0.00     0.020 A 
ATOM     92  C   UNL A   1      48.025  25.123  36.017  1.00  0.00     0.020 A 
ATOM     93  C   UNL A   1      49.291  25.602  35.683  1.00  0.00     0.054 A 
BRANCH  93  94
ATOM     94  S   UNL A   1      50.769  24.931  36.492  1.00  0.00     0.124 S 
ATOM     95  O   UNL A   1      51.749  24.961  35.411  1.00  0.00    -0.237 OA
ATOM     96  O   UNL A   1      51.000  25.883  37.577  1.00  0.00    -0.237 OA
ATOM     97  O   UNL A   1      50.356  23.596  36.921  1.00  0.00    -0.744 OA
ENDBRANCH  93  94
ENDBRANCH  67  88
ENDBRANCH  41  42
ENDBRANCH  33  36
ENDBRANCH  31  32
ENDBRANCH  30  31
ENDBRANCH   1  30
TORSDOF 18
ENDMDL
