MODEL 1
REMARK VINA RESULT:     -12.0      0.000      0.000
REMARK SMILES CS(=O)(=O)c1ccc(C2=NN(c3ccc(C(=O)NCCCCNC(=O)c4ccc(-c5c6nc(c(-c7ccc(S(=O)(=O)[O-])cc7)c7ccc([nH]7)c(-c7ccc(S(=O)(=O)[O-])cc7)c7nc(c(-c8ccc(S(=O)(=O)[O-])cc8)c8ccc5[nH]8)C=C7)C=C6)cc4)cc3)[C@H](c3ccccc3)C2)cc1
REMARK SMILES IDX 20 1 19 2 18 3 16 4 17 5 15 7 12 8 13 9 87 10 14 11 86 12
REMARK SMILES IDX 11 13 9 14 10 15 95 16 88 17 8 18 5 19 6 20 97 21 7 22 96 23
REMARK SMILES IDX 2 24 1 25 3 26 4 27 89 28 90 29 94 30 91 31 93 32 92 33
REMARK SMILES IDX 21 34 22 35 23 36 24 37 25 39 26 40 27 41 85 42 28 43 84 44
REMARK SMILES IDX 29 45 30 46 31 47 78 48 32 49 83 50 77 51 79 52 33 53 82 54
REMARK SMILES IDX 76 55 75 56 34 58 64 59 45 60 63 61 46 62 49 63 62 64 80 65
REMARK SMILES IDX 47 66 48 67 61 69 81 70 50 71 35 72 36 73 44 74 37 75 43 76
REMARK SMILES IDX 38 77 39 78 40 79 41 80 42 81 65 82 66 83 74 84 67 85 73 86
REMARK SMILES IDX 68 87 69 88 70 89 71 90 72 91 51 92 52 93 60 94 53 95 59 96
REMARK SMILES IDX 54 97 55 98 56 99 57 100 58 101
REMARK H PARENT 18 6 23 38 79 57 49 68
REMARK Flexibility Score: inf
ROOT
ATOM      1  C   UNL A   1      40.446  25.765  26.584  1.00  0.00     0.023 C 
ENDROOT
BRANCH   1   2
ATOM      2  C   UNL A   1      39.201  24.901  26.803  1.00  0.00     0.116 C 
BRANCH   2   3
ATOM      3  N   UNL A   1      39.463  23.511  26.478  1.00  0.00    -0.352 N 
ATOM      4  C   UNL A   1      38.682  22.575  25.845  1.00  0.00     0.251 C 
ATOM      5  O   UNL A   1      39.170  21.477  25.585  1.00  0.00    -0.269 OA
ATOM      6  H   UNL A   1      40.350  23.185  26.758  1.00  0.00     0.163 HD
BRANCH   4   7
ATOM      7  C   UNL A   1      37.289  22.869  25.415  1.00  0.00     0.039 A 
ATOM      8  C   UNL A   1      34.604  23.381  24.735  1.00  0.00     0.060 A 
ATOM      9  C   UNL A   1      35.053  23.581  26.044  1.00  0.00     0.029 A 
ATOM     10  C   UNL A   1      35.522  22.988  23.763  1.00  0.00     0.029 A 
ATOM     11  C   UNL A   1      36.386  23.325  26.384  1.00  0.00     0.016 A 
ATOM     12  C   UNL A   1      36.855  22.756  24.094  1.00  0.00     0.016 A 
BRANCH   8  13
ATOM     13  N   UNL A   1      33.281  23.571  24.366  1.00  0.00    -0.257 N 
ATOM     14  C   UNL A   1      31.610  24.865  24.185  1.00  0.00     0.071 C 
ATOM     15  N   UNL A   1      32.892  24.820  24.024  1.00  0.00    -0.176 NA
ATOM     16  C   UNL A   1      30.968  23.622  24.734  1.00  0.00     0.091 C 
ATOM     17  C   UNL A   1      32.199  22.702  24.840  1.00  0.00     0.144 C 
BRANCH  14  18
ATOM     18  C   UNL A   1      30.838  26.062  23.825  1.00  0.00    -0.002 A 
ATOM     19  C   UNL A   1      29.262  28.234  23.101  1.00  0.00     0.067 A 
ATOM     20  C   UNL A   1      28.661  27.114  23.679  1.00  0.00     0.021 A 
ATOM     21  C   UNL A   1      30.647  28.265  22.875  1.00  0.00     0.021 A 
ATOM     22  C   UNL A   1      29.454  26.022  24.028  1.00  0.00     0.011 A 
ATOM     23  C   UNL A   1      31.443  27.179  23.249  1.00  0.00     0.011 A 
BRANCH  19  24
ATOM     24  S   UNL A   1      28.307  29.647  22.604  1.00  0.00     0.175 S 
ATOM     25  C   UNL A   1      28.920  31.039  23.514  1.00  0.00     0.163 C 
ATOM     26  O   UNL A   1      26.950  29.408  23.050  1.00  0.00    -0.224 OA
ATOM     27  O   UNL A   1      28.609  29.866  21.200  1.00  0.00    -0.224 OA
ENDBRANCH  19  24
ENDBRANCH  14  18
BRANCH  17  28
ATOM     28  C   UNL A   1      32.193  21.390  24.059  1.00  0.00    -0.023 A 
ATOM     29  C   UNL A   1      32.016  21.300  22.670  1.00  0.00     0.006 A 
ATOM     30  C   UNL A   1      32.445  20.193  24.763  1.00  0.00     0.006 A 
ATOM     31  C   UNL A   1      32.072  20.062  22.017  1.00  0.00     0.000 A 
ATOM     32  C   UNL A   1      32.527  18.963  24.107  1.00  0.00     0.000 A 
ATOM     33  C   UNL A   1      32.333  18.897  22.732  1.00  0.00     0.000 A 
ENDBRANCH  17  28
ENDBRANCH   8  13
ENDBRANCH   4   7
ENDBRANCH   2   3
ENDBRANCH   1   2
BRANCH   1  34
ATOM     34  C   UNL A   1      41.412  25.232  25.528  1.00  0.00     0.023 C 
BRANCH  34  35
ATOM     35  C   UNL A   1      42.589  26.147  25.219  1.00  0.00     0.116 C 
BRANCH  35  36
ATOM     36  N   UNL A   1      43.872  25.591  25.620  1.00  0.00    -0.352 N 
ATOM     37  C   UNL A   1      44.569  25.815  26.783  1.00  0.00     0.251 C 
ATOM     38  H   UNL A   1      44.295  24.976  24.978  1.00  0.00     0.163 HD
ATOM     39  O   UNL A   1      45.696  25.354  26.930  1.00  0.00    -0.269 OA
BRANCH  37  40
ATOM     40  C   UNL A   1      43.959  26.655  27.834  1.00  0.00     0.039 A 
ATOM     41  C   UNL A   1      43.206  26.041  28.837  1.00  0.00     0.014 A 
ATOM     42  C   UNL A   1      44.178  28.036  27.856  1.00  0.00     0.014 A 
ATOM     43  C   UNL A   1      42.725  26.807  29.901  1.00  0.00     0.010 A 
ATOM     44  C   UNL A   1      43.765  28.780  28.954  1.00  0.00     0.010 A 
ATOM     45  C   UNL A   1      43.033  28.175  29.986  1.00  0.00    -0.014 A 
BRANCH  45  46
ATOM     46  C   UNL A   1      42.596  28.992  31.145  1.00  0.00     0.031 A 
ATOM     47  C   UNL A   1      41.340  29.813  31.056  1.00  0.00     0.074 A 
ATOM     48  C   UNL A   1      43.360  29.041  32.254  1.00  0.00     0.049 A 
ATOM     49  N   UNL A   1      40.817  30.621  31.942  1.00  0.00    -0.248 NA
ATOM     50  C   UNL A   1      40.585  29.735  29.794  1.00  0.00     0.031 C 
ATOM     51  C   UNL A   1      44.618  28.317  32.450  1.00  0.00     0.029 A 
ATOM     52  N   UNL A   1      43.189  29.731  33.427  1.00  0.00    -0.354 N 
ATOM     53  C   UNL A   1      39.683  31.156  31.342  1.00  0.00     0.074 A 
ATOM     54  C   UNL A   1      39.627  30.627  29.997  1.00  0.00     0.031 C 
ATOM     55  C   UNL A   1      45.083  28.570  33.685  1.00  0.00     0.029 A 
ATOM     56  C   UNL A   1      44.181  29.504  34.351  1.00  0.00     0.049 A 
ATOM     57  H   UNL A   1      42.427  30.333  33.592  1.00  0.00     0.167 HD
ATOM     58  C   UNL A   1      38.758  31.994  31.870  1.00  0.00     0.031 A 
ATOM     59  C   UNL A   1      44.345  29.990  35.597  1.00  0.00     0.031 A 
ATOM     60  C   UNL A   1      38.816  32.517  33.207  1.00  0.00     0.049 A 
ATOM     61  C   UNL A   1      43.320  30.941  36.151  1.00  0.00     0.074 A 
ATOM     62  C   UNL A   1      37.909  33.339  33.852  1.00  0.00     0.029 A 
ATOM     63  N   UNL A   1      39.844  32.273  34.107  1.00  0.00    -0.354 N 
ATOM     64  N   UNL A   1      42.224  31.392  35.590  1.00  0.00    -0.248 NA
ATOM     65  C   UNL A   1      43.551  31.441  37.513  1.00  0.00     0.031 C 
ATOM     66  C   UNL A   1      38.411  33.630  35.126  1.00  0.00     0.029 A 
ATOM     67  C   UNL A   1      39.605  32.943  35.294  1.00  0.00     0.049 A 
ATOM     68  H   UNL A   1      40.628  31.705  33.928  1.00  0.00     0.167 HD
ATOM     69  C   UNL A   1      41.618  32.204  36.542  1.00  0.00     0.074 A 
ATOM     70  C   UNL A   1      42.465  32.174  37.718  1.00  0.00     0.031 C 
ATOM     71  C   UNL A   1      40.460  32.906  36.453  1.00  0.00     0.031 A 
BRANCH  58  72
ATOM     72  C   UNL A   1      37.609  32.394  30.980  1.00  0.00    -0.014 A 
ATOM     73  C   UNL A   1      37.750  33.426  30.033  1.00  0.00     0.010 A 
ATOM     74  C   UNL A   1      36.371  31.736  31.094  1.00  0.00     0.010 A 
ATOM     75  C   UNL A   1      36.658  33.834  29.263  1.00  0.00     0.020 A 
ATOM     76  C   UNL A   1      35.285  32.121  30.302  1.00  0.00     0.020 A 
ATOM     77  C   UNL A   1      35.429  33.187  29.411  1.00  0.00     0.054 A 
BRANCH  77  78
ATOM     78  S   UNL A   1      34.024  33.748  28.412  1.00  0.00     0.124 S 
ATOM     79  O   UNL A   1      34.671  34.658  27.471  1.00  0.00    -0.237 OA
ATOM     80  O   UNL A   1      33.522  32.503  27.835  1.00  0.00    -0.237 OA
ATOM     81  O   UNL A   1      33.138  34.383  29.383  1.00  0.00    -0.744 OA
ENDBRANCH  77  78
ENDBRANCH  58  72
BRANCH  59  82
ATOM     82  C   UNL A   1      45.505  29.553  36.418  1.00  0.00    -0.014 A 
ATOM     83  C   UNL A   1      46.629  30.387  36.553  1.00  0.00     0.010 A 
ATOM     84  C   UNL A   1      45.490  28.314  37.085  1.00  0.00     0.010 A 
ATOM     85  C   UNL A   1      47.721  29.987  37.328  1.00  0.00     0.020 A 
ATOM     86  C   UNL A   1      46.568  27.922  37.882  1.00  0.00     0.020 A 
ATOM     87  C   UNL A   1      47.683  28.757  37.991  1.00  0.00     0.054 A 
BRANCH  87  88
ATOM     88  S   UNL A   1      49.087  28.286  39.039  1.00  0.00     0.124 S 
ATOM     89  O   UNL A   1      50.221  28.797  38.275  1.00  0.00    -0.237 OA
ATOM     90  O   UNL A   1      48.798  28.988  40.288  1.00  0.00    -0.237 OA
ATOM     91  O   UNL A   1      48.984  26.830  39.113  1.00  0.00    -0.744 OA
ENDBRANCH  87  88
ENDBRANCH  59  82
BRANCH  71  92
ATOM     92  C   UNL A   1      40.023  33.673  37.673  1.00  0.00    -0.014 A 
ATOM     93  C   UNL A   1      39.147  33.108  38.616  1.00  0.00     0.010 A 
ATOM     94  C   UNL A   1      40.539  34.962  37.900  1.00  0.00     0.010 A 
ATOM     95  C   UNL A   1      38.770  33.832  39.751  1.00  0.00     0.020 A 
ATOM     96  C   UNL A   1      40.187  35.678  39.047  1.00  0.00     0.020 A 
ATOM     97  C   UNL A   1      39.292  35.113  39.959  1.00  0.00     0.054 A 
BRANCH  97  98
ATOM     98  S   UNL A   1      38.824  36.015  41.460  1.00  0.00     0.124 S 
ATOM     99  O   UNL A   1      39.960  35.753  42.339  1.00  0.00    -0.237 OA
ATOM    100  O   UNL A   1      38.701  37.391  40.985  1.00  0.00    -0.237 OA
ATOM    101  O   UNL A   1      37.566  35.388  41.864  1.00  0.00    -0.744 OA
ENDBRANCH  97  98
ENDBRANCH  71  92
ENDBRANCH  45  46
ENDBRANCH  37  40
ENDBRANCH  35  36
ENDBRANCH  34  35
ENDBRANCH   1  34
TORSDOF 18
ENDMDL
MODEL 2
REMARK VINA RESULT:     -11.8      0.482      7.717
REMARK SMILES CS(=O)(=O)c1ccc(C2=NN(c3ccc(C(=O)NCCCCNC(=O)c4ccc(-c5c6nc(c(-c7ccc(S(=O)(=O)[O-])cc7)c7ccc([nH]7)c(-c7ccc(S(=O)(=O)[O-])cc7)c7nc(c(-c8ccc(S(=O)(=O)[O-])cc8)c8ccc5[nH]8)C=C7)C=C6)cc4)cc3)[C@H](c3ccccc3)C2)cc1
REMARK SMILES IDX 20 1 19 2 18 3 16 4 17 5 15 7 12 8 13 9 87 10 14 11 86 12
REMARK SMILES IDX 11 13 9 14 10 15 95 16 88 17 8 18 5 19 6 20 97 21 7 22 96 23
REMARK SMILES IDX 2 24 1 25 3 26 4 27 89 28 90 29 94 30 91 31 93 32 92 33
REMARK SMILES IDX 21 34 22 35 23 36 24 37 25 39 26 40 27 41 85 42 28 43 84 44
REMARK SMILES IDX 29 45 30 46 31 47 78 48 32 49 83 50 77 51 79 52 33 53 82 54
REMARK SMILES IDX 76 55 75 56 34 58 64 59 45 60 63 61 46 62 49 63 62 64 80 65
REMARK SMILES IDX 47 66 48 67 61 69 81 70 50 71 35 72 36 73 44 74 37 75 43 76
REMARK SMILES IDX 38 77 39 78 40 79 41 80 42 81 65 82 66 83 74 84 67 85 73 86
REMARK SMILES IDX 68 87 69 88 70 89 71 90 72 91 51 92 52 93 60 94 53 95 59 96
REMARK SMILES IDX 54 97 55 98 56 99 57 100 58 101
REMARK H PARENT 18 6 23 38 79 57 49 68
REMARK Flexibility Score: inf
ROOT
ATOM      1  C   UNL A   1      40.260  25.393  26.811  1.00  0.00     0.023 C 
ENDROOT
BRANCH   1   2
ATOM      2  C   UNL A   1      39.047  24.496  27.069  1.00  0.00     0.116 C 
BRANCH   2   3
ATOM      3  N   UNL A   1      39.305  23.131  26.651  1.00  0.00    -0.352 N 
ATOM      4  C   UNL A   1      38.538  22.255  25.920  1.00  0.00     0.251 C 
ATOM      5  O   UNL A   1      39.023  21.173  25.598  1.00  0.00    -0.269 OA
ATOM      6  H   UNL A   1      40.176  22.772  26.939  1.00  0.00     0.163 HD
BRANCH   4   7
ATOM      7  C   UNL A   1      37.166  22.600  25.461  1.00  0.00     0.039 A 
ATOM      8  C   UNL A   1      34.514  23.180  24.709  1.00  0.00     0.060 A 
ATOM      9  C   UNL A   1      34.863  23.093  26.060  1.00  0.00     0.029 A 
ATOM     10  C   UNL A   1      35.513  23.039  23.747  1.00  0.00     0.029 A 
ATOM     11  C   UNL A   1      36.180  22.804  26.435  1.00  0.00     0.016 A 
ATOM     12  C   UNL A   1      36.829  22.775  24.119  1.00  0.00     0.016 A 
BRANCH   8  13
ATOM     13  N   UNL A   1      33.212  23.412  24.291  1.00  0.00    -0.257 N 
ATOM     14  C   UNL A   1      31.571  24.743  24.104  1.00  0.00     0.071 C 
ATOM     15  N   UNL A   1      32.859  24.684  23.998  1.00  0.00    -0.176 NA
ATOM     16  C   UNL A   1      30.886  23.485  24.558  1.00  0.00     0.091 C 
ATOM     17  C   UNL A   1      32.097  22.539  24.670  1.00  0.00     0.144 C 
BRANCH  14  18
ATOM     18  C   UNL A   1      30.835  25.970  23.774  1.00  0.00    -0.002 A 
ATOM     19  C   UNL A   1      29.326  28.204  23.098  1.00  0.00     0.067 A 
ATOM     20  C   UNL A   1      28.686  27.074  23.609  1.00  0.00     0.021 A 
ATOM     21  C   UNL A   1      30.717  28.215  22.913  1.00  0.00     0.021 A 
ATOM     22  C   UNL A   1      29.445  25.952  23.935  1.00  0.00     0.011 A 
ATOM     23  C   UNL A   1      31.479  27.097  23.264  1.00  0.00     0.011 A 
BRANCH  19  24
ATOM     24  S   UNL A   1      28.415  29.658  22.635  1.00  0.00     0.175 S 
ATOM     25  C   UNL A   1      29.060  31.005  23.588  1.00  0.00     0.163 C 
ATOM     26  O   UNL A   1      27.048  29.445  23.063  1.00  0.00    -0.224 OA
ATOM     27  O   UNL A   1      28.734  29.907  21.239  1.00  0.00    -0.224 OA
ENDBRANCH  19  24
ENDBRANCH  14  18
BRANCH  17  28
ATOM     28  C   UNL A   1      32.106  21.269  23.821  1.00  0.00    -0.023 A 
ATOM     29  C   UNL A   1      31.843  21.240  22.443  1.00  0.00     0.006 A 
ATOM     30  C   UNL A   1      32.465  20.054  24.442  1.00  0.00     0.006 A 
ATOM     31  C   UNL A   1      31.919  20.042  21.722  1.00  0.00     0.000 A 
ATOM     32  C   UNL A   1      32.567  18.865  23.716  1.00  0.00     0.000 A 
ATOM     33  C   UNL A   1      32.287  18.858  22.356  1.00  0.00     0.000 A 
ENDBRANCH  17  28
ENDBRANCH   8  13
ENDBRANCH   4   7
ENDBRANCH   2   3
ENDBRANCH   1   2
BRANCH   1  34
ATOM     34  C   UNL A   1      41.495  24.659  26.293  1.00  0.00     0.023 C 
BRANCH  34  35
ATOM     35  C   UNL A   1      42.380  25.475  25.362  1.00  0.00     0.116 C 
BRANCH  35  36
ATOM     36  N   UNL A   1      43.802  25.267  25.590  1.00  0.00    -0.352 N 
ATOM     37  C   UNL A   1      44.587  25.788  26.591  1.00  0.00     0.251 C 
ATOM     38  H   UNL A   1      44.260  24.680  24.946  1.00  0.00     0.163 HD
ATOM     39  O   UNL A   1      45.800  25.605  26.587  1.00  0.00    -0.269 OA
BRANCH  37  40
ATOM     40  C   UNL A   1      43.955  26.606  27.646  1.00  0.00     0.039 A 
ATOM     41  C   UNL A   1      43.387  25.964  28.749  1.00  0.00     0.014 A 
ATOM     42  C   UNL A   1      43.974  28.002  27.569  1.00  0.00     0.014 A 
ATOM     43  C   UNL A   1      42.894  26.728  29.809  1.00  0.00     0.010 A 
ATOM     44  C   UNL A   1      43.553  28.756  28.658  1.00  0.00     0.010 A 
ATOM     45  C   UNL A   1      43.007  28.128  29.787  1.00  0.00    -0.014 A 
BRANCH  45  46
ATOM     46  C   UNL A   1      42.559  28.955  30.935  1.00  0.00     0.031 A 
ATOM     47  C   UNL A   1      43.334  28.935  32.224  1.00  0.00     0.074 A 
ATOM     48  C   UNL A   1      41.425  29.675  30.836  1.00  0.00     0.049 A 
ATOM     49  N   UNL A   1      43.080  29.553  33.348  1.00  0.00    -0.248 NA
ATOM     50  C   UNL A   1      44.539  28.091  32.260  1.00  0.00     0.031 C 
ATOM     51  C   UNL A   1      40.567  29.750  29.651  1.00  0.00     0.029 A 
ATOM     52  N   UNL A   1      40.799  30.484  31.750  1.00  0.00    -0.354 N 
ATOM     53  C   UNL A   1      44.082  29.162  34.228  1.00  0.00     0.074 A 
ATOM     54  C   UNL A   1      44.914  28.210  33.525  1.00  0.00     0.031 C 
ATOM     55  C   UNL A   1      39.549  30.591  29.899  1.00  0.00     0.029 A 
ATOM     56  C   UNL A   1      39.658  31.081  31.268  1.00  0.00     0.049 A 
ATOM     57  H   UNL A   1      41.133  30.623  32.666  1.00  0.00     0.167 HD
ATOM     58  C   UNL A   1      44.307  29.576  35.499  1.00  0.00     0.031 A 
ATOM     59  C   UNL A   1      38.798  31.932  31.862  1.00  0.00     0.031 A 
ATOM     60  C   UNL A   1      43.479  30.524  36.194  1.00  0.00     0.049 A 
ATOM     61  C   UNL A   1      39.051  32.355  33.283  1.00  0.00     0.074 A 
ATOM     62  C   UNL A   1      43.642  31.040  37.467  1.00  0.00     0.029 A 
ATOM     63  N   UNL A   1      42.327  31.096  35.675  1.00  0.00    -0.354 N 
ATOM     64  N   UNL A   1      40.036  32.019  34.081  1.00  0.00    -0.248 NA
ATOM     65  C   UNL A   1      38.079  33.282  33.879  1.00  0.00     0.031 C 
ATOM     66  C   UNL A   1      42.563  31.889  37.736  1.00  0.00     0.029 A 
ATOM     67  C   UNL A   1      41.756  31.945  36.609  1.00  0.00     0.049 A 
ATOM     68  H   UNL A   1      41.966  30.925  34.775  1.00  0.00     0.167 HD
ATOM     69  C   UNL A   1      39.820  32.717  35.263  1.00  0.00     0.074 A 
ATOM     70  C   UNL A   1      38.616  33.502  35.072  1.00  0.00     0.031 C 
ATOM     71  C   UNL A   1      40.556  32.715  36.404  1.00  0.00     0.031 A 
BRANCH  58  72
ATOM     72  C   UNL A   1      45.498  28.989  36.211  1.00  0.00    -0.014 A 
ATOM     73  C   UNL A   1      45.380  27.811  36.972  1.00  0.00     0.010 A 
ATOM     74  C   UNL A   1      46.750  29.623  36.123  1.00  0.00     0.010 A 
ATOM     75  C   UNL A   1      46.475  27.315  37.684  1.00  0.00     0.020 A 
ATOM     76  C   UNL A   1      47.856  29.111  36.809  1.00  0.00     0.020 A 
ATOM     77  C   UNL A   1      47.703  27.975  37.607  1.00  0.00     0.054 A 
BRANCH  77  78
ATOM     78  S   UNL A   1      49.104  27.320  38.553  1.00  0.00     0.124 S 
ATOM     79  O   UNL A   1      48.466  26.272  39.346  1.00  0.00    -0.237 OA
ATOM     80  O   UNL A   1      50.009  26.851  37.507  1.00  0.00    -0.237 OA
ATOM     81  O   UNL A   1      49.579  28.473  39.314  1.00  0.00    -0.744 OA
ENDBRANCH  77  78
ENDBRANCH  58  72
BRANCH  59  82
ATOM     82  C   UNL A   1      37.640  32.471  31.098  1.00  0.00    -0.014 A 
ATOM     83  C   UNL A   1      36.382  31.850  31.192  1.00  0.00     0.010 A 
ATOM     84  C   UNL A   1      37.780  33.614  30.291  1.00  0.00     0.010 A 
ATOM     85  C   UNL A   1      35.288  32.353  30.484  1.00  0.00     0.020 A 
ATOM     86  C   UNL A   1      36.682  34.136  29.601  1.00  0.00     0.020 A 
ATOM     87  C   UNL A   1      35.444  33.495  29.694  1.00  0.00     0.054 A 
BRANCH  87  88
ATOM     88  S   UNL A   1      33.994  34.165  28.831  1.00  0.00     0.124 S 
ATOM     89  O   UNL A   1      33.138  34.565  29.943  1.00  0.00    -0.237 OA
ATOM     90  O   UNL A   1      34.569  35.256  28.049  1.00  0.00    -0.237 OA
ATOM     91  O   UNL A   1      33.513  33.031  28.044  1.00  0.00    -0.744 OA
ENDBRANCH  87  88
ENDBRANCH  59  82
BRANCH  71  92
ATOM     92  C   UNL A   1      40.099  33.614  37.522  1.00  0.00    -0.014 A 
ATOM     93  C   UNL A   1      39.358  33.113  38.606  1.00  0.00     0.010 A 
ATOM     94  C   UNL A   1      40.462  34.973  37.508  1.00  0.00     0.010 A 
ATOM     95  C   UNL A   1      38.961  33.962  39.642  1.00  0.00     0.020 A 
ATOM     96  C   UNL A   1      40.093  35.820  38.556  1.00  0.00     0.020 A 
ATOM     97  C   UNL A   1      39.330  35.311  39.610  1.00  0.00     0.054 A 
BRANCH  97  98
ATOM     98  S   UNL A   1      38.843  36.384  40.987  1.00  0.00     0.124 S 
ATOM     99  O   UNL A   1      40.069  36.441  41.778  1.00  0.00    -0.237 OA
ATOM    100  O   UNL A   1      38.471  37.626  40.313  1.00  0.00    -0.237 OA
ATOM    101  O   UNL A   1      37.732  35.666  41.610  1.00  0.00    -0.744 OA
ENDBRANCH  97  98
ENDBRANCH  71  92
ENDBRANCH  45  46
ENDBRANCH  37  40
ENDBRANCH  35  36
ENDBRANCH  34  35
ENDBRANCH   1  34
TORSDOF 18
ENDMDL
MODEL 3
REMARK VINA RESULT:     -11.5      5.031     11.441
REMARK SMILES CS(=O)(=O)c1ccc(C2=NN(c3ccc(C(=O)NCCCCNC(=O)c4ccc(-c5c6nc(c(-c7ccc(S(=O)(=O)[O-])cc7)c7ccc([nH]7)c(-c7ccc(S(=O)(=O)[O-])cc7)c7nc(c(-c8ccc(S(=O)(=O)[O-])cc8)c8ccc5[nH]8)C=C7)C=C6)cc4)cc3)[C@H](c3ccccc3)C2)cc1
REMARK SMILES IDX 20 1 19 2 18 3 16 4 17 5 15 7 12 8 13 9 87 10 14 11 86 12
REMARK SMILES IDX 11 13 9 14 10 15 95 16 88 17 8 18 5 19 6 20 97 21 7 22 96 23
REMARK SMILES IDX 2 24 1 25 3 26 4 27 89 28 90 29 94 30 91 31 93 32 92 33
REMARK SMILES IDX 21 34 22 35 23 36 24 37 25 39 26 40 27 41 85 42 28 43 84 44
REMARK SMILES IDX 29 45 30 46 31 47 78 48 32 49 83 50 77 51 79 52 33 53 82 54
REMARK SMILES IDX 76 55 75 56 34 58 64 59 45 60 63 61 46 62 49 63 62 64 80 65
REMARK SMILES IDX 47 66 48 67 61 69 81 70 50 71 35 72 36 73 44 74 37 75 43 76
REMARK SMILES IDX 38 77 39 78 40 79 41 80 42 81 65 82 66 83 74 84 67 85 73 86
REMARK SMILES IDX 68 87 69 88 70 89 71 90 72 91 51 92 52 93 60 94 53 95 59 96
REMARK SMILES IDX 54 97 55 98 56 99 57 100 58 101
REMARK H PARENT 18 6 23 38 79 57 49 68
REMARK Flexibility Score: inf
ROOT
ATOM      1  C   UNL A   1      41.383  21.307  26.277  1.00  0.00     0.023 C 
ENDROOT
BRANCH   1   2
ATOM      2  C   UNL A   1      42.907  21.169  26.303  1.00  0.00     0.116 C 
BRANCH   2   3
ATOM      3  N   UNL A   1      43.486  21.503  25.015  1.00  0.00    -0.352 N 
ATOM      4  C   UNL A   1      44.278  22.560  24.634  1.00  0.00     0.251 C 
ATOM      5  O   UNL A   1      44.740  22.570  23.495  1.00  0.00    -0.269 OA
ATOM      6  H   UNL A   1      43.277  20.865  24.294  1.00  0.00     0.163 HD
BRANCH   4   7
ATOM      7  C   UNL A   1      44.638  23.655  25.572  1.00  0.00     0.039 A 
ATOM      8  C   UNL A   1      45.395  25.796  27.240  1.00  0.00     0.060 A 
ATOM      9  C   UNL A   1      45.160  26.009  25.878  1.00  0.00     0.029 A 
ATOM     10  C   UNL A   1      45.184  24.523  27.766  1.00  0.00     0.029 A 
ATOM     11  C   UNL A   1      44.786  24.946  25.048  1.00  0.00     0.016 A 
ATOM     12  C   UNL A   1      44.788  23.469  26.947  1.00  0.00     0.016 A 
BRANCH   8  13
ATOM     13  N   UNL A   1      45.819  26.808  28.088  1.00  0.00    -0.257 N 
ATOM     14  C   UNL A   1      45.451  28.682  29.011  1.00  0.00     0.071 C 
ATOM     15  N   UNL A   1      44.875  27.571  28.684  1.00  0.00    -0.176 NA
ATOM     16  C   UNL A   1      46.890  28.827  28.603  1.00  0.00     0.091 C 
ATOM     17  C   UNL A   1      47.129  27.451  27.952  1.00  0.00     0.144 C 
BRANCH  14  18
ATOM     18  C   UNL A   1      44.731  29.722  29.758  1.00  0.00    -0.002 A 
ATOM     19  C   UNL A   1      43.367  31.775  31.042  1.00  0.00     0.067 A 
ATOM     20  C   UNL A   1      43.077  31.491  29.707  1.00  0.00     0.021 A 
ATOM     21  C   UNL A   1      44.345  31.043  31.733  1.00  0.00     0.021 A 
ATOM     22  C   UNL A   1      43.772  30.468  29.063  1.00  0.00     0.011 A 
ATOM     23  C   UNL A   1      45.023  30.002  31.092  1.00  0.00     0.011 A 
BRANCH  19  24
ATOM     24  S   UNL A   1      42.539  33.084  31.913  1.00  0.00     0.175 S 
ATOM     25  C   UNL A   1      43.441  34.576  31.594  1.00  0.00     0.163 C 
ATOM     26  O   UNL A   1      42.675  32.795  33.325  1.00  0.00    -0.224 OA
ATOM     27  O   UNL A   1      41.230  33.215  31.296  1.00  0.00    -0.224 OA
ENDBRANCH  19  24
ENDBRANCH  14  18
BRANCH  17  28
ATOM     28  C   UNL A   1      48.222  26.555  28.532  1.00  0.00    -0.023 A 
ATOM     29  C   UNL A   1      49.148  25.840  27.757  1.00  0.00     0.006 A 
ATOM     30  C   UNL A   1      48.357  26.489  29.935  1.00  0.00     0.006 A 
ATOM     31  C   UNL A   1      50.155  25.077  28.362  1.00  0.00     0.000 A 
ATOM     32  C   UNL A   1      49.378  25.750  30.537  1.00  0.00     0.000 A 
ATOM     33  C   UNL A   1      50.274  25.038  29.749  1.00  0.00     0.000 A 
ENDBRANCH  17  28
ENDBRANCH   8  13
ENDBRANCH   4   7
ENDBRANCH   2   3
ENDBRANCH   1   2
BRANCH   1  34
ATOM     34  C   UNL A   1      40.778  21.917  27.540  1.00  0.00     0.023 C 
BRANCH  34  35
ATOM     35  C   UNL A   1      40.896  23.432  27.637  1.00  0.00     0.116 C 
BRANCH  35  36
ATOM     36  N   UNL A   1      41.244  24.064  26.374  1.00  0.00    -0.352 N 
ATOM     37  C   UNL A   1      41.239  25.404  26.065  1.00  0.00     0.251 C 
ATOM     38  H   UNL A   1      41.518  23.457  25.649  1.00  0.00     0.163 HD
ATOM     39  O   UNL A   1      41.456  25.776  24.916  1.00  0.00    -0.269 OA
BRANCH  37  40
ATOM     40  C   UNL A   1      40.926  26.384  27.125  1.00  0.00     0.039 A 
ATOM     41  C   UNL A   1      40.013  26.032  28.121  1.00  0.00     0.014 A 
ATOM     42  C   UNL A   1      41.575  27.621  27.162  1.00  0.00     0.014 A 
ATOM     43  C   UNL A   1      39.799  26.899  29.194  1.00  0.00     0.010 A 
ATOM     44  C   UNL A   1      41.418  28.447  28.269  1.00  0.00     0.010 A 
ATOM     45  C   UNL A   1      40.527  28.097  29.294  1.00  0.00    -0.014 A 
BRANCH  45  46
ATOM     46  C   UNL A   1      40.371  28.998  30.463  1.00  0.00     0.031 A 
ATOM     47  C   UNL A   1      41.240  28.813  31.676  1.00  0.00     0.074 A 
ATOM     48  C   UNL A   1      39.410  29.942  30.455  1.00  0.00     0.049 A 
ATOM     49  N   UNL A   1      41.227  29.468  32.808  1.00  0.00    -0.248 NA
ATOM     50  C   UNL A   1      42.238  27.732  31.619  1.00  0.00     0.031 C 
ATOM     51  C   UNL A   1      38.481  30.198  29.351  1.00  0.00     0.029 A 
ATOM     52  N   UNL A   1      39.055  30.863  31.407  1.00  0.00    -0.354 N 
ATOM     53  C   UNL A   1      42.202  28.873  33.600  1.00  0.00     0.074 A 
ATOM     54  C   UNL A   1      42.745  27.768  32.842  1.00  0.00     0.031 C 
ATOM     55  C   UNL A   1      37.690  31.234  29.675  1.00  0.00     0.029 A 
ATOM     56  C   UNL A   1      38.026  31.688  31.020  1.00  0.00     0.049 A 
ATOM     57  H   UNL A   1      39.495  30.927  32.286  1.00  0.00     0.167 HD
ATOM     58  C   UNL A   1      42.625  29.228  34.837  1.00  0.00     0.031 A 
ATOM     59  C   UNL A   1      37.423  32.701  31.674  1.00  0.00     0.031 A 
ATOM     60  C   UNL A   1      42.083  30.328  35.588  1.00  0.00     0.049 A 
ATOM     61  C   UNL A   1      37.890  33.058  33.058  1.00  0.00     0.074 A 
ATOM     62  C   UNL A   1      42.468  30.797  36.832  1.00  0.00     0.029 A 
ATOM     63  N   UNL A   1      41.034  31.132  35.166  1.00  0.00    -0.354 N 
ATOM     64  N   UNL A   1      38.852  32.520  33.769  1.00  0.00    -0.248 NA
ATOM     65  C   UNL A   1      37.194  34.168  33.723  1.00  0.00     0.031 C 
ATOM     66  C   UNL A   1      41.621  31.854  37.181  1.00  0.00     0.029 A 
ATOM     67  C   UNL A   1      40.744  32.080  36.131  1.00  0.00     0.049 A 
ATOM     68  H   UNL A   1      40.564  31.042  34.305  1.00  0.00     0.167 HD
ATOM     69  C   UNL A   1      38.898  33.247  34.954  1.00  0.00     0.074 A 
ATOM     70  C   UNL A   1      37.873  34.268  34.859  1.00  0.00     0.031 C 
ATOM     71  C   UNL A   1      39.719  33.087  36.022  1.00  0.00     0.031 A 
BRANCH  58  72
ATOM     72  C   UNL A   1      43.726  28.401  35.449  1.00  0.00    -0.014 A 
ATOM     73  C   UNL A   1      43.434  27.291  36.263  1.00  0.00     0.010 A 
ATOM     74  C   UNL A   1      45.071  28.739  35.212  1.00  0.00     0.010 A 
ATOM     75  C   UNL A   1      44.462  26.575  36.881  1.00  0.00     0.020 A 
ATOM     76  C   UNL A   1      46.104  28.004  35.803  1.00  0.00     0.020 A 
ATOM     77  C   UNL A   1      45.790  26.944  36.655  1.00  0.00     0.054 A 
BRANCH  77  78
ATOM     78  S   UNL A   1      47.105  26.008  37.482  1.00  0.00     0.124 S 
ATOM     79  O   UNL A   1      48.193  26.100  36.512  1.00  0.00    -0.237 OA
ATOM     80  O   UNL A   1      47.304  26.756  38.720  1.00  0.00    -0.237 OA
ATOM     81  O   UNL A   1      46.531  24.675  37.648  1.00  0.00    -0.744 OA
ENDBRANCH  77  78
ENDBRANCH  58  72
BRANCH  59  82
ATOM     82  C   UNL A   1      36.339  33.473  31.009  1.00  0.00    -0.014 A 
ATOM     83  C   UNL A   1      35.105  33.658  31.656  1.00  0.00     0.010 A 
ATOM     84  C   UNL A   1      36.538  34.044  29.739  1.00  0.00     0.010 A 
ATOM     85  C   UNL A   1      34.084  34.388  31.042  1.00  0.00     0.020 A 
ATOM     86  C   UNL A   1      35.528  34.797  29.132  1.00  0.00     0.020 A 
ATOM     87  C   UNL A   1      34.303  34.955  29.784  1.00  0.00     0.054 A 
BRANCH  87  88
ATOM     88  S   UNL A   1      32.983  35.949  29.032  1.00  0.00     0.124 S 
ATOM     89  O   UNL A   1      33.742  36.967  28.313  1.00  0.00    -0.237 OA
ATOM     90  O   UNL A   1      32.288  34.971  28.199  1.00  0.00    -0.237 OA
ATOM     91  O   UNL A   1      32.221  36.429  30.183  1.00  0.00    -0.744 OA
ENDBRANCH  87  88
ENDBRANCH  59  82
BRANCH  71  92
ATOM     92  C   UNL A   1      39.567  34.061  37.161  1.00  0.00    -0.014 A 
ATOM     93  C   UNL A   1      38.795  33.747  38.293  1.00  0.00     0.010 A 
ATOM     94  C   UNL A   1      40.250  35.290  37.115  1.00  0.00     0.010 A 
ATOM     95  C   UNL A   1      38.684  34.658  39.346  1.00  0.00     0.020 A 
ATOM     96  C   UNL A   1      40.165  36.192  38.178  1.00  0.00     0.020 A 
ATOM     97  C   UNL A   1      39.370  35.876  39.282  1.00  0.00     0.054 A 
BRANCH  97  98
ATOM     98  S   UNL A   1      39.247  37.023  40.680  1.00  0.00     0.124 S 
ATOM     99  O   UNL A   1      38.442  38.104  40.117  1.00  0.00    -0.237 OA
ATOM    100  O   UNL A   1      38.587  36.215  41.703  1.00  0.00    -0.237 OA
ATOM    101  O   UNL A   1      40.637  37.367  40.971  1.00  0.00    -0.744 OA
ENDBRANCH  97  98
ENDBRANCH  71  92
ENDBRANCH  45  46
ENDBRANCH  37  40
ENDBRANCH  35  36
ENDBRANCH  34  35
ENDBRANCH   1  34
TORSDOF 18
ENDMDL
