MODEL 1
REMARK VINA RESULT:      -9.6      0.000      0.000
REMARK SMILES O=C(NCCCCNC(=O)C1CCN(c2ccc(C(F)(F)F)cc2[N+](=O)[O-])CC1)c1ccc(-c2c3nc(c(-c4ccc(S(=O)(=O)[O-])cc4)c4ccc([nH]4)c(-c4ccc(S(=O)(=O)[O-])cc4)c4nc(c(-c5ccc(S(=O)(=O)[O-])cc5)c5ccc2[nH]5)C=C4)C=C3)cc1
REMARK SMILES IDX 5 1 4 2 3 3 1 4 2 5 30 7 31 8 89 9 32 10 88 11 33 12 34 13
REMARK SMILES IDX 35 14 82 15 36 16 87 17 81 18 83 19 37 20 86 21 80 22 79 23
REMARK SMILES IDX 38 25 68 26 49 27 67 28 50 29 53 30 66 31 84 32 51 33 52 34
REMARK SMILES IDX 65 36 85 37 54 38 39 39 40 40 48 41 41 42 47 43 42 44 43 45
REMARK SMILES IDX 44 46 45 47 46 48 69 49 70 50 78 51 71 52 77 53 72 54 73 55
REMARK SMILES IDX 74 56 75 57 76 58 55 59 56 60 64 61 57 62 63 63 58 64 59 65
REMARK SMILES IDX 60 66 61 67 62 68 6 69 7 70 8 71 9 72 10 74 11 75 12 76
REMARK SMILES IDX 29 77 13 78 28 79 14 80 15 81 16 82 24 83 17 84 23 85 18 86
REMARK SMILES IDX 25 87 26 88 27 89 19 90 20 91 21 92 22 93
REMARK H PARENT 3 6 83 24 53 35 8 73
REMARK Flexibility Score: inf
ROOT
ATOM      1  C   UNL A   1      40.709  20.016  26.471  1.00  0.00     0.023 C 
ENDROOT
BRANCH   1   2
ATOM      2  C   UNL A   1      40.477  21.521  26.493  1.00  0.00     0.116 C 
BRANCH   2   3
ATOM      3  N   UNL A   1      39.256  21.926  25.813  1.00  0.00    -0.352 N 
ATOM      4  O   UNL A   1      37.502  23.266  25.340  1.00  0.00    -0.269 OA
ATOM      5  C   UNL A   1      38.587  23.126  25.894  1.00  0.00     0.251 C 
ATOM      6  H   UNL A   1      38.855  21.253  25.216  1.00  0.00     0.163 HD
BRANCH   5   7
ATOM      7  C   UNL A   1      39.174  24.233  26.684  1.00  0.00     0.039 A 
ATOM      8  C   UNL A   1      38.838  24.396  28.028  1.00  0.00     0.014 A 
ATOM      9  C   UNL A   1      40.043  25.134  26.062  1.00  0.00     0.014 A 
ATOM     10  C   UNL A   1      39.248  25.538  28.705  1.00  0.00     0.010 A 
ATOM     11  C   UNL A   1      40.523  26.240  26.772  1.00  0.00     0.010 A 
ATOM     12  C   UNL A   1      40.100  26.471  28.089  1.00  0.00    -0.014 A 
BRANCH  12  13
ATOM     13  C   UNL A   1      40.566  27.640  28.879  1.00  0.00     0.031 A 
ATOM     14  C   UNL A   1      39.686  28.839  29.104  1.00  0.00     0.074 A 
ATOM     15  C   UNL A   1      41.780  27.572  29.463  1.00  0.00     0.049 A 
ATOM     16  N   UNL A   1      39.913  29.892  29.850  1.00  0.00    -0.248 NA
ATOM     17  C   UNL A   1      38.393  28.870  28.404  1.00  0.00     0.031 C 
ATOM     18  C   UNL A   1      42.730  26.468  29.299  1.00  0.00     0.029 A 
ATOM     19  N   UNL A   1      42.405  28.422  30.336  1.00  0.00    -0.354 N 
ATOM     20  C   UNL A   1      38.802  30.714  29.703  1.00  0.00     0.074 A 
ATOM     21  C   UNL A   1      37.911  30.050  28.775  1.00  0.00     0.031 C 
ATOM     22  C   UNL A   1      43.787  26.676  30.098  1.00  0.00     0.029 A 
ATOM     23  C   UNL A   1      43.616  27.949  30.787  1.00  0.00     0.049 A 
ATOM     24  H   UNL A   1      42.025  29.287  30.614  1.00  0.00     0.167 HD
ATOM     25  C   UNL A   1      38.544  31.907  30.292  1.00  0.00     0.031 A 
ATOM     26  C   UNL A   1      44.495  28.479  31.657  1.00  0.00     0.031 A 
ATOM     27  C   UNL A   1      39.435  32.567  31.214  1.00  0.00     0.049 A 
ATOM     28  C   UNL A   1      44.178  29.793  32.306  1.00  0.00     0.074 A 
ATOM     29  C   UNL A   1      39.263  33.780  31.860  1.00  0.00     0.029 A 
ATOM     30  N   UNL A   1      40.660  32.066  31.626  1.00  0.00    -0.354 N 
ATOM     31  N   UNL A   1      43.115  30.546  32.156  1.00  0.00    -0.248 NA
ATOM     32  C   UNL A   1      45.175  30.325  33.242  1.00  0.00     0.031 C 
ATOM     33  C   UNL A   1      40.400  34.027  32.639  1.00  0.00     0.029 A 
ATOM     34  C   UNL A   1      41.260  32.949  32.511  1.00  0.00     0.049 A 
ATOM     35  H   UNL A   1      41.049  31.210  31.334  1.00  0.00     0.167 HD
ATOM     36  C   UNL A   1      43.318  31.647  32.979  1.00  0.00     0.074 A 
ATOM     37  C   UNL A   1      44.586  31.441  33.649  1.00  0.00     0.031 C 
ATOM     38  C   UNL A   1      42.532  32.737  33.153  1.00  0.00     0.031 A 
BRANCH  25  39
ATOM     39  C   UNL A   1      37.247  32.591  29.949  1.00  0.00    -0.014 A 
ATOM     40  C   UNL A   1      36.144  32.525  30.818  1.00  0.00     0.010 A 
ATOM     41  C   UNL A   1      37.146  33.357  28.773  1.00  0.00     0.010 A 
ATOM     42  C   UNL A   1      34.954  33.188  30.503  1.00  0.00     0.020 A 
ATOM     43  C   UNL A   1      35.965  34.038  28.465  1.00  0.00     0.020 A 
ATOM     44  C   UNL A   1      34.870  33.939  29.327  1.00  0.00     0.054 A 
BRANCH  44  45
ATOM     45  S   UNL A   1      33.324  34.813  28.956  1.00  0.00     0.124 S 
ATOM     46  O   UNL A   1      32.699  34.890  30.274  1.00  0.00    -0.237 OA
ATOM     47  O   UNL A   1      33.795  36.083  28.410  1.00  0.00    -0.237 OA
ATOM     48  O   UNL A   1      32.652  33.938  27.998  1.00  0.00    -0.744 OA
ENDBRANCH  44  45
ENDBRANCH  25  39
BRANCH  26  49
ATOM     49  C   UNL A   1      45.765  27.762  31.944  1.00  0.00    -0.014 A 
ATOM     50  C   UNL A   1      45.857  26.859  33.017  1.00  0.00     0.010 A 
ATOM     51  C   UNL A   1      46.884  27.959  31.114  1.00  0.00     0.010 A 
ATOM     52  C   UNL A   1      47.052  26.176  33.264  1.00  0.00     0.020 A 
ATOM     53  C   UNL A   1      48.070  27.259  31.341  1.00  0.00     0.020 A 
ATOM     54  C   UNL A   1      48.150  26.381  32.423  1.00  0.00     0.054 A 
BRANCH  54  55
ATOM     55  S   UNL A   1      49.675  25.442  32.716  1.00  0.00     0.124 S 
ATOM     56  O   UNL A   1      50.457  26.380  33.516  1.00  0.00    -0.237 OA
ATOM     57  O   UNL A   1      49.192  24.257  33.421  1.00  0.00    -0.237 OA
ATOM     58  O   UNL A   1      50.181  25.191  31.369  1.00  0.00    -0.744 OA
ENDBRANCH  54  55
ENDBRANCH  26  49
BRANCH  38  59
ATOM     59  C   UNL A   1      43.030  33.783  34.109  1.00  0.00    -0.014 A 
ATOM     60  C   UNL A   1      42.725  33.710  35.481  1.00  0.00     0.010 A 
ATOM     61  C   UNL A   1      43.815  34.848  33.635  1.00  0.00     0.010 A 
ATOM     62  C   UNL A   1      43.158  34.710  36.354  1.00  0.00     0.020 A 
ATOM     63  C   UNL A   1      44.268  35.839  34.509  1.00  0.00     0.020 A 
ATOM     64  C   UNL A   1      43.919  35.774  35.860  1.00  0.00     0.054 A 
BRANCH  64  65
ATOM     65  S   UNL A   1      44.479  37.059  37.012  1.00  0.00     0.124 S 
ATOM     66  O   UNL A   1      45.411  36.320  37.860  1.00  0.00    -0.237 OA
ATOM     67  O   UNL A   1      45.086  38.048  36.124  1.00  0.00    -0.237 OA
ATOM     68  O   UNL A   1      43.248  37.493  37.668  1.00  0.00    -0.744 OA
ENDBRANCH  64  65
ENDBRANCH  38  59
ENDBRANCH  12  13
ENDBRANCH   5   7
ENDBRANCH   2   3
ENDBRANCH   1   2
BRANCH   1  69
ATOM     69  C   UNL A   1      42.156  19.572  26.694  1.00  0.00     0.023 C 
BRANCH  69  70
ATOM     70  C   UNL A   1      42.999  19.469  25.426  1.00  0.00     0.116 C 
BRANCH  70  71
ATOM     71  N   UNL A   1      44.371  19.888  25.649  1.00  0.00    -0.356 N 
ATOM     72  C   UNL A   1      44.946  21.111  25.469  1.00  0.00     0.223 C 
ATOM     73  H   UNL A   1      44.976  19.184  25.979  1.00  0.00     0.163 HD
ATOM     74  O   UNL A   1      46.162  21.217  25.623  1.00  0.00    -0.275 OA
BRANCH  72  75
ATOM     75  C   UNL A   1      44.058  22.296  25.114  1.00  0.00     0.082 C 
ATOM     76  C   UNL A   1      44.803  23.331  24.250  1.00  0.00     0.035 C 
ATOM     77  C   UNL A   1      43.476  22.931  26.390  1.00  0.00     0.035 C 
ATOM     78  C   UNL A   1      45.758  24.217  25.050  1.00  0.00     0.117 C 
ATOM     79  C   UNL A   1      44.506  23.773  27.143  1.00  0.00     0.117 C 
ATOM     80  N   UNL A   1      45.049  24.750  26.210  1.00  0.00    -0.366 N 
BRANCH  80  81
ATOM     81  C   UNL A   1      45.102  26.095  26.503  1.00  0.00     0.116 A 
ATOM     82  C   UNL A   1      44.036  26.903  26.071  1.00  0.00     0.034 A 
ATOM     83  C   UNL A   1      46.106  26.737  27.242  1.00  0.00     0.293 A 
ATOM     84  C   UNL A   1      43.960  28.265  26.388  1.00  0.00     0.016 A 
ATOM     85  C   UNL A   1      46.048  28.106  27.569  1.00  0.00     0.101 A 
ATOM     86  C   UNL A   1      44.962  28.881  27.147  1.00  0.00     0.062 A 
BRANCH  83  87
ATOM     87  N   UNL A   1      47.294  26.018  27.668  1.00  0.00     0.064 N 
ATOM     88  O   UNL A   1      48.289  26.105  26.932  1.00  0.00    -0.258 OA
ATOM     89  O   UNL A   1      47.215  25.320  28.686  1.00  0.00    -0.258 OA
ENDBRANCH  83  87
BRANCH  86  90
ATOM     90  C   UNL A   1      44.854  30.346  27.491  1.00  0.00     0.416 C 
ATOM     91  F   UNL A   1      44.063  31.028  26.618  1.00  0.00    -0.166 F 
ATOM     92  F   UNL A   1      44.314  30.551  28.724  1.00  0.00    -0.166 F 
ATOM     93  F   UNL A   1      46.052  30.993  27.496  1.00  0.00    -0.166 F 
ENDBRANCH  86  90
ENDBRANCH  80  81
ENDBRANCH  72  75
ENDBRANCH  70  71
ENDBRANCH  69  70
ENDBRANCH   1  69
TORSDOF 17
ENDMDL
MODEL 2
REMARK VINA RESULT:      -9.6      5.125     10.936
REMARK SMILES O=C(NCCCCNC(=O)C1CCN(c2ccc(C(F)(F)F)cc2[N+](=O)[O-])CC1)c1ccc(-c2c3nc(c(-c4ccc(S(=O)(=O)[O-])cc4)c4ccc([nH]4)c(-c4ccc(S(=O)(=O)[O-])cc4)c4nc(c(-c5ccc(S(=O)(=O)[O-])cc5)c5ccc2[nH]5)C=C4)C=C3)cc1
REMARK SMILES IDX 5 1 4 2 3 3 1 4 2 5 30 7 31 8 89 9 32 10 88 11 33 12 34 13
REMARK SMILES IDX 35 14 82 15 36 16 87 17 81 18 83 19 37 20 86 21 80 22 79 23
REMARK SMILES IDX 38 25 68 26 49 27 67 28 50 29 53 30 66 31 84 32 51 33 52 34
REMARK SMILES IDX 65 36 85 37 54 38 39 39 40 40 48 41 41 42 47 43 42 44 43 45
REMARK SMILES IDX 44 46 45 47 46 48 69 49 70 50 78 51 71 52 77 53 72 54 73 55
REMARK SMILES IDX 74 56 75 57 76 58 55 59 56 60 64 61 57 62 63 63 58 64 59 65
REMARK SMILES IDX 60 66 61 67 62 68 6 69 7 70 8 71 9 72 10 74 11 75 12 76
REMARK SMILES IDX 29 77 13 78 28 79 14 80 15 81 16 82 24 83 17 84 23 85 18 86
REMARK SMILES IDX 25 87 26 88 27 89 19 90 20 91 21 92 22 93
REMARK H PARENT 3 6 83 24 53 35 8 73
REMARK Flexibility Score: inf
ROOT
ATOM      1  C   UNL A   1      40.065  21.738  26.847  1.00  0.00     0.023 C 
ENDROOT
BRANCH   1   2
ATOM      2  C   UNL A   1      40.302  23.198  27.211  1.00  0.00     0.116 C 
BRANCH   2   3
ATOM      3  N   UNL A   1      40.842  23.986  26.112  1.00  0.00    -0.352 N 
ATOM      4  O   UNL A   1      41.502  25.862  25.046  1.00  0.00    -0.269 OA
ATOM      5  C   UNL A   1      41.163  25.324  26.095  1.00  0.00     0.251 C 
ATOM      6  H   UNL A   1      40.998  23.498  25.271  1.00  0.00     0.163 HD
BRANCH   5   7
ATOM      7  C   UNL A   1      41.061  26.113  27.344  1.00  0.00     0.039 A 
ATOM      8  C   UNL A   1      39.968  25.947  28.195  1.00  0.00     0.014 A 
ATOM      9  C   UNL A   1      42.053  27.049  27.647  1.00  0.00     0.014 A 
ATOM     10  C   UNL A   1      39.791  26.818  29.263  1.00  0.00     0.010 A 
ATOM     11  C   UNL A   1      41.915  27.870  28.772  1.00  0.00     0.010 A 
ATOM     12  C   UNL A   1      40.764  27.785  29.569  1.00  0.00    -0.014 A 
BRANCH  12  13
ATOM     13  C   UNL A   1      40.561  28.646  30.763  1.00  0.00     0.031 A 
ATOM     14  C   UNL A   1      41.463  28.552  31.964  1.00  0.00     0.074 A 
ATOM     15  C   UNL A   1      39.589  29.579  30.719  1.00  0.00     0.049 A 
ATOM     16  N   UNL A   1      41.475  29.300  33.040  1.00  0.00    -0.248 NA
ATOM     17  C   UNL A   1      42.475  27.484  31.968  1.00  0.00     0.031 C 
ATOM     18  C   UNL A   1      38.639  29.752  29.617  1.00  0.00     0.029 A 
ATOM     19  N   UNL A   1      39.262  30.579  31.598  1.00  0.00    -0.354 N 
ATOM     20  C   UNL A   1      42.482  28.790  33.851  1.00  0.00     0.074 A 
ATOM     21  C   UNL A   1      43.044  27.652  33.155  1.00  0.00     0.031 C 
ATOM     22  C   UNL A   1      37.881  30.832  29.854  1.00  0.00     0.029 A 
ATOM     23  C   UNL A   1      38.254  31.397  31.145  1.00  0.00     0.049 A 
ATOM     24  H   UNL A   1      39.707  30.700  32.468  1.00  0.00     0.167 HD
ATOM     25  C   UNL A   1      42.905  29.235  35.059  1.00  0.00     0.031 A 
ATOM     26  C   UNL A   1      37.686  32.480  31.705  1.00  0.00     0.031 A 
ATOM     27  C   UNL A   1      42.342  30.368  35.750  1.00  0.00     0.049 A 
ATOM     28  C   UNL A   1      38.184  32.960  33.035  1.00  0.00     0.074 A 
ATOM     29  C   UNL A   1      42.702  30.894  36.980  1.00  0.00     0.029 A 
ATOM     30  N   UNL A   1      41.308  31.155  35.269  1.00  0.00    -0.354 N 
ATOM     31  N   UNL A   1      39.144  32.466  33.778  1.00  0.00    -0.248 NA
ATOM     32  C   UNL A   1      37.524  34.143  33.600  1.00  0.00     0.031 C 
ATOM     33  C   UNL A   1      41.862  31.979  37.257  1.00  0.00     0.029 A 
ATOM     34  C   UNL A   1      41.009  32.156  36.180  1.00  0.00     0.049 A 
ATOM     35  H   UNL A   1      40.851  31.024  34.407  1.00  0.00     0.167 HD
ATOM     36  C   UNL A   1      39.203  33.278  34.904  1.00  0.00     0.074 A 
ATOM     37  C   UNL A   1      38.206  34.315  34.724  1.00  0.00     0.031 C 
ATOM     38  C   UNL A   1      40.000  33.167  35.993  1.00  0.00     0.031 A 
BRANCH  25  39
ATOM     39  C   UNL A   1      44.029  28.487  35.726  1.00  0.00    -0.014 A 
ATOM     40  C   UNL A   1      45.368  28.870  35.531  1.00  0.00     0.010 A 
ATOM     41  C   UNL A   1      43.743  27.424  36.602  1.00  0.00     0.010 A 
ATOM     42  C   UNL A   1      46.401  28.186  36.178  1.00  0.00     0.020 A 
ATOM     43  C   UNL A   1      44.772  26.751  37.267  1.00  0.00     0.020 A 
ATOM     44  C   UNL A   1      46.098  27.128  37.040  1.00  0.00     0.054 A 
BRANCH  44  45
ATOM     45  S   UNL A   1      47.456  26.276  37.890  1.00  0.00     0.124 S 
ATOM     46  O   UNL A   1      48.556  27.221  37.721  1.00  0.00    -0.237 OA
ATOM     47  O   UNL A   1      46.949  26.140  39.253  1.00  0.00    -0.237 OA
ATOM     48  O   UNL A   1      47.593  25.021  37.153  1.00  0.00    -0.744 OA
ENDBRANCH  44  45
ENDBRANCH  25  39
BRANCH  26  49
ATOM     49  C   UNL A   1      36.571  33.168  31.003  1.00  0.00    -0.014 A 
ATOM     50  C   UNL A   1      35.273  33.171  31.541  1.00  0.00     0.010 A 
ATOM     51  C   UNL A   1      36.817  33.856  29.801  1.00  0.00     0.010 A 
ATOM     52  C   UNL A   1      34.237  33.839  30.881  1.00  0.00     0.020 A 
ATOM     53  C   UNL A   1      35.792  34.547  29.154  1.00  0.00     0.020 A 
ATOM     54  C   UNL A   1      34.505  34.524  29.692  1.00  0.00     0.054 A 
BRANCH  54  55
ATOM     55  S   UNL A   1      33.165  35.438  28.877  1.00  0.00     0.124 S 
ATOM     56  O   UNL A   1      32.508  34.388  28.108  1.00  0.00    -0.237 OA
ATOM     57  O   UNL A   1      32.405  35.967  30.007  1.00  0.00    -0.237 OA
ATOM     58  O   UNL A   1      33.875  36.444  28.090  1.00  0.00    -0.744 OA
ENDBRANCH  54  55
ENDBRANCH  26  49
BRANCH  38  59
ATOM     59  C   UNL A   1      39.819  34.200  37.070  1.00  0.00    -0.014 A 
ATOM     60  C   UNL A   1      40.366  35.489  36.931  1.00  0.00     0.010 A 
ATOM     61  C   UNL A   1      39.093  33.881  38.231  1.00  0.00     0.010 A 
ATOM     62  C   UNL A   1      40.227  36.427  37.956  1.00  0.00     0.020 A 
ATOM     63  C   UNL A   1      38.934  34.825  39.248  1.00  0.00     0.020 A 
ATOM     64  C   UNL A   1      39.520  36.086  39.113  1.00  0.00     0.054 A 
BRANCH  64  65
ATOM     65  S   UNL A   1      39.344  37.322  40.429  1.00  0.00     0.124 S 
ATOM     66  O   UNL A   1      40.734  37.685  40.690  1.00  0.00    -0.237 OA
ATOM     67  O   UNL A   1      38.532  38.358  39.795  1.00  0.00    -0.237 OA
ATOM     68  O   UNL A   1      38.678  36.588  41.503  1.00  0.00    -0.744 OA
ENDBRANCH  64  65
ENDBRANCH  38  59
ENDBRANCH  12  13
ENDBRANCH   5   7
ENDBRANCH   2   3
ENDBRANCH   1   2
BRANCH   1  69
ATOM     69  C   UNL A   1      38.918  21.484  25.867  1.00  0.00     0.023 C 
BRANCH  69  70
ATOM     70  C   UNL A   1      37.809  22.532  25.892  1.00  0.00     0.116 C 
BRANCH  70  71
ATOM     71  N   UNL A   1      36.491  21.927  25.949  1.00  0.00    -0.356 N 
ATOM     72  C   UNL A   1      35.330  22.316  25.347  1.00  0.00     0.223 C 
ATOM     73  H   UNL A   1      36.425  21.115  26.503  1.00  0.00     0.163 HD
ATOM     74  O   UNL A   1      34.295  21.709  25.619  1.00  0.00    -0.275 OA
BRANCH  72  75
ATOM     75  C   UNL A   1      35.368  23.464  24.348  1.00  0.00     0.082 C 
ATOM     76  C   UNL A   1      35.140  24.825  25.030  1.00  0.00     0.035 C 
ATOM     77  C   UNL A   1      34.357  23.219  23.212  1.00  0.00     0.035 C 
ATOM     78  C   UNL A   1      33.675  25.098  25.371  1.00  0.00     0.117 C 
ATOM     79  C   UNL A   1      32.917  23.485  23.649  1.00  0.00     0.117 C 
ATOM     80  N   UNL A   1      32.859  24.836  24.189  1.00  0.00    -0.366 N 
BRANCH  80  81
ATOM     81  C   UNL A   1      31.924  25.756  23.768  1.00  0.00     0.116 A 
ATOM     82  C   UNL A   1      30.770  25.927  24.552  1.00  0.00     0.034 A 
ATOM     83  C   UNL A   1      32.036  26.586  22.642  1.00  0.00     0.293 A 
ATOM     84  C   UNL A   1      29.802  26.892  24.251  1.00  0.00     0.016 A 
ATOM     85  C   UNL A   1      31.072  27.561  22.321  1.00  0.00     0.101 A 
ATOM     86  C   UNL A   1      29.945  27.726  23.134  1.00  0.00     0.062 A 
BRANCH  83  87
ATOM     87  N   UNL A   1      33.144  26.438  21.715  1.00  0.00     0.064 N 
ATOM     88  O   UNL A   1      34.073  27.254  21.826  1.00  0.00    -0.258 OA
ATOM     89  O   UNL A   1      33.059  25.564  20.844  1.00  0.00    -0.258 OA
ENDBRANCH  83  87
BRANCH  86  90
ATOM     90  C   UNL A   1      28.899  28.770  22.834  1.00  0.00     0.416 C 
ATOM     91  F   UNL A   1      29.096  29.374  21.630  1.00  0.00    -0.166 F 
ATOM     92  F   UNL A   1      27.642  28.247  22.789  1.00  0.00    -0.166 F 
ATOM     93  F   UNL A   1      28.853  29.773  23.753  1.00  0.00    -0.166 F 
ENDBRANCH  86  90
ENDBRANCH  80  81
ENDBRANCH  72  75
ENDBRANCH  70  71
ENDBRANCH  69  70
ENDBRANCH   1  69
TORSDOF 17
ENDMDL
MODEL 3
REMARK VINA RESULT:      -9.5      5.740     11.682
REMARK SMILES O=C(NCCCCNC(=O)C1CCN(c2ccc(C(F)(F)F)cc2[N+](=O)[O-])CC1)c1ccc(-c2c3nc(c(-c4ccc(S(=O)(=O)[O-])cc4)c4ccc([nH]4)c(-c4ccc(S(=O)(=O)[O-])cc4)c4nc(c(-c5ccc(S(=O)(=O)[O-])cc5)c5ccc2[nH]5)C=C4)C=C3)cc1
REMARK SMILES IDX 5 1 4 2 3 3 1 4 2 5 30 7 31 8 89 9 32 10 88 11 33 12 34 13
REMARK SMILES IDX 35 14 82 15 36 16 87 17 81 18 83 19 37 20 86 21 80 22 79 23
REMARK SMILES IDX 38 25 68 26 49 27 67 28 50 29 53 30 66 31 84 32 51 33 52 34
REMARK SMILES IDX 65 36 85 37 54 38 39 39 40 40 48 41 41 42 47 43 42 44 43 45
REMARK SMILES IDX 44 46 45 47 46 48 69 49 70 50 78 51 71 52 77 53 72 54 73 55
REMARK SMILES IDX 74 56 75 57 76 58 55 59 56 60 64 61 57 62 63 63 58 64 59 65
REMARK SMILES IDX 60 66 61 67 62 68 6 69 7 70 8 71 9 72 10 74 11 75 12 76
REMARK SMILES IDX 29 77 13 78 28 79 14 80 15 81 16 82 24 83 17 84 23 85 18 86
REMARK SMILES IDX 25 87 26 88 27 89 19 90 20 91 21 92 22 93
REMARK H PARENT 3 6 83 24 53 35 8 73
REMARK Flexibility Score: inf
ROOT
ATOM      1  C   UNL A   1      38.287  19.816  25.213  1.00  0.00     0.023 C 
ENDROOT
BRANCH   1   2
ATOM      2  C   UNL A   1      39.440  20.174  26.142  1.00  0.00     0.116 C 
BRANCH   2   3
ATOM      3  N   UNL A   1      40.579  19.277  26.019  1.00  0.00    -0.352 N 
ATOM      4  O   UNL A   1      42.759  18.718  25.841  1.00  0.00    -0.269 OA
ATOM      5  C   UNL A   1      41.920  19.581  26.080  1.00  0.00     0.251 C 
ATOM      6  H   UNL A   1      40.362  18.327  25.874  1.00  0.00     0.163 HD
BRANCH   5   7
ATOM      7  C   UNL A   1      42.338  20.964  26.401  1.00  0.00     0.039 A 
ATOM      8  C   UNL A   1      42.567  21.887  25.380  1.00  0.00     0.014 A 
ATOM      9  C   UNL A   1      42.533  21.330  27.736  1.00  0.00     0.014 A 
ATOM     10  C   UNL A   1      43.133  23.120  25.682  1.00  0.00     0.010 A 
ATOM     11  C   UNL A   1      43.025  22.603  28.044  1.00  0.00     0.010 A 
ATOM     12  C   UNL A   1      43.363  23.496  27.017  1.00  0.00    -0.014 A 
BRANCH  12  13
ATOM     13  C   UNL A   1      43.905  24.852  27.291  1.00  0.00     0.031 A 
ATOM     14  C   UNL A   1      45.342  25.198  27.008  1.00  0.00     0.074 A 
ATOM     15  C   UNL A   1      43.055  25.801  27.732  1.00  0.00     0.049 A 
ATOM     16  N   UNL A   1      45.937  26.361  27.101  1.00  0.00    -0.248 NA
ATOM     17  C   UNL A   1      46.227  24.107  26.570  1.00  0.00     0.031 C 
ATOM     18  C   UNL A   1      41.645  25.579  28.062  1.00  0.00     0.029 A 
ATOM     19  N   UNL A   1      43.237  27.143  27.941  1.00  0.00    -0.354 N 
ATOM     20  C   UNL A   1      47.264  26.143  26.747  1.00  0.00     0.074 A 
ATOM     21  C   UNL A   1      47.394  24.730  26.460  1.00  0.00     0.031 C 
ATOM     22  C   UNL A   1      41.074  26.753  28.368  1.00  0.00     0.029 A 
ATOM     23  C   UNL A   1      42.086  27.800  28.309  1.00  0.00     0.049 A 
ATOM     24  H   UNL A   1      44.107  27.593  27.839  1.00  0.00     0.167 HD
ATOM     25  C   UNL A   1      48.278  27.039  26.660  1.00  0.00     0.031 A 
ATOM     26  C   UNL A   1      41.865  29.101  28.571  1.00  0.00     0.031 A 
ATOM     27  C   UNL A   1      48.146  28.445  26.948  1.00  0.00     0.049 A 
ATOM     28  C   UNL A   1      43.001  30.073  28.453  1.00  0.00     0.074 A 
ATOM     29  C   UNL A   1      49.116  29.431  26.892  1.00  0.00     0.029 A 
ATOM     30  N   UNL A   1      46.969  29.066  27.338  1.00  0.00    -0.354 N 
ATOM     31  N   UNL A   1      44.244  29.843  28.107  1.00  0.00    -0.248 NA
ATOM     32  C   UNL A   1      42.703  31.477  28.756  1.00  0.00     0.031 C 
ATOM     33  C   UNL A   1      48.534  30.644  27.279  1.00  0.00     0.029 A 
ATOM     34  C   UNL A   1      47.191  30.421  27.535  1.00  0.00     0.049 A 
ATOM     35  H   UNL A   1      46.104  28.614  27.459  1.00  0.00     0.167 HD
ATOM     36  C   UNL A   1      44.881  31.077  28.155  1.00  0.00     0.074 A 
ATOM     37  C   UNL A   1      43.876  32.052  28.526  1.00  0.00     0.031 C 
ATOM     38  C   UNL A   1      46.183  31.373  27.925  1.00  0.00     0.031 A 
BRANCH  25  39
ATOM     39  C   UNL A   1      49.631  26.525  26.248  1.00  0.00    -0.014 A 
ATOM     40  C   UNL A   1      50.063  26.614  24.912  1.00  0.00     0.010 A 
ATOM     41  C   UNL A   1      50.507  25.998  27.215  1.00  0.00     0.010 A 
ATOM     42  C   UNL A   1      51.333  26.161  24.546  1.00  0.00     0.020 A 
ATOM     43  C   UNL A   1      51.787  25.562  26.856  1.00  0.00     0.020 A 
ATOM     44  C   UNL A   1      52.187  25.634  25.520  1.00  0.00     0.054 A 
BRANCH  44  45
ATOM     45  S   UNL A   1      53.842  25.079  25.023  1.00  0.00     0.124 S 
ATOM     46  O   UNL A   1      54.089  25.895  23.838  1.00  0.00    -0.237 OA
ATOM     47  O   UNL A   1      54.656  25.405  26.191  1.00  0.00    -0.237 OA
ATOM     48  O   UNL A   1      53.667  23.650  24.770  1.00  0.00    -0.744 OA
ENDBRANCH  44  45
ENDBRANCH  25  39
BRANCH  26  49
ATOM     49  C   UNL A   1      40.509  29.544  28.987  1.00  0.00    -0.014 A 
ATOM     50  C   UNL A   1      39.479  29.696  28.044  1.00  0.00     0.010 A 
ATOM     51  C   UNL A   1      40.237  29.786  30.346  1.00  0.00     0.010 A 
ATOM     52  C   UNL A   1      38.202  30.095  28.451  1.00  0.00     0.020 A 
ATOM     53  C   UNL A   1      38.957  30.158  30.760  1.00  0.00     0.020 A 
ATOM     54  C   UNL A   1      37.950  30.322  29.808  1.00  0.00     0.054 A 
BRANCH  54  55
ATOM     55  S   UNL A   1      36.274  30.779  30.331  1.00  0.00     0.124 S 
ATOM     56  O   UNL A   1      36.431  32.196  30.643  1.00  0.00    -0.237 OA
ATOM     57  O   UNL A   1      35.473  30.476  29.147  1.00  0.00    -0.237 OA
ATOM     58  O   UNL A   1      36.029  29.906  31.477  1.00  0.00    -0.744 OA
ENDBRANCH  54  55
ENDBRANCH  26  49
BRANCH  38  59
ATOM     59  C   UNL A   1      46.583  32.814  28.071  1.00  0.00    -0.014 A 
ATOM     60  C   UNL A   1      46.521  33.694  26.974  1.00  0.00     0.010 A 
ATOM     61  C   UNL A   1      47.022  33.296  29.316  1.00  0.00     0.010 A 
ATOM     62  C   UNL A   1      46.936  35.020  27.111  1.00  0.00     0.020 A 
ATOM     63  C   UNL A   1      47.416  34.628  29.461  1.00  0.00     0.020 A 
ATOM     64  C   UNL A   1      47.389  35.477  28.352  1.00  0.00     0.054 A 
BRANCH  64  65
ATOM     65  S   UNL A   1      47.915  37.206  28.511  1.00  0.00     0.124 S 
ATOM     66  O   UNL A   1      47.646  37.728  27.173  1.00  0.00    -0.237 OA
ATOM     67  O   UNL A   1      47.046  37.713  29.571  1.00  0.00    -0.237 OA
ATOM     68  O   UNL A   1      49.328  37.104  28.869  1.00  0.00    -0.744 OA
ENDBRANCH  64  65
ENDBRANCH  38  59
ENDBRANCH  12  13
ENDBRANCH   5   7
ENDBRANCH   2   3
ENDBRANCH   1   2
BRANCH   1  69
ATOM     69  C   UNL A   1      37.466  21.001  24.701  1.00  0.00     0.023 C 
BRANCH  69  70
ATOM     70  C   UNL A   1      36.508  21.608  25.723  1.00  0.00     0.116 C 
BRANCH  70  71
ATOM     71  N   UNL A   1      35.135  21.199  25.491  1.00  0.00    -0.356 N 
ATOM     72  C   UNL A   1      34.123  21.869  24.866  1.00  0.00     0.223 C 
ATOM     73  H   UNL A   1      34.898  20.307  25.834  1.00  0.00     0.163 HD
ATOM     74  O   UNL A   1      32.998  21.372  24.874  1.00  0.00    -0.275 OA
BRANCH  72  75
ATOM     75  C   UNL A   1      34.434  23.185  24.166  1.00  0.00     0.082 C 
ATOM     76  C   UNL A   1      34.203  24.394  25.091  1.00  0.00     0.035 C 
ATOM     77  C   UNL A   1      33.624  23.301  22.861  1.00  0.00     0.035 C 
ATOM     78  C   UNL A   1      32.729  24.764  25.252  1.00  0.00     0.117 C 
ATOM     79  C   UNL A   1      32.156  23.643  23.117  1.00  0.00     0.117 C 
ATOM     80  N   UNL A   1      32.116  24.850  23.929  1.00  0.00    -0.366 N 
BRANCH  80  81
ATOM     81  C   UNL A   1      31.352  25.943  23.584  1.00  0.00     0.116 A 
ATOM     82  C   UNL A   1      29.973  25.891  23.852  1.00  0.00     0.034 A 
ATOM     83  C   UNL A   1      31.829  27.138  23.026  1.00  0.00     0.293 A 
ATOM     84  C   UNL A   1      29.127  26.980  23.610  1.00  0.00     0.016 A 
ATOM     85  C   UNL A   1      30.994  28.244  22.773  1.00  0.00     0.101 A 
ATOM     86  C   UNL A   1      29.629  28.173  23.074  1.00  0.00     0.062 A 
BRANCH  83  87
ATOM     87  N   UNL A   1      33.221  27.272  22.631  1.00  0.00     0.064 N 
ATOM     88  O   UNL A   1      33.522  26.847  21.505  1.00  0.00    -0.258 OA
ATOM     89  O   UNL A   1      34.016  27.734  23.459  1.00  0.00    -0.258 OA
ENDBRANCH  83  87
BRANCH  86  90
ATOM     90  C   UNL A   1      28.704  29.340  22.835  1.00  0.00     0.416 C 
ATOM     91  F   UNL A   1      27.396  29.015  23.024  1.00  0.00    -0.166 F 
ATOM     92  F   UNL A   1      28.956  30.381  23.676  1.00  0.00    -0.166 F 
ATOM     93  F   UNL A   1      28.785  29.849  21.575  1.00  0.00    -0.166 F 
ENDBRANCH  86  90
ENDBRANCH  80  81
ENDBRANCH  72  75
ENDBRANCH  70  71
ENDBRANCH  69  70
ENDBRANCH   1  69
TORSDOF 17
ENDMDL
