MODEL 1
REMARK VINA RESULT:     -14.7      0.000      0.000
REMARK SMILES Cc1c(C(=O)NCCCCNC(=O)c2ccc(-c3c4nc(c(-c5ccc(S(=O)(=O)[O-])cc5)c5ccc([nH]5)c(-c5ccc(S(=O)(=O)[O-])cc5)c5nc(c(-c6ccc(S(=O)(=O)[O-])cc6)c6ccc3[nH]6)C=C5)C=C4)cc2)cccc1-n1c(C)cc(/C=C2/C(=O)NC(=S)N=C2O)c1C
REMARK SMILES IDX 8 1 7 2 6 3 4 4 5 5 3 7 1 8 2 9 77 10 74 11 76 12 75 13
REMARK SMILES IDX 78 14 79 15 93 16 80 17 81 18 82 19 94 20 83 21 84 22 85 23
REMARK SMILES IDX 91 24 86 25 87 26 90 27 88 28 89 30 92 31 9 33 10 34 11 35
REMARK SMILES IDX 12 36 13 38 14 39 15 40 73 41 16 42 72 43 17 44 18 45 19 46
REMARK SMILES IDX 66 47 20 48 71 49 65 50 67 51 21 52 70 53 64 54 63 55 22 57
REMARK SMILES IDX 52 58 33 59 51 60 34 61 37 62 50 63 68 64 35 65 36 66 49 68
REMARK SMILES IDX 69 69 38 70 23 71 24 72 32 73 25 74 31 75 26 76 27 77 28 78
REMARK SMILES IDX 29 79 30 80 53 81 54 82 62 83 55 84 61 85 56 86 57 87 58 88
REMARK SMILES IDX 59 89 60 90 39 91 40 92 48 93 41 94 47 95 42 96 43 97 44 98
REMARK SMILES IDX 45 99 46 100
REMARK H PARENT 6 6 87 29 92 32 11 37 67 56 37 67
REMARK Flexibility Score: inf
ROOT
ATOM      1  C   UNL A   1      31.863  30.741  26.109  1.00  0.00     0.023 C 
ENDROOT
BRANCH   1   2
ATOM      2  C   UNL A   1      31.073  29.902  25.083  1.00  0.00     0.116 C 
BRANCH   2   3
ATOM      3  N   UNL A   1      31.867  29.647  23.896  1.00  0.00    -0.352 N 
ATOM      4  C   UNL A   1      32.669  28.646  23.424  1.00  0.00     0.251 C 
ATOM      5  O   UNL A   1      33.139  28.884  22.302  1.00  0.00    -0.269 OA
ATOM      6  H   UNL A   1      31.816  30.397  23.260  1.00  0.00     0.163 HD
BRANCH   4   7
ATOM      7  C   UNL A   1      33.027  27.318  24.055  1.00  0.00     0.044 A 
ATOM      8  C   UNL A   1      31.558  25.679  22.721  1.00  0.00     0.047 C 
ATOM      9  C   UNL A   1      32.538  26.016  23.800  1.00  0.00    -0.014 A 
ATOM     10  C   UNL A   1      32.954  24.961  24.663  1.00  0.00     0.049 A 
ATOM     11  C   UNL A   1      33.889  27.480  25.177  1.00  0.00     0.014 A 
ATOM     12  C   UNL A   1      33.785  25.158  25.768  1.00  0.00     0.027 A 
ATOM     13  C   UNL A   1      34.254  26.431  26.025  1.00  0.00     0.003 A 
BRANCH  10  14
ATOM     14  N   UNL A   1      32.415  23.661  24.513  1.00  0.00    -0.318 N 
ATOM     15  C   UNL A   1      31.346  23.156  25.227  1.00  0.00     0.020 A 
ATOM     16  C   UNL A   1      33.020  22.633  23.791  1.00  0.00     0.027 A 
ATOM     17  C   UNL A   1      30.626  23.924  26.282  1.00  0.00     0.065 C 
ATOM     18  C   UNL A   1      31.162  21.852  24.816  1.00  0.00     0.031 A 
ATOM     19  C   UNL A   1      32.199  21.520  23.901  1.00  0.00    -0.003 A 
ATOM     20  C   UNL A   1      34.359  22.831  23.156  1.00  0.00     0.065 C 
BRANCH  19  21
ATOM     21  C   UNL A   1      32.402  20.192  23.412  1.00  0.00     0.029 C 
ATOM     22  C   UNL A   1      32.690  19.035  24.033  1.00  0.00     0.102 C 
ATOM     23  C   UNL A   1      32.668  17.817  23.184  1.00  0.00     0.262 C 
ATOM     24  C   UNL A   1      32.948  18.752  25.445  1.00  0.00     0.226 C 
ATOM     25  O   UNL A   1      32.756  17.816  21.962  1.00  0.00    -0.269 OA
ATOM     26  N   UNL A   1      32.529  16.654  23.891  1.00  0.00    -0.297 N 
ATOM     27  N   UNL A   1      32.882  17.609  26.025  1.00  0.00    -0.184 NA
ATOM     28  C   UNL A   1      32.563  16.520  25.257  1.00  0.00     0.203 C 
ATOM     29  H   UNL A   1      32.392  15.830  23.370  1.00  0.00     0.172 HD
ATOM     30  S   UNL A   1      32.282  14.995  25.897  1.00  0.00    -0.038 S 
BRANCH  24  31
ATOM     31  O   UNL A   1      33.367  19.776  26.192  1.00  0.00    -0.493 OA
ATOM     32  H   UNL A   1      32.847  20.071  26.914  1.00  0.00     0.295 HD
ENDBRANCH  24  31
ENDBRANCH  19  21
ENDBRANCH  10  14
ENDBRANCH   4   7
ENDBRANCH   2   3
ENDBRANCH   1   2
BRANCH   1  33
ATOM     33  C   UNL A   1      32.537  29.947  27.225  1.00  0.00     0.023 C 
BRANCH  33  34
ATOM     34  C   UNL A   1      34.048  29.999  27.127  1.00  0.00     0.116 C 
BRANCH  34  35
ATOM     35  N   UNL A   1      34.676  31.192  27.663  1.00  0.00    -0.352 N 
ATOM     36  C   UNL A   1      35.568  31.174  28.735  1.00  0.00     0.251 C 
ATOM     37  H   UNL A   1      34.460  32.059  27.249  1.00  0.00     0.163 HD
ATOM     38  O   UNL A   1      35.619  32.034  29.587  1.00  0.00    -0.269 OA
BRANCH  36  39
ATOM     39  C   UNL A   1      36.581  30.089  28.686  1.00  0.00     0.039 A 
ATOM     40  C   UNL A   1      36.792  29.333  29.844  1.00  0.00     0.014 A 
ATOM     41  C   UNL A   1      37.484  30.040  27.627  1.00  0.00     0.014 A 
ATOM     42  C   UNL A   1      38.000  28.655  30.006  1.00  0.00     0.010 A 
ATOM     43  C   UNL A   1      38.725  29.480  27.844  1.00  0.00     0.010 A 
ATOM     44  C   UNL A   1      38.997  28.809  29.044  1.00  0.00    -0.014 A 
BRANCH  44  45
ATOM     45  C   UNL A   1      40.364  28.314  29.176  1.00  0.00     0.031 A 
ATOM     46  C   UNL A   1      40.652  26.907  28.805  1.00  0.00     0.074 A 
ATOM     47  C   UNL A   1      41.373  29.125  29.562  1.00  0.00     0.049 A 
ATOM     48  N   UNL A   1      41.725  26.267  29.127  1.00  0.00    -0.248 NA
ATOM     49  C   UNL A   1      39.700  26.083  28.066  1.00  0.00     0.031 C 
ATOM     50  C   UNL A   1      42.808  28.864  29.457  1.00  0.00     0.029 A 
ATOM     51  N   UNL A   1      41.337  30.307  30.273  1.00  0.00    -0.354 N 
ATOM     52  C   UNL A   1      41.733  25.079  28.433  1.00  0.00     0.074 A 
ATOM     53  C   UNL A   1      40.425  24.987  27.830  1.00  0.00     0.031 C 
ATOM     54  C   UNL A   1      43.459  29.672  30.311  1.00  0.00     0.029 A 
ATOM     55  C   UNL A   1      42.457  30.358  31.107  1.00  0.00     0.049 A 
ATOM     56  H   UNL A   1      40.641  30.998  30.205  1.00  0.00     0.167 HD
ATOM     57  C   UNL A   1      42.885  24.353  28.362  1.00  0.00     0.031 A 
ATOM     58  C   UNL A   1      42.355  30.264  32.471  1.00  0.00     0.031 A 
ATOM     59  C   UNL A   1      43.925  24.899  29.237  1.00  0.00     0.049 A 
ATOM     60  C   UNL A   1      42.978  28.998  33.055  1.00  0.00     0.074 A 
ATOM     61  C   UNL A   1      45.073  25.649  29.048  1.00  0.00     0.029 A 
ATOM     62  N   UNL A   1      43.676  24.923  30.600  1.00  0.00    -0.354 N 
ATOM     63  N   UNL A   1      43.572  28.069  32.355  1.00  0.00    -0.248 NA
ATOM     64  C   UNL A   1      42.907  28.648  34.478  1.00  0.00     0.031 C 
ATOM     65  C   UNL A   1      45.487  26.154  30.319  1.00  0.00     0.029 A 
ATOM     66  C   UNL A   1      44.601  25.692  31.276  1.00  0.00     0.049 A 
ATOM     67  H   UNL A   1      42.930  24.448  31.034  1.00  0.00     0.167 HD
ATOM     68  C   UNL A   1      43.900  27.016  33.167  1.00  0.00     0.074 A 
ATOM     69  C   UNL A   1      43.481  27.433  34.494  1.00  0.00     0.031 C 
ATOM     70  C   UNL A   1      44.449  25.854  32.710  1.00  0.00     0.031 A 
BRANCH  57  71
ATOM     71  C   UNL A   1      43.123  23.257  27.349  1.00  0.00    -0.014 A 
ATOM     72  C   UNL A   1      42.449  22.025  27.482  1.00  0.00     0.010 A 
ATOM     73  C   UNL A   1      44.035  23.345  26.279  1.00  0.00     0.010 A 
ATOM     74  C   UNL A   1      42.739  20.924  26.658  1.00  0.00     0.020 A 
ATOM     75  C   UNL A   1      44.364  22.246  25.475  1.00  0.00     0.020 A 
ATOM     76  C   UNL A   1      43.720  21.034  25.677  1.00  0.00     0.054 A 
BRANCH  76  77
ATOM     77  S   UNL A   1      44.147  19.587  24.675  1.00  0.00     0.124 S 
ATOM     78  O   UNL A   1      45.298  19.038  25.389  1.00  0.00    -0.237 OA
ATOM     79  O   UNL A   1      42.925  18.791  24.737  1.00  0.00    -0.237 OA
ATOM     80  O   UNL A   1      44.453  20.153  23.362  1.00  0.00    -0.744 OA
ENDBRANCH  76  77
ENDBRANCH  57  71
BRANCH  58  81
ATOM     81  C   UNL A   1      41.155  30.971  33.013  1.00  0.00    -0.014 A 
ATOM     82  C   UNL A   1      39.967  30.215  33.128  1.00  0.00     0.010 A 
ATOM     83  C   UNL A   1      41.297  32.133  33.788  1.00  0.00     0.010 A 
ATOM     84  C   UNL A   1      39.055  30.478  34.151  1.00  0.00     0.020 A 
ATOM     85  C   UNL A   1      40.366  32.414  34.801  1.00  0.00     0.020 A 
ATOM     86  C   UNL A   1      39.307  31.529  35.030  1.00  0.00     0.054 A 
BRANCH  86  87
ATOM     87  S   UNL A   1      38.351  31.604  36.577  1.00  0.00     0.124 S 
ATOM     88  O   UNL A   1      39.295  32.224  37.501  1.00  0.00    -0.237 OA
ATOM     89  O   UNL A   1      37.208  32.436  36.193  1.00  0.00    -0.237 OA
ATOM     90  O   UNL A   1      38.035  30.205  36.845  1.00  0.00    -0.744 OA
ENDBRANCH  86  87
ENDBRANCH  58  81
BRANCH  70  91
ATOM     91  C   UNL A   1      44.856  24.737  33.627  1.00  0.00    -0.014 A 
ATOM     92  C   UNL A   1      46.202  24.517  33.963  1.00  0.00     0.010 A 
ATOM     93  C   UNL A   1      43.905  23.797  34.079  1.00  0.00     0.010 A 
ATOM     94  C   UNL A   1      46.576  23.436  34.771  1.00  0.00     0.020 A 
ATOM     95  C   UNL A   1      44.270  22.704  34.868  1.00  0.00     0.020 A 
ATOM     96  C   UNL A   1      45.604  22.542  35.229  1.00  0.00     0.054 A 
BRANCH  96  97
ATOM     97  S   UNL A   1      46.106  21.139  36.259  1.00  0.00     0.124 S 
ATOM     98  O   UNL A   1      45.469  20.005  35.593  1.00  0.00    -0.237 OA
ATOM     99  O   UNL A   1      47.562  21.194  36.150  1.00  0.00    -0.237 OA
ATOM    100  O   UNL A   1      45.564  21.465  37.576  1.00  0.00    -0.744 OA
ENDBRANCH  96  97
ENDBRANCH  70  91
ENDBRANCH  44  45
ENDBRANCH  36  39
ENDBRANCH  34  35
ENDBRANCH  33  34
ENDBRANCH   1  33
TORSDOF 17
ENDMDL
MODEL 2
REMARK VINA RESULT:     -14.7      1.384      2.174
REMARK SMILES Cc1c(C(=O)NCCCCNC(=O)c2ccc(-c3c4nc(c(-c5ccc(S(=O)(=O)[O-])cc5)c5ccc([nH]5)c(-c5ccc(S(=O)(=O)[O-])cc5)c5nc(c(-c6ccc(S(=O)(=O)[O-])cc6)c6ccc3[nH]6)C=C5)C=C4)cc2)cccc1-n1c(C)cc(/C=C2/C(=O)NC(=S)N=C2O)c1C
REMARK SMILES IDX 8 1 7 2 6 3 4 4 5 5 3 7 1 8 2 9 77 10 74 11 76 12 75 13
REMARK SMILES IDX 78 14 79 15 93 16 80 17 81 18 82 19 94 20 83 21 84 22 85 23
REMARK SMILES IDX 91 24 86 25 87 26 90 27 88 28 89 30 92 31 9 33 10 34 11 35
REMARK SMILES IDX 12 36 13 38 14 39 15 40 73 41 16 42 72 43 17 44 18 45 19 46
REMARK SMILES IDX 66 47 20 48 71 49 65 50 67 51 21 52 70 53 64 54 63 55 22 57
REMARK SMILES IDX 52 58 33 59 51 60 34 61 37 62 50 63 68 64 35 65 36 66 49 68
REMARK SMILES IDX 69 69 38 70 23 71 24 72 32 73 25 74 31 75 26 76 27 77 28 78
REMARK SMILES IDX 29 79 30 80 53 81 54 82 62 83 55 84 61 85 56 86 57 87 58 88
REMARK SMILES IDX 59 89 60 90 39 91 40 92 48 93 41 94 47 95 42 96 43 97 44 98
REMARK SMILES IDX 45 99 46 100
REMARK H PARENT 6 6 87 29 92 32 11 37 67 56 37 67
REMARK Flexibility Score: inf
ROOT
ATOM      1  C   UNL A   1      32.664  30.437  26.040  1.00  0.00     0.023 C 
ENDROOT
BRANCH   1   2
ATOM      2  C   UNL A   1      31.179  30.854  26.005  1.00  0.00     0.116 C 
BRANCH   2   3
ATOM      3  N   UNL A   1      30.658  30.815  24.652  1.00  0.00    -0.352 N 
ATOM      4  C   UNL A   1      30.343  29.858  23.728  1.00  0.00     0.251 C 
ATOM      5  O   UNL A   1      29.896  30.327  22.671  1.00  0.00    -0.269 OA
ATOM      6  H   UNL A   1      30.484  31.720  24.306  1.00  0.00     0.163 HD
BRANCH   4   7
ATOM      7  C   UNL A   1      30.441  28.352  23.827  1.00  0.00     0.044 A 
ATOM      8  C   UNL A   1      32.967  27.957  23.541  1.00  0.00     0.047 C 
ATOM      9  C   UNL A   1      31.556  27.491  23.715  1.00  0.00    -0.014 A 
ATOM     10  C   UNL A   1      31.323  26.085  23.702  1.00  0.00     0.049 A 
ATOM     11  C   UNL A   1      29.156  27.742  23.900  1.00  0.00     0.014 A 
ATOM     12  C   UNL A   1      30.047  25.521  23.754  1.00  0.00     0.027 A 
ATOM     13  C   UNL A   1      28.955  26.359  23.853  1.00  0.00     0.003 A 
BRANCH  10  14
ATOM     14  N   UNL A   1      32.395  25.185  23.491  1.00  0.00    -0.318 N 
ATOM     15  C   UNL A   1      32.901  24.829  22.255  1.00  0.00     0.020 A 
ATOM     16  C   UNL A   1      32.942  24.362  24.473  1.00  0.00     0.027 A 
ATOM     17  C   UNL A   1      32.357  25.339  20.965  1.00  0.00     0.065 C 
ATOM     18  C   UNL A   1      33.903  23.906  22.478  1.00  0.00     0.031 A 
ATOM     19  C   UNL A   1      33.947  23.620  23.870  1.00  0.00    -0.003 A 
ATOM     20  C   UNL A   1      32.367  24.334  25.853  1.00  0.00     0.065 C 
BRANCH  19  21
ATOM     21  C   UNL A   1      34.760  22.580  24.419  1.00  0.00     0.029 C 
ATOM     22  C   UNL A   1      34.522  21.280  24.662  1.00  0.00     0.102 C 
ATOM     23  C   UNL A   1      35.690  20.475  25.102  1.00  0.00     0.262 C 
ATOM     24  C   UNL A   1      33.305  20.488  24.488  1.00  0.00     0.226 C 
ATOM     25  O   UNL A   1      36.718  20.938  25.580  1.00  0.00    -0.269 OA
ATOM     26  N   UNL A   1      35.530  19.127  24.919  1.00  0.00    -0.297 N 
ATOM     27  N   UNL A   1      33.223  19.209  24.412  1.00  0.00    -0.184 NA
ATOM     28  C   UNL A   1      34.381  18.487  24.528  1.00  0.00     0.203 C 
ATOM     29  H   UNL A   1      36.319  18.561  25.084  1.00  0.00     0.172 HD
ATOM     30  S   UNL A   1      34.457  16.828  24.289  1.00  0.00    -0.038 S 
BRANCH  24  31
ATOM     31  O   UNL A   1      32.151  21.160  24.482  1.00  0.00    -0.493 OA
ATOM     32  H   UNL A   1      32.118  22.036  24.812  1.00  0.00     0.295 HD
ENDBRANCH  24  31
ENDBRANCH  19  21
ENDBRANCH  10  14
ENDBRANCH   4   7
ENDBRANCH   2   3
ENDBRANCH   1   2
BRANCH   1  33
ATOM     33  C   UNL A   1      33.003  29.306  27.008  1.00  0.00     0.023 C 
BRANCH  33  34
ATOM     34  C   UNL A   1      34.481  29.267  27.340  1.00  0.00     0.116 C 
BRANCH  34  35
ATOM     35  N   UNL A   1      35.180  30.536  27.266  1.00  0.00    -0.352 N 
ATOM     36  C   UNL A   1      36.340  30.817  27.987  1.00  0.00     0.251 C 
ATOM     37  H   UNL A   1      34.816  31.235  26.676  1.00  0.00     0.163 HD
ATOM     38  O   UNL A   1      36.592  31.900  28.468  1.00  0.00    -0.269 OA
BRANCH  36  39
ATOM     39  C   UNL A   1      37.346  29.723  28.002  1.00  0.00     0.039 A 
ATOM     40  C   UNL A   1      37.459  28.950  29.162  1.00  0.00     0.014 A 
ATOM     41  C   UNL A   1      38.329  29.682  27.017  1.00  0.00     0.014 A 
ATOM     42  C   UNL A   1      38.647  28.260  29.408  1.00  0.00     0.010 A 
ATOM     43  C   UNL A   1      39.544  29.108  27.322  1.00  0.00     0.010 A 
ATOM     44  C   UNL A   1      39.717  28.419  28.530  1.00  0.00    -0.014 A 
BRANCH  44  45
ATOM     45  C   UNL A   1      41.065  27.911  28.761  1.00  0.00     0.031 A 
ATOM     46  C   UNL A   1      41.379  26.514  28.371  1.00  0.00     0.074 A 
ATOM     47  C   UNL A   1      42.041  28.702  29.257  1.00  0.00     0.049 A 
ATOM     48  N   UNL A   1      42.418  25.857  28.762  1.00  0.00    -0.248 NA
ATOM     49  C   UNL A   1      40.490  25.720  27.528  1.00  0.00     0.031 C 
ATOM     50  C   UNL A   1      43.480  28.435  29.266  1.00  0.00     0.029 A 
ATOM     51  N   UNL A   1      41.951  29.861  30.000  1.00  0.00    -0.354 N 
ATOM     52  C   UNL A   1      42.480  24.692  28.034  1.00  0.00     0.074 A 
ATOM     53  C   UNL A   1      41.227  24.627  27.320  1.00  0.00     0.031 C 
ATOM     54  C   UNL A   1      44.059  29.210  30.198  1.00  0.00     0.029 A 
ATOM     55  C   UNL A   1      42.995  29.878  30.928  1.00  0.00     0.049 A 
ATOM     56  H   UNL A   1      41.265  30.559  29.895  1.00  0.00     0.167 HD
ATOM     57  C   UNL A   1      43.631  23.960  28.038  1.00  0.00     0.031 A 
ATOM     58  C   UNL A   1      42.777  29.742  32.274  1.00  0.00     0.031 A 
ATOM     59  C   UNL A   1      44.594  24.471  29.015  1.00  0.00     0.049 A 
ATOM     60  C   UNL A   1      43.343  28.454  32.868  1.00  0.00     0.074 A 
ATOM     61  C   UNL A   1      45.758  25.219  28.948  1.00  0.00     0.029 A 
ATOM     62  N   UNL A   1      44.230  24.453  30.352  1.00  0.00    -0.354 N 
ATOM     63  N   UNL A   1      43.991  27.543  32.192  1.00  0.00    -0.248 NA
ATOM     64  C   UNL A   1      43.150  28.059  34.268  1.00  0.00     0.031 C 
ATOM     65  C   UNL A   1      46.064  25.681  30.265  1.00  0.00     0.029 A 
ATOM     66  C   UNL A   1      45.098  25.195  31.128  1.00  0.00     0.049 A 
ATOM     67  H   UNL A   1      43.448  23.971  30.706  1.00  0.00     0.167 HD
ATOM     68  C   UNL A   1      44.244  26.463  32.995  1.00  0.00     0.074 A 
ATOM     69  C   UNL A   1      43.716  26.840  34.293  1.00  0.00     0.031 C 
ATOM     70  C   UNL A   1      44.825  25.312  32.549  1.00  0.00     0.031 A 
BRANCH  57  71
ATOM     71  C   UNL A   1      43.949  22.895  27.014  1.00  0.00    -0.014 A 
ATOM     72  C   UNL A   1      43.001  21.889  26.735  1.00  0.00     0.010 A 
ATOM     73  C   UNL A   1      45.178  22.786  26.334  1.00  0.00     0.010 A 
ATOM     74  C   UNL A   1      43.297  20.795  25.904  1.00  0.00     0.020 A 
ATOM     75  C   UNL A   1      45.503  21.682  25.535  1.00  0.00     0.020 A 
ATOM     76  C   UNL A   1      44.561  20.683  25.332  1.00  0.00     0.054 A 
BRANCH  76  77
ATOM     77  S   UNL A   1      44.963  19.229  24.331  1.00  0.00     0.124 S 
ATOM     78  O   UNL A   1      44.186  18.175  24.980  1.00  0.00    -0.237 OA
ATOM     79  O   UNL A   1      44.506  19.626  23.003  1.00  0.00    -0.237 OA
ATOM     80  O   UNL A   1      46.413  19.099  24.475  1.00  0.00    -0.744 OA
ENDBRANCH  76  77
ENDBRANCH  57  71
BRANCH  58  81
ATOM     81  C   UNL A   1      41.539  30.440  32.734  1.00  0.00    -0.014 A 
ATOM     82  C   UNL A   1      40.386  29.643  32.910  1.00  0.00     0.010 A 
ATOM     83  C   UNL A   1      41.616  31.676  33.397  1.00  0.00     0.010 A 
ATOM     84  C   UNL A   1      39.448  29.958  33.895  1.00  0.00     0.020 A 
ATOM     85  C   UNL A   1      40.660  32.007  34.369  1.00  0.00     0.020 A 
ATOM     86  C   UNL A   1      39.639  31.099  34.672  1.00  0.00     0.054 A 
BRANCH  86  87
ATOM     87  S   UNL A   1      38.660  31.275  36.196  1.00  0.00     0.124 S 
ATOM     88  O   UNL A   1      38.461  29.888  36.604  1.00  0.00    -0.237 OA
ATOM     89  O   UNL A   1      39.556  32.059  37.049  1.00  0.00    -0.237 OA
ATOM     90  O   UNL A   1      37.463  31.978  35.747  1.00  0.00    -0.744 OA
ENDBRANCH  86  87
ENDBRANCH  58  81
BRANCH  70  91
ATOM     91  C   UNL A   1      45.148  24.164  33.461  1.00  0.00    -0.014 A 
ATOM     92  C   UNL A   1      46.360  24.108  34.170  1.00  0.00     0.010 A 
ATOM     93  C   UNL A   1      44.293  23.044  33.534  1.00  0.00     0.010 A 
ATOM     94  C   UNL A   1      46.676  23.004  34.970  1.00  0.00     0.020 A 
ATOM     95  C   UNL A   1      44.608  21.929  34.314  1.00  0.00     0.020 A 
ATOM     96  C   UNL A   1      45.791  21.925  35.047  1.00  0.00     0.054 A 
BRANCH  96  97
ATOM     97  S   UNL A   1      46.222  20.497  36.074  1.00  0.00     0.124 S 
ATOM     98  O   UNL A   1      46.057  21.012  37.431  1.00  0.00    -0.237 OA
ATOM     99  O   UNL A   1      45.226  19.514  35.652  1.00  0.00    -0.237 OA
ATOM    100  O   UNL A   1      47.599  20.196  35.691  1.00  0.00    -0.744 OA
ENDBRANCH  96  97
ENDBRANCH  70  91
ENDBRANCH  44  45
ENDBRANCH  36  39
ENDBRANCH  34  35
ENDBRANCH  33  34
ENDBRANCH   1  33
TORSDOF 17
ENDMDL
MODEL 3
REMARK VINA RESULT:     -14.6      4.870     11.388
REMARK SMILES Cc1c(C(=O)NCCCCNC(=O)c2ccc(-c3c4nc(c(-c5ccc(S(=O)(=O)[O-])cc5)c5ccc([nH]5)c(-c5ccc(S(=O)(=O)[O-])cc5)c5nc(c(-c6ccc(S(=O)(=O)[O-])cc6)c6ccc3[nH]6)C=C5)C=C4)cc2)cccc1-n1c(C)cc(/C=C2/C(=O)NC(=S)N=C2O)c1C
REMARK SMILES IDX 8 1 7 2 6 3 4 4 5 5 3 7 1 8 2 9 77 10 74 11 76 12 75 13
REMARK SMILES IDX 78 14 79 15 93 16 80 17 81 18 82 19 94 20 83 21 84 22 85 23
REMARK SMILES IDX 91 24 86 25 87 26 90 27 88 28 89 30 92 31 9 33 10 34 11 35
REMARK SMILES IDX 12 36 13 38 14 39 15 40 73 41 16 42 72 43 17 44 18 45 19 46
REMARK SMILES IDX 66 47 20 48 71 49 65 50 67 51 21 52 70 53 64 54 63 55 22 57
REMARK SMILES IDX 52 58 33 59 51 60 34 61 37 62 50 63 68 64 35 65 36 66 49 68
REMARK SMILES IDX 69 69 38 70 23 71 24 72 32 73 25 74 31 75 26 76 27 77 28 78
REMARK SMILES IDX 29 79 30 80 53 81 54 82 62 83 55 84 61 85 56 86 57 87 58 88
REMARK SMILES IDX 59 89 60 90 39 91 40 92 48 93 41 94 47 95 42 96 43 97 44 98
REMARK SMILES IDX 45 99 46 100
REMARK H PARENT 6 6 87 29 92 32 11 37 67 56 37 67
REMARK Flexibility Score: inf
ROOT
ATOM      1  C   UNL A   1      36.947  21.275  25.621  1.00  0.00     0.023 C 
ENDROOT
BRANCH   1   2
ATOM      2  C   UNL A   1      36.751  20.052  24.701  1.00  0.00     0.116 C 
BRANCH   2   3
ATOM      3  N   UNL A   1      35.533  19.338  25.034  1.00  0.00    -0.352 N 
ATOM      4  C   UNL A   1      34.188  19.567  24.964  1.00  0.00     0.251 C 
ATOM      5  O   UNL A   1      33.508  18.613  25.371  1.00  0.00    -0.269 OA
ATOM      6  H   UNL A   1      35.728  18.451  25.414  1.00  0.00     0.163 HD
BRANCH   4   7
ATOM      7  C   UNL A   1      33.440  20.777  24.450  1.00  0.00     0.044 A 
ATOM      8  C   UNL A   1      33.650  22.416  26.423  1.00  0.00     0.047 C 
ATOM      9  C   UNL A   1      33.156  22.016  25.068  1.00  0.00    -0.014 A 
ATOM     10  C   UNL A   1      32.292  22.924  24.391  1.00  0.00     0.049 A 
ATOM     11  C   UNL A   1      32.819  20.521  23.194  1.00  0.00     0.014 A 
ATOM     12  C   UNL A   1      31.683  22.633  23.169  1.00  0.00     0.027 A 
ATOM     13  C   UNL A   1      31.950  21.419  22.567  1.00  0.00     0.003 A 
BRANCH  10  14
ATOM     14  N   UNL A   1      31.896  24.133  25.012  1.00  0.00    -0.318 N 
ATOM     15  C   UNL A   1      30.877  24.255  25.936  1.00  0.00     0.020 A 
ATOM     16  C   UNL A   1      32.323  25.401  24.619  1.00  0.00     0.027 A 
ATOM     17  C   UNL A   1      30.034  23.111  26.386  1.00  0.00     0.065 C 
ATOM     18  C   UNL A   1      30.783  25.592  26.264  1.00  0.00     0.031 A 
ATOM     19  C   UNL A   1      31.700  26.317  25.453  1.00  0.00    -0.003 A 
ATOM     20  C   UNL A   1      33.213  25.572  23.430  1.00  0.00     0.065 C 
BRANCH  19  21
ATOM     21  C   UNL A   1      31.739  27.745  25.421  1.00  0.00     0.029 C 
ATOM     22  C   UNL A   1      31.119  28.648  24.641  1.00  0.00     0.102 C 
ATOM     23  C   UNL A   1      31.299  30.072  25.024  1.00  0.00     0.262 C 
ATOM     24  C   UNL A   1      30.215  28.464  23.507  1.00  0.00     0.226 C 
ATOM     25  O   UNL A   1      32.202  30.495  25.736  1.00  0.00    -0.269 OA
ATOM     26  N   UNL A   1      30.342  30.906  24.512  1.00  0.00    -0.297 N 
ATOM     27  N   UNL A   1      29.400  29.330  23.024  1.00  0.00    -0.184 NA
ATOM     28  C   UNL A   1      29.374  30.573  23.598  1.00  0.00     0.203 C 
ATOM     29  H   UNL A   1      30.348  31.838  24.831  1.00  0.00     0.172 HD
ATOM     30  S   UNL A   1      28.254  31.753  23.186  1.00  0.00    -0.038 S 
BRANCH  24  31
ATOM     31  O   UNL A   1      30.298  27.299  22.860  1.00  0.00    -0.493 OA
ATOM     32  H   UNL A   1      29.808  27.165  22.073  1.00  0.00     0.295 HD
ENDBRANCH  24  31
ENDBRANCH  19  21
ENDBRANCH  10  14
ENDBRANCH   4   7
ENDBRANCH   2   3
ENDBRANCH   1   2
BRANCH   1  33
ATOM     33  C   UNL A   1      37.279  22.584  24.909  1.00  0.00     0.023 C 
BRANCH  33  34
ATOM     34  C   UNL A   1      37.849  23.618  25.857  1.00  0.00     0.116 C 
BRANCH  34  35
ATOM     35  N   UNL A   1      38.875  23.146  26.767  1.00  0.00    -0.352 N 
ATOM     36  C   UNL A   1      39.954  23.927  27.180  1.00  0.00     0.251 C 
ATOM     37  H   UNL A   1      38.807  22.225  27.110  1.00  0.00     0.163 HD
ATOM     38  O   UNL A   1      41.072  23.496  27.360  1.00  0.00    -0.269 OA
BRANCH  36  39
ATOM     39  C   UNL A   1      39.609  25.326  27.544  1.00  0.00     0.039 A 
ATOM     40  C   UNL A   1      40.159  26.359  26.778  1.00  0.00     0.014 A 
ATOM     41  C   UNL A   1      39.014  25.587  28.775  1.00  0.00     0.014 A 
ATOM     42  C   UNL A   1      40.260  27.637  27.329  1.00  0.00     0.010 A 
ATOM     43  C   UNL A   1      39.232  26.814  29.365  1.00  0.00     0.010 A 
ATOM     44  C   UNL A   1      39.880  27.833  28.655  1.00  0.00    -0.014 A 
BRANCH  44  45
ATOM     45  C   UNL A   1      40.104  29.062  29.410  1.00  0.00     0.031 A 
ATOM     46  C   UNL A   1      39.069  30.125  29.369  1.00  0.00     0.074 A 
ATOM     47  C   UNL A   1      41.194  29.220  30.192  1.00  0.00     0.049 A 
ATOM     48  N   UNL A   1      39.252  31.344  29.748  1.00  0.00    -0.248 NA
ATOM     49  C   UNL A   1      37.731  29.892  28.834  1.00  0.00     0.031 C 
ATOM     50  C   UNL A   1      41.409  30.242  31.217  1.00  0.00     0.029 A 
ATOM     51  N   UNL A   1      42.420  28.589  30.141  1.00  0.00    -0.354 N 
ATOM     52  C   UNL A   1      38.026  31.969  29.767  1.00  0.00     0.074 A 
ATOM     53  C   UNL A   1      37.121  31.040  29.137  1.00  0.00     0.031 C 
ATOM     54  C   UNL A   1      42.727  30.344  31.457  1.00  0.00     0.029 A 
ATOM     55  C   UNL A   1      43.411  29.512  30.482  1.00  0.00     0.049 A 
ATOM     56  H   UNL A   1      42.572  27.646  29.904  1.00  0.00     0.167 HD
ATOM     57  C   UNL A   1      37.895  33.166  30.408  1.00  0.00     0.031 A 
ATOM     58  C   UNL A   1      44.318  29.980  29.567  1.00  0.00     0.031 A 
ATOM     59  C   UNL A   1      39.191  33.699  30.833  1.00  0.00     0.049 A 
ATOM     60  C   UNL A   1      44.171  31.467  29.251  1.00  0.00     0.074 A 
ATOM     61  C   UNL A   1      39.868  33.789  32.037  1.00  0.00     0.029 A 
ATOM     62  N   UNL A   1      40.123  33.993  29.849  1.00  0.00    -0.354 N 
ATOM     63  N   UNL A   1      43.282  32.259  29.789  1.00  0.00    -0.248 NA
ATOM     64  C   UNL A   1      44.975  32.159  28.237  1.00  0.00     0.031 C 
ATOM     65  C   UNL A   1      41.233  34.107  31.755  1.00  0.00     0.029 A 
ATOM     66  C   UNL A   1      41.373  34.228  30.384  1.00  0.00     0.049 A 
ATOM     67  H   UNL A   1      39.918  34.030  28.887  1.00  0.00     0.167 HD
ATOM     68  C   UNL A   1      43.339  33.491  29.193  1.00  0.00     0.074 A 
ATOM     69  C   UNL A   1      44.428  33.387  28.240  1.00  0.00     0.031 C 
ATOM     70  C   UNL A   1      42.471  34.505  29.476  1.00  0.00     0.031 A 
BRANCH  57  71
ATOM     71  C   UNL A   1      36.564  33.756  30.815  1.00  0.00    -0.014 A 
ATOM     72  C   UNL A   1      35.625  34.109  29.824  1.00  0.00     0.010 A 
ATOM     73  C   UNL A   1      36.194  34.044  32.143  1.00  0.00     0.010 A 
ATOM     74  C   UNL A   1      34.437  34.793  30.133  1.00  0.00     0.020 A 
ATOM     75  C   UNL A   1      35.033  34.760  32.464  1.00  0.00     0.020 A 
ATOM     76  C   UNL A   1      34.163  35.142  31.453  1.00  0.00     0.054 A 
BRANCH  76  77
ATOM     77  S   UNL A   1      32.671  36.095  31.833  1.00  0.00     0.124 S 
ATOM     78  O   UNL A   1      33.178  37.126  32.736  1.00  0.00    -0.237 OA
ATOM     79  O   UNL A   1      32.251  36.560  30.515  1.00  0.00    -0.237 OA
ATOM     80  O   UNL A   1      31.783  35.116  32.458  1.00  0.00    -0.744 OA
ENDBRANCH  76  77
ENDBRANCH  57  71
BRANCH  58  81
ATOM     81  C   UNL A   1      44.767  28.928  28.605  1.00  0.00    -0.014 A 
ATOM     82  C   UNL A   1      44.094  28.871  27.364  1.00  0.00     0.010 A 
ATOM     83  C   UNL A   1      46.046  28.359  28.710  1.00  0.00     0.010 A 
ATOM     84  C   UNL A   1      44.769  28.470  26.209  1.00  0.00     0.020 A 
ATOM     85  C   UNL A   1      46.716  27.932  27.554  1.00  0.00     0.020 A 
ATOM     86  C   UNL A   1      46.103  28.080  26.305  1.00  0.00     0.054 A 
BRANCH  86  87
ATOM     87  S   UNL A   1      47.076  27.960  24.771  1.00  0.00     0.124 S 
ATOM     88  O   UNL A   1      46.576  29.089  23.993  1.00  0.00    -0.237 OA
ATOM     89  O   UNL A   1      48.448  28.095  25.266  1.00  0.00    -0.237 OA
ATOM     90  O   UNL A   1      46.731  26.639  24.257  1.00  0.00    -0.744 OA
ENDBRANCH  86  87
ENDBRANCH  58  81
BRANCH  70  91
ATOM     91  C   UNL A   1      42.590  35.867  28.855  1.00  0.00    -0.014 A 
ATOM     92  C   UNL A   1      43.200  36.934  29.536  1.00  0.00     0.010 A 
ATOM     93  C   UNL A   1      41.978  36.145  27.614  1.00  0.00     0.010 A 
ATOM     94  C   UNL A   1      43.252  38.214  28.970  1.00  0.00     0.020 A 
ATOM     95  C   UNL A   1      42.006  37.423  27.051  1.00  0.00     0.020 A 
ATOM     96  C   UNL A   1      42.664  38.448  27.725  1.00  0.00     0.054 A 
BRANCH  96  97
ATOM     97  S   UNL A   1      42.725  40.113  27.014  1.00  0.00     0.124 S 
ATOM     98  O   UNL A   1      43.630  39.948  25.879  1.00  0.00    -0.237 OA
ATOM     99  O   UNL A   1      41.323  40.342  26.670  1.00  0.00    -0.237 OA
ATOM    100  O   UNL A   1      43.244  40.936  28.104  1.00  0.00    -0.744 OA
ENDBRANCH  96  97
ENDBRANCH  70  91
ENDBRANCH  44  45
ENDBRANCH  36  39
ENDBRANCH  34  35
ENDBRANCH  33  34
ENDBRANCH   1  33
TORSDOF 17
ENDMDL
