MODEL 1
REMARK VINA RESULT:     -10.8      0.000      0.000
REMARK SMILES Cc1nn(C)cc1-c1ccnc2nc(CCC(=O)NCCCCNC(=O)c3ccc(-c4c5nc(c(-c6ccc(S(=O)(=O)[O-])cc6)c6ccc([nH]6)c(-c6ccc(S(=O)(=O)[O-])cc6)c6nc(c(-c7ccc(S(=O)(=O)[O-])cc7)c7ccc4[nH]7)C=C6)C=C5)cc3)nn12
REMARK SMILES IDX 21 1 20 2 19 3 17 4 18 5 16 7 15 8 14 9 8 10 9 11 88 12
REMARK SMILES IDX 10 13 12 14 87 15 11 16 13 17 7 18 1 19 2 20 3 21 4 22 6 23
REMARK SMILES IDX 5 24 22 25 23 26 24 27 25 28 26 30 27 31 28 32 86 33 29 34
REMARK SMILES IDX 85 35 30 36 31 37 32 38 79 39 33 40 84 41 78 42 80 43 34 44
REMARK SMILES IDX 83 45 77 46 76 47 35 49 65 50 46 51 64 52 47 53 50 54 63 55
REMARK SMILES IDX 81 56 48 57 49 58 62 60 82 61 51 62 36 63 37 64 45 65 38 66
REMARK SMILES IDX 44 67 39 68 40 69 41 70 42 71 43 72 66 73 67 74 75 75 68 76
REMARK SMILES IDX 74 77 69 78 70 79 71 80 72 81 73 82 52 83 53 84 61 85 54 86
REMARK SMILES IDX 60 87 55 88 56 89 57 90 58 91 59 92
REMARK H PARENT 19 6 24 29 80 48 50 59
REMARK Flexibility Score: inf
ROOT
ATOM      1  C   UNL A   1      32.534  29.305  24.865  1.00  0.00     0.023 C 
ENDROOT
BRANCH   1   2
ATOM      2  C   UNL A   1      31.104  29.837  24.740  1.00  0.00     0.116 C 
BRANCH   2   3
ATOM      3  N   UNL A   1      30.643  29.970  23.367  1.00  0.00    -0.356 N 
ATOM      4  C   UNL A   1      30.080  29.056  22.530  1.00  0.00     0.220 C 
ATOM      5  O   UNL A   1      29.728  29.427  21.409  1.00  0.00    -0.275 OA
ATOM      6  H   UNL A   1      30.757  30.867  22.979  1.00  0.00     0.163 HD
BRANCH   4   7
ATOM      7  C   UNL A   1      29.843  27.641  22.997  1.00  0.00     0.108 C 
BRANCH   7   8
ATOM      8  C   UNL A   1      31.081  26.776  22.761  1.00  0.00     0.089 C 
BRANCH   8   9
ATOM      9  C   UNL A   1      31.242  25.720  23.798  1.00  0.00     0.153 A 
ATOM     10  C   UNL A   1      32.866  23.355  25.821  1.00  0.00     0.081 A 
ATOM     11  C   UNL A   1      32.296  22.757  26.889  1.00  0.00     0.049 A 
ATOM     12  N   UNL A   1      32.068  24.255  25.076  1.00  0.00    -0.196 N 
ATOM     13  C   UNL A   1      30.899  23.126  27.211  1.00  0.00     0.117 A 
ATOM     14  C   UNL A   1      30.736  24.527  25.459  1.00  0.00     0.252 A 
ATOM     15  N   UNL A   1      32.370  25.034  23.994  1.00  0.00    -0.149 NA
ATOM     16  N   UNL A   1      30.152  23.948  26.547  1.00  0.00    -0.220 NA
ATOM     17  N   UNL A   1      30.226  25.438  24.661  1.00  0.00    -0.194 NA
BRANCH  10  18
ATOM     18  C   UNL A   1      34.260  23.129  25.552  1.00  0.00     0.041 A 
ATOM     19  C   UNL A   1      34.340  20.627  24.742  1.00  0.00     0.069 C 
ATOM     20  C   UNL A   1      34.915  21.931  25.153  1.00  0.00     0.069 A 
ATOM     21  N   UNL A   1      36.247  22.060  25.194  1.00  0.00    -0.178 NA
ATOM     22  N   UNL A   1      36.447  23.325  25.591  1.00  0.00    -0.275 N 
ATOM     23  C   UNL A   1      35.287  24.022  25.766  1.00  0.00     0.119 A 
ATOM     24  C   UNL A   1      37.787  23.796  25.848  1.00  0.00     0.173 C 
ENDBRANCH  10  18
ENDBRANCH   8   9
ENDBRANCH   7   8
ENDBRANCH   4   7
ENDBRANCH   2   3
ENDBRANCH   1   2
BRANCH   1  25
ATOM     25  C   UNL A   1      32.656  28.196  25.908  1.00  0.00     0.023 C 
BRANCH  25  26
ATOM     26  C   UNL A   1      33.467  28.533  27.151  1.00  0.00     0.116 C 
BRANCH  26  27
ATOM     27  N   UNL A   1      33.556  29.962  27.405  1.00  0.00    -0.352 N 
ATOM     28  C   UNL A   1      34.514  30.771  27.974  1.00  0.00     0.251 C 
ATOM     29  H   UNL A   1      32.758  30.458  27.106  1.00  0.00     0.163 HD
ATOM     30  O   UNL A   1      34.208  31.958  28.129  1.00  0.00    -0.269 OA
BRANCH  28  31
ATOM     31  C   UNL A   1      35.855  30.313  28.452  1.00  0.00     0.039 A 
ATOM     32  C   UNL A   1      36.943  30.432  27.568  1.00  0.00     0.014 A 
ATOM     33  C   UNL A   1      36.094  29.709  29.684  1.00  0.00     0.014 A 
ATOM     34  C   UNL A   1      38.230  29.991  27.921  1.00  0.00     0.010 A 
ATOM     35  C   UNL A   1      37.393  29.364  30.080  1.00  0.00     0.010 A 
ATOM     36  C   UNL A   1      38.477  29.471  29.196  1.00  0.00    -0.014 A 
BRANCH  36  37
ATOM     37  C   UNL A   1      39.812  28.944  29.616  1.00  0.00     0.031 A 
ATOM     38  C   UNL A   1      40.739  29.827  30.424  1.00  0.00     0.074 A 
ATOM     39  C   UNL A   1      40.239  27.722  29.236  1.00  0.00     0.049 A 
ATOM     40  N   UNL A   1      42.010  29.669  30.698  1.00  0.00    -0.248 NA
ATOM     41  C   UNL A   1      40.164  31.071  30.963  1.00  0.00     0.031 C 
ATOM     42  C   UNL A   1      39.464  26.743  28.473  1.00  0.00     0.029 A 
ATOM     43  N   UNL A   1      41.453  27.102  29.429  1.00  0.00    -0.354 N 
ATOM     44  C   UNL A   1      42.393  30.808  31.401  1.00  0.00     0.074 A 
ATOM     45  C   UNL A   1      41.232  31.668  31.474  1.00  0.00     0.031 C 
ATOM     46  C   UNL A   1      40.212  25.645  28.275  1.00  0.00     0.029 A 
ATOM     47  C   UNL A   1      41.540  25.858  28.844  1.00  0.00     0.049 A 
ATOM     48  H   UNL A   1      42.189  27.509  29.939  1.00  0.00     0.167 HD
ATOM     49  C   UNL A   1      43.592  31.109  31.954  1.00  0.00     0.031 A 
ATOM     50  C   UNL A   1      42.576  24.999  28.750  1.00  0.00     0.031 A 
ATOM     51  C   UNL A   1      44.739  30.241  31.930  1.00  0.00     0.049 A 
ATOM     52  C   UNL A   1      43.912  25.371  29.345  1.00  0.00     0.074 A 
ATOM     53  C   UNL A   1      45.989  30.452  32.489  1.00  0.00     0.029 A 
ATOM     54  N   UNL A   1      44.772  28.989  31.340  1.00  0.00    -0.354 N 
ATOM     55  N   UNL A   1      44.255  26.457  29.995  1.00  0.00    -0.248 NA
ATOM     56  C   UNL A   1      45.002  24.394  29.194  1.00  0.00     0.031 C 
ATOM     57  C   UNL A   1      46.790  29.343  32.203  1.00  0.00     0.029 A 
ATOM     58  C   UNL A   1      46.022  28.417  31.517  1.00  0.00     0.049 A 
ATOM     59  H   UNL A   1      44.020  28.566  30.866  1.00  0.00     0.167 HD
ATOM     60  C   UNL A   1      45.585  26.273  30.365  1.00  0.00     0.074 A 
ATOM     61  C   UNL A   1      45.982  24.972  29.874  1.00  0.00     0.031 C 
ATOM     62  C   UNL A   1      46.401  27.109  31.052  1.00  0.00     0.031 A 
BRANCH  49  63
ATOM     63  C   UNL A   1      43.733  32.442  32.644  1.00  0.00    -0.014 A 
ATOM     64  C   UNL A   1      44.058  33.603  31.920  1.00  0.00     0.010 A 
ATOM     65  C   UNL A   1      43.476  32.547  34.024  1.00  0.00     0.010 A 
ATOM     66  C   UNL A   1      44.161  34.836  32.568  1.00  0.00     0.020 A 
ATOM     67  C   UNL A   1      43.547  33.784  34.671  1.00  0.00     0.020 A 
ATOM     68  C   UNL A   1      43.904  34.919  33.941  1.00  0.00     0.054 A 
BRANCH  68  69
ATOM     69  S   UNL A   1      44.011  36.539  34.746  1.00  0.00     0.124 S 
ATOM     70  O   UNL A   1      45.451  36.686  34.935  1.00  0.00    -0.237 OA
ATOM     71  O   UNL A   1      43.413  37.430  33.756  1.00  0.00    -0.237 OA
ATOM     72  O   UNL A   1      43.236  36.368  35.974  1.00  0.00    -0.744 OA
ENDBRANCH  68  69
ENDBRANCH  49  63
BRANCH  50  73
ATOM     73  C   UNL A   1      42.413  23.691  28.050  1.00  0.00    -0.014 A 
ATOM     74  C   UNL A   1      41.915  22.573  28.744  1.00  0.00     0.010 A 
ATOM     75  C   UNL A   1      42.794  23.544  26.704  1.00  0.00     0.010 A 
ATOM     76  C   UNL A   1      41.840  21.325  28.118  1.00  0.00     0.020 A 
ATOM     77  C   UNL A   1      42.689  22.305  26.065  1.00  0.00     0.020 A 
ATOM     78  C   UNL A   1      42.232  21.198  26.783  1.00  0.00     0.054 A 
BRANCH  78  79
ATOM     79  S   UNL A   1      42.118  19.570  25.990  1.00  0.00     0.124 S 
ATOM     80  O   UNL A   1      42.609  18.685  27.041  1.00  0.00    -0.237 OA
ATOM     81  O   UNL A   1      40.694  19.465  25.686  1.00  0.00    -0.237 OA
ATOM     82  O   UNL A   1      42.988  19.698  24.822  1.00  0.00    -0.744 OA
ENDBRANCH  78  79
ENDBRANCH  50  73
BRANCH  62  83
ATOM     83  C   UNL A   1      47.787  26.624  31.386  1.00  0.00    -0.014 A 
ATOM     84  C   UNL A   1      48.077  26.010  32.617  1.00  0.00     0.010 A 
ATOM     85  C   UNL A   1      48.803  26.720  30.415  1.00  0.00     0.010 A 
ATOM     86  C   UNL A   1      49.361  25.525  32.880  1.00  0.00     0.020 A 
ATOM     87  C   UNL A   1      50.080  26.212  30.664  1.00  0.00     0.020 A 
ATOM     88  C   UNL A   1      50.354  25.626  31.901  1.00  0.00     0.054 A 
BRANCH  88  89
ATOM     89  S   UNL A   1      51.997  24.937  32.245  1.00  0.00     0.124 S 
ATOM     90  O   UNL A   1      51.777  23.508  32.041  1.00  0.00    -0.237 OA
ATOM     91  O   UNL A   1      52.835  25.593  31.243  1.00  0.00    -0.237 OA
ATOM     92  O   UNL A   1      52.259  25.336  33.625  1.00  0.00    -0.744 OA
ENDBRANCH  88  89
ENDBRANCH  62  83
ENDBRANCH  36  37
ENDBRANCH  28  31
ENDBRANCH  26  27
ENDBRANCH  25  26
ENDBRANCH   1  25
TORSDOF 17
ENDMDL
MODEL 2
REMARK VINA RESULT:     -10.3      4.532      6.256
REMARK SMILES Cc1nn(C)cc1-c1ccnc2nc(CCC(=O)NCCCCNC(=O)c3ccc(-c4c5nc(c(-c6ccc(S(=O)(=O)[O-])cc6)c6ccc([nH]6)c(-c6ccc(S(=O)(=O)[O-])cc6)c6nc(c(-c7ccc(S(=O)(=O)[O-])cc7)c7ccc4[nH]7)C=C6)C=C5)cc3)nn12
REMARK SMILES IDX 21 1 20 2 19 3 17 4 18 5 16 7 15 8 14 9 8 10 9 11 88 12
REMARK SMILES IDX 10 13 12 14 87 15 11 16 13 17 7 18 1 19 2 20 3 21 4 22 6 23
REMARK SMILES IDX 5 24 22 25 23 26 24 27 25 28 26 30 27 31 28 32 86 33 29 34
REMARK SMILES IDX 85 35 30 36 31 37 32 38 79 39 33 40 84 41 78 42 80 43 34 44
REMARK SMILES IDX 83 45 77 46 76 47 35 49 65 50 46 51 64 52 47 53 50 54 63 55
REMARK SMILES IDX 81 56 48 57 49 58 62 60 82 61 51 62 36 63 37 64 45 65 38 66
REMARK SMILES IDX 44 67 39 68 40 69 41 70 42 71 43 72 66 73 67 74 75 75 68 76
REMARK SMILES IDX 74 77 69 78 70 79 71 80 72 81 73 82 52 83 53 84 61 85 54 86
REMARK SMILES IDX 60 87 55 88 56 89 57 90 58 91 59 92
REMARK H PARENT 19 6 24 29 80 48 50 59
REMARK Flexibility Score: inf
ROOT
ATOM      1  C   UNL A   1      34.105  33.428  28.864  1.00  0.00     0.023 C 
ENDROOT
BRANCH   1   2
ATOM      2  C   UNL A   1      34.085  32.252  27.883  1.00  0.00     0.116 C 
BRANCH   2   3
ATOM      3  N   UNL A   1      35.126  31.265  28.126  1.00  0.00    -0.356 N 
ATOM      4  C   UNL A   1      35.280  30.005  27.637  1.00  0.00     0.220 C 
ATOM      5  O   UNL A   1      36.285  29.370  27.961  1.00  0.00    -0.275 OA
ATOM      6  H   UNL A   1      35.833  31.556  28.743  1.00  0.00     0.163 HD
BRANCH   4   7
ATOM      7  C   UNL A   1      34.269  29.432  26.674  1.00  0.00     0.108 C 
BRANCH   7   8
ATOM      8  C   UNL A   1      33.476  28.300  27.328  1.00  0.00     0.089 C 
BRANCH   8   9
ATOM      9  C   UNL A   1      32.687  27.515  26.340  1.00  0.00     0.153 A 
ATOM     10  C   UNL A   1      31.617  24.726  24.496  1.00  0.00     0.081 A 
ATOM     11  C   UNL A   1      30.502  24.708  23.735  1.00  0.00     0.049 A 
ATOM     12  N   UNL A   1      31.941  25.941  25.145  1.00  0.00    -0.196 N 
ATOM     13  C   UNL A   1      29.694  25.946  23.680  1.00  0.00     0.117 A 
ATOM     14  C   UNL A   1      31.110  27.075  25.015  1.00  0.00     0.252 A 
ATOM     15  N   UNL A   1      32.960  26.254  26.003  1.00  0.00    -0.149 NA
ATOM     16  N   UNL A   1      29.969  27.066  24.267  1.00  0.00    -0.220 NA
ATOM     17  N   UNL A   1      31.578  28.052  25.759  1.00  0.00    -0.194 NA
BRANCH  10  18
ATOM     18  C   UNL A   1      32.357  23.509  24.686  1.00  0.00     0.041 A 
ATOM     19  C   UNL A   1      34.705  24.035  23.620  1.00  0.00     0.069 C 
ATOM     20  C   UNL A   1      33.669  23.178  24.247  1.00  0.00     0.069 A 
ATOM     21  N   UNL A   1      33.941  21.881  24.439  1.00  0.00    -0.178 NA
ATOM     22  N   UNL A   1      32.832  21.390  25.011  1.00  0.00    -0.275 N 
ATOM     23  C   UNL A   1      31.876  22.338  25.229  1.00  0.00     0.119 A 
ATOM     24  C   UNL A   1      32.723  19.974  25.273  1.00  0.00     0.173 C 
ENDBRANCH  10  18
ENDBRANCH   8   9
ENDBRANCH   7   8
ENDBRANCH   4   7
ENDBRANCH   2   3
ENDBRANCH   1   2
BRANCH   1  25
ATOM     25  C   UNL A   1      32.983  34.429  28.601  1.00  0.00     0.023 C 
BRANCH  25  26
ATOM     26  C   UNL A   1      33.224  35.849  29.092  1.00  0.00     0.116 C 
BRANCH  26  27
ATOM     27  N   UNL A   1      32.488  36.165  30.306  1.00  0.00    -0.352 N 
ATOM     28  C   UNL A   1      32.640  35.820  31.631  1.00  0.00     0.251 C 
ATOM     29  H   UNL A   1      31.714  36.754  30.146  1.00  0.00     0.163 HD
ATOM     30  O   UNL A   1      31.749  36.192  32.401  1.00  0.00    -0.269 OA
BRANCH  28  31
ATOM     31  C   UNL A   1      33.764  35.001  32.184  1.00  0.00     0.039 A 
ATOM     32  C   UNL A   1      35.061  35.542  32.125  1.00  0.00     0.014 A 
ATOM     33  C   UNL A   1      33.629  33.709  32.687  1.00  0.00     0.014 A 
ATOM     34  C   UNL A   1      36.178  34.824  32.586  1.00  0.00     0.010 A 
ATOM     35  C   UNL A   1      34.723  33.033  33.242  1.00  0.00     0.010 A 
ATOM     36  C   UNL A   1      36.020  33.565  33.175  1.00  0.00    -0.014 A 
BRANCH  36  37
ATOM     37  C   UNL A   1      37.172  32.734  33.643  1.00  0.00     0.031 A 
ATOM     38  C   UNL A   1      37.834  33.058  34.965  1.00  0.00     0.074 A 
ATOM     39  C   UNL A   1      37.680  31.741  32.883  1.00  0.00     0.049 A 
ATOM     40  N   UNL A   1      38.969  32.628  35.455  1.00  0.00    -0.248 NA
ATOM     41  C   UNL A   1      37.138  34.024  35.834  1.00  0.00     0.031 C 
ATOM     42  C   UNL A   1      37.150  31.292  31.595  1.00  0.00     0.029 A 
ATOM     43  N   UNL A   1      38.781  30.939  33.084  1.00  0.00    -0.354 N 
ATOM     44  C   UNL A   1      39.143  33.300  36.662  1.00  0.00     0.074 A 
ATOM     45  C   UNL A   1      38.018  34.198  36.810  1.00  0.00     0.031 C 
ATOM     46  C   UNL A   1      37.914  30.290  31.129  1.00  0.00     0.029 A 
ATOM     47  C   UNL A   1      39.022  30.061  32.052  1.00  0.00     0.049 A 
ATOM     48  H   UNL A   1      39.342  30.989  33.891  1.00  0.00     0.167 HD
ATOM     49  C   UNL A   1      40.134  33.174  37.577  1.00  0.00     0.031 A 
ATOM     50  C   UNL A   1      40.034  29.190  31.854  1.00  0.00     0.031 A 
ATOM     51  C   UNL A   1      41.231  32.250  37.465  1.00  0.00     0.049 A 
ATOM     52  C   UNL A   1      41.144  29.090  32.872  1.00  0.00     0.074 A 
ATOM     53  C   UNL A   1      42.267  32.034  38.358  1.00  0.00     0.029 A 
ATOM     54  N   UNL A   1      41.422  31.372  36.411  1.00  0.00    -0.354 N 
ATOM     55  N   UNL A   1      41.293  29.742  34.000  1.00  0.00    -0.248 NA
ATOM     56  C   UNL A   1      42.223  28.130  32.587  1.00  0.00     0.031 C 
ATOM     57  C   UNL A   1      43.106  31.051  37.825  1.00  0.00     0.029 A 
ATOM     58  C   UNL A   1      42.562  30.616  36.628  1.00  0.00     0.049 A 
ATOM     59  H   UNL A   1      40.835  31.296  35.624  1.00  0.00     0.167 HD
ATOM     60  C   UNL A   1      42.458  29.240  34.576  1.00  0.00     0.074 A 
ATOM     61  C   UNL A   1      42.969  28.228  33.678  1.00  0.00     0.031 C 
ATOM     62  C   UNL A   1      43.048  29.589  35.745  1.00  0.00     0.031 A 
BRANCH  49  63
ATOM     63  C   UNL A   1      40.080  34.058  38.797  1.00  0.00    -0.014 A 
ATOM     64  C   UNL A   1      39.434  33.634  39.972  1.00  0.00     0.010 A 
ATOM     65  C   UNL A   1      40.736  35.303  38.789  1.00  0.00     0.010 A 
ATOM     66  C   UNL A   1      39.413  34.453  41.104  1.00  0.00     0.020 A 
ATOM     67  C   UNL A   1      40.744  36.112  39.929  1.00  0.00     0.020 A 
ATOM     68  C   UNL A   1      40.070  35.688  41.075  1.00  0.00     0.054 A 
BRANCH  68  69
ATOM     69  S   UNL A   1      40.054  36.713  42.570  1.00  0.00     0.124 S 
ATOM     70  O   UNL A   1      41.429  36.575  43.043  1.00  0.00    -0.237 OA
ATOM     71  O   UNL A   1      39.697  38.030  42.052  1.00  0.00    -0.237 OA
ATOM     72  O   UNL A   1      39.040  36.081  43.413  1.00  0.00    -0.744 OA
ENDBRANCH  68  69
ENDBRANCH  49  63
BRANCH  50  73
ATOM     73  C   UNL A   1      40.069  28.335  30.631  1.00  0.00    -0.014 A 
ATOM     74  C   UNL A   1      39.235  27.206  30.531  1.00  0.00     0.010 A 
ATOM     75  C   UNL A   1      40.963  28.618  29.583  1.00  0.00     0.010 A 
ATOM     76  C   UNL A   1      39.324  26.354  29.426  1.00  0.00     0.020 A 
ATOM     77  C   UNL A   1      41.031  27.787  28.460  1.00  0.00     0.020 A 
ATOM     78  C   UNL A   1      40.225  26.648  28.399  1.00  0.00     0.054 A 
BRANCH  78  79
ATOM     79  S   UNL A   1      40.317  25.532  26.971  1.00  0.00     0.124 S 
ATOM     80  O   UNL A   1      38.943  25.051  26.874  1.00  0.00    -0.237 OA
ATOM     81  O   UNL A   1      40.753  26.424  25.900  1.00  0.00    -0.237 OA
ATOM     82  O   UNL A   1      41.303  24.534  27.381  1.00  0.00    -0.744 OA
ENDBRANCH  78  79
ENDBRANCH  50  73
BRANCH  62  83
ATOM     83  C   UNL A   1      44.274  28.824  36.171  1.00  0.00    -0.014 A 
ATOM     84  C   UNL A   1      44.181  27.643  36.928  1.00  0.00     0.010 A 
ATOM     85  C   UNL A   1      45.541  29.261  35.740  1.00  0.00     0.010 A 
ATOM     86  C   UNL A   1      45.333  26.928  37.267  1.00  0.00     0.020 A 
ATOM     87  C   UNL A   1      46.692  28.534  36.053  1.00  0.00     0.020 A 
ATOM     88  C   UNL A   1      46.582  27.377  36.825  1.00  0.00     0.054 A 
BRANCH  88  89
ATOM     89  S   UNL A   1      48.056  26.400  37.229  1.00  0.00     0.124 S 
ATOM     90  O   UNL A   1      47.826  26.065  38.631  1.00  0.00    -0.237 OA
ATOM     91  O   UNL A   1      47.966  25.282  36.292  1.00  0.00    -0.237 OA
ATOM     92  O   UNL A   1      49.162  27.322  36.983  1.00  0.00    -0.744 OA
ENDBRANCH  88  89
ENDBRANCH  62  83
ENDBRANCH  36  37
ENDBRANCH  28  31
ENDBRANCH  26  27
ENDBRANCH  25  26
ENDBRANCH   1  25
TORSDOF 17
ENDMDL
MODEL 3
REMARK VINA RESULT:     -10.3      5.091      8.044
REMARK SMILES Cc1nn(C)cc1-c1ccnc2nc(CCC(=O)NCCCCNC(=O)c3ccc(-c4c5nc(c(-c6ccc(S(=O)(=O)[O-])cc6)c6ccc([nH]6)c(-c6ccc(S(=O)(=O)[O-])cc6)c6nc(c(-c7ccc(S(=O)(=O)[O-])cc7)c7ccc4[nH]7)C=C6)C=C5)cc3)nn12
REMARK SMILES IDX 21 1 20 2 19 3 17 4 18 5 16 7 15 8 14 9 8 10 9 11 88 12
REMARK SMILES IDX 10 13 12 14 87 15 11 16 13 17 7 18 1 19 2 20 3 21 4 22 6 23
REMARK SMILES IDX 5 24 22 25 23 26 24 27 25 28 26 30 27 31 28 32 86 33 29 34
REMARK SMILES IDX 85 35 30 36 31 37 32 38 79 39 33 40 84 41 78 42 80 43 34 44
REMARK SMILES IDX 83 45 77 46 76 47 35 49 65 50 46 51 64 52 47 53 50 54 63 55
REMARK SMILES IDX 81 56 48 57 49 58 62 60 82 61 51 62 36 63 37 64 45 65 38 66
REMARK SMILES IDX 44 67 39 68 40 69 41 70 42 71 43 72 66 73 67 74 75 75 68 76
REMARK SMILES IDX 74 77 69 78 70 79 71 80 72 81 73 82 52 83 53 84 61 85 54 86
REMARK SMILES IDX 60 87 55 88 56 89 57 90 58 91 59 92
REMARK H PARENT 19 6 24 29 80 48 50 59
REMARK Flexibility Score: inf
ROOT
ATOM      1  C   UNL A   1      38.627  30.896  32.923  1.00  0.00     0.023 C 
ENDROOT
BRANCH   1   2
ATOM      2  C   UNL A   1      40.061  30.626  32.460  1.00  0.00     0.116 C 
BRANCH   2   3
ATOM      3  N   UNL A   1      40.989  31.706  32.757  1.00  0.00    -0.356 N 
ATOM      4  C   UNL A   1      41.371  32.776  32.008  1.00  0.00     0.220 C 
ATOM      5  O   UNL A   1      42.150  33.591  32.505  1.00  0.00    -0.275 OA
ATOM      6  H   UNL A   1      41.410  31.655  33.645  1.00  0.00     0.163 HD
BRANCH   4   7
ATOM      7  C   UNL A   1      40.799  32.981  30.626  1.00  0.00     0.108 C 
BRANCH   7   8
ATOM      8  C   UNL A   1      40.184  34.374  30.493  1.00  0.00     0.089 C 
BRANCH   8   9
ATOM      9  C   UNL A   1      38.793  34.433  31.019  1.00  0.00     0.153 A 
ATOM     10  C   UNL A   1      35.300  34.085  31.052  1.00  0.00     0.081 A 
ATOM     11  C   UNL A   1      34.542  34.195  32.164  1.00  0.00     0.049 A 
ATOM     12  N   UNL A   1      36.692  34.296  31.191  1.00  0.00    -0.196 N 
ATOM     13  C   UNL A   1      35.237  34.485  33.438  1.00  0.00     0.117 A 
ATOM     14  C   UNL A   1      37.257  34.585  32.453  1.00  0.00     0.252 A 
ATOM     15  N   UNL A   1      37.706  34.210  30.278  1.00  0.00    -0.149 NA
ATOM     16  N   UNL A   1      36.508  34.678  33.589  1.00  0.00    -0.220 NA
ATOM     17  N   UNL A   1      38.564  34.670  32.341  1.00  0.00    -0.194 NA
BRANCH  10  18
ATOM     18  C   UNL A   1      34.685  33.673  29.821  1.00  0.00     0.041 A 
ATOM     19  C   UNL A   1      33.383  35.816  29.025  1.00  0.00     0.069 C 
ATOM     20  C   UNL A   1      33.797  34.393  28.975  1.00  0.00     0.069 A 
ATOM     21  N   UNL A   1      33.275  33.607  28.024  1.00  0.00    -0.178 NA
ATOM     22  N   UNL A   1      33.834  32.408  28.240  1.00  0.00    -0.275 N 
ATOM     23  C   UNL A   1      34.727  32.410  29.272  1.00  0.00     0.119 A 
ATOM     24  C   UNL A   1      33.422  31.270  27.453  1.00  0.00     0.173 C 
ENDBRANCH  10  18
ENDBRANCH   8   9
ENDBRANCH   7   8
ENDBRANCH   4   7
ENDBRANCH   2   3
ENDBRANCH   1   2
BRANCH   1  25
ATOM     25  C   UNL A   1      37.631  30.908  31.766  1.00  0.00     0.023 C 
BRANCH  25  26
ATOM     26  C   UNL A   1      36.752  29.674  31.627  1.00  0.00     0.116 C 
BRANCH  26  27
ATOM     27  N   UNL A   1      36.258  29.475  30.274  1.00  0.00    -0.352 N 
ATOM     28  C   UNL A   1      36.868  29.240  29.061  1.00  0.00     0.251 C 
ATOM     29  H   UNL A   1      35.275  29.517  30.211  1.00  0.00     0.163 HD
ATOM     30  O   UNL A   1      36.131  29.225  28.070  1.00  0.00    -0.269 OA
BRANCH  28  31
ATOM     31  C   UNL A   1      38.338  29.054  28.858  1.00  0.00     0.039 A 
ATOM     32  C   UNL A   1      38.895  29.500  27.645  1.00  0.00     0.014 A 
ATOM     33  C   UNL A   1      39.186  28.405  29.752  1.00  0.00     0.014 A 
ATOM     34  C   UNL A   1      40.259  29.330  27.356  1.00  0.00     0.010 A 
ATOM     35  C   UNL A   1      40.565  28.326  29.514  1.00  0.00     0.010 A 
ATOM     36  C   UNL A   1      41.120  28.759  28.300  1.00  0.00    -0.014 A 
BRANCH  36  37
ATOM     37  C   UNL A   1      42.571  28.511  28.035  1.00  0.00     0.031 A 
ATOM     38  C   UNL A   1      43.571  29.623  28.269  1.00  0.00     0.074 A 
ATOM     39  C   UNL A   1      43.003  27.338  27.528  1.00  0.00     0.049 A 
ATOM     40  N   UNL A   1      44.823  29.707  27.898  1.00  0.00    -0.248 NA
ATOM     41  C   UNL A   1      43.081  30.812  28.987  1.00  0.00     0.031 C 
ATOM     42  C   UNL A   1      42.174  26.162  27.261  1.00  0.00     0.029 A 
ATOM     43  N   UNL A   1      44.262  26.951  27.125  1.00  0.00    -0.354 N 
ATOM     44  C   UNL A   1      45.255  30.969  28.297  1.00  0.00     0.074 A 
ATOM     45  C   UNL A   1      44.119  31.631  28.901  1.00  0.00     0.031 C 
ATOM     46  C   UNL A   1      42.944  25.184  26.755  1.00  0.00     0.029 A 
ATOM     47  C   UNL A   1      44.310  25.677  26.604  1.00  0.00     0.049 A 
ATOM     48  H   UNL A   1      45.053  27.530  27.204  1.00  0.00     0.167 HD
ATOM     49  C   UNL A   1      46.486  31.525  28.192  1.00  0.00     0.031 A 
ATOM     50  C   UNL A   1      45.328  24.993  26.042  1.00  0.00     0.031 A 
ATOM     51  C   UNL A   1      47.635  30.858  27.639  1.00  0.00     0.049 A 
ATOM     52  C   UNL A   1      46.682  25.645  25.906  1.00  0.00     0.074 A 
ATOM     53  C   UNL A   1      48.929  31.335  27.517  1.00  0.00     0.029 A 
ATOM     54  N   UNL A   1      47.636  29.567  27.140  1.00  0.00    -0.354 N 
ATOM     55  N   UNL A   1      47.065  26.842  26.281  1.00  0.00    -0.248 NA
ATOM     56  C   UNL A   1      47.744  24.848  25.272  1.00  0.00     0.031 C 
ATOM     57  C   UNL A   1      49.705  30.344  26.909  1.00  0.00     0.029 A 
ATOM     58  C   UNL A   1      48.908  29.231  26.705  1.00  0.00     0.049 A 
ATOM     59  H   UNL A   1      46.851  28.974  27.100  1.00  0.00     0.167 HD
ATOM     60  C   UNL A   1      48.419  26.922  25.965  1.00  0.00     0.074 A 
ATOM     61  C   UNL A   1      48.791  25.655  25.377  1.00  0.00     0.031 C 
ATOM     62  C   UNL A   1      49.277  27.956  26.148  1.00  0.00     0.031 A 
BRANCH  49  63
ATOM     63  C   UNL A   1      46.664  32.936  28.693  1.00  0.00    -0.014 A 
ATOM     64  C   UNL A   1      47.087  33.190  30.010  1.00  0.00     0.010 A 
ATOM     65  C   UNL A   1      46.465  34.020  27.818  1.00  0.00     0.010 A 
ATOM     66  C   UNL A   1      47.272  34.502  30.453  1.00  0.00     0.020 A 
ATOM     67  C   UNL A   1      46.679  35.332  28.248  1.00  0.00     0.020 A 
ATOM     68  C   UNL A   1      47.067  35.566  29.568  1.00  0.00     0.054 A 
BRANCH  68  69
ATOM     69  S   UNL A   1      47.349  37.255  30.164  1.00  0.00     0.124 S 
ATOM     70  O   UNL A   1      47.785  37.933  28.947  1.00  0.00    -0.237 OA
ATOM     71  O   UNL A   1      46.033  37.642  30.663  1.00  0.00    -0.237 OA
ATOM     72  O   UNL A   1      48.379  37.093  31.190  1.00  0.00    -0.744 OA
ENDBRANCH  68  69
ENDBRANCH  49  63
BRANCH  50  73
ATOM     73  C   UNL A   1      45.121  23.602  25.544  1.00  0.00    -0.014 A 
ATOM     74  C   UNL A   1      45.476  22.501  26.344  1.00  0.00     0.010 A 
ATOM     75  C   UNL A   1      44.611  23.370  24.253  1.00  0.00     0.010 A 
ATOM     76  C   UNL A   1      45.364  21.198  25.850  1.00  0.00     0.020 A 
ATOM     77  C   UNL A   1      44.465  22.067  23.768  1.00  0.00     0.020 A 
ATOM     78  C   UNL A   1      44.863  20.989  24.562  1.00  0.00     0.054 A 
BRANCH  78  79
ATOM     79  S   UNL A   1      44.718  19.289  23.946  1.00  0.00     0.124 S 
ATOM     80  O   UNL A   1      45.978  18.699  24.385  1.00  0.00    -0.237 OA
ATOM     81  O   UNL A   1      43.520  18.806  24.627  1.00  0.00    -0.237 OA
ATOM     82  O   UNL A   1      44.577  19.461  22.500  1.00  0.00    -0.744 OA
ENDBRANCH  78  79
ENDBRANCH  50  73
BRANCH  62  83
ATOM     83  C   UNL A   1      50.723  27.746  25.782  1.00  0.00    -0.014 A 
ATOM     84  C   UNL A   1      51.230  28.138  24.531  1.00  0.00     0.010 A 
ATOM     85  C   UNL A   1      51.605  27.212  26.740  1.00  0.00     0.010 A 
ATOM     86  C   UNL A   1      52.587  27.975  24.236  1.00  0.00     0.020 A 
ATOM     87  C   UNL A   1      52.966  27.073  26.459  1.00  0.00     0.020 A 
ATOM     88  C   UNL A   1      53.447  27.446  25.203  1.00  0.00     0.054 A 
BRANCH  88  89
ATOM     89  S   UNL A   1      55.214  27.298  24.818  1.00  0.00     0.124 S 
ATOM     90  O   UNL A   1      55.834  27.896  25.997  1.00  0.00    -0.237 OA
ATOM     91  O   UNL A   1      55.392  25.855  24.678  1.00  0.00    -0.237 OA
ATOM     92  O   UNL A   1      55.364  28.060  23.581  1.00  0.00    -0.744 OA
ENDBRANCH  88  89
ENDBRANCH  62  83
ENDBRANCH  36  37
ENDBRANCH  28  31
ENDBRANCH  26  27
ENDBRANCH  25  26
ENDBRANCH   1  25
TORSDOF 17
ENDMDL
