MODEL 1
REMARK VINA RESULT:      -9.6      0.000      0.000
REMARK SMILES O=C(CCC(=O)Nc1ncccn1)NCCCCNC(=O)c1ccc(-c2c3nc(c(-c4ccc(S(=O)(=O)[O-])cc4)c4ccc([nH]4)c(-c4ccc(S(=O)(=O)[O-])cc4)c4nc(c(-c5ccc(S(=O)(=O)[O-])cc5)c5ccc2[nH]5)C=C4)C=C3)cc1
REMARK SMILES IDX 16 1 15 2 14 3 1 4 2 5 3 7 4 8 5 9 6 10 7 11 8 13 9 14 13 15
REMARK SMILES IDX 10 16 12 17 11 18 17 19 18 20 19 21 20 22 21 24 22 25 23 26
REMARK SMILES IDX 81 27 24 28 80 29 25 30 26 31 27 32 74 33 28 34 79 35 73 36
REMARK SMILES IDX 75 37 29 38 78 39 72 40 71 41 30 43 60 44 41 45 59 46 42 47
REMARK SMILES IDX 45 48 58 49 76 50 43 51 44 52 57 54 77 55 46 56 31 57 32 58
REMARK SMILES IDX 40 59 33 60 39 61 34 62 35 63 36 64 37 65 38 66 61 67 62 68
REMARK SMILES IDX 70 69 63 70 69 71 64 72 65 73 66 74 67 75 68 76 47 77 48 78
REMARK SMILES IDX 56 79 49 80 55 81 50 82 51 83 52 84 53 85 54 86
REMARK H PARENT 14 6 7 12 19 23 75 42 45 53
REMARK Flexibility Score: inf
ROOT
ATOM      1  C   UNL A   1      35.970  34.118  28.766  1.00  0.00     0.023 C 
ENDROOT
BRANCH   1   2
ATOM      2  C   UNL A   1      37.076  33.215  29.302  1.00  0.00     0.116 C 
BRANCH   2   3
ATOM      3  N   UNL A   1      37.343  33.391  30.716  1.00  0.00    -0.356 N 
ATOM      4  O   UNL A   1      35.610  32.074  31.468  1.00  0.00    -0.275 OA
ATOM      5  C   UNL A   1      36.634  32.714  31.687  1.00  0.00     0.220 C 
ATOM      6  H   UNL A   1      38.054  34.014  30.993  1.00  0.00     0.163 HD
BRANCH   5   7
ATOM      7  C   UNL A   1      37.249  32.807  33.070  1.00  0.00     0.110 C 
BRANCH   7   8
ATOM      8  C   UNL A   1      37.049  34.170  33.726  1.00  0.00     0.110 C 
BRANCH   8   9
ATOM      9  C   UNL A   1      35.857  34.197  34.662  1.00  0.00     0.227 C 
ATOM     10  O   UNL A   1      35.901  33.549  35.715  1.00  0.00    -0.275 OA
ATOM     11  N   UNL A   1      34.706  34.850  34.374  1.00  0.00    -0.295 N 
ATOM     12  H   UNL A   1      34.077  34.924  35.128  1.00  0.00     0.173 HD
BRANCH  11  13
ATOM     13  C   UNL A   1      34.267  35.433  33.199  1.00  0.00     0.229 A 
ATOM     14  N   UNL A   1      34.352  36.770  33.177  1.00  0.00    -0.221 NA
ATOM     15  N   UNL A   1      33.664  34.709  32.257  1.00  0.00    -0.221 NA
ATOM     16  C   UNL A   1      33.727  37.399  32.161  1.00  0.00     0.117 A 
ATOM     17  C   UNL A   1      33.033  35.375  31.274  1.00  0.00     0.117 A 
ATOM     18  C   UNL A   1      33.023  36.743  31.181  1.00  0.00     0.040 A 
ENDBRANCH  11  13
ENDBRANCH   8   9
ENDBRANCH   7   8
ENDBRANCH   5   7
ENDBRANCH   2   3
ENDBRANCH   1   2
BRANCH   1  19
ATOM     19  C   UNL A   1      34.848  33.409  28.002  1.00  0.00     0.023 C 
BRANCH  19  20
ATOM     20  C   UNL A   1      34.086  32.341  28.782  1.00  0.00     0.116 C 
BRANCH  20  21
ATOM     21  N   UNL A   1      33.716  31.198  27.962  1.00  0.00    -0.352 N 
ATOM     22  C   UNL A   1      34.468  30.124  27.546  1.00  0.00     0.251 C 
ATOM     23  H   UNL A   1      32.780  31.192  27.654  1.00  0.00     0.163 HD
ATOM     24  O   UNL A   1      33.999  29.342  26.717  1.00  0.00    -0.269 OA
BRANCH  22  25
ATOM     25  C   UNL A   1      35.842  29.913  28.059  1.00  0.00     0.039 A 
ATOM     26  C   UNL A   1      36.016  29.545  29.397  1.00  0.00     0.014 A 
ATOM     27  C   UNL A   1      36.959  30.086  27.238  1.00  0.00     0.014 A 
ATOM     28  C   UNL A   1      37.299  29.270  29.884  1.00  0.00     0.010 A 
ATOM     29  C   UNL A   1      38.228  29.740  27.704  1.00  0.00     0.010 A 
ATOM     30  C   UNL A   1      38.412  29.319  29.030  1.00  0.00    -0.014 A 
BRANCH  30  31
ATOM     31  C   UNL A   1      39.765  28.903  29.496  1.00  0.00     0.031 A 
ATOM     32  C   UNL A   1      40.605  29.823  30.341  1.00  0.00     0.074 A 
ATOM     33  C   UNL A   1      40.269  27.714  29.102  1.00  0.00     0.049 A 
ATOM     34  N   UNL A   1      41.828  29.654  30.777  1.00  0.00    -0.248 NA
ATOM     35  C   UNL A   1      40.000  31.106  30.735  1.00  0.00     0.031 C 
ATOM     36  C   UNL A   1      39.578  26.740  28.254  1.00  0.00     0.029 A 
ATOM     37  N   UNL A   1      41.483  27.125  29.359  1.00  0.00    -0.354 N 
ATOM     38  C   UNL A   1      42.145  30.810  31.481  1.00  0.00     0.074 A 
ATOM     39  C   UNL A   1      41.000  31.691  31.380  1.00  0.00     0.031 C 
ATOM     40  C   UNL A   1      40.366  25.667  28.084  1.00  0.00     0.029 A 
ATOM     41  C   UNL A   1      41.635  25.890  28.770  1.00  0.00     0.049 A 
ATOM     42  H   UNL A   1      42.181  27.546  29.912  1.00  0.00     0.167 HD
ATOM     43  C   UNL A   1      43.276  31.106  32.165  1.00  0.00     0.031 A 
ATOM     44  C   UNL A   1      42.675  25.034  28.772  1.00  0.00     0.031 A 
ATOM     45  C   UNL A   1      44.412  30.227  32.276  1.00  0.00     0.049 A 
ATOM     46  C   UNL A   1      43.925  25.388  29.530  1.00  0.00     0.074 A 
ATOM     47  C   UNL A   1      45.585  30.428  32.985  1.00  0.00     0.029 A 
ATOM     48  N   UNL A   1      44.521  28.987  31.668  1.00  0.00    -0.354 N 
ATOM     49  N   UNL A   1      44.188  26.472  30.219  1.00  0.00    -0.248 NA
ATOM     50  C   UNL A   1      45.012  24.400  29.518  1.00  0.00     0.031 C 
ATOM     51  C   UNL A   1      46.423  29.330  32.766  1.00  0.00     0.029 A 
ATOM     52  C   UNL A   1      45.747  28.418  31.971  1.00  0.00     0.049 A 
ATOM     53  H   UNL A   1      43.829  28.570  31.104  1.00  0.00     0.167 HD
ATOM     54  C   UNL A   1      45.462  26.285  30.744  1.00  0.00     0.074 A 
ATOM     55  C   UNL A   1      45.910  24.980  30.304  1.00  0.00     0.031 C 
ATOM     56  C   UNL A   1      46.190  27.121  31.524  1.00  0.00     0.031 A 
BRANCH  43  57
ATOM     57  C   UNL A   1      43.347  32.441  32.859  1.00  0.00    -0.014 A 
ATOM     58  C   UNL A   1      43.964  33.545  32.241  1.00  0.00     0.010 A 
ATOM     59  C   UNL A   1      42.726  32.616  34.109  1.00  0.00     0.010 A 
ATOM     60  C   UNL A   1      43.978  34.792  32.873  1.00  0.00     0.020 A 
ATOM     61  C   UNL A   1      42.716  33.868  34.732  1.00  0.00     0.020 A 
ATOM     62  C   UNL A   1      43.352  34.946  34.113  1.00  0.00     0.054 A 
BRANCH  62  63
ATOM     63  S   UNL A   1      43.345  36.588  34.883  1.00  0.00     0.124 S 
ATOM     64  O   UNL A   1      42.113  37.166  34.351  1.00  0.00    -0.237 OA
ATOM     65  O   UNL A   1      43.325  36.272  36.309  1.00  0.00    -0.237 OA
ATOM     66  O   UNL A   1      44.579  37.204  34.402  1.00  0.00    -0.744 OA
ENDBRANCH  62  63
ENDBRANCH  43  57
BRANCH  44  67
ATOM     67  C   UNL A   1      42.563  23.742  28.041  1.00  0.00    -0.014 A 
ATOM     68  C   UNL A   1      42.942  23.653  26.691  1.00  0.00     0.010 A 
ATOM     69  C   UNL A   1      42.118  22.583  28.705  1.00  0.00     0.010 A 
ATOM     70  C   UNL A   1      42.879  22.429  26.017  1.00  0.00     0.020 A 
ATOM     71  C   UNL A   1      42.079  21.354  28.042  1.00  0.00     0.020 A 
ATOM     72  C   UNL A   1      42.456  21.285  26.700  1.00  0.00     0.054 A 
BRANCH  72  73
ATOM     73  S   UNL A   1      42.465  19.694  25.828  1.00  0.00     0.124 S 
ATOM     74  O   UNL A   1      41.085  19.592  25.365  1.00  0.00    -0.237 OA
ATOM     75  O   UNL A   1      43.468  19.911  24.788  1.00  0.00    -0.237 OA
ATOM     76  O   UNL A   1      42.850  18.738  26.864  1.00  0.00    -0.744 OA
ENDBRANCH  72  73
ENDBRANCH  44  67
BRANCH  56  77
ATOM     77  C   UNL A   1      47.543  26.645  31.984  1.00  0.00    -0.014 A 
ATOM     78  C   UNL A   1      47.680  25.801  33.101  1.00  0.00     0.010 A 
ATOM     79  C   UNL A   1      48.689  26.998  31.248  1.00  0.00     0.010 A 
ATOM     80  C   UNL A   1      48.943  25.344  33.490  1.00  0.00     0.020 A 
ATOM     81  C   UNL A   1      49.950  26.520  31.618  1.00  0.00     0.020 A 
ATOM     82  C   UNL A   1      50.069  25.706  32.746  1.00  0.00     0.054 A 
BRANCH  82  83
ATOM     83  S   UNL A   1      51.691  25.062  33.245  1.00  0.00     0.124 S 
ATOM     84  O   UNL A   1      52.474  26.287  33.384  1.00  0.00    -0.237 OA
ATOM     85  O   UNL A   1      51.389  24.366  34.493  1.00  0.00    -0.237 OA
ATOM     86  O   UNL A   1      52.079  24.198  32.134  1.00  0.00    -0.744 OA
ENDBRANCH  82  83
ENDBRANCH  56  77
ENDBRANCH  30  31
ENDBRANCH  22  25
ENDBRANCH  20  21
ENDBRANCH  19  20
ENDBRANCH   1  19
TORSDOF 17
ENDMDL
MODEL 2
REMARK VINA RESULT:      -9.1      3.521      6.710
REMARK SMILES O=C(CCC(=O)Nc1ncccn1)NCCCCNC(=O)c1ccc(-c2c3nc(c(-c4ccc(S(=O)(=O)[O-])cc4)c4ccc([nH]4)c(-c4ccc(S(=O)(=O)[O-])cc4)c4nc(c(-c5ccc(S(=O)(=O)[O-])cc5)c5ccc2[nH]5)C=C4)C=C3)cc1
REMARK SMILES IDX 16 1 15 2 14 3 1 4 2 5 3 7 4 8 5 9 6 10 7 11 8 13 9 14 13 15
REMARK SMILES IDX 10 16 12 17 11 18 17 19 18 20 19 21 20 22 21 24 22 25 23 26
REMARK SMILES IDX 81 27 24 28 80 29 25 30 26 31 27 32 74 33 28 34 79 35 73 36
REMARK SMILES IDX 75 37 29 38 78 39 72 40 71 41 30 43 60 44 41 45 59 46 42 47
REMARK SMILES IDX 45 48 58 49 76 50 43 51 44 52 57 54 77 55 46 56 31 57 32 58
REMARK SMILES IDX 40 59 33 60 39 61 34 62 35 63 36 64 37 65 38 66 61 67 62 68
REMARK SMILES IDX 70 69 63 70 69 71 64 72 65 73 66 74 67 75 68 76 47 77 48 78
REMARK SMILES IDX 56 79 49 80 55 81 50 82 51 83 52 84 53 85 54 86
REMARK H PARENT 14 6 7 12 19 23 75 42 45 53
REMARK Flexibility Score: inf
ROOT
ATOM      1  C   UNL A   1      33.889  26.921  25.363  1.00  0.00     0.023 C 
ENDROOT
BRANCH   1   2
ATOM      2  C   UNL A   1      33.645  26.486  23.922  1.00  0.00     0.116 C 
BRANCH   2   3
ATOM      3  N   UNL A   1      33.669  25.049  23.732  1.00  0.00    -0.356 N 
ATOM      4  O   UNL A   1      32.579  25.045  21.702  1.00  0.00    -0.275 OA
ATOM      5  C   UNL A   1      33.214  24.455  22.573  1.00  0.00     0.220 C 
ATOM      6  H   UNL A   1      34.022  24.479  24.453  1.00  0.00     0.163 HD
BRANCH   5   7
ATOM      7  C   UNL A   1      33.589  22.991  22.448  1.00  0.00     0.110 C 
BRANCH   7   8
ATOM      8  C   UNL A   1      32.503  22.047  22.956  1.00  0.00     0.110 C 
BRANCH   8   9
ATOM      9  C   UNL A   1      32.133  22.311  24.403  1.00  0.00     0.227 C 
ATOM     10  O   UNL A   1      31.026  22.798  24.664  1.00  0.00    -0.275 OA
ATOM     11  N   UNL A   1      32.984  22.097  25.434  1.00  0.00    -0.295 N 
ATOM     12  H   UNL A   1      32.571  22.154  26.326  1.00  0.00     0.173 HD
BRANCH  11  13
ATOM     13  C   UNL A   1      34.338  21.812  25.445  1.00  0.00     0.229 A 
ATOM     14  N   UNL A   1      35.129  22.882  25.592  1.00  0.00    -0.221 NA
ATOM     15  N   UNL A   1      34.783  20.588  25.162  1.00  0.00    -0.221 NA
ATOM     16  C   UNL A   1      36.447  22.694  25.375  1.00  0.00     0.117 A 
ATOM     17  C   UNL A   1      36.101  20.448  24.930  1.00  0.00     0.117 A 
ATOM     18  C   UNL A   1      36.992  21.486  25.013  1.00  0.00     0.040 A 
ENDBRANCH  11  13
ENDBRANCH   8   9
ENDBRANCH   7   8
ENDBRANCH   5   7
ENDBRANCH   2   3
ENDBRANCH   1   2
BRANCH   1  19
ATOM     19  C   UNL A   1      33.175  28.204  25.798  1.00  0.00     0.023 C 
BRANCH  19  20
ATOM     20  C   UNL A   1      33.295  28.562  27.278  1.00  0.00     0.116 C 
BRANCH  20  21
ATOM     21  N   UNL A   1      33.326  29.997  27.512  1.00  0.00    -0.352 N 
ATOM     22  C   UNL A   1      34.320  30.788  28.038  1.00  0.00     0.251 C 
ATOM     23  H   UNL A   1      32.506  30.478  27.255  1.00  0.00     0.163 HD
ATOM     24  O   UNL A   1      34.079  31.968  28.301  1.00  0.00    -0.269 OA
BRANCH  22  25
ATOM     25  C   UNL A   1      35.665  30.235  28.320  1.00  0.00     0.039 A 
ATOM     26  C   UNL A   1      36.631  30.254  27.309  1.00  0.00     0.014 A 
ATOM     27  C   UNL A   1      35.979  29.684  29.566  1.00  0.00     0.014 A 
ATOM     28  C   UNL A   1      37.929  29.804  27.574  1.00  0.00     0.010 A 
ATOM     29  C   UNL A   1      37.291  29.304  29.851  1.00  0.00     0.010 A 
ATOM     30  C   UNL A   1      38.284  29.368  28.861  1.00  0.00    -0.014 A 
BRANCH  30  31
ATOM     31  C   UNL A   1      39.691  29.008  29.197  1.00  0.00     0.031 A 
ATOM     32  C   UNL A   1      40.603  30.006  29.859  1.00  0.00     0.074 A 
ATOM     33  C   UNL A   1      40.171  27.797  28.846  1.00  0.00     0.049 A 
ATOM     34  N   UNL A   1      41.872  29.889  30.160  1.00  0.00    -0.248 NA
ATOM     35  C   UNL A   1      40.021  31.311  30.215  1.00  0.00     0.031 C 
ATOM     36  C   UNL A   1      39.407  26.747  28.168  1.00  0.00     0.029 A 
ATOM     37  N   UNL A   1      41.419  27.246  29.006  1.00  0.00    -0.354 N 
ATOM     38  C   UNL A   1      42.244  31.104  30.724  1.00  0.00     0.074 A 
ATOM     39  C   UNL A   1      41.077  31.960  30.686  1.00  0.00     0.031 C 
ATOM     40  C   UNL A   1      40.193  25.673  27.996  1.00  0.00     0.029 A 
ATOM     41  C   UNL A   1      41.527  25.968  28.508  1.00  0.00     0.049 A 
ATOM     42  H   UNL A   1      42.167  27.720  29.437  1.00  0.00     0.167 HD
ATOM     43  C   UNL A   1      43.440  31.470  31.244  1.00  0.00     0.031 A 
ATOM     44  C   UNL A   1      42.579  25.126  28.457  1.00  0.00     0.031 A 
ATOM     45  C   UNL A   1      44.600  30.617  31.293  1.00  0.00     0.049 A 
ATOM     46  C   UNL A   1      43.900  25.558  29.031  1.00  0.00     0.074 A 
ATOM     47  C   UNL A   1      45.843  30.889  31.840  1.00  0.00     0.029 A 
ATOM     48  N   UNL A   1      44.664  29.331  30.780  1.00  0.00    -0.354 N 
ATOM     49  N   UNL A   1      44.219  26.699  29.593  1.00  0.00    -0.248 NA
ATOM     50  C   UNL A   1      44.999  24.585  28.973  1.00  0.00     0.031 C 
ATOM     51  C   UNL A   1      46.673  29.787  31.614  1.00  0.00     0.029 A 
ATOM     52  C   UNL A   1      45.929  28.803  30.983  1.00  0.00     0.049 A 
ATOM     53  H   UNL A   1      43.921  28.860  30.338  1.00  0.00     0.167 HD
ATOM     54  C   UNL A   1      45.549  26.571  29.977  1.00  0.00     0.074 A 
ATOM     55  C   UNL A   1      45.970  25.239  29.597  1.00  0.00     0.031 C 
ATOM     56  C   UNL A   1      46.345  27.478  30.595  1.00  0.00     0.031 A 
BRANCH  43  57
ATOM     57  C   UNL A   1      43.563  32.859  31.813  1.00  0.00    -0.014 A 
ATOM     58  C   UNL A   1      43.215  33.126  33.149  1.00  0.00     0.010 A 
ATOM     59  C   UNL A   1      44.104  33.894  31.027  1.00  0.00     0.010 A 
ATOM     60  C   UNL A   1      43.383  34.408  33.682  1.00  0.00     0.020 A 
ATOM     61  C   UNL A   1      44.298  35.170  31.564  1.00  0.00     0.020 A 
ATOM     62  C   UNL A   1      43.925  35.421  32.886  1.00  0.00     0.054 A 
BRANCH  62  63
ATOM     63  S   UNL A   1      44.176  37.060  33.621  1.00  0.00     0.124 S 
ATOM     64  O   UNL A   1      42.845  37.366  34.140  1.00  0.00    -0.237 OA
ATOM     65  O   UNL A   1      45.200  36.803  34.631  1.00  0.00    -0.237 OA
ATOM     66  O   UNL A   1      44.609  37.884  32.495  1.00  0.00    -0.744 OA
ENDBRANCH  62  63
ENDBRANCH  43  57
BRANCH  44  67
ATOM     67  C   UNL A   1      42.410  23.776  27.853  1.00  0.00    -0.014 A 
ATOM     68  C   UNL A   1      42.778  23.543  26.517  1.00  0.00     0.010 A 
ATOM     69  C   UNL A   1      41.922  22.706  28.625  1.00  0.00     0.010 A 
ATOM     70  C   UNL A   1      42.661  22.264  25.963  1.00  0.00     0.020 A 
ATOM     71  C   UNL A   1      41.829  21.421  28.083  1.00  0.00     0.020 A 
ATOM     72  C   UNL A   1      42.195  21.209  26.754  1.00  0.00     0.054 A 
BRANCH  72  73
ATOM     73  S   UNL A   1      42.135  19.543  26.037  1.00  0.00     0.124 S 
ATOM     74  O   UNL A   1      43.014  19.676  24.880  1.00  0.00    -0.237 OA
ATOM     75  O   UNL A   1      42.643  18.714  27.127  1.00  0.00    -0.237 OA
ATOM     76  O   UNL A   1      40.718  19.354  25.730  1.00  0.00    -0.744 OA
ENDBRANCH  72  73
ENDBRANCH  44  67
BRANCH  56  77
ATOM     77  C   UNL A   1      47.752  27.059  30.930  1.00  0.00    -0.014 A 
ATOM     78  C   UNL A   1      48.040  26.341  32.105  1.00  0.00     0.010 A 
ATOM     79  C   UNL A   1      48.792  27.332  30.022  1.00  0.00     0.010 A 
ATOM     80  C   UNL A   1      49.349  25.932  32.380  1.00  0.00     0.020 A 
ATOM     81  C   UNL A   1      50.096  26.901  30.280  1.00  0.00     0.020 A 
ATOM     82  C   UNL A   1      50.368  26.214  31.465  1.00  0.00     0.054 A 
BRANCH  82  83
ATOM     83  S   UNL A   1      52.049  25.633  31.824  1.00  0.00     0.124 S 
ATOM     84  O   UNL A   1      52.763  25.998  30.604  1.00  0.00    -0.237 OA
ATOM     85  O   UNL A   1      52.407  26.400  33.014  1.00  0.00    -0.237 OA
ATOM     86  O   UNL A   1      51.882  24.199  32.041  1.00  0.00    -0.744 OA
ENDBRANCH  82  83
ENDBRANCH  56  77
ENDBRANCH  30  31
ENDBRANCH  22  25
ENDBRANCH  20  21
ENDBRANCH  19  20
ENDBRANCH   1  19
TORSDOF 17
ENDMDL
MODEL 3
REMARK VINA RESULT:      -9.1      4.206     12.077
REMARK SMILES O=C(CCC(=O)Nc1ncccn1)NCCCCNC(=O)c1ccc(-c2c3nc(c(-c4ccc(S(=O)(=O)[O-])cc4)c4ccc([nH]4)c(-c4ccc(S(=O)(=O)[O-])cc4)c4nc(c(-c5ccc(S(=O)(=O)[O-])cc5)c5ccc2[nH]5)C=C4)C=C3)cc1
REMARK SMILES IDX 16 1 15 2 14 3 1 4 2 5 3 7 4 8 5 9 6 10 7 11 8 13 9 14 13 15
REMARK SMILES IDX 10 16 12 17 11 18 17 19 18 20 19 21 20 22 21 24 22 25 23 26
REMARK SMILES IDX 81 27 24 28 80 29 25 30 26 31 27 32 74 33 28 34 79 35 73 36
REMARK SMILES IDX 75 37 29 38 78 39 72 40 71 41 30 43 60 44 41 45 59 46 42 47
REMARK SMILES IDX 45 48 58 49 76 50 43 51 44 52 57 54 77 55 46 56 31 57 32 58
REMARK SMILES IDX 40 59 33 60 39 61 34 62 35 63 36 64 37 65 38 66 61 67 62 68
REMARK SMILES IDX 70 69 63 70 69 71 64 72 65 73 66 74 67 75 68 76 47 77 48 78
REMARK SMILES IDX 56 79 49 80 55 81 50 82 51 83 52 84 53 85 54 86
REMARK H PARENT 14 6 7 12 19 23 75 42 45 53
REMARK Flexibility Score: inf
ROOT
ATOM      1  C   UNL A   1      43.376  24.212  29.496  1.00  0.00     0.023 C 
ENDROOT
BRANCH   1   2
ATOM      2  C   UNL A   1      44.397  25.280  29.121  1.00  0.00     0.116 C 
BRANCH   2   3
ATOM      3  N   UNL A   1      44.961  25.114  27.796  1.00  0.00    -0.356 N 
ATOM      4  O   UNL A   1      47.144  24.848  28.480  1.00  0.00    -0.275 OA
ATOM      5  C   UNL A   1      46.292  24.809  27.597  1.00  0.00     0.220 C 
ATOM      6  H   UNL A   1      44.374  25.221  27.012  1.00  0.00     0.163 HD
BRANCH   5   7
ATOM      7  C   UNL A   1      46.618  24.391  26.177  1.00  0.00     0.110 C 
BRANCH   7   8
ATOM      8  C   UNL A   1      45.976  23.064  25.779  1.00  0.00     0.110 C 
BRANCH   8   9
ATOM      9  C   UNL A   1      44.850  23.240  24.779  1.00  0.00     0.227 C 
ATOM     10  O   UNL A   1      44.676  24.345  24.252  1.00  0.00    -0.275 OA
ATOM     11  N   UNL A   1      43.972  22.253  24.474  1.00  0.00    -0.295 N 
ATOM     12  H   UNL A   1      43.395  22.443  23.700  1.00  0.00     0.173 HD
BRANCH  11  13
ATOM     13  C   UNL A   1      43.752  21.024  25.069  1.00  0.00     0.229 A 
ATOM     14  N   UNL A   1      44.660  20.088  24.760  1.00  0.00    -0.221 NA
ATOM     15  N   UNL A   1      42.633  20.781  25.750  1.00  0.00    -0.221 NA
ATOM     16  C   UNL A   1      44.368  18.821  25.119  1.00  0.00     0.117 A 
ATOM     17  C   UNL A   1      42.367  19.501  26.068  1.00  0.00     0.117 A 
ATOM     18  C   UNL A   1      43.208  18.463  25.763  1.00  0.00     0.040 A 
ENDBRANCH  11  13
ENDBRANCH   8   9
ENDBRANCH   7   8
ENDBRANCH   5   7
ENDBRANCH   2   3
ENDBRANCH   1   2
BRANCH   1  19
ATOM     19  C   UNL A   1      43.084  23.166  28.416  1.00  0.00     0.023 C 
BRANCH  19  20
ATOM     20  C   UNL A   1      41.716  23.268  27.746  1.00  0.00     0.116 C 
BRANCH  20  21
ATOM     21  N   UNL A   1      41.756  23.994  26.485  1.00  0.00    -0.352 N 
ATOM     22  C   UNL A   1      41.466  25.309  26.211  1.00  0.00     0.251 C 
ATOM     23  H   UNL A   1      42.033  23.459  25.706  1.00  0.00     0.163 HD
ATOM     24  O   UNL A   1      41.410  25.684  25.037  1.00  0.00    -0.269 OA
BRANCH  22  25
ATOM     25  C   UNL A   1      41.192  26.273  27.301  1.00  0.00     0.039 A 
ATOM     26  C   UNL A   1      40.137  26.016  28.183  1.00  0.00     0.014 A 
ATOM     27  C   UNL A   1      41.955  27.434  27.455  1.00  0.00     0.014 A 
ATOM     28  C   UNL A   1      39.905  26.875  29.264  1.00  0.00     0.010 A 
ATOM     29  C   UNL A   1      41.770  28.248  28.573  1.00  0.00     0.010 A 
ATOM     30  C   UNL A   1      40.749  27.973  29.497  1.00  0.00    -0.014 A 
BRANCH  30  31
ATOM     31  C   UNL A   1      40.599  28.822  30.712  1.00  0.00     0.031 A 
ATOM     32  C   UNL A   1      39.582  29.931  30.756  1.00  0.00     0.074 A 
ATOM     33  C   UNL A   1      41.427  28.635  31.761  1.00  0.00     0.049 A 
ATOM     34  N   UNL A   1      39.362  30.810  31.701  1.00  0.00    -0.248 NA
ATOM     35  C   UNL A   1      38.710  30.085  29.580  1.00  0.00     0.031 C 
ATOM     36  C   UNL A   1      42.480  27.620  31.839  1.00  0.00     0.029 A 
ATOM     37  N   UNL A   1      41.517  29.296  32.962  1.00  0.00    -0.354 N 
ATOM     38  C   UNL A   1      38.341  31.628  31.231  1.00  0.00     0.074 A 
ATOM     39  C   UNL A   1      38.013  31.167  29.898  1.00  0.00     0.031 C 
ATOM     40  C   UNL A   1      43.090  27.709  33.031  1.00  0.00     0.029 A 
ATOM     41  C   UNL A   1      42.506  28.812  33.787  1.00  0.00     0.049 A 
ATOM     42  H   UNL A   1      40.929  30.046  33.210  1.00  0.00     0.167 HD
ATOM     43  C   UNL A   1      37.720  32.657  31.856  1.00  0.00     0.031 A 
ATOM     44  C   UNL A   1      42.908  29.210  35.011  1.00  0.00     0.031 A 
ATOM     45  C   UNL A   1      38.037  33.111  33.186  1.00  0.00     0.049 A 
ATOM     46  C   UNL A   1      42.209  30.361  35.681  1.00  0.00     0.074 A 
ATOM     47  C   UNL A   1      37.429  34.119  33.915  1.00  0.00     0.029 A 
ATOM     48  N   UNL A   1      39.041  32.590  33.986  1.00  0.00    -0.354 N 
ATOM     49  N   UNL A   1      41.222  31.097  35.232  1.00  0.00    -0.248 NA
ATOM     50  C   UNL A   1      42.674  30.728  37.026  1.00  0.00     0.031 C 
ATOM     51  C   UNL A   1      38.099  34.241  35.137  1.00  0.00     0.029 A 
ATOM     52  C   UNL A   1      39.082  33.267  35.194  1.00  0.00     0.049 A 
ATOM     53  H   UNL A   1      39.638  31.848  33.734  1.00  0.00     0.167 HD
ATOM     54  C   UNL A   1      40.930  31.999  36.249  1.00  0.00     0.074 A 
ATOM     55  C   UNL A   1      41.836  31.707  37.341  1.00  0.00     0.031 C 
ATOM     56  C   UNL A   1      39.992  32.977  36.274  1.00  0.00     0.031 A 
BRANCH  43  57
ATOM     57  C   UNL A   1      36.620  33.370  31.111  1.00  0.00    -0.014 A 
ATOM     58  C   UNL A   1      36.844  33.899  29.827  1.00  0.00     0.010 A 
ATOM     59  C   UNL A   1      35.331  33.445  31.668  1.00  0.00     0.010 A 
ATOM     60  C   UNL A   1      35.803  34.512  29.124  1.00  0.00     0.020 A 
ATOM     61  C   UNL A   1      34.281  34.034  30.957  1.00  0.00     0.020 A 
ATOM     62  C   UNL A   1      34.527  34.574  29.693  1.00  0.00     0.054 A 
BRANCH  62  63
ATOM     63  S   UNL A   1      33.186  35.332  28.735  1.00  0.00     0.124 S 
ATOM     64  O   UNL A   1      32.344  35.894  29.788  1.00  0.00    -0.237 OA
ATOM     65  O   UNL A   1      33.894  36.307  27.910  1.00  0.00    -0.237 OA
ATOM     66  O   UNL A   1      32.602  34.209  28.005  1.00  0.00    -0.744 OA
ENDBRANCH  62  63
ENDBRANCH  43  57
BRANCH  44  67
ATOM     67  C   UNL A   1      44.021  28.492  35.687  1.00  0.00    -0.014 A 
ATOM     68  C   UNL A   1      45.350  28.921  35.524  1.00  0.00     0.010 A 
ATOM     69  C   UNL A   1      43.755  27.399  36.534  1.00  0.00     0.010 A 
ATOM     70  C   UNL A   1      46.391  28.273  36.194  1.00  0.00     0.020 A 
ATOM     71  C   UNL A   1      44.790  26.766  37.227  1.00  0.00     0.020 A 
ATOM     72  C   UNL A   1      46.103  27.204  37.050  1.00  0.00     0.054 A 
BRANCH  72  73
ATOM     73  S   UNL A   1      47.462  26.436  37.975  1.00  0.00     0.124 S 
ATOM     74  O   UNL A   1      47.058  26.667  39.358  1.00  0.00    -0.237 OA
ATOM     75  O   UNL A   1      47.407  25.049  37.521  1.00  0.00    -0.237 OA
ATOM     76  O   UNL A   1      48.640  27.182  37.534  1.00  0.00    -0.744 OA
ENDBRANCH  72  73
ENDBRANCH  44  67
BRANCH  56  77
ATOM     77  C   UNL A   1      39.867  33.793  37.534  1.00  0.00    -0.014 A 
ATOM     78  C   UNL A   1      40.553  35.013  37.684  1.00  0.00     0.010 A 
ATOM     79  C   UNL A   1      39.001  33.364  38.556  1.00  0.00     0.010 A 
ATOM     80  C   UNL A   1      40.396  35.771  38.848  1.00  0.00     0.020 A 
ATOM     81  C   UNL A   1      38.821  34.134  39.709  1.00  0.00     0.020 A 
ATOM     82  C   UNL A   1      39.532  35.327  39.853  1.00  0.00     0.054 A 
BRANCH  82  83
ATOM     83  S   UNL A   1      39.312  36.353  41.333  1.00  0.00     0.124 S 
ATOM     84  O   UNL A   1      38.903  37.632  40.758  1.00  0.00    -0.237 OA
ATOM     85  O   UNL A   1      38.274  35.636  42.068  1.00  0.00    -0.237 OA
ATOM     86  O   UNL A   1      40.630  36.345  41.961  1.00  0.00    -0.744 OA
ENDBRANCH  82  83
ENDBRANCH  56  77
ENDBRANCH  30  31
ENDBRANCH  22  25
ENDBRANCH  20  21
ENDBRANCH  19  20
ENDBRANCH   1  19
TORSDOF 17
ENDMDL
