MODEL 1
REMARK VINA RESULT:     -11.1      0.000      0.000
REMARK SMILES COc1ccc([C@@H]2C(C#N)=C(N)N3C(=O)[C@H](CC(=O)NCCCCNC(=O)c4ccc(-c5c6nc(c(-c7ccc(S(=O)(=O)[O-])cc7)c7ccc([nH]7)c(-c7ccc(S(=O)(=O)[O-])cc7)c7nc(c(-c8ccc(S(=O)(=O)[O-])cc8)c8ccc5[nH]8)C=C7)C=C6)cc4)SC3=C2C#N)cc1
REMARK SMILES IDX 22 1 21 2 20 3 18 4 19 5 17 7 16 8 7 9 8 10 90 11 11 12
REMARK SMILES IDX 89 13 13 14 88 15 14 16 15 17 6 18 3 19 4 20 94 21 5 22
REMARK SMILES IDX 93 23 2 24 1 25 9 26 10 27 91 28 92 29 12 30 23 33 24 34
REMARK SMILES IDX 25 35 26 36 27 38 28 39 29 40 87 41 30 42 86 43 31 44 32 45
REMARK SMILES IDX 33 46 80 47 34 48 85 49 79 50 81 51 35 52 84 53 78 54 77 55
REMARK SMILES IDX 36 57 66 58 47 59 65 60 48 61 51 62 64 63 82 64 49 65 50 66
REMARK SMILES IDX 63 68 83 69 52 70 37 71 38 72 46 73 39 74 45 75 40 76 41 77
REMARK SMILES IDX 42 78 43 79 44 80 67 81 68 82 76 83 69 84 75 85 70 86 71 87
REMARK SMILES IDX 72 88 73 89 74 90 53 91 54 92 62 93 55 94 61 95 56 96 57 97
REMARK SMILES IDX 58 98 59 99 60 100
REMARK H PARENT 20 6 12 31 12 32 25 37 81 56 51 67
REMARK Flexibility Score: inf
ROOT
ATOM      1  C   UNL A   1      38.679  22.307  25.924  1.00  0.00     0.023 C 
ENDROOT
BRANCH   1   2
ATOM      2  C   UNL A   1      37.316  22.879  25.532  1.00  0.00     0.116 C 
BRANCH   2   3
ATOM      3  N   UNL A   1      36.313  22.514  26.508  1.00  0.00    -0.356 N 
ATOM      4  C   UNL A   1      35.271  21.644  26.390  1.00  0.00     0.221 C 
ATOM      5  O   UNL A   1      34.405  21.631  27.264  1.00  0.00    -0.275 OA
ATOM      6  H   UNL A   1      36.395  22.957  27.384  1.00  0.00     0.163 HD
BRANCH   4   7
ATOM      7  C   UNL A   1      35.204  20.682  25.219  1.00  0.00     0.125 C 
BRANCH   7   8
ATOM      8  C   UNL A   1      34.087  21.042  24.249  1.00  0.00     0.152 C 
ATOM      9  C   UNL A   1      31.007  24.822  23.996  1.00  0.00     0.107 C 
ATOM     10  C   UNL A   1      30.752  24.251  25.375  1.00  0.00     0.083 C 
ATOM     11  C   UNL A   1      32.360  24.414  23.429  1.00  0.00     0.073 C 
ATOM     12  C   UNL A   1      31.506  23.236  25.857  1.00  0.00     0.126 C 
ATOM     13  C   UNL A   1      33.019  23.395  23.996  1.00  0.00     0.099 C 
ATOM     14  N   UNL A   1      32.495  22.683  25.044  1.00  0.00    -0.258 N 
ATOM     15  S   UNL A   1      34.449  22.629  23.383  1.00  0.00    -0.093 SA
ATOM     16  C   UNL A   1      32.769  21.324  24.947  1.00  0.00     0.247 C 
ATOM     17  O   UNL A   1      31.973  20.444  25.236  1.00  0.00    -0.273 OA
BRANCH   9  18
ATOM     18  C   UNL A   1      30.851  26.332  23.964  1.00  0.00    -0.034 A 
ATOM     19  C   UNL A   1      30.438  29.088  24.100  1.00  0.00     0.118 A 
ATOM     20  C   UNL A   1      31.462  28.502  24.840  1.00  0.00     0.047 A 
ATOM     21  C   UNL A   1      29.666  28.312  23.236  1.00  0.00     0.047 A 
ATOM     22  C   UNL A   1      31.669  27.127  24.779  1.00  0.00     0.008 A 
ATOM     23  C   UNL A   1      29.868  26.938  23.168  1.00  0.00     0.008 A 
BRANCH  19  24
ATOM     24  O   UNL A   1      30.284  30.438  24.253  1.00  0.00    -0.497 OA
ATOM     25  C   UNL A   1      29.193  30.972  23.507  1.00  0.00     0.278 C 
ENDBRANCH  19  24
ENDBRANCH   9  18
BRANCH  10  26
ATOM     26  C   UNL A   1      29.670  24.781  26.145  1.00  0.00     0.100 C 
ATOM     27  N   UNL A   1      28.797  25.196  26.788  1.00  0.00    -0.193 NA
ENDBRANCH  10  26
BRANCH  11  28
ATOM     28  C   UNL A   1      32.816  25.012  22.219  1.00  0.00     0.098 C 
ATOM     29  N   UNL A   1      33.204  25.479  21.228  1.00  0.00    -0.193 NA
ENDBRANCH  11  28
BRANCH  12  30
ATOM     30  N   UNL A   1      31.345  22.784  27.142  1.00  0.00    -0.384 N 
ATOM     31  H   UNL A   1      30.442  22.692  27.523  1.00  0.00     0.158 HD
ATOM     32  H   UNL A   1      32.134  22.552  27.685  1.00  0.00     0.158 HD
ENDBRANCH  12  30
ENDBRANCH   7   8
ENDBRANCH   4   7
ENDBRANCH   2   3
ENDBRANCH   1   2
BRANCH   1  33
ATOM     33  C   UNL A   1      38.990  20.914  25.443  1.00  0.00     0.023 C 
BRANCH  33  34
ATOM     34  C   UNL A   1      39.538  20.009  26.516  1.00  0.00     0.116 C 
BRANCH  34  35
ATOM     35  N   UNL A   1      40.738  19.282  26.112  1.00  0.00    -0.352 N 
ATOM     36  C   UNL A   1      42.018  19.767  25.969  1.00  0.00     0.251 C 
ATOM     37  H   UNL A   1      40.617  18.326  25.919  1.00  0.00     0.163 HD
ATOM     38  O   UNL A   1      42.902  19.063  25.495  1.00  0.00    -0.269 OA
BRANCH  36  39
ATOM     39  C   UNL A   1      42.282  21.165  26.364  1.00  0.00     0.039 A 
ATOM     40  C   UNL A   1      42.586  21.462  27.691  1.00  0.00     0.014 A 
ATOM     41  C   UNL A   1      42.352  22.153  25.380  1.00  0.00     0.014 A 
ATOM     42  C   UNL A   1      43.027  22.745  28.013  1.00  0.00     0.010 A 
ATOM     43  C   UNL A   1      42.955  23.363  25.673  1.00  0.00     0.010 A 
ATOM     44  C   UNL A   1      43.257  23.692  26.999  1.00  0.00    -0.014 A 
BRANCH  44  45
ATOM     45  C   UNL A   1      43.747  25.058  27.304  1.00  0.00     0.031 A 
ATOM     46  C   UNL A   1      45.207  25.381  27.103  1.00  0.00     0.074 A 
ATOM     47  C   UNL A   1      42.902  25.988  27.792  1.00  0.00     0.049 A 
ATOM     48  N   UNL A   1      45.840  26.504  27.322  1.00  0.00    -0.248 NA
ATOM     49  C   UNL A   1      46.081  24.291  26.628  1.00  0.00     0.031 C 
ATOM     50  C   UNL A   1      41.480  25.778  28.082  1.00  0.00     0.029 A 
ATOM     51  N   UNL A   1      43.115  27.302  28.121  1.00  0.00    -0.354 N 
ATOM     52  C   UNL A   1      47.174  26.247  27.026  1.00  0.00     0.074 A 
ATOM     53  C   UNL A   1      47.279  24.846  26.699  1.00  0.00     0.031 C 
ATOM     54  C   UNL A   1      40.939  26.938  28.489  1.00  0.00     0.029 A 
ATOM     55  C   UNL A   1      41.980  27.957  28.541  1.00  0.00     0.049 A 
ATOM     56  H   UNL A   1      43.996  27.736  28.062  1.00  0.00     0.167 HD
ATOM     57  C   UNL A   1      48.217  27.107  26.990  1.00  0.00     0.031 A 
ATOM     58  C   UNL A   1      41.802  29.236  28.922  1.00  0.00     0.031 A 
ATOM     59  C   UNL A   1      48.103  28.505  27.303  1.00  0.00     0.049 A 
ATOM     60  C   UNL A   1      42.981  30.172  28.894  1.00  0.00     0.074 A 
ATOM     61  C   UNL A   1      49.084  29.479  27.251  1.00  0.00     0.029 A 
ATOM     62  N   UNL A   1      46.939  29.127  27.728  1.00  0.00    -0.354 N 
ATOM     63  N   UNL A   1      44.222  29.926  28.543  1.00  0.00    -0.248 NA
ATOM     64  C   UNL A   1      42.731  31.562  29.292  1.00  0.00     0.031 C 
ATOM     65  C   UNL A   1      48.530  30.674  27.717  1.00  0.00     0.029 A 
ATOM     66  C   UNL A   1      47.184  30.467  27.970  1.00  0.00     0.049 A 
ATOM     67  H   UNL A   1      46.068  28.682  27.841  1.00  0.00     0.167 HD
ATOM     68  C   UNL A   1      44.890  31.143  28.640  1.00  0.00     0.074 A 
ATOM     69  C   UNL A   1      43.911  32.121  29.064  1.00  0.00     0.031 C 
ATOM     70  C   UNL A   1      46.194  31.427  28.394  1.00  0.00     0.031 A 
BRANCH  57  71
ATOM     71  C   UNL A   1      49.565  26.556  26.602  1.00  0.00    -0.014 A 
ATOM     72  C   UNL A   1      50.459  26.059  27.570  1.00  0.00     0.010 A 
ATOM     73  C   UNL A   1      49.931  26.501  25.245  1.00  0.00     0.010 A 
ATOM     74  C   UNL A   1      51.707  25.557  27.192  1.00  0.00     0.020 A 
ATOM     75  C   UNL A   1      51.162  25.966  24.859  1.00  0.00     0.020 A 
ATOM     76  C   UNL A   1      52.048  25.509  25.837  1.00  0.00     0.054 A 
BRANCH  76  77
ATOM     77  S   UNL A   1      53.658  24.815  25.373  1.00  0.00     0.124 S 
ATOM     78  O   UNL A   1      53.302  23.446  25.007  1.00  0.00    -0.237 OA
ATOM     79  O   UNL A   1      54.065  25.675  24.265  1.00  0.00    -0.237 OA
ATOM     80  O   UNL A   1      54.457  24.947  26.588  1.00  0.00    -0.744 OA
ENDBRANCH  76  77
ENDBRANCH  57  71
BRANCH  58  81
ATOM     81  C   UNL A   1      40.454  29.714  29.344  1.00  0.00    -0.014 A 
ATOM     82  C   UNL A   1      39.444  29.954  28.395  1.00  0.00     0.010 A 
ATOM     83  C   UNL A   1      40.175  29.935  30.706  1.00  0.00     0.010 A 
ATOM     84  C   UNL A   1      38.193  30.435  28.795  1.00  0.00     0.020 A 
ATOM     85  C   UNL A   1      38.914  30.380  31.113  1.00  0.00     0.020 A 
ATOM     86  C   UNL A   1      37.935  30.642  30.153  1.00  0.00     0.054 A 
BRANCH  86  87
ATOM     87  S   UNL A   1      36.293  31.230  30.652  1.00  0.00     0.124 S 
ATOM     88  O   UNL A   1      35.899  30.230  31.638  1.00  0.00    -0.237 OA
ATOM     89  O   UNL A   1      36.584  32.561  31.178  1.00  0.00    -0.237 OA
ATOM     90  O   UNL A   1      35.530  31.213  29.405  1.00  0.00    -0.744 OA
ENDBRANCH  86  87
ENDBRANCH  58  81
BRANCH  70  91
ATOM     91  C   UNL A   1      46.625  32.866  28.517  1.00  0.00    -0.014 A 
ATOM     92  C   UNL A   1      47.184  33.374  29.703  1.00  0.00     0.010 A 
ATOM     93  C   UNL A   1      46.494  33.716  27.403  1.00  0.00     0.010 A 
ATOM     94  C   UNL A   1      47.550  34.720  29.790  1.00  0.00     0.020 A 
ATOM     95  C   UNL A   1      46.899  35.050  27.472  1.00  0.00     0.020 A 
ATOM     96  C   UNL A   1      47.403  35.549  28.673  1.00  0.00     0.054 A 
BRANCH  96  97
ATOM     97  S   UNL A   1      47.900  37.287  28.807  1.00  0.00     0.124 S 
ATOM     98  O   UNL A   1      47.702  37.551  30.229  1.00  0.00    -0.237 OA
ATOM     99  O   UNL A   1      49.290  37.257  28.359  1.00  0.00    -0.237 OA
ATOM    100  O   UNL A   1      46.978  37.982  27.912  1.00  0.00    -0.744 OA
ENDBRANCH  96  97
ENDBRANCH  70  91
ENDBRANCH  44  45
ENDBRANCH  36  39
ENDBRANCH  34  35
ENDBRANCH  33  34
ENDBRANCH   1  33
TORSDOF 20
ENDMDL
MODEL 2
REMARK VINA RESULT:     -10.6      0.685      7.890
REMARK SMILES COc1ccc([C@@H]2C(C#N)=C(N)N3C(=O)[C@H](CC(=O)NCCCCNC(=O)c4ccc(-c5c6nc(c(-c7ccc(S(=O)(=O)[O-])cc7)c7ccc([nH]7)c(-c7ccc(S(=O)(=O)[O-])cc7)c7nc(c(-c8ccc(S(=O)(=O)[O-])cc8)c8ccc5[nH]8)C=C7)C=C6)cc4)SC3=C2C#N)cc1
REMARK SMILES IDX 22 1 21 2 20 3 18 4 19 5 17 7 16 8 7 9 8 10 90 11 11 12
REMARK SMILES IDX 89 13 13 14 88 15 14 16 15 17 6 18 3 19 4 20 94 21 5 22
REMARK SMILES IDX 93 23 2 24 1 25 9 26 10 27 91 28 92 29 12 30 23 33 24 34
REMARK SMILES IDX 25 35 26 36 27 38 28 39 29 40 87 41 30 42 86 43 31 44 32 45
REMARK SMILES IDX 33 46 80 47 34 48 85 49 79 50 81 51 35 52 84 53 78 54 77 55
REMARK SMILES IDX 36 57 66 58 47 59 65 60 48 61 51 62 64 63 82 64 49 65 50 66
REMARK SMILES IDX 63 68 83 69 52 70 37 71 38 72 46 73 39 74 45 75 40 76 41 77
REMARK SMILES IDX 42 78 43 79 44 80 67 81 68 82 76 83 69 84 75 85 70 86 71 87
REMARK SMILES IDX 72 88 73 89 74 90 53 91 54 92 62 93 55 94 61 95 56 96 57 97
REMARK SMILES IDX 58 98 59 99 60 100
REMARK H PARENT 20 6 12 31 12 32 25 37 81 56 51 67
REMARK Flexibility Score: inf
ROOT
ATOM      1  C   UNL A   1      38.833  23.443  26.249  1.00  0.00     0.023 C 
ENDROOT
BRANCH   1   2
ATOM      2  C   UNL A   1      37.414  23.509  25.684  1.00  0.00     0.116 C 
BRANCH   2   3
ATOM      3  N   UNL A   1      36.475  22.893  26.597  1.00  0.00    -0.356 N 
ATOM      4  C   UNL A   1      35.578  21.895  26.366  1.00  0.00     0.221 C 
ATOM      5  O   UNL A   1      34.721  21.657  27.218  1.00  0.00    -0.275 OA
ATOM      6  H   UNL A   1      36.487  23.246  27.516  1.00  0.00     0.163 HD
BRANCH   4   7
ATOM      7  C   UNL A   1      35.660  21.067  25.099  1.00  0.00     0.125 C 
BRANCH   7   8
ATOM      8  C   UNL A   1      34.523  21.382  24.137  1.00  0.00     0.152 C 
ATOM      9  C   UNL A   1      31.237  24.989  23.959  1.00  0.00     0.107 C 
ATOM     10  C   UNL A   1      31.017  24.379  25.327  1.00  0.00     0.083 C 
ATOM     11  C   UNL A   1      32.609  24.668  23.382  1.00  0.00     0.073 C 
ATOM     12  C   UNL A   1      31.827  23.399  25.789  1.00  0.00     0.126 C 
ATOM     13  C   UNL A   1      33.325  23.676  23.929  1.00  0.00     0.099 C 
ATOM     14  N   UNL A   1      32.844  22.917  24.965  1.00  0.00    -0.258 N 
ATOM     15  S   UNL A   1      34.794  23.002  23.300  1.00  0.00    -0.093 SA
ATOM     16  C   UNL A   1      33.192  21.577  24.841  1.00  0.00     0.247 C 
ATOM     17  O   UNL A   1      32.447  20.649  25.115  1.00  0.00    -0.273 OA
BRANCH   9  18
ATOM     18  C   UNL A   1      30.998  26.489  23.955  1.00  0.00    -0.034 A 
ATOM     19  C   UNL A   1      30.433  29.214  24.144  1.00  0.00     0.118 A 
ATOM     20  C   UNL A   1      31.489  28.672  24.871  1.00  0.00     0.047 A 
ATOM     21  C   UNL A   1      29.703  28.413  23.265  1.00  0.00     0.047 A 
ATOM     22  C   UNL A   1      31.772  27.313  24.784  1.00  0.00     0.008 A 
ATOM     23  C   UNL A   1      29.981  27.054  23.172  1.00  0.00     0.008 A 
BRANCH  19  24
ATOM     24  O   UNL A   1      30.204  30.551  24.322  1.00  0.00    -0.497 OA
ATOM     25  C   UNL A   1      29.065  31.031  23.613  1.00  0.00     0.278 C 
ENDBRANCH  19  24
ENDBRANCH   9  18
BRANCH  10  26
ATOM     26  C   UNL A   1      29.909  24.834  26.108  1.00  0.00     0.100 C 
ATOM     27  N   UNL A   1      29.021  25.194  26.762  1.00  0.00    -0.193 NA
ENDBRANCH  10  26
BRANCH  11  28
ATOM     28  C   UNL A   1      33.029  25.312  22.183  1.00  0.00     0.098 C 
ATOM     29  N   UNL A   1      33.386  25.817  21.199  1.00  0.00    -0.193 NA
ENDBRANCH  11  28
BRANCH  12  30
ATOM     30  N   UNL A   1      31.695  22.915  27.066  1.00  0.00    -0.384 N 
ATOM     31  H   UNL A   1      31.793  23.520  27.835  1.00  0.00     0.158 HD
ATOM     32  H   UNL A   1      31.501  21.960  27.212  1.00  0.00     0.158 HD
ENDBRANCH  12  30
ENDBRANCH   7   8
ENDBRANCH   4   7
ENDBRANCH   2   3
ENDBRANCH   1   2
BRANCH   1  33
ATOM     33  C   UNL A   1      39.301  22.099  26.743  1.00  0.00     0.023 C 
BRANCH  33  34
ATOM     34  C   UNL A   1      39.657  21.137  25.640  1.00  0.00     0.116 C 
BRANCH  34  35
ATOM     35  N   UNL A   1      40.392  19.963  26.100  1.00  0.00    -0.352 N 
ATOM     36  C   UNL A   1      41.701  19.889  26.520  1.00  0.00     0.251 C 
ATOM     37  H   UNL A   1      39.889  19.118  26.113  1.00  0.00     0.163 HD
ATOM     38  O   UNL A   1      42.220  18.805  26.754  1.00  0.00    -0.269 OA
BRANCH  36  39
ATOM     39  C   UNL A   1      42.466  21.147  26.638  1.00  0.00     0.039 A 
ATOM     40  C   UNL A   1      42.741  21.897  25.496  1.00  0.00     0.014 A 
ATOM     41  C   UNL A   1      42.790  21.635  27.905  1.00  0.00     0.014 A 
ATOM     42  C   UNL A   1      43.284  23.173  25.641  1.00  0.00     0.010 A 
ATOM     43  C   UNL A   1      43.160  22.960  28.049  1.00  0.00     0.010 A 
ATOM     44  C   UNL A   1      43.457  23.731  26.920  1.00  0.00    -0.014 A 
BRANCH  44  45
ATOM     45  C   UNL A   1      44.011  25.093  27.109  1.00  0.00     0.031 A 
ATOM     46  C   UNL A   1      43.121  26.184  27.653  1.00  0.00     0.074 A 
ATOM     47  C   UNL A   1      45.285  25.361  26.760  1.00  0.00     0.049 A 
ATOM     48  N   UNL A   1      43.403  27.440  27.879  1.00  0.00    -0.248 NA
ATOM     49  C   UNL A   1      41.720  25.828  27.949  1.00  0.00     0.031 C 
ATOM     50  C   UNL A   1      46.226  24.403  26.171  1.00  0.00     0.029 A 
ATOM     51  N   UNL A   1      46.014  26.519  26.862  1.00  0.00    -0.354 N 
ATOM     52  C   UNL A   1      42.219  28.016  28.325  1.00  0.00     0.074 A 
ATOM     53  C   UNL A   1      41.195  27.002  28.255  1.00  0.00     0.031 C 
ATOM     54  C   UNL A   1      47.421  24.997  26.019  1.00  0.00     0.029 A 
ATOM     55  C   UNL A   1      47.319  26.387  26.447  1.00  0.00     0.049 A 
ATOM     56  H   UNL A   1      45.639  27.363  27.199  1.00  0.00     0.167 HD
ATOM     57  C   UNL A   1      42.006  29.268  28.791  1.00  0.00     0.031 A 
ATOM     58  C   UNL A   1      48.320  27.288  26.419  1.00  0.00     0.031 A 
ATOM     59  C   UNL A   1      43.032  30.269  28.872  1.00  0.00     0.049 A 
ATOM     60  C   UNL A   1      48.055  28.682  26.924  1.00  0.00     0.074 A 
ATOM     61  C   UNL A   1      42.940  31.555  29.374  1.00  0.00     0.029 A 
ATOM     62  N   UNL A   1      44.339  30.098  28.438  1.00  0.00    -0.354 N 
ATOM     63  N   UNL A   1      46.945  29.188  27.408  1.00  0.00    -0.248 NA
ATOM     64  C   UNL A   1      49.184  29.619  26.898  1.00  0.00     0.031 C 
ATOM     65  C   UNL A   1      44.171  32.186  29.175  1.00  0.00     0.029 A 
ATOM     66  C   UNL A   1      45.056  31.265  28.635  1.00  0.00     0.049 A 
ATOM     67  H   UNL A   1      44.702  29.270  28.050  1.00  0.00     0.167 HD
ATOM     68  C   UNL A   1      47.255  30.491  27.782  1.00  0.00     0.074 A 
ATOM     69  C   UNL A   1      48.659  30.685  27.484  1.00  0.00     0.031 C 
ATOM     70  C   UNL A   1      46.454  31.440  28.330  1.00  0.00     0.031 A 
BRANCH  57  71
ATOM     71  C   UNL A   1      40.611  29.618  29.243  1.00  0.00    -0.014 A 
ATOM     72  C   UNL A   1      40.297  29.757  30.609  1.00  0.00     0.010 A 
ATOM     73  C   UNL A   1      39.606  29.846  28.286  1.00  0.00     0.010 A 
ATOM     74  C   UNL A   1      38.996  30.076  31.008  1.00  0.00     0.020 A 
ATOM     75  C   UNL A   1      38.314  30.202  28.680  1.00  0.00     0.020 A 
ATOM     76  C   UNL A   1      38.014  30.302  30.040  1.00  0.00     0.054 A 
BRANCH  76  77
ATOM     77  S   UNL A   1      36.346  30.754  30.588  1.00  0.00     0.124 S 
ATOM     78  O   UNL A   1      35.615  30.800  29.324  1.00  0.00    -0.237 OA
ATOM     79  O   UNL A   1      35.994  29.650  31.476  1.00  0.00    -0.237 OA
ATOM     80  O   UNL A   1      36.533  32.044  31.246  1.00  0.00    -0.744 OA
ENDBRANCH  76  77
ENDBRANCH  57  71
BRANCH  58  81
ATOM     81  C   UNL A   1      49.668  26.898  25.914  1.00  0.00    -0.014 A 
ATOM     82  C   UNL A   1      50.538  26.126  26.703  1.00  0.00     0.010 A 
ATOM     83  C   UNL A   1      50.089  27.305  24.634  1.00  0.00     0.010 A 
ATOM     84  C   UNL A   1      51.814  25.793  26.237  1.00  0.00     0.020 A 
ATOM     85  C   UNL A   1      51.350  26.943  24.150  1.00  0.00     0.020 A 
ATOM     86  C   UNL A   1      52.210  26.201  24.960  1.00  0.00     0.054 A 
BRANCH  86  87
ATOM     87  S   UNL A   1      53.856  25.726  24.361  1.00  0.00     0.124 S 
ATOM     88  O   UNL A   1      53.696  25.836  22.916  1.00  0.00    -0.237 OA
ATOM     89  O   UNL A   1      54.716  26.730  24.983  1.00  0.00    -0.237 OA
ATOM     90  O   UNL A   1      54.026  24.367  24.871  1.00  0.00    -0.744 OA
ENDBRANCH  86  87
ENDBRANCH  58  81
BRANCH  70  91
ATOM     91  C   UNL A   1      47.090  32.755  28.699  1.00  0.00    -0.014 A 
ATOM     92  C   UNL A   1      47.097  33.850  27.818  1.00  0.00     0.010 A 
ATOM     93  C   UNL A   1      47.666  32.901  29.976  1.00  0.00     0.010 A 
ATOM     94  C   UNL A   1      47.718  35.047  28.184  1.00  0.00     0.020 A 
ATOM     95  C   UNL A   1      48.248  34.109  30.363  1.00  0.00     0.020 A 
ATOM     96  C   UNL A   1      48.290  35.167  29.455  1.00  0.00     0.054 A 
BRANCH  96  97
ATOM     97  S   UNL A   1      49.076  36.736  29.911  1.00  0.00     0.124 S 
ATOM     98  O   UNL A   1      47.938  37.519  30.385  1.00  0.00    -0.237 OA
ATOM     99  O   UNL A   1      50.031  36.327  30.939  1.00  0.00    -0.237 OA
ATOM    100  O   UNL A   1      49.675  37.202  28.662  1.00  0.00    -0.744 OA
ENDBRANCH  96  97
ENDBRANCH  70  91
ENDBRANCH  44  45
ENDBRANCH  36  39
ENDBRANCH  34  35
ENDBRANCH  33  34
ENDBRANCH   1  33
TORSDOF 20
ENDMDL
MODEL 3
REMARK VINA RESULT:     -10.5      5.945     11.131
REMARK SMILES COc1ccc([C@@H]2C(C#N)=C(N)N3C(=O)[C@H](CC(=O)NCCCCNC(=O)c4ccc(-c5c6nc(c(-c7ccc(S(=O)(=O)[O-])cc7)c7ccc([nH]7)c(-c7ccc(S(=O)(=O)[O-])cc7)c7nc(c(-c8ccc(S(=O)(=O)[O-])cc8)c8ccc5[nH]8)C=C7)C=C6)cc4)SC3=C2C#N)cc1
REMARK SMILES IDX 22 1 21 2 20 3 18 4 19 5 17 7 16 8 7 9 8 10 90 11 11 12
REMARK SMILES IDX 89 13 13 14 88 15 14 16 15 17 6 18 3 19 4 20 94 21 5 22
REMARK SMILES IDX 93 23 2 24 1 25 9 26 10 27 91 28 92 29 12 30 23 33 24 34
REMARK SMILES IDX 25 35 26 36 27 38 28 39 29 40 87 41 30 42 86 43 31 44 32 45
REMARK SMILES IDX 33 46 80 47 34 48 85 49 79 50 81 51 35 52 84 53 78 54 77 55
REMARK SMILES IDX 36 57 66 58 47 59 65 60 48 61 51 62 64 63 82 64 49 65 50 66
REMARK SMILES IDX 63 68 83 69 52 70 37 71 38 72 46 73 39 74 45 75 40 76 41 77
REMARK SMILES IDX 42 78 43 79 44 80 67 81 68 82 76 83 69 84 75 85 70 86 71 87
REMARK SMILES IDX 72 88 73 89 74 90 53 91 54 92 62 93 55 94 61 95 56 96 57 97
REMARK SMILES IDX 58 98 59 99 60 100
REMARK H PARENT 20 6 12 31 12 32 25 37 81 56 51 67
REMARK Flexibility Score: inf
ROOT
ATOM      1  C   UNL A   1      41.132  21.173  26.204  1.00  0.00     0.023 C 
ENDROOT
BRANCH   1   2
ATOM      2  C   UNL A   1      42.366  20.865  27.054  1.00  0.00     0.116 C 
BRANCH   2   3
ATOM      3  N   UNL A   1      43.504  20.576  26.208  1.00  0.00    -0.356 N 
ATOM      4  C   UNL A   1      44.275  21.429  25.478  1.00  0.00     0.221 C 
ATOM      5  O   UNL A   1      45.064  20.963  24.657  1.00  0.00    -0.275 OA
ATOM      6  H   UNL A   1      43.759  19.626  26.154  1.00  0.00     0.163 HD
BRANCH   4   7
ATOM      7  C   UNL A   1      44.186  22.926  25.703  1.00  0.00     0.125 C 
BRANCH   7   8
ATOM      8  C   UNL A   1      45.522  23.518  26.129  1.00  0.00     0.152 C 
ATOM      9  C   UNL A   1      46.795  27.877  27.921  1.00  0.00     0.107 C 
ATOM     10  C   UNL A   1      46.120  28.219  26.609  1.00  0.00     0.083 C 
ATOM     11  C   UNL A   1      46.412  26.500  28.442  1.00  0.00     0.073 C 
ATOM     12  C   UNL A   1      45.531  27.259  25.860  1.00  0.00     0.126 C 
ATOM     13  C   UNL A   1      45.825  25.632  27.606  1.00  0.00     0.099 C 
ATOM     14  N   UNL A   1      45.597  25.932  26.288  1.00  0.00    -0.258 N 
ATOM     15  S   UNL A   1      45.512  23.955  27.920  1.00  0.00    -0.093 SA
ATOM     16  C   UNL A   1      45.822  24.844  25.453  1.00  0.00     0.247 C 
ATOM     17  O   UNL A   1      46.355  24.922  24.357  1.00  0.00    -0.273 OA
BRANCH   9  18
ATOM     18  C   UNL A   1      46.549  28.934  28.984  1.00  0.00    -0.034 A 
ATOM     19  C   UNL A   1      46.024  31.016  30.765  1.00  0.00     0.118 A 
ATOM     20  C   UNL A   1      44.991  30.177  30.354  1.00  0.00     0.047 A 
ATOM     21  C   UNL A   1      47.332  30.774  30.347  1.00  0.00     0.047 A 
ATOM     22  C   UNL A   1      45.247  29.141  29.462  1.00  0.00     0.008 A 
ATOM     23  C   UNL A   1      47.596  29.738  29.457  1.00  0.00     0.008 A 
BRANCH  19  24
ATOM     24  O   UNL A   1      45.672  32.032  31.611  1.00  0.00    -0.497 OA
ATOM     25  C   UNL A   1      44.474  31.776  32.338  1.00  0.00     0.278 C 
ENDBRANCH  19  24
ENDBRANCH   9  18
BRANCH  10  26
ATOM     26  C   UNL A   1      46.152  29.575  26.158  1.00  0.00     0.100 C 
ATOM     27  N   UNL A   1      46.152  30.676  25.791  1.00  0.00    -0.193 NA
ENDBRANCH  10  26
BRANCH  11  28
ATOM     28  C   UNL A   1      46.827  26.108  29.747  1.00  0.00     0.098 C 
ATOM     29  N   UNL A   1      47.160  25.812  30.820  1.00  0.00    -0.193 NA
ENDBRANCH  11  28
BRANCH  12  30
ATOM     30  N   UNL A   1      44.832  27.577  24.724  1.00  0.00    -0.384 N 
ATOM     31  H   UNL A   1      43.944  27.185  24.566  1.00  0.00     0.158 HD
ATOM     32  H   UNL A   1      45.221  28.199  24.065  1.00  0.00     0.158 HD
ENDBRANCH  12  30
ENDBRANCH   7   8
ENDBRANCH   4   7
ENDBRANCH   2   3
ENDBRANCH   1   2
BRANCH   1  33
ATOM     33  C   UNL A   1      40.018  21.926  26.882  1.00  0.00     0.023 C 
BRANCH  33  34
ATOM     34  C   UNL A   1      40.367  23.350  27.227  1.00  0.00     0.116 C 
BRANCH  34  35
ATOM     35  N   UNL A   1      41.039  24.066  26.147  1.00  0.00    -0.352 N 
ATOM     36  C   UNL A   1      41.500  25.364  26.145  1.00  0.00     0.251 C 
ATOM     37  H   UNL A   1      41.182  23.558  25.317  1.00  0.00     0.163 HD
ATOM     38  O   UNL A   1      41.928  25.871  25.115  1.00  0.00    -0.269 OA
BRANCH  36  39
ATOM     39  C   UNL A   1      41.423  26.132  27.403  1.00  0.00     0.039 A 
ATOM     40  C   UNL A   1      42.431  27.040  27.719  1.00  0.00     0.014 A 
ATOM     41  C   UNL A   1      40.278  26.036  28.196  1.00  0.00     0.014 A 
ATOM     42  C   UNL A   1      42.250  27.901  28.802  1.00  0.00     0.010 A 
ATOM     43  C   UNL A   1      40.029  27.005  29.151  1.00  0.00     0.010 A 
ATOM     44  C   UNL A   1      41.029  27.919  29.499  1.00  0.00    -0.014 A 
BRANCH  44  45
ATOM     45  C   UNL A   1      40.795  28.836  30.640  1.00  0.00     0.031 A 
ATOM     46  C   UNL A   1      41.654  28.715  31.874  1.00  0.00     0.074 A 
ATOM     47  C   UNL A   1      39.799  29.743  30.587  1.00  0.00     0.049 A 
ATOM     48  N   UNL A   1      41.605  29.406  32.983  1.00  0.00    -0.248 NA
ATOM     49  C   UNL A   1      42.681  27.656  31.882  1.00  0.00     0.031 C 
ATOM     50  C   UNL A   1      38.865  29.917  29.470  1.00  0.00     0.029 A 
ATOM     51  N   UNL A   1      39.411  30.697  31.492  1.00  0.00    -0.354 N 
ATOM     52  C   UNL A   1      42.576  28.857  33.812  1.00  0.00     0.074 A 
ATOM     53  C   UNL A   1      43.138  27.722  33.121  1.00  0.00     0.031 C 
ATOM     54  C   UNL A   1      38.053  30.955  29.733  1.00  0.00     0.029 A 
ATOM     55  C   UNL A   1      38.371  31.484  31.054  1.00  0.00     0.049 A 
ATOM     56  H   UNL A   1      39.837  30.810  32.372  1.00  0.00     0.167 HD
ATOM     57  C   UNL A   1      42.995  29.278  35.027  1.00  0.00     0.031 A 
ATOM     58  C   UNL A   1      37.746  32.516  31.652  1.00  0.00     0.031 A 
ATOM     59  C   UNL A   1      42.441  30.418  35.705  1.00  0.00     0.049 A 
ATOM     60  C   UNL A   1      38.215  32.957  33.013  1.00  0.00     0.074 A 
ATOM     61  C   UNL A   1      42.822  30.965  36.916  1.00  0.00     0.029 A 
ATOM     62  N   UNL A   1      41.386  31.183  35.230  1.00  0.00    -0.354 N 
ATOM     63  N   UNL A   1      39.184  32.467  33.752  1.00  0.00    -0.248 NA
ATOM     64  C   UNL A   1      37.521  34.103  33.611  1.00  0.00     0.031 C 
ATOM     65  C   UNL A   1      41.949  32.016  37.209  1.00  0.00     0.029 A 
ATOM     66  C   UNL A   1      41.085  32.182  36.139  1.00  0.00     0.049 A 
ATOM     67  H   UNL A   1      40.922  31.039  34.374  1.00  0.00     0.167 HD
ATOM     68  C   UNL A   1      39.240  33.273  34.885  1.00  0.00     0.074 A 
ATOM     69  C   UNL A   1      38.221  34.289  34.721  1.00  0.00     0.031 C 
ATOM     70  C   UNL A   1      40.064  33.185  35.959  1.00  0.00     0.031 A 
BRANCH  57  71
ATOM     71  C   UNL A   1      44.099  28.501  35.695  1.00  0.00    -0.014 A 
ATOM     72  C   UNL A   1      45.449  28.873  35.549  1.00  0.00     0.010 A 
ATOM     73  C   UNL A   1      43.780  27.401  36.512  1.00  0.00     0.010 A 
ATOM     74  C   UNL A   1      46.460  28.136  36.171  1.00  0.00     0.020 A 
ATOM     75  C   UNL A   1      44.785  26.684  37.167  1.00  0.00     0.020 A 
ATOM     76  C   UNL A   1      46.120  27.048  36.981  1.00  0.00     0.054 A 
BRANCH  76  77
ATOM     77  S   UNL A   1      47.451  26.136  37.809  1.00  0.00     0.124 S 
ATOM     78  O   UNL A   1      47.396  26.684  39.162  1.00  0.00    -0.237 OA
ATOM     79  O   UNL A   1      47.013  24.749  37.675  1.00  0.00    -0.237 OA
ATOM     80  O   UNL A   1      48.643  26.487  37.042  1.00  0.00    -0.744 OA
ENDBRANCH  76  77
ENDBRANCH  57  71
BRANCH  58  81
ATOM     81  C   UNL A   1      36.625  33.217  30.963  1.00  0.00    -0.014 A 
ATOM     82  C   UNL A   1      36.873  34.103  29.900  1.00  0.00     0.010 A 
ATOM     83  C   UNL A   1      35.296  33.002  31.374  1.00  0.00     0.010 A 
ATOM     84  C   UNL A   1      35.819  34.783  29.281  1.00  0.00     0.020 A 
ATOM     85  C   UNL A   1      34.237  33.652  30.734  1.00  0.00     0.020 A 
ATOM     86  C   UNL A   1      34.506  34.550  29.700  1.00  0.00     0.054 A 
BRANCH  86  87
ATOM     87  S   UNL A   1      33.152  35.415  28.858  1.00  0.00     0.124 S 
ATOM     88  O   UNL A   1      32.418  35.994  29.977  1.00  0.00    -0.237 OA
ATOM     89  O   UNL A   1      33.868  36.364  28.010  1.00  0.00    -0.237 OA
ATOM     90  O   UNL A   1      32.458  34.347  28.140  1.00  0.00    -0.744 OA
ENDBRANCH  86  87
ENDBRANCH  58  81
BRANCH  70  91
ATOM     91  C   UNL A   1      39.941  34.253  37.016  1.00  0.00    -0.014 A 
ATOM     92  C   UNL A   1      39.144  34.075  38.161  1.00  0.00     0.010 A 
ATOM     93  C   UNL A   1      40.670  35.448  36.868  1.00  0.00     0.010 A 
ATOM     94  C   UNL A   1      39.033  35.096  39.108  1.00  0.00     0.020 A 
ATOM     95  C   UNL A   1      40.597  36.453  37.834  1.00  0.00     0.020 A 
ATOM     96  C   UNL A   1      39.760  36.279  38.937  1.00  0.00     0.054 A 
BRANCH  96  97
ATOM     97  S   UNL A   1      39.612  37.582  40.189  1.00  0.00     0.124 S 
ATOM     98  O   UNL A   1      39.828  36.840  41.427  1.00  0.00    -0.237 OA
ATOM     99  O   UNL A   1      40.678  38.507  39.814  1.00  0.00    -0.237 OA
ATOM    100  O   UNL A   1      38.256  38.093  39.999  1.00  0.00    -0.744 OA
ENDBRANCH  96  97
ENDBRANCH  70  91
ENDBRANCH  44  45
ENDBRANCH  36  39
ENDBRANCH  34  35
ENDBRANCH  33  34
ENDBRANCH   1  33
TORSDOF 20
ENDMDL
