MODEL 1
REMARK VINA RESULT:      -9.1      0.000      0.000
REMARK SMILES CC[C@@](CC(F)(F)F)(C(=O)NCCCCNC(=O)c1ccc(-c2c3nc(c(-c4ccc(S(=O)(=O)[O-])cc4)c4ccc([nH]4)c(-c4ccc(S(=O)(=O)[O-])cc4)c4nc(c(-c5ccc(S(=O)(=O)[O-])cc5)c5ccc2[nH]5)C=C4)C=C3)cc1)c1ccccc1
REMARK SMILES IDX 14 1 13 2 12 3 11 4 9 5 10 6 3 8 2 9 1 10 4 11 5 12 6 13
REMARK SMILES IDX 7 14 8 15 79 16 80 17 84 18 81 19 83 20 82 21 15 22 16 23
REMARK SMILES IDX 17 24 18 26 19 27 20 28 78 29 21 30 77 31 22 32 23 33 24 34
REMARK SMILES IDX 71 35 25 36 76 37 70 38 72 39 26 40 75 41 69 42 68 43 27 45
REMARK SMILES IDX 57 46 38 47 56 48 39 49 42 50 55 51 73 52 40 53 41 54 54 56
REMARK SMILES IDX 74 57 43 58 28 59 29 60 37 61 30 62 36 63 31 64 32 65 33 66
REMARK SMILES IDX 34 67 35 68 58 69 59 70 67 71 60 72 66 73 61 74 62 75 63 76
REMARK SMILES IDX 64 77 65 78 44 79 45 80 53 81 46 82 52 83 47 84 48 85 49 86
REMARK SMILES IDX 50 87 51 88
REMARK H PARENT 11 7 16 25 72 44 42 55
REMARK Flexibility Score: inf
ROOT
ATOM      1  C   UNL A   1      33.331  33.432  28.066  1.00  0.00     0.023 C 
ENDROOT
BRANCH   1   2
ATOM      2  C   UNL A   1      33.704  34.836  28.543  1.00  0.00     0.023 C 
BRANCH   2   3
ATOM      3  C   UNL A   1      33.959  34.964  30.038  1.00  0.00     0.116 C 
BRANCH   3   4
ATOM      4  N   UNL A   1      33.916  33.698  30.754  1.00  0.00    -0.355 N 
ATOM      5  C   UNL A   1      34.521  33.257  31.894  1.00  0.00     0.230 C 
ATOM      6  O   UNL A   1      33.894  32.374  32.493  1.00  0.00    -0.274 OA
ATOM      7  H   UNL A   1      33.332  33.027  30.331  1.00  0.00     0.163 HD
BRANCH   5   8
ATOM      8  C   UNL A   1      35.867  33.831  32.475  1.00  0.00     0.082 C 
BRANCH   8   9
ATOM      9  C   UNL A   1      35.723  35.330  32.889  1.00  0.00     0.019 C 
ATOM     10  C   UNL A   1      34.456  35.726  33.639  1.00  0.00     0.005 C 
ENDBRANCH   8   9
BRANCH   8  11
ATOM     11  C   UNL A   1      36.355  32.820  33.561  1.00  0.00     0.137 C 
BRANCH  11  12
ATOM     12  C   UNL A   1      37.012  33.312  34.823  1.00  0.00     0.390 C 
ATOM     13  F   UNL A   1      36.149  33.857  35.694  1.00  0.00    -0.171 F 
ATOM     14  F   UNL A   1      37.601  32.268  35.458  1.00  0.00    -0.171 F 
ATOM     15  F   UNL A   1      37.991  34.201  34.558  1.00  0.00    -0.171 F 
ENDBRANCH  11  12
ENDBRANCH   8  11
BRANCH   8  16
ATOM     16  C   UNL A   1      36.999  33.873  31.360  1.00  0.00    -0.032 A 
ATOM     17  C   UNL A   1      38.159  34.666  31.512  1.00  0.00     0.005 A 
ATOM     18  C   UNL A   1      36.856  33.197  30.134  1.00  0.00     0.005 A 
ATOM     19  C   UNL A   1      39.135  34.749  30.515  1.00  0.00     0.000 A 
ATOM     20  C   UNL A   1      37.842  33.267  29.141  1.00  0.00     0.000 A 
ATOM     21  C   UNL A   1      38.981  34.043  29.332  1.00  0.00     0.000 A 
ENDBRANCH   8  16
ENDBRANCH   5   8
ENDBRANCH   3   4
ENDBRANCH   2   3
ENDBRANCH   1   2
BRANCH   1  22
ATOM     22  C   UNL A   1      34.487  32.558  27.588  1.00  0.00     0.116 C 
BRANCH  22  23
ATOM     23  N   UNL A   1      34.083  31.222  27.171  1.00  0.00    -0.352 N 
ATOM     24  C   UNL A   1      34.716  30.016  27.372  1.00  0.00     0.251 C 
ATOM     25  H   UNL A   1      33.235  31.175  26.672  1.00  0.00     0.163 HD
ATOM     26  O   UNL A   1      34.263  28.991  26.883  1.00  0.00    -0.269 OA
BRANCH  24  27
ATOM     27  C   UNL A   1      35.976  29.980  28.146  1.00  0.00     0.039 A 
ATOM     28  C   UNL A   1      35.916  29.687  29.509  1.00  0.00     0.014 A 
ATOM     29  C   UNL A   1      37.208  30.171  27.516  1.00  0.00     0.014 A 
ATOM     30  C   UNL A   1      37.099  29.483  30.223  1.00  0.00     0.010 A 
ATOM     31  C   UNL A   1      38.384  29.902  28.212  1.00  0.00     0.010 A 
ATOM     32  C   UNL A   1      38.340  29.535  29.566  1.00  0.00    -0.014 A 
BRANCH  32  33
ATOM     33  C   UNL A   1      39.594  29.152  30.264  1.00  0.00     0.031 A 
ATOM     34  C   UNL A   1      40.044  29.901  31.488  1.00  0.00     0.074 A 
ATOM     35  C   UNL A   1      40.370  28.179  29.743  1.00  0.00     0.049 A 
ATOM     36  N   UNL A   1      41.142  29.754  32.183  1.00  0.00    -0.248 NA
ATOM     37  C   UNL A   1      39.160  30.970  31.979  1.00  0.00     0.031 C 
ATOM     38  C   UNL A   1      40.070  27.413  28.529  1.00  0.00     0.029 A 
ATOM     39  N   UNL A   1      41.575  27.674  30.161  1.00  0.00    -0.354 N 
ATOM     40  C   UNL A   1      41.091  30.717  33.182  1.00  0.00     0.074 A 
ATOM     41  C   UNL A   1      39.872  31.472  32.979  1.00  0.00     0.031 C 
ATOM     42  C   UNL A   1      41.053  26.524  28.315  1.00  0.00     0.029 A 
ATOM     43  C   UNL A   1      42.071  26.679  29.349  1.00  0.00     0.049 A 
ATOM     44  H   UNL A   1      42.042  27.992  30.968  1.00  0.00     0.167 HD
ATOM     45  C   UNL A   1      41.970  30.945  34.187  1.00  0.00     0.031 A 
ATOM     46  C   UNL A   1      43.219  25.979  29.420  1.00  0.00     0.031 A 
ATOM     47  C   UNL A   1      43.172  30.182  34.398  1.00  0.00     0.049 A 
ATOM     48  C   UNL A   1      44.175  26.249  30.549  1.00  0.00     0.074 A 
ATOM     49  C   UNL A   1      44.088  30.293  35.430  1.00  0.00     0.029 A 
ATOM     50  N   UNL A   1      43.625  29.171  33.567  1.00  0.00    -0.354 N 
ATOM     51  N   UNL A   1      44.068  27.115  31.528  1.00  0.00    -0.248 NA
ATOM     52  C   UNL A   1      45.401  25.440  30.589  1.00  0.00     0.031 C 
ATOM     53  C   UNL A   1      45.120  29.378  35.197  1.00  0.00     0.029 A 
ATOM     54  C   UNL A   1      44.821  28.665  34.049  1.00  0.00     0.049 A 
ATOM     55  H   UNL A   1      43.166  28.858  32.755  1.00  0.00     0.167 HD
ATOM     56  C   UNL A   1      45.203  26.940  32.312  1.00  0.00     0.074 A 
ATOM     57  C   UNL A   1      45.973  25.873  31.704  1.00  0.00     0.031 C 
ATOM     58  C   UNL A   1      45.575  27.603  33.433  1.00  0.00     0.031 A 
BRANCH  45  59
ATOM     59  C   UNL A   1      41.665  32.066  35.144  1.00  0.00    -0.014 A 
ATOM     60  C   UNL A   1      42.055  33.386  34.857  1.00  0.00     0.010 A 
ATOM     61  C   UNL A   1      40.926  31.807  36.312  1.00  0.00     0.010 A 
ATOM     62  C   UNL A   1      41.732  34.424  35.734  1.00  0.00     0.020 A 
ATOM     63  C   UNL A   1      40.580  32.846  37.181  1.00  0.00     0.020 A 
ATOM     64  C   UNL A   1      40.998  34.148  36.891  1.00  0.00     0.054 A 
BRANCH  64  65
ATOM     65  S   UNL A   1      40.553  35.522  37.989  1.00  0.00     0.124 S 
ATOM     66  O   UNL A   1      41.766  35.671  38.790  1.00  0.00    -0.237 OA
ATOM     67  O   UNL A   1      40.285  36.609  37.049  1.00  0.00    -0.237 OA
ATOM     68  O   UNL A   1      39.385  35.026  38.712  1.00  0.00    -0.744 OA
ENDBRANCH  64  65
ENDBRANCH  45  59
BRANCH  46  69
ATOM     69  C   UNL A   1      43.532  24.948  28.392  1.00  0.00    -0.014 A 
ATOM     70  C   UNL A   1      44.289  25.282  27.255  1.00  0.00     0.010 A 
ATOM     71  C   UNL A   1      43.067  23.630  28.542  1.00  0.00     0.010 A 
ATOM     72  C   UNL A   1      44.552  24.323  26.273  1.00  0.00     0.020 A 
ATOM     73  C   UNL A   1      43.351  22.661  27.575  1.00  0.00     0.020 A 
ATOM     74  C   UNL A   1      44.078  23.018  26.439  1.00  0.00     0.054 A 
BRANCH  74  75
ATOM     75  S   UNL A   1      44.458  21.778  25.169  1.00  0.00     0.124 S 
ATOM     76  O   UNL A   1      44.248  22.531  23.938  1.00  0.00    -0.237 OA
ATOM     77  O   UNL A   1      45.844  21.428  25.470  1.00  0.00    -0.237 OA
ATOM     78  O   UNL A   1      43.487  20.716  25.430  1.00  0.00    -0.744 OA
ENDBRANCH  74  75
ENDBRANCH  46  69
BRANCH  58  79
ATOM     79  C   UNL A   1      46.859  27.178  34.093  1.00  0.00    -0.014 A 
ATOM     80  C   UNL A   1      48.080  27.794  33.767  1.00  0.00     0.010 A 
ATOM     81  C   UNL A   1      46.833  26.186  35.089  1.00  0.00     0.010 A 
ATOM     82  C   UNL A   1      49.259  27.401  34.404  1.00  0.00     0.020 A 
ATOM     83  C   UNL A   1      48.006  25.808  35.746  1.00  0.00     0.020 A 
ATOM     84  C   UNL A   1      49.215  26.409  35.390  1.00  0.00     0.054 A 
BRANCH  84  85
ATOM     85  S   UNL A   1      50.752  25.945  36.233  1.00  0.00     0.124 S 
ATOM     86  O   UNL A   1      51.276  27.243  36.646  1.00  0.00    -0.237 OA
ATOM     87  O   UNL A   1      50.279  25.084  37.316  1.00  0.00    -0.237 OA
ATOM     88  O   UNL A   1      51.523  25.262  35.197  1.00  0.00    -0.744 OA
ENDBRANCH  84  85
ENDBRANCH  58  79
ENDBRANCH  32  33
ENDBRANCH  24  27
ENDBRANCH  22  23
ENDBRANCH   1  22
TORSDOF 18
ENDMDL
MODEL 2
REMARK VINA RESULT:      -9.1      5.154      7.272
REMARK SMILES CC[C@@](CC(F)(F)F)(C(=O)NCCCCNC(=O)c1ccc(-c2c3nc(c(-c4ccc(S(=O)(=O)[O-])cc4)c4ccc([nH]4)c(-c4ccc(S(=O)(=O)[O-])cc4)c4nc(c(-c5ccc(S(=O)(=O)[O-])cc5)c5ccc2[nH]5)C=C4)C=C3)cc1)c1ccccc1
REMARK SMILES IDX 14 1 13 2 12 3 11 4 9 5 10 6 3 8 2 9 1 10 4 11 5 12 6 13
REMARK SMILES IDX 7 14 8 15 79 16 80 17 84 18 81 19 83 20 82 21 15 22 16 23
REMARK SMILES IDX 17 24 18 26 19 27 20 28 78 29 21 30 77 31 22 32 23 33 24 34
REMARK SMILES IDX 71 35 25 36 76 37 70 38 72 39 26 40 75 41 69 42 68 43 27 45
REMARK SMILES IDX 57 46 38 47 56 48 39 49 42 50 55 51 73 52 40 53 41 54 54 56
REMARK SMILES IDX 74 57 43 58 28 59 29 60 37 61 30 62 36 63 31 64 32 65 33 66
REMARK SMILES IDX 34 67 35 68 58 69 59 70 67 71 60 72 66 73 61 74 62 75 63 76
REMARK SMILES IDX 64 77 65 78 44 79 45 80 53 81 46 82 52 83 47 84 48 85 49 86
REMARK SMILES IDX 50 87 51 88
REMARK H PARENT 11 7 16 25 72 44 42 55
REMARK Flexibility Score: inf
ROOT
ATOM      1  C   UNL A   1      32.562  28.422  26.036  1.00  0.00     0.023 C 
ENDROOT
BRANCH   1   2
ATOM      2  C   UNL A   1      33.186  27.744  24.817  1.00  0.00     0.023 C 
BRANCH   2   3
ATOM      3  C   UNL A   1      33.450  26.252  24.972  1.00  0.00     0.116 C 
BRANCH   3   4
ATOM      4  N   UNL A   1      32.771  25.428  23.985  1.00  0.00    -0.355 N 
ATOM      5  C   UNL A   1      32.361  24.126  23.989  1.00  0.00     0.230 C 
ATOM      6  O   UNL A   1      31.393  23.897  23.254  1.00  0.00    -0.274 OA
ATOM      7  H   UNL A   1      32.564  25.905  23.149  1.00  0.00     0.163 HD
BRANCH   5   8
ATOM      8  C   UNL A   1      32.990  22.990  24.878  1.00  0.00     0.082 C 
BRANCH   8   9
ATOM      9  C   UNL A   1      32.694  23.215  26.395  1.00  0.00     0.019 C 
ATOM     10  C   UNL A   1      31.236  23.145  26.837  1.00  0.00     0.005 C 
ENDBRANCH   8   9
BRANCH   8  11
ATOM     11  C   UNL A   1      32.554  21.631  24.245  1.00  0.00     0.137 C 
BRANCH  11  12
ATOM     12  C   UNL A   1      33.010  20.327  24.845  1.00  0.00     0.390 C 
ATOM     13  F   UNL A   1      34.197  19.913  24.375  1.00  0.00    -0.171 F 
ATOM     14  F   UNL A   1      33.150  20.474  26.185  1.00  0.00    -0.171 F 
ATOM     15  F   UNL A   1      32.099  19.350  24.659  1.00  0.00    -0.171 F 
ENDBRANCH  11  12
ENDBRANCH   8  11
BRANCH   8  16
ATOM     16  C   UNL A   1      34.578  23.026  24.813  1.00  0.00    -0.032 A 
ATOM     17  C   UNL A   1      35.362  23.259  25.966  1.00  0.00     0.005 A 
ATOM     18  C   UNL A   1      35.271  22.921  23.593  1.00  0.00     0.005 A 
ATOM     19  C   UNL A   1      36.756  23.344  25.910  1.00  0.00     0.000 A 
ATOM     20  C   UNL A   1      36.670  22.989  23.539  1.00  0.00     0.000 A 
ATOM     21  C   UNL A   1      37.411  23.200  24.697  1.00  0.00     0.000 A 
ENDBRANCH   8  16
ENDBRANCH   5   8
ENDBRANCH   3   4
ENDBRANCH   2   3
ENDBRANCH   1   2
BRANCH   1  22
ATOM     22  C   UNL A   1      33.498  28.669  27.218  1.00  0.00     0.116 C 
BRANCH  22  23
ATOM     23  N   UNL A   1      33.529  30.055  27.665  1.00  0.00    -0.352 N 
ATOM     24  C   UNL A   1      34.559  30.761  28.245  1.00  0.00     0.251 C 
ATOM     25  H   UNL A   1      32.693  30.559  27.534  1.00  0.00     0.163 HD
ATOM     26  O   UNL A   1      34.382  31.909  28.627  1.00  0.00    -0.269 OA
BRANCH  24  27
ATOM     27  C   UNL A   1      35.867  30.100  28.446  1.00  0.00     0.039 A 
ATOM     28  C   UNL A   1      36.790  30.114  27.400  1.00  0.00     0.014 A 
ATOM     29  C   UNL A   1      36.199  29.531  29.677  1.00  0.00     0.014 A 
ATOM     30  C   UNL A   1      38.088  29.647  27.621  1.00  0.00     0.010 A 
ATOM     31  C   UNL A   1      37.510  29.128  29.915  1.00  0.00     0.010 A 
ATOM     32  C   UNL A   1      38.472  29.201  28.896  1.00  0.00    -0.014 A 
BRANCH  32  33
ATOM     33  C   UNL A   1      39.888  28.864  29.196  1.00  0.00     0.031 A 
ATOM     34  C   UNL A   1      40.808  29.896  29.787  1.00  0.00     0.074 A 
ATOM     35  C   UNL A   1      40.364  27.648  28.858  1.00  0.00     0.049 A 
ATOM     36  N   UNL A   1      42.086  29.803  30.048  1.00  0.00    -0.248 NA
ATOM     37  C   UNL A   1      40.224  31.210  30.102  1.00  0.00     0.031 C 
ATOM     38  C   UNL A   1      39.585  26.576  28.228  1.00  0.00     0.029 A 
ATOM     39  N   UNL A   1      41.620  27.111  28.984  1.00  0.00    -0.354 N 
ATOM     40  C   UNL A   1      42.464  31.046  30.542  1.00  0.00     0.074 A 
ATOM     41  C   UNL A   1      41.288  31.889  30.506  1.00  0.00     0.031 C 
ATOM     42  C   UNL A   1      40.376  25.507  28.044  1.00  0.00     0.029 A 
ATOM     43  C   UNL A   1      41.723  25.825  28.504  1.00  0.00     0.049 A 
ATOM     44  H   UNL A   1      42.378  27.599  29.382  1.00  0.00     0.167 HD
ATOM     45  C   UNL A   1      43.675  31.444  30.998  1.00  0.00     0.031 A 
ATOM     46  C   UNL A   1      42.783  24.998  28.431  1.00  0.00     0.031 A 
ATOM     47  C   UNL A   1      44.838  30.599  31.050  1.00  0.00     0.049 A 
ATOM     48  C   UNL A   1      44.116  25.465  28.950  1.00  0.00     0.074 A 
ATOM     49  C   UNL A   1      46.090  30.893  31.561  1.00  0.00     0.029 A 
ATOM     50  N   UNL A   1      44.895  29.298  30.575  1.00  0.00    -0.354 N 
ATOM     51  N   UNL A   1      44.432  26.620  29.484  1.00  0.00    -0.248 NA
ATOM     52  C   UNL A   1      45.232  24.513  28.864  1.00  0.00     0.031 C 
ATOM     53  C   UNL A   1      46.918  29.785  31.354  1.00  0.00     0.029 A 
ATOM     54  C   UNL A   1      46.168  28.784  30.760  1.00  0.00     0.049 A 
ATOM     55  H   UNL A   1      44.142  28.812  30.168  1.00  0.00     0.167 HD
ATOM     56  C   UNL A   1      45.778  26.526  29.818  1.00  0.00     0.074 A 
ATOM     57  C   UNL A   1      46.212  25.195  29.443  1.00  0.00     0.031 C 
ATOM     58  C   UNL A   1      46.584  27.458  30.382  1.00  0.00     0.031 A 
BRANCH  45  59
ATOM     59  C   UNL A   1      43.808  32.863  31.484  1.00  0.00    -0.014 A 
ATOM     60  C   UNL A   1      44.382  33.854  30.668  1.00  0.00     0.010 A 
ATOM     61  C   UNL A   1      43.297  33.221  32.744  1.00  0.00     0.010 A 
ATOM     62  C   UNL A   1      44.464  35.176  31.116  1.00  0.00     0.020 A 
ATOM     63  C   UNL A   1      43.357  34.547  33.186  1.00  0.00     0.020 A 
ATOM     64  C   UNL A   1      43.952  35.513  32.372  1.00  0.00     0.054 A 
BRANCH  64  65
ATOM     65  S   UNL A   1      44.032  37.245  32.907  1.00  0.00     0.124 S 
ATOM     66  O   UNL A   1      43.808  37.958  31.651  1.00  0.00    -0.237 OA
ATOM     67  O   UNL A   1      42.945  37.331  33.880  1.00  0.00    -0.237 OA
ATOM     68  O   UNL A   1      45.376  37.374  33.466  1.00  0.00    -0.744 OA
ENDBRANCH  64  65
ENDBRANCH  45  59
BRANCH  46  69
ATOM     69  C   UNL A   1      42.633  23.637  27.847  1.00  0.00    -0.014 A 
ATOM     70  C   UNL A   1      42.916  23.408  26.488  1.00  0.00     0.010 A 
ATOM     71  C   UNL A   1      42.198  22.564  28.645  1.00  0.00     0.010 A 
ATOM     72  C   UNL A   1      42.739  22.138  25.932  1.00  0.00     0.020 A 
ATOM     73  C   UNL A   1      42.046  21.287  28.099  1.00  0.00     0.020 A 
ATOM     74  C   UNL A   1      42.302  21.085  26.742  1.00  0.00     0.054 A 
BRANCH  74  75
ATOM     75  S   UNL A   1      42.112  19.436  26.009  1.00  0.00     0.124 S 
ATOM     76  O   UNL A   1      42.955  19.533  24.822  1.00  0.00    -0.237 OA
ATOM     77  O   UNL A   1      42.605  18.558  27.067  1.00  0.00    -0.237 OA
ATOM     78  O   UNL A   1      40.675  19.343  25.753  1.00  0.00    -0.744 OA
ENDBRANCH  74  75
ENDBRANCH  46  69
BRANCH  58  79
ATOM     79  C   UNL A   1      48.010  27.064  30.656  1.00  0.00    -0.014 A 
ATOM     80  C   UNL A   1      49.029  27.343  29.729  1.00  0.00     0.010 A 
ATOM     81  C   UNL A   1      48.339  26.453  31.878  1.00  0.00     0.010 A 
ATOM     82  C   UNL A   1      50.351  26.988  30.008  1.00  0.00     0.020 A 
ATOM     83  C   UNL A   1      49.664  26.120  32.172  1.00  0.00     0.020 A 
ATOM     84  C   UNL A   1      50.661  26.377  31.227  1.00  0.00     0.054 A 
BRANCH  84  85
ATOM     85  S   UNL A   1      52.389  25.964  31.586  1.00  0.00     0.124 S 
ATOM     86  O   UNL A   1      52.276  24.605  32.107  1.00  0.00    -0.237 OA
ATOM     87  O   UNL A   1      53.028  26.085  30.276  1.00  0.00    -0.237 OA
ATOM     88  O   UNL A   1      52.792  26.974  32.562  1.00  0.00    -0.744 OA
ENDBRANCH  84  85
ENDBRANCH  58  79
ENDBRANCH  32  33
ENDBRANCH  24  27
ENDBRANCH  22  23
ENDBRANCH   1  22
TORSDOF 18
ENDMDL
MODEL 3
REMARK VINA RESULT:      -8.9      5.260     10.725
REMARK SMILES CC[C@@](CC(F)(F)F)(C(=O)NCCCCNC(=O)c1ccc(-c2c3nc(c(-c4ccc(S(=O)(=O)[O-])cc4)c4ccc([nH]4)c(-c4ccc(S(=O)(=O)[O-])cc4)c4nc(c(-c5ccc(S(=O)(=O)[O-])cc5)c5ccc2[nH]5)C=C4)C=C3)cc1)c1ccccc1
REMARK SMILES IDX 14 1 13 2 12 3 11 4 9 5 10 6 3 8 2 9 1 10 4 11 5 12 6 13
REMARK SMILES IDX 7 14 8 15 79 16 80 17 84 18 81 19 83 20 82 21 15 22 16 23
REMARK SMILES IDX 17 24 18 26 19 27 20 28 78 29 21 30 77 31 22 32 23 33 24 34
REMARK SMILES IDX 71 35 25 36 76 37 70 38 72 39 26 40 75 41 69 42 68 43 27 45
REMARK SMILES IDX 57 46 38 47 56 48 39 49 42 50 55 51 73 52 40 53 41 54 54 56
REMARK SMILES IDX 74 57 43 58 28 59 29 60 37 61 30 62 36 63 31 64 32 65 33 66
REMARK SMILES IDX 34 67 35 68 58 69 59 70 67 71 60 72 66 73 61 74 62 75 63 76
REMARK SMILES IDX 64 77 65 78 44 79 45 80 53 81 46 82 52 83 47 84 48 85 49 86
REMARK SMILES IDX 50 87 51 88
REMARK H PARENT 11 7 16 25 72 44 42 55
REMARK Flexibility Score: inf
ROOT
ATOM      1  C   UNL A   1      32.833  28.355  25.891  1.00  0.00     0.023 C 
ENDROOT
BRANCH   1   2
ATOM      2  C   UNL A   1      33.673  27.697  24.798  1.00  0.00     0.023 C 
BRANCH   2   3
ATOM      3  C   UNL A   1      33.677  26.174  24.815  1.00  0.00     0.116 C 
BRANCH   3   4
ATOM      4  N   UNL A   1      32.935  25.571  23.719  1.00  0.00    -0.355 N 
ATOM      5  C   UNL A   1      32.373  24.339  23.549  1.00  0.00     0.230 C 
ATOM      6  O   UNL A   1      31.407  24.325  22.775  1.00  0.00    -0.274 OA
ATOM      7  H   UNL A   1      32.814  26.171  22.948  1.00  0.00     0.163 HD
BRANCH   5   8
ATOM      8  C   UNL A   1      32.832  23.031  24.294  1.00  0.00     0.082 C 
BRANCH   8   9
ATOM      9  C   UNL A   1      32.378  23.031  25.789  1.00  0.00     0.019 C 
ATOM     10  C   UNL A   1      30.878  23.046  26.061  1.00  0.00     0.005 C 
ENDBRANCH   8   9
BRANCH   8  11
ATOM     11  C   UNL A   1      32.395  21.828  23.400  1.00  0.00     0.137 C 
BRANCH  11  12
ATOM     12  C   UNL A   1      32.558  20.413  23.890  1.00  0.00     0.390 C 
ATOM     13  F   UNL A   1      32.286  19.492  22.953  1.00  0.00    -0.171 F 
ATOM     14  F   UNL A   1      33.844  20.216  24.272  1.00  0.00    -0.171 F 
ATOM     15  F   UNL A   1      31.795  20.174  24.976  1.00  0.00    -0.171 F 
ENDBRANCH  11  12
ENDBRANCH   8  11
BRANCH   8  16
ATOM     16  C   UNL A   1      34.417  22.961  24.399  1.00  0.00    -0.032 A 
ATOM     17  C   UNL A   1      35.077  22.964  25.650  1.00  0.00     0.005 A 
ATOM     18  C   UNL A   1      35.236  22.984  23.256  1.00  0.00     0.005 A 
ATOM     19  C   UNL A   1      36.471  22.954  25.751  1.00  0.00     0.000 A 
ATOM     20  C   UNL A   1      36.634  22.957  23.357  1.00  0.00     0.000 A 
ATOM     21  C   UNL A   1      37.250  22.942  24.604  1.00  0.00     0.000 A 
ENDBRANCH   8  16
ENDBRANCH   5   8
ENDBRANCH   3   4
ENDBRANCH   2   3
ENDBRANCH   1   2
BRANCH   1  22
ATOM     22  C   UNL A   1      33.526  28.559  27.237  1.00  0.00     0.116 C 
BRANCH  22  23
ATOM     23  N   UNL A   1      33.497  29.936  27.712  1.00  0.00    -0.352 N 
ATOM     24  C   UNL A   1      34.503  30.682  28.283  1.00  0.00     0.251 C 
ATOM     25  H   UNL A   1      32.634  30.399  27.609  1.00  0.00     0.163 HD
ATOM     26  O   UNL A   1      34.277  31.812  28.693  1.00  0.00    -0.269 OA
BRANCH  24  27
ATOM     27  C   UNL A   1      35.847  30.085  28.442  1.00  0.00     0.039 A 
ATOM     28  C   UNL A   1      36.723  30.113  27.356  1.00  0.00     0.014 A 
ATOM     29  C   UNL A   1      36.257  29.564  29.671  1.00  0.00     0.014 A 
ATOM     30  C   UNL A   1      38.049  29.709  27.530  1.00  0.00     0.010 A 
ATOM     31  C   UNL A   1      37.595  29.225  29.860  1.00  0.00     0.010 A 
ATOM     32  C   UNL A   1      38.508  29.314  28.798  1.00  0.00    -0.014 A 
BRANCH  32  33
ATOM     33  C   UNL A   1      39.949  29.048  29.043  1.00  0.00     0.031 A 
ATOM     34  C   UNL A   1      40.549  27.717  28.685  1.00  0.00     0.074 A 
ATOM     35  C   UNL A   1      40.697  29.982  29.665  1.00  0.00     0.049 A 
ATOM     36  N   UNL A   1      41.766  27.283  28.891  1.00  0.00    -0.248 NA
ATOM     37  C   UNL A   1      39.664  26.737  28.036  1.00  0.00     0.031 C 
ATOM     38  C   UNL A   1      40.217  31.294  30.113  1.00  0.00     0.029 A 
ATOM     39  N   UNL A   1      42.016  29.969  30.042  1.00  0.00    -0.354 N 
ATOM     40  C   UNL A   1      41.790  25.979  28.413  1.00  0.00     0.074 A 
ATOM     41  C   UNL A   1      40.454  25.677  27.944  1.00  0.00     0.031 C 
ATOM     42  C   UNL A   1      41.232  31.964  30.681  1.00  0.00     0.029 A 
ATOM     43  C   UNL A   1      42.423  31.120  30.676  1.00  0.00     0.049 A 
ATOM     44  H   UNL A   1      42.617  29.207  29.873  1.00  0.00     0.167 HD
ATOM     45  C   UNL A   1      42.832  25.116  28.356  1.00  0.00     0.031 A 
ATOM     46  C   UNL A   1      43.614  31.457  31.205  1.00  0.00     0.031 A 
ATOM     47  C   UNL A   1      44.163  25.424  28.806  1.00  0.00     0.049 A 
ATOM     48  C   UNL A   1      44.756  30.481  31.123  1.00  0.00     0.074 A 
ATOM     49  C   UNL A   1      45.300  24.639  28.724  1.00  0.00     0.029 A 
ATOM     50  N   UNL A   1      44.538  26.607  29.422  1.00  0.00    -0.354 N 
ATOM     51  N   UNL A   1      44.775  29.280  30.597  1.00  0.00    -0.248 NA
ATOM     52  C   UNL A   1      46.039  30.910  31.698  1.00  0.00     0.031 C 
ATOM     53  C   UNL A   1      46.354  25.329  29.332  1.00  0.00     0.029 A 
ATOM     54  C   UNL A   1      45.884  26.565  29.747  1.00  0.00     0.049 A 
ATOM     55  H   UNL A   1      43.937  27.366  29.601  1.00  0.00     0.167 HD
ATOM     56  C   UNL A   1      46.076  28.818  30.759  1.00  0.00     0.074 A 
ATOM     57  C   UNL A   1      46.820  29.876  31.413  1.00  0.00     0.031 C 
ATOM     58  C   UNL A   1      46.609  27.625  30.398  1.00  0.00     0.031 A 
BRANCH  45  59
ATOM     59  C   UNL A   1      42.578  23.748  27.781  1.00  0.00    -0.014 A 
ATOM     60  C   UNL A   1      42.841  23.474  26.427  1.00  0.00     0.010 A 
ATOM     61  C   UNL A   1      42.133  22.709  28.617  1.00  0.00     0.010 A 
ATOM     62  C   UNL A   1      42.640  22.190  25.914  1.00  0.00     0.020 A 
ATOM     63  C   UNL A   1      41.952  21.417  28.113  1.00  0.00     0.020 A 
ATOM     64  C   UNL A   1      42.195  21.170  26.760  1.00  0.00     0.054 A 
BRANCH  64  65
ATOM     65  S   UNL A   1      41.986  19.503  26.077  1.00  0.00     0.124 S 
ATOM     66  O   UNL A   1      42.494  18.667  27.162  1.00  0.00    -0.237 OA
ATOM     67  O   UNL A   1      40.544  19.428  25.849  1.00  0.00    -0.237 OA
ATOM     68  O   UNL A   1      42.804  19.518  24.866  1.00  0.00    -0.744 OA
ENDBRANCH  64  65
ENDBRANCH  45  59
BRANCH  46  69
ATOM     69  C   UNL A   1      43.796  32.782  31.860  1.00  0.00    -0.014 A 
ATOM     70  C   UNL A   1      44.208  33.898  31.109  1.00  0.00     0.010 A 
ATOM     71  C   UNL A   1      43.567  32.931  33.239  1.00  0.00     0.010 A 
ATOM     72  C   UNL A   1      44.414  35.132  31.731  1.00  0.00     0.020 A 
ATOM     73  C   UNL A   1      43.746  34.171  33.859  1.00  0.00     0.020 A 
ATOM     74  C   UNL A   1      44.183  35.260  33.105  1.00  0.00     0.054 A 
BRANCH  74  75
ATOM     75  S   UNL A   1      44.423  36.879  33.888  1.00  0.00     0.124 S 
ATOM     76  O   UNL A   1      43.206  37.585  33.504  1.00  0.00    -0.237 OA
ATOM     77  O   UNL A   1      44.537  36.535  35.303  1.00  0.00    -0.237 OA
ATOM     78  O   UNL A   1      45.655  37.373  33.275  1.00  0.00    -0.744 OA
ENDBRANCH  74  75
ENDBRANCH  46  69
BRANCH  58  79
ATOM     79  C   UNL A   1      48.071  27.408  30.678  1.00  0.00    -0.014 A 
ATOM     80  C   UNL A   1      49.055  27.841  29.772  1.00  0.00     0.010 A 
ATOM     81  C   UNL A   1      48.465  26.807  31.887  1.00  0.00     0.010 A 
ATOM     82  C   UNL A   1      50.409  27.648  30.057  1.00  0.00     0.020 A 
ATOM     83  C   UNL A   1      49.818  26.635  32.187  1.00  0.00     0.020 A 
ATOM     84  C   UNL A   1      50.782  27.045  31.263  1.00  0.00     0.054 A 
BRANCH  84  85
ATOM     85  S   UNL A   1      52.546  26.844  31.631  1.00  0.00     0.124 S 
ATOM     86  O   UNL A   1      53.027  28.221  31.577  1.00  0.00    -0.237 OA
ATOM     87  O   UNL A   1      52.532  26.234  32.959  1.00  0.00    -0.237 OA
ATOM     88  O   UNL A   1      53.027  25.974  30.559  1.00  0.00    -0.744 OA
ENDBRANCH  84  85
ENDBRANCH  58  79
ENDBRANCH  32  33
ENDBRANCH  24  27
ENDBRANCH  22  23
ENDBRANCH   1  22
TORSDOF 18
ENDMDL
