MODEL 1
REMARK VINA RESULT:     -11.8      0.000      0.000
REMARK SMILES C[C@@H]1CCCN(C(=O)N[C@]2(C(=O)NCCCCNC(=O)c3ccc(-c4c5nc(c(-c6ccc(S(=O)(=O)[O-])cc6)c6ccc([nH]6)c(-c6ccc(S(=O)(=O)[O-])cc6)c6nc(c(-c7ccc(S(=O)(=O)[O-])cc7)c7ccc4[nH]7)C=C6)C=C5)cc3)CCCC[C@@H]2C)C1
REMARK SMILES IDX 16 1 15 2 14 3 13 4 11 5 12 6 10 8 81 9 85 10 82 11 84 12
REMARK SMILES IDX 86 13 83 14 9 15 7 16 8 17 6 19 1 20 2 21 3 22 87 23 4 24
REMARK SMILES IDX 5 25 17 26 18 27 19 28 20 30 21 31 22 32 80 33 23 34 79 35
REMARK SMILES IDX 24 36 25 37 26 38 73 39 27 40 78 41 72 42 74 43 28 44 77 45
REMARK SMILES IDX 71 46 70 47 29 49 59 50 40 51 58 52 41 53 44 54 57 55 75 56
REMARK SMILES IDX 42 57 43 58 56 60 76 61 45 62 30 63 31 64 39 65 32 66 38 67
REMARK SMILES IDX 33 68 34 69 35 70 36 71 37 72 60 73 61 74 69 75 62 76 68 77
REMARK SMILES IDX 63 78 64 79 65 80 66 81 67 82 46 83 47 84 55 85 48 86 54 87
REMARK SMILES IDX 49 88 50 89 51 90 52 91 53 92
REMARK H PARENT 13 7 9 18 18 29 74 48 44 59
REMARK Flexibility Score: inf
ROOT
ATOM      1  C   UNL A   1      32.074  27.923  27.606  1.00  0.00     0.023 C 
ENDROOT
BRANCH   1   2
ATOM      2  C   UNL A   1      31.200  27.263  26.528  1.00  0.00     0.023 C 
BRANCH   2   3
ATOM      3  C   UNL A   1      31.475  25.797  26.173  1.00  0.00     0.116 C 
BRANCH   3   4
ATOM      4  N   UNL A   1      30.713  25.182  25.072  1.00  0.00    -0.354 N 
ATOM      5  C   UNL A   1      31.154  24.314  24.055  1.00  0.00     0.246 C 
ATOM      6  O   UNL A   1      30.306  23.914  23.250  1.00  0.00    -0.272 OA
ATOM      7  H   UNL A   1      29.757  25.412  25.044  1.00  0.00     0.163 HD
BRANCH   5   8
ATOM      8  C   UNL A   1      32.719  24.091  23.778  1.00  0.00     0.123 C 
ATOM      9  C   UNL A   1      33.941  24.948  24.237  1.00  0.00     0.039 C 
ATOM     10  C   UNL A   1      32.906  22.679  24.483  1.00  0.00     0.021 C 
ATOM     11  C   UNL A   1      34.161  25.129  25.717  1.00  0.00     0.003 C 
ATOM     12  C   UNL A   1      33.160  22.865  26.022  1.00  0.00     0.006 C 
ATOM     13  C   UNL A   1      33.962  21.756  23.883  1.00  0.00     0.011 C 
ATOM     14  C   UNL A   1      34.339  23.772  26.363  1.00  0.00     0.000 C 
BRANCH   8  15
ATOM     15  N   UNL A   1      32.826  24.231  22.326  1.00  0.00    -0.323 N 
ATOM     16  C   UNL A   1      32.917  25.383  21.580  1.00  0.00     0.318 C 
ATOM     17  O   UNL A   1      33.095  25.218  20.370  1.00  0.00    -0.249 OA
ATOM     18  H   UNL A   1      32.835  23.390  21.816  1.00  0.00     0.166 HD
BRANCH  16  19
ATOM     19  N   UNL A   1      32.587  26.626  22.120  1.00  0.00    -0.325 N 
ATOM     20  C   UNL A   1      29.254  28.309  23.007  1.00  0.00     0.009 C 
ATOM     21  C   UNL A   1      30.711  27.895  23.132  1.00  0.00     0.005 C 
ATOM     22  C   UNL A   1      31.581  29.140  23.288  1.00  0.00     0.007 C 
ATOM     23  C   UNL A   1      31.198  27.062  21.931  1.00  0.00     0.124 C 
ATOM     24  C   UNL A   1      33.015  28.714  23.496  1.00  0.00     0.022 C 
ATOM     25  C   UNL A   1      33.496  27.750  22.413  1.00  0.00     0.121 C 
ENDBRANCH  16  19
ENDBRANCH   8  15
ENDBRANCH   5   8
ENDBRANCH   3   4
ENDBRANCH   2   3
ENDBRANCH   1   2
BRANCH   1  26
ATOM     26  C   UNL A   1      33.298  28.745  27.179  1.00  0.00     0.116 C 
BRANCH  26  27
ATOM     27  N   UNL A   1      33.367  30.111  27.677  1.00  0.00    -0.352 N 
ATOM     28  C   UNL A   1      34.447  30.805  28.204  1.00  0.00     0.251 C 
ATOM     29  H   UNL A   1      32.524  30.618  27.634  1.00  0.00     0.163 HD
ATOM     30  O   UNL A   1      34.323  31.963  28.559  1.00  0.00    -0.269 OA
BRANCH  28  31
ATOM     31  C   UNL A   1      35.754  30.119  28.383  1.00  0.00     0.039 A 
ATOM     32  C   UNL A   1      36.658  30.082  27.320  1.00  0.00     0.014 A 
ATOM     33  C   UNL A   1      36.100  29.539  29.602  1.00  0.00     0.014 A 
ATOM     34  C   UNL A   1      37.953  29.589  27.524  1.00  0.00     0.010 A 
ATOM     35  C   UNL A   1      37.413  29.119  29.831  1.00  0.00     0.010 A 
ATOM     36  C   UNL A   1      38.365  29.167  28.801  1.00  0.00    -0.014 A 
BRANCH  36  37
ATOM     37  C   UNL A   1      39.793  28.837  29.080  1.00  0.00     0.031 A 
ATOM     38  C   UNL A   1      40.725  29.857  29.678  1.00  0.00     0.074 A 
ATOM     39  C   UNL A   1      40.277  27.629  28.722  1.00  0.00     0.049 A 
ATOM     40  N   UNL A   1      42.002  29.749  29.949  1.00  0.00    -0.248 NA
ATOM     41  C   UNL A   1      40.155  31.177  29.990  1.00  0.00     0.031 C 
ATOM     42  C   UNL A   1      39.504  26.563  28.080  1.00  0.00     0.029 A 
ATOM     43  N   UNL A   1      41.538  27.094  28.840  1.00  0.00    -0.354 N 
ATOM     44  C   UNL A   1      42.392  30.986  30.447  1.00  0.00     0.074 A 
ATOM     45  C   UNL A   1      41.225  31.844  30.397  1.00  0.00     0.031 C 
ATOM     46  C   UNL A   1      40.296  25.495  27.890  1.00  0.00     0.029 A 
ATOM     47  C   UNL A   1      41.642  25.808  28.360  1.00  0.00     0.049 A 
ATOM     48  H   UNL A   1      42.296  27.584  29.233  1.00  0.00     0.167 HD
ATOM     49  C   UNL A   1      43.602  31.374  30.921  1.00  0.00     0.031 A 
ATOM     50  C   UNL A   1      42.696  24.969  28.301  1.00  0.00     0.031 A 
ATOM     51  C   UNL A   1      44.763  30.523  30.980  1.00  0.00     0.049 A 
ATOM     52  C   UNL A   1      44.026  25.414  28.842  1.00  0.00     0.074 A 
ATOM     53  C   UNL A   1      46.015  30.810  31.496  1.00  0.00     0.029 A 
ATOM     54  N   UNL A   1      44.817  29.222  30.504  1.00  0.00    -0.354 N 
ATOM     55  N   UNL A   1      44.353  26.566  29.376  1.00  0.00    -0.248 NA
ATOM     56  C   UNL A   1      45.126  24.441  28.784  1.00  0.00     0.031 C 
ATOM     57  C   UNL A   1      46.838  29.698  31.293  1.00  0.00     0.029 A 
ATOM     58  C   UNL A   1      46.085  28.699  30.697  1.00  0.00     0.049 A 
ATOM     59  H   UNL A   1      44.065  28.741  30.088  1.00  0.00     0.167 HD
ATOM     60  C   UNL A   1      45.689  26.448  29.742  1.00  0.00     0.074 A 
ATOM     61  C   UNL A   1      46.107  25.109  29.377  1.00  0.00     0.031 C 
ATOM     62  C   UNL A   1      46.495  27.367  30.330  1.00  0.00     0.031 A 
BRANCH  49  63
ATOM     63  C   UNL A   1      43.729  32.794  31.408  1.00  0.00    -0.014 A 
ATOM     64  C   UNL A   1      44.304  33.789  30.597  1.00  0.00     0.010 A 
ATOM     65  C   UNL A   1      43.258  33.143  32.686  1.00  0.00     0.010 A 
ATOM     66  C   UNL A   1      44.461  35.092  31.077  1.00  0.00     0.020 A 
ATOM     67  C   UNL A   1      43.387  34.452  33.160  1.00  0.00     0.020 A 
ATOM     68  C   UNL A   1      44.010  35.412  32.361  1.00  0.00     0.054 A 
BRANCH  68  69
ATOM     69  S   UNL A   1      44.237  37.107  32.966  1.00  0.00     0.124 S 
ATOM     70  O   UNL A   1      45.675  37.144  33.220  1.00  0.00    -0.237 OA
ATOM     71  O   UNL A   1      43.778  37.916  31.840  1.00  0.00    -0.237 OA
ATOM     72  O   UNL A   1      43.393  37.165  34.158  1.00  0.00    -0.744 OA
ENDBRANCH  68  69
ENDBRANCH  49  63
BRANCH  50  73
ATOM     73  C   UNL A   1      42.523  23.606  27.729  1.00  0.00    -0.014 A 
ATOM     74  C   UNL A   1      42.874  23.345  26.393  1.00  0.00     0.010 A 
ATOM     75  C   UNL A   1      42.036  22.553  28.526  1.00  0.00     0.010 A 
ATOM     76  C   UNL A   1      42.735  22.059  25.861  1.00  0.00     0.020 A 
ATOM     77  C   UNL A   1      41.919  21.261  28.005  1.00  0.00     0.020 A 
ATOM     78  C   UNL A   1      42.262  21.024  26.672  1.00  0.00     0.054 A 
BRANCH  78  79
ATOM     79  S   UNL A   1      42.160  19.347  25.984  1.00  0.00     0.124 S 
ATOM     80  O   UNL A   1      42.660  18.535  27.088  1.00  0.00    -0.237 OA
ATOM     81  O   UNL A   1      40.735  19.212  25.692  1.00  0.00    -0.237 OA
ATOM     82  O   UNL A   1      43.025  19.409  24.808  1.00  0.00    -0.744 OA
ENDBRANCH  78  79
ENDBRANCH  50  73
BRANCH  62  83
ATOM     83  C   UNL A   1      47.906  26.953  30.648  1.00  0.00    -0.014 A 
ATOM     84  C   UNL A   1      48.952  27.164  29.733  1.00  0.00     0.010 A 
ATOM     85  C   UNL A   1      48.199  26.399  31.908  1.00  0.00     0.010 A 
ATOM     86  C   UNL A   1      50.264  26.808  30.064  1.00  0.00     0.020 A 
ATOM     87  C   UNL A   1      49.511  26.063  32.251  1.00  0.00     0.020 A 
ATOM     88  C   UNL A   1      50.534  26.260  31.321  1.00  0.00     0.054 A 
BRANCH  88  89
ATOM     89  S   UNL A   1      52.251  25.854  31.748  1.00  0.00     0.124 S 
ATOM     90  O   UNL A   1      52.134  24.467  32.190  1.00  0.00    -0.237 OA
ATOM     91  O   UNL A   1      52.952  26.053  30.483  1.00  0.00    -0.237 OA
ATOM     92  O   UNL A   1      52.584  26.816  32.796  1.00  0.00    -0.744 OA
ENDBRANCH  88  89
ENDBRANCH  62  83
ENDBRANCH  36  37
ENDBRANCH  28  31
ENDBRANCH  26  27
ENDBRANCH   1  26
TORSDOF 16
ENDMDL
MODEL 2
REMARK VINA RESULT:     -11.5      2.636      9.231
REMARK SMILES C[C@@H]1CCCN(C(=O)N[C@]2(C(=O)NCCCCNC(=O)c3ccc(-c4c5nc(c(-c6ccc(S(=O)(=O)[O-])cc6)c6ccc([nH]6)c(-c6ccc(S(=O)(=O)[O-])cc6)c6nc(c(-c7ccc(S(=O)(=O)[O-])cc7)c7ccc4[nH]7)C=C6)C=C5)cc3)CCCC[C@@H]2C)C1
REMARK SMILES IDX 16 1 15 2 14 3 13 4 11 5 12 6 10 8 81 9 85 10 82 11 84 12
REMARK SMILES IDX 86 13 83 14 9 15 7 16 8 17 6 19 1 20 2 21 3 22 87 23 4 24
REMARK SMILES IDX 5 25 17 26 18 27 19 28 20 30 21 31 22 32 80 33 23 34 79 35
REMARK SMILES IDX 24 36 25 37 26 38 73 39 27 40 78 41 72 42 74 43 28 44 77 45
REMARK SMILES IDX 71 46 70 47 29 49 59 50 40 51 58 52 41 53 44 54 57 55 75 56
REMARK SMILES IDX 42 57 43 58 56 60 76 61 45 62 30 63 31 64 39 65 32 66 38 67
REMARK SMILES IDX 33 68 34 69 35 70 36 71 37 72 60 73 61 74 69 75 62 76 68 77
REMARK SMILES IDX 63 78 64 79 65 80 66 81 67 82 46 83 47 84 55 85 48 86 54 87
REMARK SMILES IDX 49 88 50 89 51 90 52 91 53 92
REMARK H PARENT 13 7 9 18 18 29 74 48 44 59
REMARK Flexibility Score: inf
ROOT
ATOM      1  C   UNL A   1      36.601  23.283  23.531  1.00  0.00     0.023 C 
ENDROOT
BRANCH   1   2
ATOM      2  C   UNL A   1      35.144  22.904  23.224  1.00  0.00     0.023 C 
BRANCH   2   3
ATOM      3  C   UNL A   1      34.090  24.018  23.233  1.00  0.00     0.116 C 
BRANCH   3   4
ATOM      4  N   UNL A   1      32.683  23.662  22.981  1.00  0.00    -0.354 N 
ATOM      5  C   UNL A   1      31.509  24.229  23.511  1.00  0.00     0.246 C 
ATOM      6  O   UNL A   1      30.432  23.759  23.122  1.00  0.00    -0.272 OA
ATOM      7  H   UNL A   1      32.545  22.919  22.350  1.00  0.00     0.163 HD
BRANCH   5   8
ATOM      8  C   UNL A   1      31.564  25.224  24.768  1.00  0.00     0.123 C 
ATOM      9  C   UNL A   1      32.733  25.499  25.766  1.00  0.00     0.039 C 
ATOM     10  C   UNL A   1      31.318  26.602  24.016  1.00  0.00     0.021 C 
ATOM     11  C   UNL A   1      34.030  26.027  25.207  1.00  0.00     0.003 C 
ATOM     12  C   UNL A   1      32.671  27.167  23.453  1.00  0.00     0.006 C 
ATOM     13  C   UNL A   1      30.583  27.682  24.802  1.00  0.00     0.011 C 
ATOM     14  C   UNL A   1      33.769  27.339  24.500  1.00  0.00     0.000 C 
BRANCH   8  15
ATOM     15  N   UNL A   1      30.562  24.671  25.678  1.00  0.00    -0.323 N 
ATOM     16  C   UNL A   1      30.692  23.629  26.567  1.00  0.00     0.318 C 
ATOM     17  O   UNL A   1      29.713  23.424  27.290  1.00  0.00    -0.249 OA
ATOM     18  H   UNL A   1      29.677  25.102  25.652  1.00  0.00     0.166 HD
BRANCH  16  19
ATOM     19  N   UNL A   1      31.752  22.727  26.478  1.00  0.00    -0.325 N 
ATOM     20  C   UNL A   1      32.538  19.810  24.112  1.00  0.00     0.009 C 
ATOM     21  C   UNL A   1      32.774  21.034  24.981  1.00  0.00     0.005 C 
ATOM     22  C   UNL A   1      33.866  20.725  26.004  1.00  0.00     0.007 C 
ATOM     23  C   UNL A   1      31.498  21.508  25.703  1.00  0.00     0.124 C 
ATOM     24  C   UNL A   1      34.152  21.973  26.808  1.00  0.00     0.022 C 
ATOM     25  C   UNL A   1      32.886  22.577  27.410  1.00  0.00     0.121 C 
ENDBRANCH  16  19
ENDBRANCH   8  15
ENDBRANCH   5   8
ENDBRANCH   3   4
ENDBRANCH   2   3
ENDBRANCH   1   2
BRANCH   1  26
ATOM     26  C   UNL A   1      37.070  23.335  24.991  1.00  0.00     0.116 C 
BRANCH  26  27
ATOM     27  N   UNL A   1      38.220  22.511  25.333  1.00  0.00    -0.352 N 
ATOM     28  C   UNL A   1      39.306  22.803  26.147  1.00  0.00     0.251 C 
ATOM     29  H   UNL A   1      38.230  21.614  24.927  1.00  0.00     0.163 HD
ATOM     30  O   UNL A   1      40.178  21.974  26.334  1.00  0.00    -0.269 OA
BRANCH  28  31
ATOM     31  C   UNL A   1      39.433  24.153  26.757  1.00  0.00     0.039 A 
ATOM     32  C   UNL A   1      38.895  24.383  28.024  1.00  0.00     0.014 A 
ATOM     33  C   UNL A   1      40.105  25.179  26.097  1.00  0.00     0.014 A 
ATOM     34  C   UNL A   1      39.151  25.594  28.680  1.00  0.00     0.010 A 
ATOM     35  C   UNL A   1      40.429  26.356  26.777  1.00  0.00     0.010 A 
ATOM     36  C   UNL A   1      39.980  26.566  28.090  1.00  0.00    -0.014 A 
BRANCH  36  37
ATOM     37  C   UNL A   1      40.430  27.763  28.857  1.00  0.00     0.031 A 
ATOM     38  C   UNL A   1      41.771  27.792  29.540  1.00  0.00     0.074 A 
ATOM     39  C   UNL A   1      39.591  28.810  29.005  1.00  0.00     0.049 A 
ATOM     40  N   UNL A   1      42.301  28.735  30.278  1.00  0.00    -0.248 NA
ATOM     41  C   UNL A   1      42.617  26.597  29.395  1.00  0.00     0.031 C 
ATOM     42  C   UNL A   1      38.238  28.897  28.448  1.00  0.00     0.029 A 
ATOM     43  N   UNL A   1      39.747  30.001  29.673  1.00  0.00    -0.354 N 
ATOM     44  C   UNL A   1      43.532  28.244  30.699  1.00  0.00     0.074 A 
ATOM     45  C   UNL A   1      43.648  26.900  30.170  1.00  0.00     0.031 C 
ATOM     46  C   UNL A   1      37.702  30.085  28.771  1.00  0.00     0.029 A 
ATOM     47  C   UNL A   1      38.654  30.833  29.587  1.00  0.00     0.049 A 
ATOM     48  H   UNL A   1      40.565  30.238  30.167  1.00  0.00     0.167 HD
ATOM     49  C   UNL A   1      44.489  28.857  31.439  1.00  0.00     0.031 A 
ATOM     50  C   UNL A   1      38.433  32.059  30.104  1.00  0.00     0.031 A 
ATOM     51  C   UNL A   1      44.380  30.195  31.960  1.00  0.00     0.049 A 
ATOM     52  C   UNL A   1      39.510  32.725  30.914  1.00  0.00     0.074 A 
ATOM     53  C   UNL A   1      45.321  30.920  32.673  1.00  0.00     0.029 A 
ATOM     54  N   UNL A   1      43.265  31.009  31.831  1.00  0.00    -0.354 N 
ATOM     55  N   UNL A   1      40.697  32.270  31.236  1.00  0.00    -0.248 NA
ATOM     56  C   UNL A   1      39.225  34.076  31.417  1.00  0.00     0.031 C 
ATOM     57  C   UNL A   1      44.759  32.155  33.010  1.00  0.00     0.029 A 
ATOM     58  C   UNL A   1      43.487  32.221  32.465  1.00  0.00     0.049 A 
ATOM     59  H   UNL A   1      42.438  30.762  31.358  1.00  0.00     0.167 HD
ATOM     60  C   UNL A   1      41.309  33.288  31.959  1.00  0.00     0.074 A 
ATOM     61  C   UNL A   1      40.366  34.387  32.017  1.00  0.00     0.031 C 
ATOM     62  C   UNL A   1      42.544  33.309  32.520  1.00  0.00     0.031 A 
BRANCH  49  63
ATOM     63  C   UNL A   1      45.739  28.071  31.736  1.00  0.00    -0.014 A 
ATOM     64  C   UNL A   1      46.822  28.065  30.837  1.00  0.00     0.010 A 
ATOM     65  C   UNL A   1      45.841  27.338  32.932  1.00  0.00     0.010 A 
ATOM     66  C   UNL A   1      47.957  27.294  31.100  1.00  0.00     0.020 A 
ATOM     67  C   UNL A   1      46.987  26.587  33.213  1.00  0.00     0.020 A 
ATOM     68  C   UNL A   1      48.027  26.551  32.282  1.00  0.00     0.054 A 
BRANCH  68  69
ATOM     69  S   UNL A   1      49.505  25.547  32.593  1.00  0.00     0.124 S 
ATOM     70  O   UNL A   1      48.963  24.457  33.401  1.00  0.00    -0.237 OA
ATOM     71  O   UNL A   1      49.933  25.177  31.247  1.00  0.00    -0.237 OA
ATOM     72  O   UNL A   1      50.401  26.460  33.301  1.00  0.00    -0.744 OA
ENDBRANCH  68  69
ENDBRANCH  49  63
BRANCH  50  73
ATOM     73  C   UNL A   1      37.140  32.748  29.842  1.00  0.00    -0.014 A 
ATOM     74  C   UNL A   1      36.109  32.712  30.798  1.00  0.00     0.010 A 
ATOM     75  C   UNL A   1      36.943  33.471  28.652  1.00  0.00     0.010 A 
ATOM     76  C   UNL A   1      34.902  33.379  30.564  1.00  0.00     0.020 A 
ATOM     77  C   UNL A   1      35.747  34.159  28.425  1.00  0.00     0.020 A 
ATOM     78  C   UNL A   1      34.731  34.102  29.381  1.00  0.00     0.054 A 
BRANCH  78  79
ATOM     79  S   UNL A   1      33.185  35.022  29.131  1.00  0.00     0.124 S 
ATOM     80  O   UNL A   1      32.528  34.234  28.093  1.00  0.00    -0.237 OA
ATOM     81  O   UNL A   1      32.568  34.966  30.454  1.00  0.00    -0.237 OA
ATOM     82  O   UNL A   1      33.641  36.348  28.720  1.00  0.00    -0.744 OA
ENDBRANCH  78  79
ENDBRANCH  50  73
BRANCH  62  83
ATOM     83  C   UNL A   1      42.966  34.570  33.223  1.00  0.00    -0.014 A 
ATOM     84  C   UNL A   1      42.994  34.650  34.627  1.00  0.00     0.010 A 
ATOM     85  C   UNL A   1      43.401  35.674  32.466  1.00  0.00     0.010 A 
ATOM     86  C   UNL A   1      43.428  35.819  35.260  1.00  0.00     0.020 A 
ATOM     87  C   UNL A   1      43.857  36.835  33.095  1.00  0.00     0.020 A 
ATOM     88  C   UNL A   1      43.857  36.903  34.490  1.00  0.00     0.054 A 
BRANCH  88  89
ATOM     89  S   UNL A   1      44.465  38.390  35.335  1.00  0.00     0.124 S 
ATOM     90  O   UNL A   1      43.776  38.313  36.619  1.00  0.00    -0.237 OA
ATOM     91  O   UNL A   1      45.908  38.166  35.381  1.00  0.00    -0.237 OA
ATOM     92  O   UNL A   1      44.039  39.482  34.462  1.00  0.00    -0.744 OA
ENDBRANCH  88  89
ENDBRANCH  62  83
ENDBRANCH  36  37
ENDBRANCH  28  31
ENDBRANCH  26  27
ENDBRANCH   1  26
TORSDOF 16
ENDMDL
MODEL 3
REMARK VINA RESULT:     -11.4      0.393      8.148
REMARK SMILES C[C@@H]1CCCN(C(=O)N[C@]2(C(=O)NCCCCNC(=O)c3ccc(-c4c5nc(c(-c6ccc(S(=O)(=O)[O-])cc6)c6ccc([nH]6)c(-c6ccc(S(=O)(=O)[O-])cc6)c6nc(c(-c7ccc(S(=O)(=O)[O-])cc7)c7ccc4[nH]7)C=C6)C=C5)cc3)CCCC[C@@H]2C)C1
REMARK SMILES IDX 16 1 15 2 14 3 13 4 11 5 12 6 10 8 81 9 85 10 82 11 84 12
REMARK SMILES IDX 86 13 83 14 9 15 7 16 8 17 6 19 1 20 2 21 3 22 87 23 4 24
REMARK SMILES IDX 5 25 17 26 18 27 19 28 20 30 21 31 22 32 80 33 23 34 79 35
REMARK SMILES IDX 24 36 25 37 26 38 73 39 27 40 78 41 72 42 74 43 28 44 77 45
REMARK SMILES IDX 71 46 70 47 29 49 59 50 40 51 58 52 41 53 44 54 57 55 75 56
REMARK SMILES IDX 42 57 43 58 56 60 76 61 45 62 30 63 31 64 39 65 32 66 38 67
REMARK SMILES IDX 33 68 34 69 35 70 36 71 37 72 60 73 61 74 69 75 62 76 68 77
REMARK SMILES IDX 63 78 64 79 65 80 66 81 67 82 46 83 47 84 55 85 48 86 54 87
REMARK SMILES IDX 49 88 50 89 51 90 52 91 53 92
REMARK H PARENT 13 7 9 18 18 29 74 48 44 59
REMARK Flexibility Score: inf
ROOT
ATOM      1  C   UNL A   1      32.112  27.982  27.649  1.00  0.00     0.023 C 
ENDROOT
BRANCH   1   2
ATOM      2  C   UNL A   1      31.303  27.319  26.524  1.00  0.00     0.023 C 
BRANCH   2   3
ATOM      3  C   UNL A   1      31.659  25.881  26.129  1.00  0.00     0.116 C 
BRANCH   3   4
ATOM      4  N   UNL A   1      30.862  25.218  25.081  1.00  0.00    -0.354 N 
ATOM      5  C   UNL A   1      31.270  24.309  24.087  1.00  0.00     0.246 C 
ATOM      6  O   UNL A   1      30.396  23.873  23.329  1.00  0.00    -0.272 OA
ATOM      7  H   UNL A   1      29.904  25.445  25.077  1.00  0.00     0.163 HD
BRANCH   5   8
ATOM      8  C   UNL A   1      32.826  24.079  23.765  1.00  0.00     0.123 C 
ATOM      9  C   UNL A   1      34.064  24.930  24.189  1.00  0.00     0.039 C 
ATOM     10  C   UNL A   1      33.026  22.666  24.465  1.00  0.00     0.021 C 
ATOM     11  C   UNL A   1      34.328  25.110  25.662  1.00  0.00     0.003 C 
ATOM     12  C   UNL A   1      33.325  22.851  25.996  1.00  0.00     0.006 C 
ATOM     13  C   UNL A   1      34.059  21.738  23.835  1.00  0.00     0.011 C 
ATOM     14  C   UNL A   1      34.518  23.752  26.303  1.00  0.00     0.000 C 
BRANCH   8  15
ATOM     15  N   UNL A   1      32.892  24.217  22.311  1.00  0.00    -0.323 N 
ATOM     16  C   UNL A   1      32.958  25.369  21.562  1.00  0.00     0.318 C 
ATOM     17  O   UNL A   1      33.103  25.203  20.347  1.00  0.00    -0.249 OA
ATOM     18  H   UNL A   1      32.889  23.376  21.801  1.00  0.00     0.166 HD
BRANCH  16  19
ATOM     19  N   UNL A   1      32.639  26.611  22.109  1.00  0.00    -0.325 N 
ATOM     20  C   UNL A   1      29.322  28.323  22.999  1.00  0.00     0.009 C 
ATOM     21  C   UNL A   1      30.774  27.892  23.125  1.00  0.00     0.005 C 
ATOM     22  C   UNL A   1      31.656  29.128  23.292  1.00  0.00     0.007 C 
ATOM     23  C   UNL A   1      31.256  27.063  21.920  1.00  0.00     0.124 C 
ATOM     24  C   UNL A   1      33.086  28.685  23.501  1.00  0.00     0.022 C 
ATOM     25  C   UNL A   1      33.559  27.724  22.413  1.00  0.00     0.121 C 
ENDBRANCH  16  19
ENDBRANCH   8  15
ENDBRANCH   5   8
ENDBRANCH   3   4
ENDBRANCH   2   3
ENDBRANCH   1   2
BRANCH   1  26
ATOM     26  C   UNL A   1      33.406  28.731  27.300  1.00  0.00     0.116 C 
BRANCH  26  27
ATOM     27  N   UNL A   1      33.473  30.129  27.698  1.00  0.00    -0.352 N 
ATOM     28  C   UNL A   1      34.560  30.870  28.143  1.00  0.00     0.251 C 
ATOM     29  H   UNL A   1      32.624  30.624  27.643  1.00  0.00     0.163 HD
ATOM     30  O   UNL A   1      34.432  32.049  28.419  1.00  0.00    -0.269 OA
BRANCH  28  31
ATOM     31  C   UNL A   1      35.879  30.211  28.333  1.00  0.00     0.039 A 
ATOM     32  C   UNL A   1      36.776  30.159  27.265  1.00  0.00     0.014 A 
ATOM     33  C   UNL A   1      36.242  29.670  29.565  1.00  0.00     0.014 A 
ATOM     34  C   UNL A   1      38.081  29.694  27.474  1.00  0.00     0.010 A 
ATOM     35  C   UNL A   1      37.563  29.279  29.796  1.00  0.00     0.010 A 
ATOM     36  C   UNL A   1      38.508  29.314  28.759  1.00  0.00    -0.014 A 
BRANCH  36  37
ATOM     37  C   UNL A   1      39.943  29.016  29.038  1.00  0.00     0.031 A 
ATOM     38  C   UNL A   1      40.542  27.679  28.692  1.00  0.00     0.074 A 
ATOM     39  C   UNL A   1      40.699  29.934  29.678  1.00  0.00     0.049 A 
ATOM     40  N   UNL A   1      41.760  27.243  28.900  1.00  0.00    -0.248 NA
ATOM     41  C   UNL A   1      39.654  26.698  28.051  1.00  0.00     0.031 C 
ATOM     42  C   UNL A   1      40.235  31.249  30.126  1.00  0.00     0.029 A 
ATOM     43  N   UNL A   1      42.015  29.899  30.071  1.00  0.00    -0.354 N 
ATOM     44  C   UNL A   1      41.780  25.934  28.432  1.00  0.00     0.074 A 
ATOM     45  C   UNL A   1      40.439  25.634  27.972  1.00  0.00     0.031 C 
ATOM     46  C   UNL A   1      41.255  31.905  30.702  1.00  0.00     0.029 A 
ATOM     47  C   UNL A   1      42.437  31.048  30.700  1.00  0.00     0.049 A 
ATOM     48  H   UNL A   1      42.603  29.124  29.916  1.00  0.00     0.167 HD
ATOM     49  C   UNL A   1      42.819  25.064  28.371  1.00  0.00     0.031 A 
ATOM     50  C   UNL A   1      43.635  31.382  31.221  1.00  0.00     0.031 A 
ATOM     51  C   UNL A   1      44.155  25.361  28.820  1.00  0.00     0.049 A 
ATOM     52  C   UNL A   1      44.777  30.408  31.133  1.00  0.00     0.074 A 
ATOM     53  C   UNL A   1      45.284  24.563  28.746  1.00  0.00     0.029 A 
ATOM     54  N   UNL A   1      44.542  26.544  29.430  1.00  0.00    -0.354 N 
ATOM     55  N   UNL A   1      44.791  29.202  30.619  1.00  0.00    -0.248 NA
ATOM     56  C   UNL A   1      46.068  30.845  31.683  1.00  0.00     0.031 C 
ATOM     57  C   UNL A   1      46.344  25.247  29.350  1.00  0.00     0.029 A 
ATOM     58  C   UNL A   1      45.888  26.491  29.754  1.00  0.00     0.049 A 
ATOM     59  H   UNL A   1      43.948  27.308  29.608  1.00  0.00     0.167 HD
ATOM     60  C   UNL A   1      46.097  28.746  30.760  1.00  0.00     0.074 A 
ATOM     61  C   UNL A   1      46.846  29.809  31.399  1.00  0.00     0.031 C 
ATOM     62  C   UNL A   1      46.626  27.553  30.391  1.00  0.00     0.031 A 
BRANCH  49  63
ATOM     63  C   UNL A   1      42.541  23.698  27.800  1.00  0.00    -0.014 A 
ATOM     64  C   UNL A   1      42.041  22.662  28.611  1.00  0.00     0.010 A 
ATOM     65  C   UNL A   1      42.770  23.447  26.436  1.00  0.00     0.010 A 
ATOM     66  C   UNL A   1      41.832  21.386  28.082  1.00  0.00     0.020 A 
ATOM     67  C   UNL A   1      42.537  22.178  25.896  1.00  0.00     0.020 A 
ATOM     68  C   UNL A   1      42.093  21.149  26.729  1.00  0.00     0.054 A 
BRANCH  68  69
ATOM     69  S   UNL A   1      41.827  19.481  26.070  1.00  0.00     0.124 S 
ATOM     70  O   UNL A   1      40.396  19.497  25.780  1.00  0.00    -0.237 OA
ATOM     71  O   UNL A   1      42.703  19.452  24.901  1.00  0.00    -0.237 OA
ATOM     72  O   UNL A   1      42.230  18.606  27.169  1.00  0.00    -0.744 OA
ENDBRANCH  68  69
ENDBRANCH  49  63
BRANCH  50  73
ATOM     73  C   UNL A   1      43.821  32.720  31.847  1.00  0.00    -0.014 A 
ATOM     74  C   UNL A   1      44.258  33.812  31.077  1.00  0.00     0.010 A 
ATOM     75  C   UNL A   1      43.531  32.917  33.210  1.00  0.00     0.010 A 
ATOM     76  C   UNL A   1      44.410  35.074  31.658  1.00  0.00     0.020 A 
ATOM     77  C   UNL A   1      43.658  34.183  33.789  1.00  0.00     0.020 A 
ATOM     78  C   UNL A   1      44.105  35.253  33.010  1.00  0.00     0.054 A 
BRANCH  78  79
ATOM     79  S   UNL A   1      44.237  36.916  33.727  1.00  0.00     0.124 S 
ATOM     80  O   UNL A   1      45.681  37.124  33.743  1.00  0.00    -0.237 OA
ATOM     81  O   UNL A   1      43.490  37.731  32.772  1.00  0.00    -0.237 OA
ATOM     82  O   UNL A   1      43.609  36.773  35.038  1.00  0.00    -0.744 OA
ENDBRANCH  78  79
ENDBRANCH  50  73
BRANCH  62  83
ATOM     83  C   UNL A   1      48.095  27.338  30.637  1.00  0.00    -0.014 A 
ATOM     84  C   UNL A   1      48.556  26.724  31.815  1.00  0.00     0.010 A 
ATOM     85  C   UNL A   1      49.025  27.700  29.645  1.00  0.00     0.010 A 
ATOM     86  C   UNL A   1      49.922  26.497  32.007  1.00  0.00     0.020 A 
ATOM     87  C   UNL A   1      50.389  27.455  29.823  1.00  0.00     0.020 A 
ATOM     88  C   UNL A   1      50.830  26.864  31.009  1.00  0.00     0.054 A 
BRANCH  88  89
ATOM     89  S   UNL A   1      52.593  26.513  31.257  1.00  0.00     0.124 S 
ATOM     90  O   UNL A   1      53.091  26.475  29.885  1.00  0.00    -0.237 OA
ATOM     91  O   UNL A   1      53.038  27.651  32.056  1.00  0.00    -0.237 OA
ATOM     92  O   UNL A   1      52.595  25.230  31.956  1.00  0.00    -0.744 OA
ENDBRANCH  88  89
ENDBRANCH  62  83
ENDBRANCH  36  37
ENDBRANCH  28  31
ENDBRANCH  26  27
ENDBRANCH   1  26
TORSDOF 16
ENDMDL
