MODEL 1
REMARK VINA RESULT:     -11.3      0.000      0.000
REMARK SMILES O=C(NCCCCNC(=O)[C@H]1CS[C@@H](c2cccc(OCc3ccc(Cl)cc3Cl)c2)[NH2+]1)c1ccc(-c2c3nc(c(-c4ccc(S(=O)(=O)[O-])cc4)c4ccc([nH]4)c(-c4ccc(S(=O)(=O)[O-])cc4)c4nc(c(-c5ccc(S(=O)(=O)[O-])cc5)c5ccc2[nH]5)C=C4)C=C3)cc1
REMARK SMILES IDX 6 1 5 2 4 3 3 4 1 5 2 6 32 8 33 9 91 10 34 11 90 12 35 13
REMARK SMILES IDX 36 14 37 15 84 16 38 17 89 18 83 19 85 20 39 21 88 22 82 23
REMARK SMILES IDX 81 24 40 26 70 27 51 28 69 29 52 30 55 31 68 32 86 33 53 34
REMARK SMILES IDX 54 35 67 37 87 38 56 39 41 40 42 41 50 42 43 43 49 44 44 45
REMARK SMILES IDX 45 46 46 47 47 48 48 49 71 50 72 51 80 52 73 53 79 54 74 55
REMARK SMILES IDX 75 56 76 57 77 58 78 59 57 60 58 61 66 62 59 63 65 64 60 65
REMARK SMILES IDX 61 66 62 67 63 68 64 69 7 70 8 71 9 72 10 74 11 75 12 76
REMARK SMILES IDX 31 77 13 78 14 79 15 82 16 83 30 84 17 85 19 86 18 87 20 88
REMARK SMILES IDX 21 89 22 90 23 91 28 92 24 93 27 94 29 95 25 96 26 97
REMARK H PARENT 3 7 85 25 55 36 8 73 31 80 31 81
REMARK Flexibility Score: inf
ROOT
ATOM      1  C   UNL A   1      32.936  29.616  27.498  1.00  0.00     0.023 C 
ENDROOT
BRANCH   1   2
ATOM      2  C   UNL A   1      34.222  28.827  27.239  1.00  0.00     0.023 C 
BRANCH   2   3
ATOM      3  C   UNL A   1      35.503  29.499  27.721  1.00  0.00     0.116 C 
BRANCH   3   4
ATOM      4  N   UNL A   1      35.476  29.795  29.144  1.00  0.00    -0.352 N 
ATOM      5  O   UNL A   1      36.253  29.862  31.257  1.00  0.00    -0.269 OA
ATOM      6  C   UNL A   1      36.499  29.738  30.061  1.00  0.00     0.251 C 
ATOM      7  H   UNL A   1      34.603  30.076  29.502  1.00  0.00     0.163 HD
BRANCH   6   8
ATOM      8  C   UNL A   1      37.884  29.504  29.603  1.00  0.00     0.039 A 
ATOM      9  C   UNL A   1      38.242  29.717  28.268  1.00  0.00     0.014 A 
ATOM     10  C   UNL A   1      38.837  29.074  30.528  1.00  0.00     0.014 A 
ATOM     11  C   UNL A   1      39.523  29.386  27.834  1.00  0.00     0.010 A 
ATOM     12  C   UNL A   1      40.140  28.808  30.103  1.00  0.00     0.010 A 
ATOM     13  C   UNL A   1      40.487  28.939  28.748  1.00  0.00    -0.014 A 
BRANCH  13  14
ATOM     14  C   UNL A   1      41.874  28.667  28.299  1.00  0.00     0.031 A 
ATOM     15  C   UNL A   1      42.290  27.289  27.873  1.00  0.00     0.074 A 
ATOM     16  C   UNL A   1      42.772  29.671  28.314  1.00  0.00     0.049 A 
ATOM     17  N   UNL A   1      43.477  26.859  27.523  1.00  0.00    -0.248 NA
ATOM     18  C   UNL A   1      41.244  26.256  27.846  1.00  0.00     0.031 C 
ATOM     19  C   UNL A   1      42.484  31.051  28.713  1.00  0.00     0.029 A 
ATOM     20  N   UNL A   1      44.106  29.685  28.001  1.00  0.00    -0.354 N 
ATOM     21  C   UNL A   1      43.327  25.502  27.261  1.00  0.00     0.074 A 
ATOM     22  C   UNL A   1      41.938  25.177  27.510  1.00  0.00     0.031 C 
ATOM     23  C   UNL A   1      43.606  31.777  28.618  1.00  0.00     0.029 A 
ATOM     24  C   UNL A   1      44.704  30.905  28.212  1.00  0.00     0.049 A 
ATOM     25  H   UNL A   1      44.590  28.898  27.659  1.00  0.00     0.167 HD
ATOM     26  C   UNL A   1      44.264  24.611  26.853  1.00  0.00     0.031 A 
ATOM     27  C   UNL A   1      45.994  31.279  28.127  1.00  0.00     0.031 A 
ATOM     28  C   UNL A   1      45.645  24.943  26.622  1.00  0.00     0.049 A 
ATOM     29  C   UNL A   1      47.023  30.271  27.708  1.00  0.00     0.074 A 
ATOM     30  C   UNL A   1      46.663  24.122  26.167  1.00  0.00     0.029 A 
ATOM     31  N   UNL A   1      46.208  26.192  26.843  1.00  0.00    -0.354 N 
ATOM     32  N   UNL A   1      46.855  29.004  27.415  1.00  0.00    -0.248 NA
ATOM     33  C   UNL A   1      48.410  30.739  27.602  1.00  0.00     0.031 C 
ATOM     34  C   UNL A   1      47.852  24.859  26.171  1.00  0.00     0.029 A 
ATOM     35  C   UNL A   1      47.565  26.157  26.565  1.00  0.00     0.049 A 
ATOM     36  H   UNL A   1      45.716  26.986  27.153  1.00  0.00     0.167 HD
ATOM     37  C   UNL A   1      48.112  28.525  27.069  1.00  0.00     0.074 A 
ATOM     38  C   UNL A   1      49.030  29.642  27.184  1.00  0.00     0.031 C 
ATOM     39  C   UNL A   1      48.469  27.275  26.684  1.00  0.00     0.031 A 
BRANCH  26  40
ATOM     40  C   UNL A   1      43.829  23.178  26.683  1.00  0.00    -0.014 A 
ATOM     41  C   UNL A   1      43.935  22.519  25.444  1.00  0.00     0.010 A 
ATOM     42  C   UNL A   1      43.308  22.476  27.786  1.00  0.00     0.010 A 
ATOM     43  C   UNL A   1      43.469  21.209  25.297  1.00  0.00     0.020 A 
ATOM     44  C   UNL A   1      42.868  21.156  27.650  1.00  0.00     0.020 A 
ATOM     45  C   UNL A   1      42.925  20.540  26.398  1.00  0.00     0.054 A 
BRANCH  45  46
ATOM     46  S   UNL A   1      42.295  18.855  26.174  1.00  0.00     0.124 S 
ATOM     47  O   UNL A   1      42.453  18.296  27.515  1.00  0.00    -0.237 OA
ATOM     48  O   UNL A   1      40.916  19.080  25.748  1.00  0.00    -0.237 OA
ATOM     49  O   UNL A   1      43.174  18.287  25.154  1.00  0.00    -0.744 OA
ENDBRANCH  45  46
ENDBRANCH  26  40
BRANCH  27  50
ATOM     50  C   UNL A   1      46.359  32.677  28.477  1.00  0.00    -0.014 A 
ATOM     51  C   UNL A   1      46.301  33.695  27.511  1.00  0.00     0.010 A 
ATOM     52  C   UNL A   1      46.669  33.009  29.809  1.00  0.00     0.010 A 
ATOM     53  C   UNL A   1      46.534  35.025  27.876  1.00  0.00     0.020 A 
ATOM     54  C   UNL A   1      46.876  34.339  30.182  1.00  0.00     0.020 A 
ATOM     55  C   UNL A   1      46.809  35.339  29.211  1.00  0.00     0.054 A 
BRANCH  55  56
ATOM     56  S   UNL A   1      46.996  37.082  29.679  1.00  0.00     0.124 S 
ATOM     57  O   UNL A   1      47.547  36.977  31.027  1.00  0.00    -0.237 OA
ATOM     58  O   UNL A   1      47.911  37.586  28.658  1.00  0.00    -0.237 OA
ATOM     59  O   UNL A   1      45.635  37.608  29.597  1.00  0.00    -0.744 OA
ENDBRANCH  55  56
ENDBRANCH  27  50
BRANCH  39  60
ATOM     60  C   UNL A   1      49.911  27.040  26.323  1.00  0.00    -0.014 A 
ATOM     61  C   UNL A   1      50.799  26.433  27.226  1.00  0.00     0.010 A 
ATOM     62  C   UNL A   1      50.351  27.340  25.021  1.00  0.00     0.010 A 
ATOM     63  C   UNL A   1      52.106  26.132  26.833  1.00  0.00     0.020 A 
ATOM     64  C   UNL A   1      51.649  27.019  24.618  1.00  0.00     0.020 A 
ATOM     65  C   UNL A   1      52.520  26.420  25.529  1.00  0.00     0.054 A 
BRANCH  65  66
ATOM     66  S   UNL A   1      54.193  25.936  25.015  1.00  0.00     0.124 S 
ATOM     67  O   UNL A   1      54.284  24.572  25.525  1.00  0.00    -0.237 OA
ATOM     68  O   UNL A   1      54.129  26.061  23.561  1.00  0.00    -0.237 OA
ATOM     69  O   UNL A   1      55.055  26.909  25.680  1.00  0.00    -0.744 OA
ENDBRANCH  65  66
ENDBRANCH  39  60
ENDBRANCH  13  14
ENDBRANCH   6   8
ENDBRANCH   3   4
ENDBRANCH   2   3
ENDBRANCH   1   2
BRANCH   1  70
ATOM     70  C   UNL A   1      32.428  30.420  26.306  1.00  0.00     0.116 C 
BRANCH  70  71
ATOM     71  N   UNL A   1      33.078  30.031  25.070  1.00  0.00    -0.351 N 
ATOM     72  C   UNL A   1      32.667  29.130  24.131  1.00  0.00     0.279 C 
ATOM     73  H   UNL A   1      33.936  30.477  24.883  1.00  0.00     0.163 HD
ATOM     74  O   UNL A   1      33.358  28.969  23.121  1.00  0.00    -0.268 OA
BRANCH  72  75
ATOM     75  C   UNL A   1      31.332  28.392  24.331  1.00  0.00     0.283 C 
ATOM     76  C   UNL A   1      30.715  28.107  22.958  1.00  0.00     0.151 C 
ATOM     77  N   UNL A   1      31.574  27.141  25.087  1.00  0.00    -0.321 N 
ATOM     78  S   UNL A   1      30.328  26.345  22.927  1.00  0.00    -0.088 SA
ATOM     79  C   UNL A   1      30.557  26.167  24.700  1.00  0.00     0.274 C 
ATOM     80  H   UNL A   1      31.512  27.325  26.088  1.00  0.00     0.348 HD
ATOM     81  H   UNL A   1      32.504  26.779  24.878  1.00  0.00     0.348 HD
BRANCH  79  82
ATOM     82  C   UNL A   1      30.912  24.791  25.231  1.00  0.00     0.024 A 
ATOM     83  C   UNL A   1      30.205  24.115  26.236  1.00  0.00     0.011 A 
ATOM     84  C   UNL A   1      31.991  24.124  24.614  1.00  0.00     0.057 A 
ATOM     85  C   UNL A   1      30.573  22.822  26.615  1.00  0.00     0.004 A 
ATOM     86  C   UNL A   1      32.324  22.810  24.946  1.00  0.00     0.120 A 
ATOM     87  C   UNL A   1      31.625  22.174  25.970  1.00  0.00     0.046 A 
BRANCH  86  88
ATOM     88  O   UNL A   1      33.234  22.025  24.292  1.00  0.00    -0.489 OA
BRANCH  88  89
ATOM     89  C   UNL A   1      34.384  22.647  23.701  1.00  0.00     0.267 C 
BRANCH  89  90
ATOM     90  C   UNL A   1      35.679  22.570  24.497  1.00  0.00     0.008 A 
ATOM     91  C   UNL A   1      36.506  21.433  24.452  1.00  0.00     0.010 A 
ATOM     92  C   UNL A   1      36.099  23.657  25.287  1.00  0.00     0.049 A 
ATOM     93  C   UNL A   1      37.739  21.411  25.110  1.00  0.00     0.021 A 
ATOM     94  C   UNL A   1      37.322  23.628  25.964  1.00  0.00     0.041 A 
ATOM     95  Cl  UNL A   1      35.130  25.080  25.454  1.00  0.00    -0.084 Cl
ATOM     96  C   UNL A   1      38.142  22.510  25.858  1.00  0.00     0.042 A 
ATOM     97  Cl  UNL A   1      39.663  22.487  26.660  1.00  0.00    -0.084 Cl
ENDBRANCH  89  90
ENDBRANCH  88  89
ENDBRANCH  86  88
ENDBRANCH  79  82
ENDBRANCH  72  75
ENDBRANCH  70  71
ENDBRANCH   1  70
TORSDOF 18
ENDMDL
MODEL 2
REMARK VINA RESULT:     -11.2      4.580     10.925
REMARK SMILES O=C(NCCCCNC(=O)[C@H]1CS[C@@H](c2cccc(OCc3ccc(Cl)cc3Cl)c2)[NH2+]1)c1ccc(-c2c3nc(c(-c4ccc(S(=O)(=O)[O-])cc4)c4ccc([nH]4)c(-c4ccc(S(=O)(=O)[O-])cc4)c4nc(c(-c5ccc(S(=O)(=O)[O-])cc5)c5ccc2[nH]5)C=C4)C=C3)cc1
REMARK SMILES IDX 6 1 5 2 4 3 3 4 1 5 2 6 32 8 33 9 91 10 34 11 90 12 35 13
REMARK SMILES IDX 36 14 37 15 84 16 38 17 89 18 83 19 85 20 39 21 88 22 82 23
REMARK SMILES IDX 81 24 40 26 70 27 51 28 69 29 52 30 55 31 68 32 86 33 53 34
REMARK SMILES IDX 54 35 67 37 87 38 56 39 41 40 42 41 50 42 43 43 49 44 44 45
REMARK SMILES IDX 45 46 46 47 47 48 48 49 71 50 72 51 80 52 73 53 79 54 74 55
REMARK SMILES IDX 75 56 76 57 77 58 78 59 57 60 58 61 66 62 59 63 65 64 60 65
REMARK SMILES IDX 61 66 62 67 63 68 64 69 7 70 8 71 9 72 10 74 11 75 12 76
REMARK SMILES IDX 31 77 13 78 14 79 15 82 16 83 30 84 17 85 19 86 18 87 20 88
REMARK SMILES IDX 21 89 22 90 23 91 28 92 24 93 27 94 29 95 25 96 26 97
REMARK H PARENT 3 7 85 25 55 36 8 73 31 80 31 81
REMARK Flexibility Score: inf
ROOT
ATOM      1  C   UNL A   1      33.345  34.608  29.104  1.00  0.00     0.023 C 
ENDROOT
BRANCH   1   2
ATOM      2  C   UNL A   1      33.990  33.807  27.970  1.00  0.00     0.023 C 
BRANCH   2   3
ATOM      3  C   UNL A   1      34.782  32.580  28.410  1.00  0.00     0.116 C 
BRANCH   3   4
ATOM      4  N   UNL A   1      34.101  31.335  28.095  1.00  0.00    -0.352 N 
ATOM      5  O   UNL A   1      33.920  29.168  27.508  1.00  0.00    -0.269 OA
ATOM      6  C   UNL A   1      34.627  30.075  27.938  1.00  0.00     0.251 C 
ATOM      7  H   UNL A   1      33.125  31.403  27.978  1.00  0.00     0.163 HD
BRANCH   6   8
ATOM      8  C   UNL A   1      36.046  29.825  28.267  1.00  0.00     0.039 A 
ATOM      9  C   UNL A   1      37.049  30.040  27.317  1.00  0.00     0.014 A 
ATOM     10  C   UNL A   1      36.373  29.377  29.549  1.00  0.00     0.014 A 
ATOM     11  C   UNL A   1      38.366  29.694  27.611  1.00  0.00     0.010 A 
ATOM     12  C   UNL A   1      37.704  29.096  29.863  1.00  0.00     0.010 A 
ATOM     13  C   UNL A   1      38.708  29.229  28.889  1.00  0.00    -0.014 A 
BRANCH  13  14
ATOM     14  C   UNL A   1      40.123  28.941  29.225  1.00  0.00     0.031 A 
ATOM     15  C   UNL A   1      41.011  30.007  29.799  1.00  0.00     0.074 A 
ATOM     16  C   UNL A   1      40.615  27.713  28.972  1.00  0.00     0.049 A 
ATOM     17  N   UNL A   1      42.289  29.949  30.081  1.00  0.00    -0.248 NA
ATOM     18  C   UNL A   1      40.390  31.309  30.084  1.00  0.00     0.031 C 
ATOM     19  C   UNL A   1      39.848  26.599  28.410  1.00  0.00     0.029 A 
ATOM     20  N   UNL A   1      41.876  27.201  29.137  1.00  0.00    -0.354 N 
ATOM     21  C   UNL A   1      42.632  31.212  30.550  1.00  0.00     0.074 A 
ATOM     22  C   UNL A   1      41.430  32.020  30.497  1.00  0.00     0.031 C 
ATOM     23  C   UNL A   1      40.653  25.534  28.282  1.00  0.00     0.029 A 
ATOM     24  C   UNL A   1      42.003  25.907  28.692  1.00  0.00     0.049 A 
ATOM     25  H   UNL A   1      42.619  27.710  29.536  1.00  0.00     0.167 HD
ATOM     26  C   UNL A   1      43.838  31.656  30.981  1.00  0.00     0.031 A 
ATOM     27  C   UNL A   1      43.086  25.115  28.587  1.00  0.00     0.031 A 
ATOM     28  C   UNL A   1      45.028  30.847  31.016  1.00  0.00     0.049 A 
ATOM     29  C   UNL A   1      44.419  25.634  29.035  1.00  0.00     0.074 A 
ATOM     30  C   UNL A   1      46.288  31.191  31.475  1.00  0.00     0.029 A 
ATOM     31  N   UNL A   1      45.112  29.539  30.559  1.00  0.00    -0.354 N 
ATOM     32  N   UNL A   1      44.716  26.815  29.524  1.00  0.00    -0.248 NA
ATOM     33  C   UNL A   1      45.562  24.719  28.927  1.00  0.00     0.031 C 
ATOM     34  C   UNL A   1      47.147  30.111  31.240  1.00  0.00     0.029 A 
ATOM     35  C   UNL A   1      46.409  29.071  30.696  1.00  0.00     0.049 A 
ATOM     36  H   UNL A   1      44.361  29.020  30.192  1.00  0.00     0.167 HD
ATOM     37  C   UNL A   1      46.077  26.780  29.801  1.00  0.00     0.074 A 
ATOM     38  C   UNL A   1      46.544  25.458  29.431  1.00  0.00     0.031 C 
ATOM     39  C   UNL A   1      46.862  27.753  30.323  1.00  0.00     0.031 A 
BRANCH  26  40
ATOM     40  C   UNL A   1      43.935  33.100  31.400  1.00  0.00    -0.014 A 
ATOM     41  C   UNL A   1      43.847  33.481  32.752  1.00  0.00     0.010 A 
ATOM     42  C   UNL A   1      44.123  34.095  30.423  1.00  0.00     0.010 A 
ATOM     43  C   UNL A   1      43.880  34.832  33.110  1.00  0.00     0.020 A 
ATOM     44  C   UNL A   1      44.186  35.445  30.779  1.00  0.00     0.020 A 
ATOM     45  C   UNL A   1      44.035  35.807  32.119  1.00  0.00     0.054 A 
BRANCH  45  46
ATOM     46  S   UNL A   1      44.039  37.554  32.604  1.00  0.00     0.124 S 
ATOM     47  O   UNL A   1      43.780  38.219  31.329  1.00  0.00    -0.237 OA
ATOM     48  O   UNL A   1      42.950  37.621  33.577  1.00  0.00    -0.237 OA
ATOM     49  O   UNL A   1      45.376  37.760  33.155  1.00  0.00    -0.744 OA
ENDBRANCH  45  46
ENDBRANCH  26  40
BRANCH  27  50
ATOM     50  C   UNL A   1      42.926  23.757  28.002  1.00  0.00    -0.014 A 
ATOM     51  C   UNL A   1      42.568  22.667  28.812  1.00  0.00     0.010 A 
ATOM     52  C   UNL A   1      43.036  23.574  26.611  1.00  0.00     0.010 A 
ATOM     53  C   UNL A   1      42.307  21.419  28.237  1.00  0.00     0.020 A 
ATOM     54  C   UNL A   1      42.751  22.336  26.031  1.00  0.00     0.020 A 
ATOM     55  C   UNL A   1      42.389  21.265  26.850  1.00  0.00     0.054 A 
BRANCH  55  56
ATOM     56  S   UNL A   1      41.938  19.667  26.118  1.00  0.00     0.124 S 
ATOM     57  O   UNL A   1      42.727  19.661  24.890  1.00  0.00    -0.237 OA
ATOM     58  O   UNL A   1      42.360  18.719  27.147  1.00  0.00    -0.237 OA
ATOM     59  O   UNL A   1      40.491  19.770  25.935  1.00  0.00    -0.744 OA
ENDBRANCH  55  56
ENDBRANCH  27  50
BRANCH  39  60
ATOM     60  C   UNL A   1      48.312  27.429  30.561  1.00  0.00    -0.014 A 
ATOM     61  C   UNL A   1      49.282  27.650  29.569  1.00  0.00     0.010 A 
ATOM     62  C   UNL A   1      48.719  26.991  31.835  1.00  0.00     0.010 A 
ATOM     63  C   UNL A   1      50.635  27.436  29.846  1.00  0.00     0.020 A 
ATOM     64  C   UNL A   1      50.072  26.800  32.123  1.00  0.00     0.020 A 
ATOM     65  C   UNL A   1      51.022  27.020  31.124  1.00  0.00     0.054 A 
BRANCH  65  66
ATOM     66  S   UNL A   1      52.791  26.839  31.487  1.00  0.00     0.124 S 
ATOM     67  O   UNL A   1      52.898  27.471  32.798  1.00  0.00    -0.237 OA
ATOM     68  O   UNL A   1      52.975  25.390  31.470  1.00  0.00    -0.237 OA
ATOM     69  O   UNL A   1      53.444  27.557  30.395  1.00  0.00    -0.744 OA
ENDBRANCH  65  66
ENDBRANCH  39  60
ENDBRANCH  13  14
ENDBRANCH   6   8
ENDBRANCH   3   4
ENDBRANCH   2   3
ENDBRANCH   1   2
BRANCH   1  70
ATOM     70  C   UNL A   1      34.219  34.779  30.342  1.00  0.00     0.116 C 
BRANCH  70  71
ATOM     71  N   UNL A   1      33.678  34.079  31.491  1.00  0.00    -0.351 N 
ATOM     72  C   UNL A   1      34.305  33.716  32.648  1.00  0.00     0.279 C 
ATOM     73  H   UNL A   1      32.727  33.829  31.428  1.00  0.00     0.163 HD
ATOM     74  O   UNL A   1      33.648  33.151  33.526  1.00  0.00    -0.268 OA
BRANCH  72  75
ATOM     75  C   UNL A   1      35.789  34.074  32.843  1.00  0.00     0.283 C 
ATOM     76  C   UNL A   1      35.980  34.631  34.257  1.00  0.00     0.151 C 
ATOM     77  N   UNL A   1      36.616  32.866  32.620  1.00  0.00    -0.321 N 
ATOM     78  S   UNL A   1      37.329  33.692  34.999  1.00  0.00    -0.088 SA
ATOM     79  C   UNL A   1      37.829  32.985  33.424  1.00  0.00     0.274 C 
ATOM     80  H   UNL A   1      36.863  32.793  31.633  1.00  0.00     0.348 HD
ATOM     81  H   UNL A   1      36.098  32.030  32.890  1.00  0.00     0.348 HD
BRANCH  79  82
ATOM     82  C   UNL A   1      38.581  31.668  33.449  1.00  0.00     0.024 A 
ATOM     83  C   UNL A   1      38.036  30.429  33.084  1.00  0.00     0.011 A 
ATOM     84  C   UNL A   1      39.947  31.715  33.802  1.00  0.00     0.057 A 
ATOM     85  C   UNL A   1      38.827  29.278  33.081  1.00  0.00     0.004 A 
ATOM     86  C   UNL A   1      40.756  30.580  33.741  1.00  0.00     0.120 A 
ATOM     87  C   UNL A   1      40.181  29.356  33.405  1.00  0.00     0.046 A 
BRANCH  86  88
ATOM     88  O   UNL A   1      42.115  30.557  33.896  1.00  0.00    -0.489 OA
BRANCH  88  89
ATOM     89  C   UNL A   1      42.804  29.304  33.765  1.00  0.00     0.267 C 
BRANCH  89  90
ATOM     90  C   UNL A   1      44.278  29.299  34.140  1.00  0.00     0.008 A 
ATOM     91  C   UNL A   1      44.888  30.410  34.752  1.00  0.00     0.010 A 
ATOM     92  C   UNL A   1      45.073  28.161  33.905  1.00  0.00     0.049 A 
ATOM     93  C   UNL A   1      46.218  30.360  35.178  1.00  0.00     0.021 A 
ATOM     94  C   UNL A   1      46.410  28.117  34.311  1.00  0.00     0.041 A 
ATOM     95  Cl  UNL A   1      44.436  26.764  33.109  1.00  0.00    -0.084 Cl
ATOM     96  C   UNL A   1      46.969  29.212  34.961  1.00  0.00     0.042 A 
ATOM     97  Cl  UNL A   1      48.603  29.145  35.494  1.00  0.00    -0.084 Cl
ENDBRANCH  89  90
ENDBRANCH  88  89
ENDBRANCH  86  88
ENDBRANCH  79  82
ENDBRANCH  72  75
ENDBRANCH  70  71
ENDBRANCH   1  70
TORSDOF 18
ENDMDL
MODEL 3
REMARK VINA RESULT:     -10.9      4.998      9.023
REMARK SMILES O=C(NCCCCNC(=O)[C@H]1CS[C@@H](c2cccc(OCc3ccc(Cl)cc3Cl)c2)[NH2+]1)c1ccc(-c2c3nc(c(-c4ccc(S(=O)(=O)[O-])cc4)c4ccc([nH]4)c(-c4ccc(S(=O)(=O)[O-])cc4)c4nc(c(-c5ccc(S(=O)(=O)[O-])cc5)c5ccc2[nH]5)C=C4)C=C3)cc1
REMARK SMILES IDX 6 1 5 2 4 3 3 4 1 5 2 6 32 8 33 9 91 10 34 11 90 12 35 13
REMARK SMILES IDX 36 14 37 15 84 16 38 17 89 18 83 19 85 20 39 21 88 22 82 23
REMARK SMILES IDX 81 24 40 26 70 27 51 28 69 29 52 30 55 31 68 32 86 33 53 34
REMARK SMILES IDX 54 35 67 37 87 38 56 39 41 40 42 41 50 42 43 43 49 44 44 45
REMARK SMILES IDX 45 46 46 47 47 48 48 49 71 50 72 51 80 52 73 53 79 54 74 55
REMARK SMILES IDX 75 56 76 57 77 58 78 59 57 60 58 61 66 62 59 63 65 64 60 65
REMARK SMILES IDX 61 66 62 67 63 68 64 69 7 70 8 71 9 72 10 74 11 75 12 76
REMARK SMILES IDX 31 77 13 78 14 79 15 82 16 83 30 84 17 85 19 86 18 87 20 88
REMARK SMILES IDX 21 89 22 90 23 91 28 92 24 93 27 94 29 95 25 96 26 97
REMARK H PARENT 3 7 85 25 55 36 8 73 31 80 31 81
REMARK Flexibility Score: inf
ROOT
ATOM      1  C   UNL A   1      31.919  28.721  26.057  1.00  0.00     0.023 C 
ENDROOT
BRANCH   1   2
ATOM      2  C   UNL A   1      33.203  27.919  26.279  1.00  0.00     0.023 C 
BRANCH   2   3
ATOM      3  C   UNL A   1      34.423  28.744  26.677  1.00  0.00     0.116 C 
BRANCH   3   4
ATOM      4  N   UNL A   1      34.108  30.151  26.860  1.00  0.00    -0.352 N 
ATOM      5  O   UNL A   1      34.200  32.181  27.833  1.00  0.00    -0.269 OA
ATOM      6  C   UNL A   1      34.709  31.073  27.684  1.00  0.00     0.251 C 
ATOM      7  H   UNL A   1      33.359  30.492  26.319  1.00  0.00     0.163 HD
BRANCH   6   8
ATOM      8  C   UNL A   1      35.950  30.718  28.403  1.00  0.00     0.039 A 
ATOM      9  C   UNL A   1      37.144  31.400  28.148  1.00  0.00     0.014 A 
ATOM     10  C   UNL A   1      35.912  29.694  29.351  1.00  0.00     0.014 A 
ATOM     11  C   UNL A   1      38.324  30.978  28.755  1.00  0.00     0.010 A 
ATOM     12  C   UNL A   1      37.084  29.318  30.009  1.00  0.00     0.010 A 
ATOM     13  C   UNL A   1      38.305  29.941  29.698  1.00  0.00    -0.014 A 
BRANCH  13  14
ATOM     14  C   UNL A   1      39.549  29.549  30.404  1.00  0.00     0.031 A 
ATOM     15  C   UNL A   1      39.964  30.237  31.673  1.00  0.00     0.074 A 
ATOM     16  C   UNL A   1      40.327  28.589  29.869  1.00  0.00     0.049 A 
ATOM     17  N   UNL A   1      41.054  30.072  32.379  1.00  0.00    -0.248 NA
ATOM     18  C   UNL A   1      39.042  31.246  32.216  1.00  0.00     0.031 C 
ATOM     19  C   UNL A   1      40.028  27.855  28.637  1.00  0.00     0.029 A 
ATOM     20  N   UNL A   1      41.530  28.077  30.280  1.00  0.00    -0.354 N 
ATOM     21  C   UNL A   1      40.964  30.975  33.433  1.00  0.00     0.074 A 
ATOM     22  C   UNL A   1      39.720  31.696  33.262  1.00  0.00     0.031 C 
ATOM     23  C   UNL A   1      41.019  26.985  28.395  1.00  0.00     0.029 A 
ATOM     24  C   UNL A   1      42.049  27.143  29.417  1.00  0.00     0.049 A 
ATOM     25  H   UNL A   1      41.978  28.352  31.113  1.00  0.00     0.167 HD
ATOM     26  C   UNL A   1      41.842  31.183  34.446  1.00  0.00     0.031 A 
ATOM     27  C   UNL A   1      43.236  26.507  29.418  1.00  0.00     0.031 A 
ATOM     28  C   UNL A   1      43.082  30.469  34.596  1.00  0.00     0.049 A 
ATOM     29  C   UNL A   1      44.209  26.776  30.527  1.00  0.00     0.074 A 
ATOM     30  C   UNL A   1      44.019  30.576  35.610  1.00  0.00     0.029 A 
ATOM     31  N   UNL A   1      43.569  29.527  33.701  1.00  0.00    -0.354 N 
ATOM     32  N   UNL A   1      44.086  27.596  31.544  1.00  0.00    -0.248 NA
ATOM     33  C   UNL A   1      45.476  26.034  30.497  1.00  0.00     0.031 C 
ATOM     34  C   UNL A   1      45.099  29.743  35.296  1.00  0.00     0.029 A 
ATOM     35  C   UNL A   1      44.807  29.068  34.121  1.00  0.00     0.049 A 
ATOM     36  H   UNL A   1      43.103  29.229  32.886  1.00  0.00     0.167 HD
ATOM     37  C   UNL A   1      45.251  27.455  32.288  1.00  0.00     0.074 A 
ATOM     38  C   UNL A   1      46.063  26.466  31.607  1.00  0.00     0.031 C 
ATOM     39  C   UNL A   1      45.607  28.083  33.434  1.00  0.00     0.031 A 
BRANCH  26  40
ATOM     40  C   UNL A   1      41.507  32.266  35.439  1.00  0.00    -0.014 A 
ATOM     41  C   UNL A   1      40.669  32.019  36.542  1.00  0.00     0.010 A 
ATOM     42  C   UNL A   1      42.047  33.554  35.269  1.00  0.00     0.010 A 
ATOM     43  C   UNL A   1      40.326  33.054  37.416  1.00  0.00     0.020 A 
ATOM     44  C   UNL A   1      41.729  34.586  36.157  1.00  0.00     0.020 A 
ATOM     45  C   UNL A   1      40.847  34.335  37.210  1.00  0.00     0.054 A 
BRANCH  45  46
ATOM     46  S   UNL A   1      40.359  35.670  38.336  1.00  0.00     0.124 S 
ATOM     47  O   UNL A   1      39.456  34.974  39.250  1.00  0.00    -0.237 OA
ATOM     48  O   UNL A   1      41.635  36.087  38.913  1.00  0.00    -0.237 OA
ATOM     49  O   UNL A   1      39.725  36.651  37.459  1.00  0.00    -0.744 OA
ENDBRANCH  45  46
ENDBRANCH  26  40
BRANCH  27  50
ATOM     50  C   UNL A   1      43.552  25.577  28.302  1.00  0.00    -0.014 A 
ATOM     51  C   UNL A   1      44.030  26.066  27.076  1.00  0.00     0.010 A 
ATOM     52  C   UNL A   1      43.467  24.186  28.503  1.00  0.00     0.010 A 
ATOM     53  C   UNL A   1      44.433  25.178  26.073  1.00  0.00     0.020 A 
ATOM     54  C   UNL A   1      43.893  23.297  27.514  1.00  0.00     0.020 A 
ATOM     55  C   UNL A   1      44.372  23.800  26.303  1.00  0.00     0.054 A 
BRANCH  55  56
ATOM     56  S   UNL A   1      45.005  22.672  25.030  1.00  0.00     0.124 S 
ATOM     57  O   UNL A   1      45.993  21.897  25.775  1.00  0.00    -0.237 OA
ATOM     58  O   UNL A   1      43.803  21.945  24.628  1.00  0.00    -0.237 OA
ATOM     59  O   UNL A   1      45.547  23.571  24.014  1.00  0.00    -0.744 OA
ENDBRANCH  55  56
ENDBRANCH  27  50
BRANCH  39  60
ATOM     60  C   UNL A   1      46.923  27.706  34.058  1.00  0.00    -0.014 A 
ATOM     61  C   UNL A   1      47.024  26.629  34.954  1.00  0.00     0.010 A 
ATOM     62  C   UNL A   1      48.092  28.381  33.660  1.00  0.00     0.010 A 
ATOM     63  C   UNL A   1      48.272  26.233  35.442  1.00  0.00     0.020 A 
ATOM     64  C   UNL A   1      49.343  27.974  34.128  1.00  0.00     0.020 A 
ATOM     65  C   UNL A   1      49.425  26.904  35.020  1.00  0.00     0.054 A 
BRANCH  65  66
ATOM     66  S   UNL A   1      51.042  26.313  35.596  1.00  0.00     0.124 S 
ATOM     67  O   UNL A   1      50.712  24.994  36.126  1.00  0.00    -0.237 OA
ATOM     68  O   UNL A   1      51.838  26.317  34.371  1.00  0.00    -0.237 OA
ATOM     69  O   UNL A   1      51.438  27.304  36.593  1.00  0.00    -0.744 OA
ENDBRANCH  65  66
ENDBRANCH  39  60
ENDBRANCH  13  14
ENDBRANCH   6   8
ENDBRANCH   3   4
ENDBRANCH   2   3
ENDBRANCH   1   2
BRANCH   1  70
ATOM     70  C   UNL A   1      31.421  28.744  24.615  1.00  0.00     0.116 C 
BRANCH  70  71
ATOM     71  N   UNL A   1      32.511  28.858  23.665  1.00  0.00    -0.351 N 
ATOM     72  C   UNL A   1      32.904  27.976  22.701  1.00  0.00     0.279 C 
ATOM     73  H   UNL A   1      33.041  29.686  23.724  1.00  0.00     0.163 HD
ATOM     74  O   UNL A   1      33.845  28.283  21.965  1.00  0.00    -0.268 OA
BRANCH  72  75
ATOM     75  C   UNL A   1      32.128  26.659  22.526  1.00  0.00     0.283 C 
ATOM     76  C   UNL A   1      32.564  26.000  21.213  1.00  0.00     0.151 C 
ATOM     77  N   UNL A   1      32.390  25.778  23.688  1.00  0.00    -0.321 N 
ATOM     78  S   UNL A   1      33.020  24.303  21.620  1.00  0.00    -0.088 SA
ATOM     79  C   UNL A   1      32.267  24.391  23.249  1.00  0.00     0.274 C 
ATOM     80  H   UNL A   1      31.711  25.968  24.425  1.00  0.00     0.348 HD
ATOM     81  H   UNL A   1      33.327  25.949  24.053  1.00  0.00     0.348 HD
BRANCH  79  82
ATOM     82  C   UNL A   1      32.788  23.449  24.319  1.00  0.00     0.024 A 
ATOM     83  C   UNL A   1      32.296  22.158  24.555  1.00  0.00     0.011 A 
ATOM     84  C   UNL A   1      33.892  23.889  25.079  1.00  0.00     0.057 A 
ATOM     85  C   UNL A   1      32.882  21.340  25.524  1.00  0.00     0.004 A 
ATOM     86  C   UNL A   1      34.520  23.055  26.005  1.00  0.00     0.120 A 
ATOM     87  C   UNL A   1      33.991  21.788  26.242  1.00  0.00     0.046 A 
BRANCH  86  88
ATOM     88  O   UNL A   1      35.690  23.324  26.660  1.00  0.00    -0.489 OA
BRANCH  88  89
ATOM     89  C   UNL A   1      36.828  23.748  25.895  1.00  0.00     0.267 C 
BRANCH  89  90
ATOM     90  C   UNL A   1      38.139  23.030  26.176  1.00  0.00     0.008 A 
ATOM     91  C   UNL A   1      39.149  23.616  26.962  1.00  0.00     0.010 A 
ATOM     92  C   UNL A   1      38.368  21.736  25.672  1.00  0.00     0.049 A 
ATOM     93  C   UNL A   1      40.308  22.909  27.293  1.00  0.00     0.021 A 
ATOM     94  C   UNL A   1      39.538  21.035  25.984  1.00  0.00     0.041 A 
ATOM     95  Cl  UNL A   1      37.217  20.948  24.650  1.00  0.00    -0.084 Cl
ATOM     96  C   UNL A   1      40.494  21.621  26.807  1.00  0.00     0.042 A 
ATOM     97  Cl  UNL A   1      41.916  20.747  27.220  1.00  0.00    -0.084 Cl
ENDBRANCH  89  90
ENDBRANCH  88  89
ENDBRANCH  86  88
ENDBRANCH  79  82
ENDBRANCH  72  75
ENDBRANCH  70  71
ENDBRANCH   1  70
TORSDOF 18
ENDMDL
