MODEL 1
REMARK VINA RESULT:     -12.7      0.000      0.000
REMARK SMILES COC(=O)c1c(NC(=O)[C@@H]2C[C@@H]2C(=O)NCCCCNC(=O)c2ccc(-c3c4nc(c(-c5ccc(S(=O)(=O)[O-])cc5)c5ccc([nH]5)c(-c5ccc(S(=O)(=O)[O-])cc5)c5nc(c(-c6ccc(S(=O)(=O)[O-])cc6)c6ccc3[nH]6)C=C5)C=C4)cc2)sc2c1CC[N@@H+](Cc1ccccc1)C2
REMARK SMILES IDX 17 1 16 2 15 3 13 4 14 5 12 7 10 8 11 9 8 10 7 11 9 13 6 14
REMARK SMILES IDX 5 15 85 16 83 17 84 18 86 19 96 20 87 21 88 22 3 24 4 25
REMARK SMILES IDX 2 26 1 27 89 28 90 29 91 30 95 31 92 32 94 33 93 34 18 35
REMARK SMILES IDX 19 36 20 37 21 38 22 40 23 41 24 42 82 43 25 44 81 45 26 46
REMARK SMILES IDX 27 47 28 48 75 49 29 50 80 51 74 52 76 53 30 54 79 55 73 56
REMARK SMILES IDX 72 57 31 59 61 60 42 61 60 62 43 63 46 64 59 65 77 66 44 67
REMARK SMILES IDX 45 68 58 70 78 71 47 72 32 73 33 74 41 75 34 76 40 77 35 78
REMARK SMILES IDX 36 79 37 80 38 81 39 82 62 83 63 84 71 85 64 86 70 87 65 88
REMARK SMILES IDX 66 89 67 90 68 91 69 92 48 93 49 94 57 95 50 96 56 97 51 98
REMARK SMILES IDX 52 99 53 100 54 101 55 102
REMARK H PARENT 15 6 7 12 88 23 20 39 76 58 46 69
REMARK Flexibility Score: inf
ROOT
ATOM      1  C   UNL A   1      41.042  21.375  27.859  1.00  0.00     0.023 C 
ENDROOT
BRANCH   1   2
ATOM      2  C   UNL A   1      40.176  22.221  26.914  1.00  0.00     0.116 C 
BRANCH   2   3
ATOM      3  N   UNL A   1      39.085  21.469  26.322  1.00  0.00    -0.356 N 
ATOM      4  C   UNL A   1      37.973  21.765  25.588  1.00  0.00     0.223 C 
ATOM      5  O   UNL A   1      37.284  20.796  25.265  1.00  0.00    -0.275 OA
ATOM      6  H   UNL A   1      39.168  20.502  26.492  1.00  0.00     0.163 HD
BRANCH   4   7
ATOM      7  C   UNL A   1      37.466  23.100  25.174  1.00  0.00     0.091 C 
ATOM      8  C   UNL A   1      36.144  23.816  25.265  1.00  0.00     0.092 C 
ATOM      9  C   UNL A   1      36.578  23.204  23.962  1.00  0.00     0.028 C 
BRANCH   8  10
ATOM     10  C   UNL A   1      34.992  23.329  26.047  1.00  0.00     0.228 C 
ATOM     11  N   UNL A   1      33.829  24.058  26.028  1.00  0.00    -0.317 N 
ATOM     12  H   UNL A   1      33.090  23.760  26.606  1.00  0.00     0.170 HD
ATOM     13  O   UNL A   1      35.109  22.327  26.744  1.00  0.00    -0.274 OA
BRANCH  11  14
ATOM     14  C   UNL A   1      33.628  25.176  25.255  1.00  0.00     0.110 A 
ATOM     15  C   UNL A   1      33.453  25.368  23.897  1.00  0.00     0.098 A 
ATOM     16  C   UNL A   1      33.428  26.785  23.610  1.00  0.00    -0.006 A 
ATOM     17  S   UNL A   1      33.604  26.603  26.169  1.00  0.00    -0.116 S 
ATOM     18  C   UNL A   1      33.470  27.538  24.770  1.00  0.00     0.065 A 
ATOM     19  C   UNL A   1      33.136  27.452  22.289  1.00  0.00     0.099 C 
ATOM     20  C   UNL A   1      33.202  29.005  24.823  1.00  0.00     0.310 C 
ATOM     21  C   UNL A   1      32.679  28.931  22.447  1.00  0.00     0.267 C 
ATOM     22  N   UNL A   1      32.242  29.375  23.784  1.00  0.00    -0.326 N 
ATOM     23  H   UNL A   1      32.249  30.395  23.759  1.00  0.00     0.348 HD
BRANCH  15  24
ATOM     24  C   UNL A   1      33.228  24.295  22.921  1.00  0.00     0.341 C 
ATOM     25  O   UNL A   1      33.682  24.290  21.799  1.00  0.00    -0.246 OA
BRANCH  24  26
ATOM     26  O   UNL A   1      32.488  23.268  23.456  1.00  0.00    -0.465 OA
ATOM     27  C   UNL A   1      32.478  22.062  22.699  1.00  0.00     0.282 C 
ENDBRANCH  24  26
ENDBRANCH  15  24
BRANCH  22  28
ATOM     28  C   UNL A   1      30.832  29.088  24.099  1.00  0.00     0.299 C 
BRANCH  28  29
ATOM     29  C   UNL A   1      29.745  29.915  23.424  1.00  0.00     0.006 A 
ATOM     30  C   UNL A   1      29.096  29.478  22.264  1.00  0.00     0.009 A 
ATOM     31  C   UNL A   1      29.359  31.152  23.959  1.00  0.00     0.009 A 
ATOM     32  C   UNL A   1      28.047  30.215  21.704  1.00  0.00     0.001 A 
ATOM     33  C   UNL A   1      28.307  31.891  23.411  1.00  0.00     0.001 A 
ATOM     34  C   UNL A   1      27.638  31.412  22.290  1.00  0.00     0.000 A 
ENDBRANCH  28  29
ENDBRANCH  22  28
ENDBRANCH  11  14
ENDBRANCH   8  10
ENDBRANCH   4   7
ENDBRANCH   2   3
ENDBRANCH   1   2
BRANCH   1  35
ATOM     35  C   UNL A   1      41.573  20.042  27.297  1.00  0.00     0.023 C 
BRANCH  35  36
ATOM     36  C   UNL A   1      41.748  19.997  25.781  1.00  0.00     0.116 C 
BRANCH  36  37
ATOM     37  N   UNL A   1      43.112  19.683  25.367  1.00  0.00    -0.352 N 
ATOM     38  C   UNL A   1      44.164  20.557  25.173  1.00  0.00     0.251 C 
ATOM     39  H   UNL A   1      43.306  18.731  25.207  1.00  0.00     0.163 HD
ATOM     40  O   UNL A   1      45.174  20.189  24.583  1.00  0.00    -0.269 OA
BRANCH  38  41
ATOM     41  C   UNL A   1      44.056  21.944  25.673  1.00  0.00     0.039 A 
ATOM     42  C   UNL A   1      43.229  22.874  25.034  1.00  0.00     0.014 A 
ATOM     43  C   UNL A   1      44.785  22.313  26.800  1.00  0.00     0.014 A 
ATOM     44  C   UNL A   1      43.078  24.150  25.582  1.00  0.00     0.010 A 
ATOM     45  C   UNL A   1      44.563  23.541  27.388  1.00  0.00     0.010 A 
ATOM     46  C   UNL A   1      43.736  24.479  26.776  1.00  0.00    -0.014 A 
BRANCH  46  47
ATOM     47  C   UNL A   1      43.488  25.760  27.447  1.00  0.00     0.031 A 
ATOM     48  C   UNL A   1      44.442  26.863  27.137  1.00  0.00     0.074 A 
ATOM     49  C   UNL A   1      42.355  26.046  28.127  1.00  0.00     0.049 A 
ATOM     50  N   UNL A   1      45.243  27.467  27.952  1.00  0.00    -0.248 NA
ATOM     51  C   UNL A   1      44.570  27.307  25.741  1.00  0.00     0.031 C 
ATOM     52  C   UNL A   1      41.163  25.213  28.296  1.00  0.00     0.029 A 
ATOM     53  N   UNL A   1      41.985  27.221  28.715  1.00  0.00    -0.354 N 
ATOM     54  C   UNL A   1      45.861  28.481  27.223  1.00  0.00     0.074 A 
ATOM     55  C   UNL A   1      45.505  28.256  25.843  1.00  0.00     0.031 C 
ATOM     56  C   UNL A   1      40.136  25.980  28.724  1.00  0.00     0.029 A 
ATOM     57  C   UNL A   1      40.627  27.316  29.010  1.00  0.00     0.049 A 
ATOM     58  H   UNL A   1      42.626  27.941  28.914  1.00  0.00     0.167 HD
ATOM     59  C   UNL A   1      46.480  29.539  27.821  1.00  0.00     0.031 A 
ATOM     60  C   UNL A   1      39.959  28.425  29.423  1.00  0.00     0.031 A 
ATOM     61  C   UNL A   1      46.642  29.342  29.237  1.00  0.00     0.049 A 
ATOM     62  C   UNL A   1      40.972  29.341  30.000  1.00  0.00     0.074 A 
ATOM     63  C   UNL A   1      47.292  28.415  30.026  1.00  0.00     0.029 A 
ATOM     64  N   UNL A   1      45.754  29.985  30.068  1.00  0.00    -0.354 N 
ATOM     65  N   UNL A   1      41.614  29.086  31.106  1.00  0.00    -0.248 NA
ATOM     66  C   UNL A   1      41.577  30.356  29.153  1.00  0.00     0.031 C 
ATOM     67  C   UNL A   1      46.422  28.207  31.136  1.00  0.00     0.029 A 
ATOM     68  C   UNL A   1      45.326  29.058  30.985  1.00  0.00     0.049 A 
ATOM     69  H   UNL A   1      45.478  30.929  30.016  1.00  0.00     0.167 HD
ATOM     70  C   UNL A   1      42.895  29.565  30.891  1.00  0.00     0.074 A 
ATOM     71  C   UNL A   1      42.779  30.445  29.730  1.00  0.00     0.031 C 
ATOM     72  C   UNL A   1      43.975  28.986  31.497  1.00  0.00     0.031 A 
BRANCH  59  73
ATOM     73  C   UNL A   1      46.647  30.902  27.197  1.00  0.00    -0.014 A 
ATOM     74  C   UNL A   1      47.929  31.489  27.160  1.00  0.00     0.010 A 
ATOM     75  C   UNL A   1      45.551  31.733  26.891  1.00  0.00     0.010 A 
ATOM     76  C   UNL A   1      48.099  32.854  26.892  1.00  0.00     0.020 A 
ATOM     77  C   UNL A   1      45.714  33.087  26.580  1.00  0.00     0.020 A 
ATOM     78  C   UNL A   1      46.985  33.647  26.619  1.00  0.00     0.054 A 
BRANCH  78  79
ATOM     79  S   UNL A   1      47.201  35.432  26.394  1.00  0.00     0.124 S 
ATOM     80  O   UNL A   1      48.116  35.481  25.257  1.00  0.00    -0.237 OA
ATOM     81  O   UNL A   1      45.836  35.880  26.129  1.00  0.00    -0.237 OA
ATOM     82  O   UNL A   1      47.760  35.873  27.670  1.00  0.00    -0.744 OA
ENDBRANCH  78  79
ENDBRANCH  59  73
BRANCH  60  83
ATOM     83  C   UNL A   1      38.560  28.853  29.145  1.00  0.00    -0.014 A 
ATOM     84  C   UNL A   1      37.673  29.159  30.197  1.00  0.00     0.010 A 
ATOM     85  C   UNL A   1      38.176  29.251  27.857  1.00  0.00     0.010 A 
ATOM     86  C   UNL A   1      36.540  29.968  29.987  1.00  0.00     0.020 A 
ATOM     87  C   UNL A   1      37.043  30.042  27.637  1.00  0.00     0.020 A 
ATOM     88  C   UNL A   1      36.259  30.445  28.709  1.00  0.00     0.054 A 
BRANCH  88  89
ATOM     89  S   UNL A   1      35.020  31.748  28.445  1.00  0.00     0.124 S 
ATOM     90  O   UNL A   1      35.738  32.694  27.599  1.00  0.00    -0.237 OA
ATOM     91  O   UNL A   1      33.921  31.030  27.806  1.00  0.00    -0.237 OA
ATOM     92  O   UNL A   1      34.736  32.218  29.803  1.00  0.00    -0.744 OA
ENDBRANCH  88  89
ENDBRANCH  60  83
BRANCH  72  93
ATOM     93  C   UNL A   1      43.723  27.987  32.605  1.00  0.00    -0.014 A 
ATOM     94  C   UNL A   1      43.929  26.599  32.460  1.00  0.00     0.010 A 
ATOM     95  C   UNL A   1      43.405  28.483  33.881  1.00  0.00     0.010 A 
ATOM     96  C   UNL A   1      43.781  25.731  33.550  1.00  0.00     0.020 A 
ATOM     97  C   UNL A   1      43.276  27.625  34.977  1.00  0.00     0.020 A 
ATOM     98  C   UNL A   1      43.452  26.251  34.805  1.00  0.00     0.054 A 
BRANCH  98  99
ATOM     99  S   UNL A   1      43.300  25.127  36.221  1.00  0.00     0.124 S 
ATOM    100  O   UNL A   1      42.147  24.309  35.855  1.00  0.00    -0.237 OA
ATOM    101  O   UNL A   1      44.587  24.433  36.227  1.00  0.00    -0.237 OA
ATOM    102  O   UNL A   1      43.086  26.024  37.356  1.00  0.00    -0.744 OA
ENDBRANCH  98  99
ENDBRANCH  72  93
ENDBRANCH  46  47
ENDBRANCH  38  41
ENDBRANCH  36  37
ENDBRANCH  35  36
ENDBRANCH   1  35
TORSDOF 20
ENDMDL
MODEL 2
REMARK VINA RESULT:     -12.6      2.259      3.167
REMARK SMILES COC(=O)c1c(NC(=O)[C@@H]2C[C@@H]2C(=O)NCCCCNC(=O)c2ccc(-c3c4nc(c(-c5ccc(S(=O)(=O)[O-])cc5)c5ccc([nH]5)c(-c5ccc(S(=O)(=O)[O-])cc5)c5nc(c(-c6ccc(S(=O)(=O)[O-])cc6)c6ccc3[nH]6)C=C5)C=C4)cc2)sc2c1CC[N@@H+](Cc1ccccc1)C2
REMARK SMILES IDX 17 1 16 2 15 3 13 4 14 5 12 7 10 8 11 9 8 10 7 11 9 13 6 14
REMARK SMILES IDX 5 15 85 16 83 17 84 18 86 19 96 20 87 21 88 22 3 24 4 25
REMARK SMILES IDX 2 26 1 27 89 28 90 29 91 30 95 31 92 32 94 33 93 34 18 35
REMARK SMILES IDX 19 36 20 37 21 38 22 40 23 41 24 42 82 43 25 44 81 45 26 46
REMARK SMILES IDX 27 47 28 48 75 49 29 50 80 51 74 52 76 53 30 54 79 55 73 56
REMARK SMILES IDX 72 57 31 59 61 60 42 61 60 62 43 63 46 64 59 65 77 66 44 67
REMARK SMILES IDX 45 68 58 70 78 71 47 72 32 73 33 74 41 75 34 76 40 77 35 78
REMARK SMILES IDX 36 79 37 80 38 81 39 82 62 83 63 84 71 85 64 86 70 87 65 88
REMARK SMILES IDX 66 89 67 90 68 91 69 92 48 93 49 94 57 95 50 96 56 97 51 98
REMARK SMILES IDX 52 99 53 100 54 101 55 102
REMARK H PARENT 15 6 7 12 88 23 20 39 76 58 46 69
REMARK Flexibility Score: inf
ROOT
ATOM      1  C   UNL A   1      37.974  22.197  25.771  1.00  0.00     0.023 C 
ENDROOT
BRANCH   1   2
ATOM      2  C   UNL A   1      37.085  21.845  24.569  1.00  0.00     0.116 C 
BRANCH   2   3
ATOM      3  N   UNL A   1      36.553  20.497  24.634  1.00  0.00    -0.356 N 
ATOM      4  C   UNL A   1      35.311  19.929  24.638  1.00  0.00     0.223 C 
ATOM      5  O   UNL A   1      35.297  18.699  24.701  1.00  0.00    -0.275 OA
ATOM      6  H   UNL A   1      37.268  19.820  24.690  1.00  0.00     0.163 HD
BRANCH   4   7
ATOM      7  C   UNL A   1      33.986  20.603  24.625  1.00  0.00     0.091 C 
ATOM      8  C   UNL A   1      33.275  21.578  25.526  1.00  0.00     0.092 C 
ATOM      9  C   UNL A   1      32.909  20.120  25.559  1.00  0.00     0.028 C 
BRANCH   8  10
ATOM     10  C   UNL A   1      33.915  22.281  26.654  1.00  0.00     0.228 C 
ATOM     11  N   UNL A   1      34.010  23.649  26.608  1.00  0.00    -0.317 N 
ATOM     12  H   UNL A   1      34.499  24.101  27.333  1.00  0.00     0.170 HD
ATOM     13  O   UNL A   1      34.404  21.635  27.575  1.00  0.00    -0.274 OA
BRANCH  11  14
ATOM     14  C   UNL A   1      33.468  24.430  25.615  1.00  0.00     0.110 A 
ATOM     15  C   UNL A   1      32.254  25.077  25.478  1.00  0.00     0.098 A 
ATOM     16  C   UNL A   1      32.156  25.642  24.151  1.00  0.00    -0.006 A 
ATOM     17  S   UNL A   1      34.511  24.618  24.292  1.00  0.00    -0.116 S 
ATOM     18  C   UNL A   1      33.334  25.478  23.442  1.00  0.00     0.065 A 
ATOM     19  C   UNL A   1      31.068  26.534  23.608  1.00  0.00     0.099 C 
ATOM     20  C   UNL A   1      33.636  26.169  22.154  1.00  0.00     0.310 C 
ATOM     21  C   UNL A   1      31.526  27.365  22.374  1.00  0.00     0.267 C 
ATOM     22  N   UNL A   1      32.976  27.473  22.121  1.00  0.00    -0.326 N 
ATOM     23  H   UNL A   1      33.071  27.801  21.160  1.00  0.00     0.348 HD
BRANCH  15  24
ATOM     24  C   UNL A   1      31.267  25.244  26.552  1.00  0.00     0.341 C 
ATOM     25  O   UNL A   1      30.658  26.268  26.764  1.00  0.00    -0.246 OA
BRANCH  24  26
ATOM     26  O   UNL A   1      31.076  24.077  27.251  1.00  0.00    -0.465 OA
ATOM     27  C   UNL A   1      30.174  23.147  26.657  1.00  0.00     0.282 C 
ENDBRANCH  24  26
ENDBRANCH  15  24
BRANCH  22  28
ATOM     28  C   UNL A   1      33.654  28.543  22.874  1.00  0.00     0.299 C 
BRANCH  28  29
ATOM     29  C   UNL A   1      33.257  28.788  24.323  1.00  0.00     0.006 A 
ATOM     30  C   UNL A   1      32.121  29.531  24.664  1.00  0.00     0.009 A 
ATOM     31  C   UNL A   1      34.027  28.263  25.370  1.00  0.00     0.009 A 
ATOM     32  C   UNL A   1      31.729  29.679  25.999  1.00  0.00     0.001 A 
ATOM     33  C   UNL A   1      33.640  28.399  26.706  1.00  0.00     0.001 A 
ATOM     34  C   UNL A   1      32.478  29.095  27.019  1.00  0.00     0.000 A 
ENDBRANCH  28  29
ENDBRANCH  22  28
ENDBRANCH  11  14
ENDBRANCH   8  10
ENDBRANCH   4   7
ENDBRANCH   2   3
ENDBRANCH   1   2
BRANCH   1  35
ATOM     35  C   UNL A   1      39.267  21.375  25.934  1.00  0.00     0.023 C 
BRANCH  35  36
ATOM     36  C   UNL A   1      40.454  22.135  26.520  1.00  0.00     0.116 C 
BRANCH  36  37
ATOM     37  N   UNL A   1      41.662  22.034  25.707  1.00  0.00    -0.352 N 
ATOM     38  C   UNL A   1      42.547  23.040  25.370  1.00  0.00     0.251 C 
ATOM     39  H   UNL A   1      41.872  21.138  25.356  1.00  0.00     0.163 HD
ATOM     40  O   UNL A   1      43.370  22.867  24.478  1.00  0.00    -0.269 OA
BRANCH  38  41
ATOM     41  C   UNL A   1      42.484  24.331  26.088  1.00  0.00     0.039 A 
ATOM     42  C   UNL A   1      41.700  25.383  25.602  1.00  0.00     0.014 A 
ATOM     43  C   UNL A   1      43.212  24.484  27.264  1.00  0.00     0.014 A 
ATOM     44  C   UNL A   1      41.590  26.559  26.349  1.00  0.00     0.010 A 
ATOM     45  C   UNL A   1      43.028  25.608  28.042  1.00  0.00     0.010 A 
ATOM     46  C   UNL A   1      42.244  26.665  27.584  1.00  0.00    -0.014 A 
BRANCH  46  47
ATOM     47  C   UNL A   1      42.036  27.829  28.452  1.00  0.00     0.031 A 
ATOM     48  C   UNL A   1      43.064  28.906  28.371  1.00  0.00     0.074 A 
ATOM     49  C   UNL A   1      40.889  28.069  29.126  1.00  0.00     0.049 A 
ATOM     50  N   UNL A   1      43.857  29.313  29.307  1.00  0.00    -0.248 NA
ATOM     51  C   UNL A   1      43.285  29.567  27.077  1.00  0.00     0.031 C 
ATOM     52  C   UNL A   1      39.646  27.296  29.105  1.00  0.00     0.029 A 
ATOM     53  N   UNL A   1      40.557  29.150  29.890  1.00  0.00    -0.354 N 
ATOM     54  C   UNL A   1      44.566  30.393  28.785  1.00  0.00     0.074 A 
ATOM     55  C   UNL A   1      44.265  30.424  27.374  1.00  0.00     0.031 C 
ATOM     56  C   UNL A   1      38.643  28.045  29.617  1.00  0.00     0.029 A 
ATOM     57  C   UNL A   1      39.193  29.280  30.144  1.00  0.00     0.049 A 
ATOM     58  H   UNL A   1      41.226  29.785  30.233  1.00  0.00     0.167 HD
ATOM     59  C   UNL A   1      45.213  31.295  29.577  1.00  0.00     0.031 A 
ATOM     60  C   UNL A   1      38.569  30.345  30.712  1.00  0.00     0.031 A 
ATOM     61  C   UNL A   1      45.294  30.856  30.945  1.00  0.00     0.049 A 
ATOM     62  C   UNL A   1      39.602  31.086  31.475  1.00  0.00     0.074 A 
ATOM     63  C   UNL A   1      45.852  29.771  31.590  1.00  0.00     0.029 A 
ATOM     64  N   UNL A   1      44.403  31.406  31.837  1.00  0.00    -0.354 N 
ATOM     65  N   UNL A   1      40.173  30.610  32.546  1.00  0.00    -0.248 NA
ATOM     66  C   UNL A   1      40.303  32.188  30.836  1.00  0.00     0.031 C 
ATOM     67  C   UNL A   1      44.918  29.436  32.614  1.00  0.00     0.029 A 
ATOM     68  C   UNL A   1      43.880  30.368  32.566  1.00  0.00     0.049 A 
ATOM     69  H   UNL A   1      44.183  32.361  31.935  1.00  0.00     0.167 HD
ATOM     70  C   UNL A   1      41.489  31.036  32.465  1.00  0.00     0.074 A 
ATOM     71  C   UNL A   1      41.478  32.103  31.467  1.00  0.00     0.031 C 
ATOM     72  C   UNL A   1      42.503  30.298  33.006  1.00  0.00     0.031 A 
BRANCH  59  73
ATOM     73  C   UNL A   1      45.486  32.730  29.200  1.00  0.00    -0.014 A 
ATOM     74  C   UNL A   1      44.399  33.613  29.022  1.00  0.00     0.010 A 
ATOM     75  C   UNL A   1      46.749  33.169  28.756  1.00  0.00     0.010 A 
ATOM     76  C   UNL A   1      44.560  34.846  28.375  1.00  0.00     0.020 A 
ATOM     77  C   UNL A   1      46.927  34.415  28.148  1.00  0.00     0.020 A 
ATOM     78  C   UNL A   1      45.823  35.230  27.928  1.00  0.00     0.054 A 
BRANCH  78  79
ATOM     79  S   UNL A   1      46.001  36.768  26.986  1.00  0.00     0.124 S 
ATOM     80  O   UNL A   1      46.530  36.280  25.715  1.00  0.00    -0.237 OA
ATOM     81  O   UNL A   1      44.630  37.271  26.950  1.00  0.00    -0.237 OA
ATOM     82  O   UNL A   1      46.928  37.558  27.791  1.00  0.00    -0.744 OA
ENDBRANCH  78  79
ENDBRANCH  59  73
BRANCH  60  83
ATOM     83  C   UNL A   1      37.211  30.901  30.456  1.00  0.00    -0.014 A 
ATOM     84  C   UNL A   1      36.606  31.786  31.372  1.00  0.00     0.010 A 
ATOM     85  C   UNL A   1      36.629  30.809  29.185  1.00  0.00     0.010 A 
ATOM     86  C   UNL A   1      35.570  32.654  30.976  1.00  0.00     0.020 A 
ATOM     87  C   UNL A   1      35.589  31.657  28.788  1.00  0.00     0.020 A 
ATOM     88  C   UNL A   1      35.100  32.614  29.665  1.00  0.00     0.054 A 
BRANCH  88  89
ATOM     89  S   UNL A   1      34.015  33.921  29.018  1.00  0.00     0.124 S 
ATOM     90  O   UNL A   1      33.281  34.333  30.208  1.00  0.00    -0.237 OA
ATOM     91  O   UNL A   1      34.961  34.898  28.484  1.00  0.00    -0.237 OA
ATOM     92  O   UNL A   1      33.220  33.224  28.006  1.00  0.00    -0.744 OA
ENDBRANCH  88  89
ENDBRANCH  60  83
BRANCH  72  93
ATOM     93  C   UNL A   1      42.142  29.146  33.918  1.00  0.00    -0.014 A 
ATOM     94  C   UNL A   1      41.968  27.822  33.464  1.00  0.00     0.010 A 
ATOM     95  C   UNL A   1      42.119  29.382  35.303  1.00  0.00     0.010 A 
ATOM     96  C   UNL A   1      41.738  26.774  34.368  1.00  0.00     0.020 A 
ATOM     97  C   UNL A   1      41.910  28.340  36.211  1.00  0.00     0.020 A 
ATOM     98  C   UNL A   1      41.708  27.042  35.739  1.00  0.00     0.054 A 
BRANCH  98  99
ATOM     99  S   UNL A   1      41.448  25.678  36.906  1.00  0.00     0.124 S 
ATOM    100  O   UNL A   1      41.121  24.562  36.022  1.00  0.00    -0.237 OA
ATOM    101  O   UNL A   1      42.738  25.581  37.588  1.00  0.00    -0.237 OA
ATOM    102  O   UNL A   1      40.346  26.143  37.747  1.00  0.00    -0.744 OA
ENDBRANCH  98  99
ENDBRANCH  72  93
ENDBRANCH  46  47
ENDBRANCH  38  41
ENDBRANCH  36  37
ENDBRANCH  35  36
ENDBRANCH   1  35
TORSDOF 20
ENDMDL
MODEL 3
REMARK VINA RESULT:     -12.2      1.556      2.332
REMARK SMILES COC(=O)c1c(NC(=O)[C@@H]2C[C@@H]2C(=O)NCCCCNC(=O)c2ccc(-c3c4nc(c(-c5ccc(S(=O)(=O)[O-])cc5)c5ccc([nH]5)c(-c5ccc(S(=O)(=O)[O-])cc5)c5nc(c(-c6ccc(S(=O)(=O)[O-])cc6)c6ccc3[nH]6)C=C5)C=C4)cc2)sc2c1CC[N@@H+](Cc1ccccc1)C2
REMARK SMILES IDX 17 1 16 2 15 3 13 4 14 5 12 7 10 8 11 9 8 10 7 11 9 13 6 14
REMARK SMILES IDX 5 15 85 16 83 17 84 18 86 19 96 20 87 21 88 22 3 24 4 25
REMARK SMILES IDX 2 26 1 27 89 28 90 29 91 30 95 31 92 32 94 33 93 34 18 35
REMARK SMILES IDX 19 36 20 37 21 38 22 40 23 41 24 42 82 43 25 44 81 45 26 46
REMARK SMILES IDX 27 47 28 48 75 49 29 50 80 51 74 52 76 53 30 54 79 55 73 56
REMARK SMILES IDX 72 57 31 59 61 60 42 61 60 62 43 63 46 64 59 65 77 66 44 67
REMARK SMILES IDX 45 68 58 70 78 71 47 72 32 73 33 74 41 75 34 76 40 77 35 78
REMARK SMILES IDX 36 79 37 80 38 81 39 82 62 83 63 84 71 85 64 86 70 87 65 88
REMARK SMILES IDX 66 89 67 90 68 91 69 92 48 93 49 94 57 95 50 96 56 97 51 98
REMARK SMILES IDX 52 99 53 100 54 101 55 102
REMARK H PARENT 15 6 7 12 88 23 20 39 76 58 46 69
REMARK Flexibility Score: inf
ROOT
ATOM      1  C   UNL A   1      40.152  21.066  26.482  1.00  0.00     0.023 C 
ENDROOT
BRANCH   1   2
ATOM      2  C   UNL A   1      38.892  21.442  25.689  1.00  0.00     0.116 C 
BRANCH   2   3
ATOM      3  N   UNL A   1      38.164  22.552  26.276  1.00  0.00    -0.356 N 
ATOM      4  C   UNL A   1      37.188  23.414  25.865  1.00  0.00     0.223 C 
ATOM      5  O   UNL A   1      36.828  24.238  26.708  1.00  0.00    -0.275 OA
ATOM      6  H   UNL A   1      38.444  22.727  27.204  1.00  0.00     0.163 HD
BRANCH   4   7
ATOM      7  C   UNL A   1      36.546  23.515  24.528  1.00  0.00     0.091 C 
ATOM      8  C   UNL A   1      35.481  22.744  23.794  1.00  0.00     0.092 C 
ATOM      9  C   UNL A   1      36.931  22.533  23.454  1.00  0.00     0.028 C 
BRANCH   8  10
ATOM     10  C   UNL A   1      34.633  21.709  24.414  1.00  0.00     0.228 C 
ATOM     11  N   UNL A   1      33.291  21.958  24.559  1.00  0.00    -0.317 N 
ATOM     12  H   UNL A   1      32.747  21.289  25.034  1.00  0.00     0.170 HD
ATOM     13  O   UNL A   1      35.144  20.680  24.843  1.00  0.00    -0.274 OA
BRANCH  11  14
ATOM     14  C   UNL A   1      32.656  23.081  24.083  1.00  0.00     0.110 A 
ATOM     15  C   UNL A   1      31.655  23.887  24.590  1.00  0.00     0.098 A 
ATOM     16  C   UNL A   1      31.266  24.858  23.592  1.00  0.00    -0.006 A 
ATOM     17  S   UNL A   1      33.222  23.549  22.556  1.00  0.00    -0.116 S 
ATOM     18  C   UNL A   1      32.072  24.782  22.470  1.00  0.00     0.065 A 
ATOM     19  C   UNL A   1      30.305  26.009  23.752  1.00  0.00     0.099 C 
ATOM     20  C   UNL A   1      32.091  25.806  21.385  1.00  0.00     0.310 C 
ATOM     21  C   UNL A   1      30.518  27.128  22.691  1.00  0.00     0.267 C 
ATOM     22  N   UNL A   1      31.787  27.125  21.938  1.00  0.00    -0.326 N 
ATOM     23  H   UNL A   1      31.638  27.730  21.131  1.00  0.00     0.348 HD
BRANCH  15  24
ATOM     24  C   UNL A   1      31.143  23.824  25.965  1.00  0.00     0.341 C 
ATOM     25  O   UNL A   1      31.287  24.702  26.786  1.00  0.00    -0.246 OA
BRANCH  24  26
ATOM     26  O   UNL A   1      30.431  22.671  26.189  1.00  0.00    -0.465 OA
ATOM     27  C   UNL A   1      29.473  22.737  27.241  1.00  0.00     0.282 C 
ENDBRANCH  24  26
ENDBRANCH  15  24
BRANCH  22  28
ATOM     28  C   UNL A   1      32.908  27.797  22.617  1.00  0.00     0.299 C 
BRANCH  28  29
ATOM     29  C   UNL A   1      32.847  27.987  24.127  1.00  0.00     0.006 A 
ATOM     30  C   UNL A   1      33.534  27.143  25.007  1.00  0.00     0.009 A 
ATOM     31  C   UNL A   1      32.092  29.029  24.682  1.00  0.00     0.009 A 
ATOM     32  C   UNL A   1      33.527  27.381  26.386  1.00  0.00     0.001 A 
ATOM     33  C   UNL A   1      32.085  29.279  26.057  1.00  0.00     0.001 A 
ATOM     34  C   UNL A   1      32.820  28.462  26.909  1.00  0.00     0.000 A 
ENDBRANCH  28  29
ENDBRANCH  22  28
ENDBRANCH  11  14
ENDBRANCH   8  10
ENDBRANCH   4   7
ENDBRANCH   2   3
ENDBRANCH   1   2
BRANCH   1  35
ATOM     35  C   UNL A   1      40.856  19.757  26.075  1.00  0.00     0.023 C 
BRANCH  35  36
ATOM     36  C   UNL A   1      42.268  19.577  26.626  1.00  0.00     0.116 C 
BRANCH  36  37
ATOM     37  N   UNL A   1      43.283  19.452  25.585  1.00  0.00    -0.352 N 
ATOM     38  C   UNL A   1      43.955  20.464  24.927  1.00  0.00     0.251 C 
ATOM     39  H   UNL A   1      43.518  18.534  25.320  1.00  0.00     0.163 HD
ATOM     40  O   UNL A   1      44.588  20.224  23.905  1.00  0.00    -0.269 OA
BRANCH  38  41
ATOM     41  C   UNL A   1      43.892  21.842  25.460  1.00  0.00     0.039 A 
ATOM     42  C   UNL A   1      42.987  22.772  24.938  1.00  0.00     0.014 A 
ATOM     43  C   UNL A   1      44.745  22.202  26.500  1.00  0.00     0.014 A 
ATOM     44  C   UNL A   1      42.889  24.037  25.522  1.00  0.00     0.010 A 
ATOM     45  C   UNL A   1      44.581  23.417  27.130  1.00  0.00     0.010 A 
ATOM     46  C   UNL A   1      43.679  24.356  26.635  1.00  0.00    -0.014 A 
BRANCH  46  47
ATOM     47  C   UNL A   1      43.499  25.623  27.352  1.00  0.00     0.031 A 
ATOM     48  C   UNL A   1      44.482  26.701  27.045  1.00  0.00     0.074 A 
ATOM     49  C   UNL A   1      42.400  25.927  28.077  1.00  0.00     0.049 A 
ATOM     50  N   UNL A   1      45.330  27.250  27.851  1.00  0.00    -0.248 NA
ATOM     51  C   UNL A   1      44.581  27.183  25.659  1.00  0.00     0.031 C 
ATOM     52  C   UNL A   1      41.185  25.131  28.261  1.00  0.00     0.029 A 
ATOM     53  N   UNL A   1      42.091  27.095  28.713  1.00  0.00    -0.354 N 
ATOM     54  C   UNL A   1      45.961  28.264  27.132  1.00  0.00     0.074 A 
ATOM     55  C   UNL A   1      45.552  28.095  25.759  1.00  0.00     0.031 C 
ATOM     56  C   UNL A   1      40.200  25.920  28.745  1.00  0.00     0.029 A 
ATOM     57  C   UNL A   1      40.748  27.228  29.055  1.00  0.00     0.049 A 
ATOM     58  H   UNL A   1      42.763  27.785  28.913  1.00  0.00     0.167 HD
ATOM     59  C   UNL A   1      46.636  29.280  27.741  1.00  0.00     0.031 A 
ATOM     60  C   UNL A   1      40.134  28.347  29.523  1.00  0.00     0.031 A 
ATOM     61  C   UNL A   1      46.836  29.034  29.145  1.00  0.00     0.049 A 
ATOM     62  C   UNL A   1      41.196  29.207  30.094  1.00  0.00     0.074 A 
ATOM     63  C   UNL A   1      47.477  28.061  29.883  1.00  0.00     0.029 A 
ATOM     64  N   UNL A   1      45.998  29.682  30.023  1.00  0.00    -0.354 N 
ATOM     65  N   UNL A   1      41.864  28.896  31.169  1.00  0.00    -0.248 NA
ATOM     66  C   UNL A   1      41.810  30.227  29.258  1.00  0.00     0.031 C 
ATOM     67  C   UNL A   1      46.636  27.848  31.015  1.00  0.00     0.029 A 
ATOM     68  C   UNL A   1      45.567  28.742  30.925  1.00  0.00     0.049 A 
ATOM     69  H   UNL A   1      45.755  30.635  30.009  1.00  0.00     0.167 HD
ATOM     70  C   UNL A   1      43.154  29.336  30.927  1.00  0.00     0.074 A 
ATOM     71  C   UNL A   1      43.032  30.256  29.798  1.00  0.00     0.031 C 
ATOM     72  C   UNL A   1      44.231  28.702  31.479  1.00  0.00     0.031 A 
BRANCH  59  73
ATOM     73  C   UNL A   1      46.832  30.656  27.153  1.00  0.00    -0.014 A 
ATOM     74  C   UNL A   1      48.124  31.223  27.145  1.00  0.00     0.010 A 
ATOM     75  C   UNL A   1      45.753  31.512  26.856  1.00  0.00     0.010 A 
ATOM     76  C   UNL A   1      48.319  32.591  26.913  1.00  0.00     0.020 A 
ATOM     77  C   UNL A   1      45.941  32.870  26.581  1.00  0.00     0.020 A 
ATOM     78  C   UNL A   1      47.220  33.408  26.648  1.00  0.00     0.054 A 
BRANCH  78  79
ATOM     79  S   UNL A   1      47.467  35.195  26.469  1.00  0.00     0.124 S 
ATOM     80  O   UNL A   1      46.392  35.555  25.549  1.00  0.00    -0.237 OA
ATOM     81  O   UNL A   1      47.312  35.669  27.842  1.00  0.00    -0.237 OA
ATOM     82  O   UNL A   1      48.820  35.301  25.927  1.00  0.00    -0.744 OA
ENDBRANCH  78  79
ENDBRANCH  59  73
BRANCH  60  83
ATOM     83  C   UNL A   1      38.742  28.831  29.304  1.00  0.00    -0.014 A 
ATOM     84  C   UNL A   1      37.883  29.080  30.393  1.00  0.00     0.010 A 
ATOM     85  C   UNL A   1      38.349  29.337  28.058  1.00  0.00     0.010 A 
ATOM     86  C   UNL A   1      36.769  29.933  30.267  1.00  0.00     0.020 A 
ATOM     87  C   UNL A   1      37.235  30.172  27.920  1.00  0.00     0.020 A 
ATOM     88  C   UNL A   1      36.481  30.514  29.033  1.00  0.00     0.054 A 
BRANCH  88  89
ATOM     89  S   UNL A   1      35.274  31.865  28.893  1.00  0.00     0.124 S 
ATOM     90  O   UNL A   1      36.036  32.891  28.190  1.00  0.00    -0.237 OA
ATOM     91  O   UNL A   1      34.184  31.254  28.138  1.00  0.00    -0.237 OA
ATOM     92  O   UNL A   1      34.954  32.173  30.288  1.00  0.00    -0.744 OA
ENDBRANCH  88  89
ENDBRANCH  60  83
BRANCH  72  93
ATOM     93  C   UNL A   1      43.979  27.678  32.564  1.00  0.00    -0.014 A 
ATOM     94  C   UNL A   1      43.491  28.009  33.846  1.00  0.00     0.010 A 
ATOM     95  C   UNL A   1      44.104  26.318  32.231  1.00  0.00     0.010 A 
ATOM     96  C   UNL A   1      43.176  27.010  34.778  1.00  0.00     0.020 A 
ATOM     97  C   UNL A   1      43.772  25.316  33.148  1.00  0.00     0.020 A 
ATOM     98  C   UNL A   1      43.322  25.667  34.422  1.00  0.00     0.054 A 
BRANCH  98  99
ATOM     99  S   UNL A   1      42.876  24.377  35.618  1.00  0.00     0.124 S 
ATOM    100  O   UNL A   1      43.443  23.175  35.015  1.00  0.00    -0.237 OA
ATOM    101  O   UNL A   1      43.528  24.832  36.846  1.00  0.00    -0.237 OA
ATOM    102  O   UNL A   1      41.415  24.422  35.651  1.00  0.00    -0.744 OA
ENDBRANCH  98  99
ENDBRANCH  72  93
ENDBRANCH  46  47
ENDBRANCH  38  41
ENDBRANCH  36  37
ENDBRANCH  35  36
ENDBRANCH   1  35
TORSDOF 20
ENDMDL
