MODEL 1
REMARK VINA RESULT:     -10.0      0.000      0.000
REMARK SMILES C[C@@H]1[C@H](C(=O)NCCCCNC(=O)c2ccc(-c3c4nc(c(-c5ccc(S(=O)(=O)[O-])cc5)c5ccc([nH]5)c(-c5ccc(S(=O)(=O)[O-])cc5)c5nc(c(-c6ccc(S(=O)(=O)[O-])cc6)c6ccc3[nH]6)C=C5)C=C4)cc2)CCN1C(=O)c1c(Cl)cccc1[N+](=O)[O-]
REMARK SMILES IDX 8 1 7 2 6 3 4 4 5 5 3 7 1 8 2 9 76 10 74 11 75 12 77 13
REMARK SMILES IDX 78 14 79 15 80 16 85 17 81 18 82 19 84 20 83 21 86 22 87 23
REMARK SMILES IDX 88 24 9 25 10 26 11 27 12 28 13 30 14 31 15 32 73 33 16 34
REMARK SMILES IDX 72 35 17 36 18 37 19 38 66 39 20 40 71 41 65 42 67 43 21 44
REMARK SMILES IDX 70 45 64 46 63 47 22 49 52 50 33 51 51 52 34 53 37 54 50 55
REMARK SMILES IDX 68 56 35 57 36 58 49 60 69 61 38 62 23 63 24 64 32 65 25 66
REMARK SMILES IDX 31 67 26 68 27 69 28 70 29 71 30 72 53 73 54 74 62 75 55 76
REMARK SMILES IDX 61 77 56 78 57 79 58 80 59 81 60 82 39 83 40 84 48 85 41 86
REMARK SMILES IDX 47 87 42 88 43 89 44 90 45 91 46 92
REMARK H PARENT 6 6 11 29 67 48 37 59
REMARK Flexibility Score: inf
ROOT
ATOM      1  C   UNL A   1      33.684  34.782  29.154  1.00  0.00     0.023 C 
ENDROOT
BRANCH   1   2
ATOM      2  C   UNL A   1      34.059  35.313  30.539  1.00  0.00     0.116 C 
BRANCH   2   3
ATOM      3  N   UNL A   1      33.566  34.464  31.611  1.00  0.00    -0.356 N 
ATOM      4  C   UNL A   1      34.154  33.465  32.319  1.00  0.00     0.225 C 
ATOM      5  O   UNL A   1      33.459  32.892  33.166  1.00  0.00    -0.275 OA
ATOM      6  H   UNL A   1      32.635  34.646  31.871  1.00  0.00     0.163 HD
BRANCH   4   7
ATOM      7  C   UNL A   1      35.594  33.014  32.113  1.00  0.00     0.102 C 
ATOM      8  C   UNL A   1      36.215  34.587  34.093  1.00  0.00     0.032 C 
ATOM      9  C   UNL A   1      36.689  33.623  33.019  1.00  0.00     0.094 C 
ATOM     10  N   UNL A   1      37.471  32.463  33.492  1.00  0.00    -0.335 N 
ATOM     11  C   UNL A   1      35.783  31.497  32.133  1.00  0.00     0.037 C 
ATOM     12  C   UNL A   1      37.169  31.286  32.701  1.00  0.00     0.121 C 
BRANCH  10  13
ATOM     13  C   UNL A   1      38.618  32.416  34.274  1.00  0.00     0.262 C 
ATOM     14  O   UNL A   1      39.341  31.427  34.368  1.00  0.00    -0.269 OA
BRANCH  13  15
ATOM     15  C   UNL A   1      39.024  33.589  35.053  1.00  0.00     0.136 A 
ATOM     16  C   UNL A   1      39.774  34.599  34.437  1.00  0.00     0.060 A 
ATOM     17  C   UNL A   1      38.732  33.701  36.418  1.00  0.00     0.283 A 
ATOM     18  Cl  UNL A   1      40.208  34.543  32.765  1.00  0.00    -0.083 Cl
ATOM     19  C   UNL A   1      40.183  35.720  35.172  1.00  0.00     0.022 A 
ATOM     20  C   UNL A   1      39.126  34.833  37.152  1.00  0.00     0.086 A 
ATOM     21  C   UNL A   1      39.852  35.842  36.523  1.00  0.00     0.009 A 
BRANCH  17  22
ATOM     22  N   UNL A   1      37.959  32.682  37.119  1.00  0.00     0.063 N 
ATOM     23  O   UNL A   1      36.729  32.837  37.138  1.00  0.00    -0.258 OA
ATOM     24  O   UNL A   1      38.560  31.751  37.660  1.00  0.00    -0.258 OA
ENDBRANCH  17  22
ENDBRANCH  13  15
ENDBRANCH  10  13
ENDBRANCH   4   7
ENDBRANCH   2   3
ENDBRANCH   1   2
BRANCH   1  25
ATOM     25  C   UNL A   1      34.846  34.389  28.253  1.00  0.00     0.023 C 
BRANCH  25  26
ATOM     26  C   UNL A   1      35.357  32.972  28.441  1.00  0.00     0.116 C 
BRANCH  26  27
ATOM     27  N   UNL A   1      34.401  31.955  28.027  1.00  0.00    -0.352 N 
ATOM     28  C   UNL A   1      34.595  30.605  27.838  1.00  0.00     0.251 C 
ATOM     29  H   UNL A   1      33.487  32.279  27.858  1.00  0.00     0.163 HD
ATOM     30  O   UNL A   1      33.703  29.912  27.372  1.00  0.00    -0.269 OA
BRANCH  28  31
ATOM     31  C   UNL A   1      35.909  30.012  28.172  1.00  0.00     0.039 A 
ATOM     32  C   UNL A   1      36.963  30.142  27.264  1.00  0.00     0.014 A 
ATOM     33  C   UNL A   1      36.106  29.373  29.397  1.00  0.00     0.014 A 
ATOM     34  C   UNL A   1      38.236  29.694  27.621  1.00  0.00     0.010 A 
ATOM     35  C   UNL A   1      37.390  29.020  29.788  1.00  0.00     0.010 A 
ATOM     36  C   UNL A   1      38.468  29.166  28.901  1.00  0.00    -0.014 A 
BRANCH  36  37
ATOM     37  C   UNL A   1      39.818  28.722  29.330  1.00  0.00     0.031 A 
ATOM     38  C   UNL A   1      40.688  29.659  30.125  1.00  0.00     0.074 A 
ATOM     39  C   UNL A   1      40.289  27.521  28.943  1.00  0.00     0.049 A 
ATOM     40  N   UNL A   1      41.928  29.507  30.513  1.00  0.00    -0.248 NA
ATOM     41  C   UNL A   1      40.098  30.957  30.501  1.00  0.00     0.031 C 
ATOM     42  C   UNL A   1      39.562  26.543  28.130  1.00  0.00     0.029 A 
ATOM     43  N   UNL A   1      41.500  26.920  29.177  1.00  0.00    -0.354 N 
ATOM     44  C   UNL A   1      42.272  30.695  31.147  1.00  0.00     0.074 A 
ATOM     45  C   UNL A   1      41.133  31.579  31.042  1.00  0.00     0.031 C 
ATOM     46  C   UNL A   1      40.329  25.453  27.962  1.00  0.00     0.029 A 
ATOM     47  C   UNL A   1      41.614  25.668  28.619  1.00  0.00     0.049 A 
ATOM     48  H   UNL A   1      42.220  27.344  29.697  1.00  0.00     0.167 HD
ATOM     49  C   UNL A   1      43.423  31.016  31.785  1.00  0.00     0.031 A 
ATOM     50  C   UNL A   1      42.637  24.793  28.637  1.00  0.00     0.031 A 
ATOM     51  C   UNL A   1      44.540  30.121  31.915  1.00  0.00     0.049 A 
ATOM     52  C   UNL A   1      43.898  25.157  29.374  1.00  0.00     0.074 A 
ATOM     53  C   UNL A   1      45.732  30.324  32.590  1.00  0.00     0.029 A 
ATOM     54  N   UNL A   1      44.600  28.849  31.367  1.00  0.00    -0.354 N 
ATOM     55  N   UNL A   1      44.185  26.266  30.013  1.00  0.00    -0.248 NA
ATOM     56  C   UNL A   1      44.963  24.147  29.406  1.00  0.00     0.031 C 
ATOM     57  C   UNL A   1      46.526  29.185  32.419  1.00  0.00     0.029 A 
ATOM     58  C   UNL A   1      45.810  28.256  31.681  1.00  0.00     0.049 A 
ATOM     59  H   UNL A   1      43.886  28.429  30.835  1.00  0.00     0.167 HD
ATOM     60  C   UNL A   1      45.453  26.075  30.550  1.00  0.00     0.074 A 
ATOM     61  C   UNL A   1      45.871  24.741  30.169  1.00  0.00     0.031 C 
ATOM     62  C   UNL A   1      46.202  26.924  31.297  1.00  0.00     0.031 A 
BRANCH  49  63
ATOM     63  C   UNL A   1      43.519  32.392  32.387  1.00  0.00    -0.014 A 
ATOM     64  C   UNL A   1      43.904  33.500  31.609  1.00  0.00     0.010 A 
ATOM     65  C   UNL A   1      43.215  32.585  33.747  1.00  0.00     0.010 A 
ATOM     66  C   UNL A   1      44.038  34.762  32.191  1.00  0.00     0.020 A 
ATOM     67  C   UNL A   1      43.316  33.853  34.325  1.00  0.00     0.020 A 
ATOM     68  C   UNL A   1      43.749  34.930  33.548  1.00  0.00     0.054 A 
BRANCH  68  69
ATOM     69  S   UNL A   1      43.926  36.581  34.278  1.00  0.00     0.124 S 
ATOM     70  O   UNL A   1      43.624  36.321  35.683  1.00  0.00    -0.237 OA
ATOM     71  O   UNL A   1      45.317  36.916  33.986  1.00  0.00    -0.237 OA
ATOM     72  O   UNL A   1      42.933  37.382  33.565  1.00  0.00    -0.744 OA
ENDBRANCH  68  69
ENDBRANCH  49  63
BRANCH  50  73
ATOM     73  C   UNL A   1      42.497  23.471  27.968  1.00  0.00    -0.014 A 
ATOM     74  C   UNL A   1      43.200  23.197  26.781  1.00  0.00     0.010 A 
ATOM     75  C   UNL A   1      41.679  22.470  28.523  1.00  0.00     0.010 A 
ATOM     76  C   UNL A   1      43.075  21.955  26.152  1.00  0.00     0.020 A 
ATOM     77  C   UNL A   1      41.572  21.217  27.912  1.00  0.00     0.020 A 
ATOM     78  C   UNL A   1      42.263  20.970  26.723  1.00  0.00     0.054 A 
BRANCH  78  79
ATOM     79  S   UNL A   1      42.162  19.345  25.922  1.00  0.00     0.124 S 
ATOM     80  O   UNL A   1      40.728  19.211  25.688  1.00  0.00    -0.237 OA
ATOM     81  O   UNL A   1      42.985  19.530  24.729  1.00  0.00    -0.237 OA
ATOM     82  O   UNL A   1      42.724  18.437  26.921  1.00  0.00    -0.744 OA
ENDBRANCH  78  79
ENDBRANCH  50  73
BRANCH  62  83
ATOM     83  C   UNL A   1      47.532  26.421  31.789  1.00  0.00    -0.014 A 
ATOM     84  C   UNL A   1      48.711  26.633  31.055  1.00  0.00     0.010 A 
ATOM     85  C   UNL A   1      47.605  25.777  33.038  1.00  0.00     0.010 A 
ATOM     86  C   UNL A   1      49.938  26.181  31.548  1.00  0.00     0.020 A 
ATOM     87  C   UNL A   1      48.832  25.348  33.546  1.00  0.00     0.020 A 
ATOM     88  C   UNL A   1      49.991  25.541  32.791  1.00  0.00     0.054 A 
BRANCH  88  89
ATOM     89  S   UNL A   1      51.600  25.002  33.430  1.00  0.00     0.124 S 
ATOM     90  O   UNL A   1      52.499  25.375  32.342  1.00  0.00    -0.237 OA
ATOM     91  O   UNL A   1      51.738  25.786  34.656  1.00  0.00    -0.237 OA
ATOM     92  O   UNL A   1      51.427  23.566  33.633  1.00  0.00    -0.744 OA
ENDBRANCH  88  89
ENDBRANCH  62  83
ENDBRANCH  36  37
ENDBRANCH  28  31
ENDBRANCH  26  27
ENDBRANCH  25  26
ENDBRANCH   1  25
TORSDOF 17
ENDMDL
MODEL 2
REMARK VINA RESULT:      -9.8      3.986      7.261
REMARK SMILES C[C@@H]1[C@H](C(=O)NCCCCNC(=O)c2ccc(-c3c4nc(c(-c5ccc(S(=O)(=O)[O-])cc5)c5ccc([nH]5)c(-c5ccc(S(=O)(=O)[O-])cc5)c5nc(c(-c6ccc(S(=O)(=O)[O-])cc6)c6ccc3[nH]6)C=C5)C=C4)cc2)CCN1C(=O)c1c(Cl)cccc1[N+](=O)[O-]
REMARK SMILES IDX 8 1 7 2 6 3 4 4 5 5 3 7 1 8 2 9 76 10 74 11 75 12 77 13
REMARK SMILES IDX 78 14 79 15 80 16 85 17 81 18 82 19 84 20 83 21 86 22 87 23
REMARK SMILES IDX 88 24 9 25 10 26 11 27 12 28 13 30 14 31 15 32 73 33 16 34
REMARK SMILES IDX 72 35 17 36 18 37 19 38 66 39 20 40 71 41 65 42 67 43 21 44
REMARK SMILES IDX 70 45 64 46 63 47 22 49 52 50 33 51 51 52 34 53 37 54 50 55
REMARK SMILES IDX 68 56 35 57 36 58 49 60 69 61 38 62 23 63 24 64 32 65 25 66
REMARK SMILES IDX 31 67 26 68 27 69 28 70 29 71 30 72 53 73 54 74 62 75 55 76
REMARK SMILES IDX 61 77 56 78 57 79 58 80 59 81 60 82 39 83 40 84 48 85 41 86
REMARK SMILES IDX 47 87 42 88 43 89 44 90 45 91 46 92
REMARK H PARENT 6 6 11 29 67 48 37 59
REMARK Flexibility Score: inf
ROOT
ATOM      1  C   UNL A   1      31.525  29.076  26.116  1.00  0.00     0.023 C 
ENDROOT
BRANCH   1   2
ATOM      2  C   UNL A   1      31.433  29.042  24.590  1.00  0.00     0.116 C 
BRANCH   2   3
ATOM      3  N   UNL A   1      32.727  29.215  23.952  1.00  0.00    -0.356 N 
ATOM      4  C   UNL A   1      33.426  28.430  23.092  1.00  0.00     0.225 C 
ATOM      5  O   UNL A   1      34.538  28.837  22.738  1.00  0.00    -0.275 OA
ATOM      6  H   UNL A   1      33.180  30.056  24.187  1.00  0.00     0.163 HD
BRANCH   4   7
ATOM      7  C   UNL A   1      32.924  27.092  22.568  1.00  0.00     0.102 C 
ATOM      8  C   UNL A   1      34.116  26.008  24.614  1.00  0.00     0.032 C 
ATOM      9  C   UNL A   1      33.308  25.810  23.343  1.00  0.00     0.094 C 
ATOM     10  N   UNL A   1      32.041  25.068  23.494  1.00  0.00    -0.335 N 
ATOM     11  C   UNL A   1      31.414  27.040  22.332  1.00  0.00     0.037 C 
ATOM     12  C   UNL A   1      31.026  25.603  22.605  1.00  0.00     0.121 C 
BRANCH  10  13
ATOM     13  C   UNL A   1      31.796  23.816  24.042  1.00  0.00     0.262 C 
ATOM     14  O   UNL A   1      30.903  23.065  23.658  1.00  0.00    -0.269 OA
BRANCH  13  15
ATOM     15  C   UNL A   1      32.623  23.325  25.147  1.00  0.00     0.136 A 
ATOM     16  C   UNL A   1      33.847  22.704  24.869  1.00  0.00     0.060 A 
ATOM     17  C   UNL A   1      32.193  23.407  26.478  1.00  0.00     0.283 A 
ATOM     18  Cl  UNL A   1      34.454  22.530  23.260  1.00  0.00    -0.083 Cl
ATOM     19  C   UNL A   1      34.642  22.215  25.914  1.00  0.00     0.022 A 
ATOM     20  C   UNL A   1      32.998  22.933  27.529  1.00  0.00     0.086 A 
ATOM     21  C   UNL A   1      34.224  22.338  27.241  1.00  0.00     0.009 A 
BRANCH  17  22
ATOM     22  N   UNL A   1      30.928  24.038  26.834  1.00  0.00     0.063 N 
ATOM     23  O   UNL A   1      30.877  25.272  26.732  1.00  0.00    -0.258 OA
ATOM     24  O   UNL A   1      30.001  23.325  27.227  1.00  0.00    -0.258 OA
ENDBRANCH  17  22
ENDBRANCH  13  15
ENDBRANCH  10  13
ENDBRANCH   4   7
ENDBRANCH   2   3
ENDBRANCH   1   2
BRANCH   1  25
ATOM     25  C   UNL A   1      32.431  28.033  26.755  1.00  0.00     0.023 C 
BRANCH  25  26
ATOM     26  C   UNL A   1      33.754  28.563  27.278  1.00  0.00     0.116 C 
BRANCH  26  27
ATOM     27  N   UNL A   1      33.692  29.956  27.696  1.00  0.00    -0.352 N 
ATOM     28  C   UNL A   1      34.662  30.727  28.296  1.00  0.00     0.251 C 
ATOM     29  H   UNL A   1      32.836  30.410  27.525  1.00  0.00     0.163 HD
ATOM     30  O   UNL A   1      34.400  31.855  28.688  1.00  0.00    -0.269 OA
BRANCH  28  31
ATOM     31  C   UNL A   1      36.014  30.161  28.494  1.00  0.00     0.039 A 
ATOM     32  C   UNL A   1      36.939  30.229  27.450  1.00  0.00     0.014 A 
ATOM     33  C   UNL A   1      36.377  29.609  29.724  1.00  0.00     0.014 A 
ATOM     34  C   UNL A   1      38.253  29.810  27.666  1.00  0.00     0.010 A 
ATOM     35  C   UNL A   1      37.706  29.287  29.967  1.00  0.00     0.010 A 
ATOM     36  C   UNL A   1      38.656  29.372  28.937  1.00  0.00    -0.014 A 
BRANCH  36  37
ATOM     37  C   UNL A   1      40.055  28.962  29.215  1.00  0.00     0.031 A 
ATOM     38  C   UNL A   1      41.006  29.947  29.842  1.00  0.00     0.074 A 
ATOM     39  C   UNL A   1      40.490  27.745  28.836  1.00  0.00     0.049 A 
ATOM     40  N   UNL A   1      42.287  29.824  30.077  1.00  0.00    -0.248 NA
ATOM     41  C   UNL A   1      40.450  31.259  30.219  1.00  0.00     0.031 C 
ATOM     42  C   UNL A   1      39.679  26.719  28.176  1.00  0.00     0.029 A 
ATOM     43  N   UNL A   1      41.729  27.166  28.946  1.00  0.00    -0.354 N 
ATOM     44  C   UNL A   1      42.692  31.048  30.597  1.00  0.00     0.074 A 
ATOM     45  C   UNL A   1      41.537  31.917  30.590  1.00  0.00     0.031 C 
ATOM     46  C   UNL A   1      40.434  25.626  27.971  1.00  0.00     0.029 A 
ATOM     47  C   UNL A   1      41.789  25.885  28.447  1.00  0.00     0.049 A 
ATOM     48  H   UNL A   1      42.504  27.622  29.347  1.00  0.00     0.167 HD
ATOM     49  C   UNL A   1      43.910  31.411  31.065  1.00  0.00     0.031 A 
ATOM     50  C   UNL A   1      42.817  25.019  28.381  1.00  0.00     0.031 A 
ATOM     51  C   UNL A   1      45.047  30.533  31.100  1.00  0.00     0.049 A 
ATOM     52  C   UNL A   1      44.156  25.432  28.932  1.00  0.00     0.074 A 
ATOM     53  C   UNL A   1      46.311  30.780  31.606  1.00  0.00     0.029 A 
ATOM     54  N   UNL A   1      45.054  29.233  30.618  1.00  0.00    -0.354 N 
ATOM     55  N   UNL A   1      44.507  26.576  29.469  1.00  0.00    -0.248 NA
ATOM     56  C   UNL A   1      45.230  24.432  28.882  1.00  0.00     0.031 C 
ATOM     57  C   UNL A   1      47.093  29.639  31.397  1.00  0.00     0.029 A 
ATOM     58  C   UNL A   1      46.302  28.666  30.808  1.00  0.00     0.049 A 
ATOM     59  H   UNL A   1      44.285  28.779  30.204  1.00  0.00     0.167 HD
ATOM     60  C   UNL A   1      45.836  26.424  29.850  1.00  0.00     0.074 A 
ATOM     61  C   UNL A   1      46.219  25.074  29.491  1.00  0.00     0.031 C 
ATOM     62  C   UNL A   1      46.661  27.318  30.449  1.00  0.00     0.031 A 
BRANCH  49  63
ATOM     63  C   UNL A   1      44.063  32.819  31.576  1.00  0.00    -0.014 A 
ATOM     64  C   UNL A   1      43.813  33.133  32.925  1.00  0.00     0.010 A 
ATOM     65  C   UNL A   1      44.465  33.843  30.699  1.00  0.00     0.010 A 
ATOM     66  C   UNL A   1      43.910  34.452  33.374  1.00  0.00     0.020 A 
ATOM     67  C   UNL A   1      44.594  35.158  31.153  1.00  0.00     0.020 A 
ATOM     68  C   UNL A   1      44.293  35.458  32.483  1.00  0.00     0.054 A 
BRANCH  68  69
ATOM     69  S   UNL A   1      44.416  37.162  33.094  1.00  0.00     0.124 S 
ATOM     70  O   UNL A   1      43.158  37.309  33.823  1.00  0.00    -0.237 OA
ATOM     71  O   UNL A   1      45.619  37.122  33.921  1.00  0.00    -0.237 OA
ATOM     72  O   UNL A   1      44.527  37.960  31.876  1.00  0.00    -0.744 OA
ENDBRANCH  68  69
ENDBRANCH  49  63
BRANCH  50  73
ATOM     73  C   UNL A   1      42.612  23.662  27.808  1.00  0.00    -0.014 A 
ATOM     74  C   UNL A   1      42.922  23.405  26.460  1.00  0.00     0.010 A 
ATOM     75  C   UNL A   1      42.127  22.611  28.608  1.00  0.00     0.010 A 
ATOM     76  C   UNL A   1      42.735  22.130  25.919  1.00  0.00     0.020 A 
ATOM     77  C   UNL A   1      41.964  21.328  28.078  1.00  0.00     0.020 A 
ATOM     78  C   UNL A   1      42.259  21.097  26.732  1.00  0.00     0.054 A 
BRANCH  78  79
ATOM     79  S   UNL A   1      42.081  19.436  26.024  1.00  0.00     0.124 S 
ATOM     80  O   UNL A   1      40.643  19.360  25.789  1.00  0.00    -0.237 OA
ATOM     81  O   UNL A   1      42.915  19.512  24.827  1.00  0.00    -0.237 OA
ATOM     82  O   UNL A   1      42.593  18.560  27.076  1.00  0.00    -0.744 OA
ENDBRANCH  78  79
ENDBRANCH  50  73
BRANCH  62  83
ATOM     83  C   UNL A   1      48.049  26.852  30.795  1.00  0.00    -0.014 A 
ATOM     84  C   UNL A   1      49.120  27.018  29.901  1.00  0.00     0.010 A 
ATOM     85  C   UNL A   1      48.291  26.292  32.063  1.00  0.00     0.010 A 
ATOM     86  C   UNL A   1      50.406  26.602  30.257  1.00  0.00     0.020 A 
ATOM     87  C   UNL A   1      49.579  25.900  32.433  1.00  0.00     0.020 A 
ATOM     88  C   UNL A   1      50.627  26.045  31.521  1.00  0.00     0.054 A 
BRANCH  88  89
ATOM     89  S   UNL A   1      52.312  25.554  31.978  1.00  0.00     0.124 S 
ATOM     90  O   UNL A   1      53.062  25.883  30.770  1.00  0.00    -0.237 OA
ATOM     91  O   UNL A   1      52.589  26.396  33.139  1.00  0.00    -0.237 OA
ATOM     92  O   UNL A   1      52.188  24.127  32.268  1.00  0.00    -0.744 OA
ENDBRANCH  88  89
ENDBRANCH  62  83
ENDBRANCH  36  37
ENDBRANCH  28  31
ENDBRANCH  26  27
ENDBRANCH  25  26
ENDBRANCH   1  25
TORSDOF 17
ENDMDL
MODEL 3
REMARK VINA RESULT:      -9.6      4.854      8.242
REMARK SMILES C[C@@H]1[C@H](C(=O)NCCCCNC(=O)c2ccc(-c3c4nc(c(-c5ccc(S(=O)(=O)[O-])cc5)c5ccc([nH]5)c(-c5ccc(S(=O)(=O)[O-])cc5)c5nc(c(-c6ccc(S(=O)(=O)[O-])cc6)c6ccc3[nH]6)C=C5)C=C4)cc2)CCN1C(=O)c1c(Cl)cccc1[N+](=O)[O-]
REMARK SMILES IDX 8 1 7 2 6 3 4 4 5 5 3 7 1 8 2 9 76 10 74 11 75 12 77 13
REMARK SMILES IDX 78 14 79 15 80 16 85 17 81 18 82 19 84 20 83 21 86 22 87 23
REMARK SMILES IDX 88 24 9 25 10 26 11 27 12 28 13 30 14 31 15 32 73 33 16 34
REMARK SMILES IDX 72 35 17 36 18 37 19 38 66 39 20 40 71 41 65 42 67 43 21 44
REMARK SMILES IDX 70 45 64 46 63 47 22 49 52 50 33 51 51 52 34 53 37 54 50 55
REMARK SMILES IDX 68 56 35 57 36 58 49 60 69 61 38 62 23 63 24 64 32 65 25 66
REMARK SMILES IDX 31 67 26 68 27 69 28 70 29 71 30 72 53 73 54 74 62 75 55 76
REMARK SMILES IDX 61 77 56 78 57 79 58 80 59 81 60 82 39 83 40 84 48 85 41 86
REMARK SMILES IDX 47 87 42 88 43 89 44 90 45 91 46 92
REMARK H PARENT 6 6 11 29 67 48 37 59
REMARK Flexibility Score: inf
ROOT
ATOM      1  C   UNL A   1      31.878  28.303  26.482  1.00  0.00     0.023 C 
ENDROOT
BRANCH   1   2
ATOM      2  C   UNL A   1      31.405  27.351  25.383  1.00  0.00     0.116 C 
BRANCH   2   3
ATOM      3  N   UNL A   1      30.940  28.055  24.200  1.00  0.00    -0.356 N 
ATOM      4  C   UNL A   1      30.628  27.622  22.951  1.00  0.00     0.225 C 
ATOM      5  O   UNL A   1      30.284  28.479  22.130  1.00  0.00    -0.275 OA
ATOM      6  H   UNL A   1      30.831  29.025  24.328  1.00  0.00     0.163 HD
BRANCH   4   7
ATOM      7  C   UNL A   1      30.698  26.164  22.519  1.00  0.00     0.102 C 
ATOM      8  C   UNL A   1      33.256  26.533  22.201  1.00  0.00     0.032 C 
ATOM      9  C   UNL A   1      32.069  25.591  22.092  1.00  0.00     0.094 C 
ATOM     10  N   UNL A   1      32.188  24.315  22.825  1.00  0.00    -0.335 N 
ATOM     11  C   UNL A   1      30.093  25.184  23.525  1.00  0.00     0.037 C 
ATOM     12  C   UNL A   1      30.903  23.916  23.367  1.00  0.00     0.121 C 
BRANCH  10  13
ATOM     13  C   UNL A   1      33.176  23.342  22.774  1.00  0.00     0.262 C 
ATOM     14  O   UNL A   1      34.060  23.310  21.920  1.00  0.00    -0.269 OA
BRANCH  13  15
ATOM     15  C   UNL A   1      33.204  22.270  23.772  1.00  0.00     0.136 A 
ATOM     16  C   UNL A   1      32.570  21.053  23.495  1.00  0.00     0.060 A 
ATOM     17  C   UNL A   1      33.801  22.451  25.027  1.00  0.00     0.283 A 
ATOM     18  Cl  UNL A   1      31.783  20.740  21.988  1.00  0.00    -0.083 Cl
ATOM     19  C   UNL A   1      32.574  20.024  24.446  1.00  0.00     0.022 A 
ATOM     20  C   UNL A   1      33.822  21.413  25.974  1.00  0.00     0.086 A 
ATOM     21  C   UNL A   1      33.207  20.199  25.678  1.00  0.00     0.009 A 
BRANCH  17  22
ATOM     22  N   UNL A   1      34.475  23.695  25.379  1.00  0.00     0.063 N 
ATOM     23  O   UNL A   1      33.787  24.555  25.949  1.00  0.00    -0.258 OA
ATOM     24  O   UNL A   1      35.664  23.829  25.078  1.00  0.00    -0.258 OA
ENDBRANCH  17  22
ENDBRANCH  13  15
ENDBRANCH  10  13
ENDBRANCH   4   7
ENDBRANCH   2   3
ENDBRANCH   1   2
BRANCH   1  25
ATOM     25  C   UNL A   1      33.369  28.285  26.785  1.00  0.00     0.023 C 
BRANCH  25  26
ATOM     26  C   UNL A   1      34.162  29.434  26.189  1.00  0.00     0.116 C 
BRANCH  26  27
ATOM     27  N   UNL A   1      33.858  30.721  26.798  1.00  0.00    -0.352 N 
ATOM     28  C   UNL A   1      34.510  31.376  27.819  1.00  0.00     0.251 C 
ATOM     29  H   UNL A   1      33.075  31.188  26.428  1.00  0.00     0.163 HD
ATOM     30  O   UNL A   1      34.047  32.404  28.289  1.00  0.00    -0.269 OA
BRANCH  28  31
ATOM     31  C   UNL A   1      35.759  30.799  28.364  1.00  0.00     0.039 A 
ATOM     32  C   UNL A   1      36.981  31.384  28.026  1.00  0.00     0.014 A 
ATOM     33  C   UNL A   1      35.713  29.716  29.243  1.00  0.00     0.014 A 
ATOM     34  C   UNL A   1      38.153  30.927  28.631  1.00  0.00     0.010 A 
ATOM     35  C   UNL A   1      36.864  29.329  29.916  1.00  0.00     0.010 A 
ATOM     36  C   UNL A   1      38.099  29.922  29.610  1.00  0.00    -0.014 A 
BRANCH  36  37
ATOM     37  C   UNL A   1      39.319  29.442  30.306  1.00  0.00     0.031 A 
ATOM     38  C   UNL A   1      39.762  30.119  31.576  1.00  0.00     0.074 A 
ATOM     39  C   UNL A   1      40.065  28.462  29.762  1.00  0.00     0.049 A 
ATOM     40  N   UNL A   1      40.844  29.921  32.283  1.00  0.00    -0.248 NA
ATOM     41  C   UNL A   1      38.891  31.187  32.098  1.00  0.00     0.031 C 
ATOM     42  C   UNL A   1      39.769  27.761  28.510  1.00  0.00     0.029 A 
ATOM     43  N   UNL A   1      41.236  27.889  30.192  1.00  0.00    -0.354 N 
ATOM     44  C   UNL A   1      40.798  30.857  33.310  1.00  0.00     0.074 A 
ATOM     45  C   UNL A   1      39.614  31.659  33.102  1.00  0.00     0.031 C 
ATOM     46  C   UNL A   1      40.714  26.830  28.292  1.00  0.00     0.029 A 
ATOM     47  C   UNL A   1      41.703  26.895  29.364  1.00  0.00     0.049 A 
ATOM     48  H   UNL A   1      41.699  28.163  31.016  1.00  0.00     0.167 HD
ATOM     49  C   UNL A   1      41.649  31.020  34.351  1.00  0.00     0.031 A 
ATOM     50  C   UNL A   1      42.802  26.123  29.457  1.00  0.00     0.031 A 
ATOM     51  C   UNL A   1      42.808  30.198  34.571  1.00  0.00     0.049 A 
ATOM     52  C   UNL A   1      43.721  26.300  30.636  1.00  0.00     0.074 A 
ATOM     53  C   UNL A   1      43.705  30.239  35.624  1.00  0.00     0.029 A 
ATOM     54  N   UNL A   1      43.224  29.179  33.729  1.00  0.00    -0.354 N 
ATOM     55  N   UNL A   1      43.632  27.156  31.626  1.00  0.00    -0.248 NA
ATOM     56  C   UNL A   1      44.877  25.398  30.718  1.00  0.00     0.031 C 
ATOM     57  C   UNL A   1      44.685  29.267  35.398  1.00  0.00     0.029 A 
ATOM     58  C   UNL A   1      44.368  28.587  34.233  1.00  0.00     0.049 A 
ATOM     59  H   UNL A   1      42.770  28.914  32.896  1.00  0.00     0.167 HD
ATOM     60  C   UNL A   1      44.704  26.875  32.466  1.00  0.00     0.074 A 
ATOM     61  C   UNL A   1      45.419  25.764  31.872  1.00  0.00     0.031 C 
ATOM     62  C   UNL A   1      45.061  27.478  33.628  1.00  0.00     0.031 A 
BRANCH  49  63
ATOM     63  C   UNL A   1      41.348  32.129  35.323  1.00  0.00    -0.014 A 
ATOM     64  C   UNL A   1      40.519  31.910  36.439  1.00  0.00     0.010 A 
ATOM     65  C   UNL A   1      41.904  33.406  35.124  1.00  0.00     0.010 A 
ATOM     66  C   UNL A   1      40.207  32.960  37.306  1.00  0.00     0.020 A 
ATOM     67  C   UNL A   1      41.620  34.451  36.008  1.00  0.00     0.020 A 
ATOM     68  C   UNL A   1      40.754  34.226  37.080  1.00  0.00     0.054 A 
BRANCH  68  69
ATOM     69  S   UNL A   1      40.336  35.571  38.224  1.00  0.00     0.124 S 
ATOM     70  O   UNL A   1      39.943  36.635  37.304  1.00  0.00    -0.237 OA
ATOM     71  O   UNL A   1      39.254  34.995  39.017  1.00  0.00    -0.237 OA
ATOM     72  O   UNL A   1      41.581  35.805  38.952  1.00  0.00    -0.744 OA
ENDBRANCH  68  69
ENDBRANCH  49  63
BRANCH  50  73
ATOM     73  C   UNL A   1      43.072  25.084  28.427  1.00  0.00    -0.014 A 
ATOM     74  C   UNL A   1      43.837  25.395  27.288  1.00  0.00     0.010 A 
ATOM     75  C   UNL A   1      42.587  23.773  28.586  1.00  0.00     0.010 A 
ATOM     76  C   UNL A   1      44.097  24.421  26.320  1.00  0.00     0.020 A 
ATOM     77  C   UNL A   1      42.867  22.789  27.633  1.00  0.00     0.020 A 
ATOM     78  C   UNL A   1      43.613  23.122  26.499  1.00  0.00     0.054 A 
BRANCH  78  79
ATOM     79  S   UNL A   1      44.012  21.859  25.260  1.00  0.00     0.124 S 
ATOM     80  O   UNL A   1      45.391  21.523  25.601  1.00  0.00    -0.237 OA
ATOM     81  O   UNL A   1      43.021  20.821  25.534  1.00  0.00    -0.237 OA
ATOM     82  O   UNL A   1      43.832  22.559  23.989  1.00  0.00    -0.744 OA
ENDBRANCH  78  79
ENDBRANCH  50  73
BRANCH  62  83
ATOM     83  C   UNL A   1      46.253  26.921  34.357  1.00  0.00    -0.014 A 
ATOM     84  C   UNL A   1      46.118  25.885  35.295  1.00  0.00     0.010 A 
ATOM     85  C   UNL A   1      47.537  27.408  34.050  1.00  0.00     0.010 A 
ATOM     86  C   UNL A   1      47.244  25.365  35.938  1.00  0.00     0.020 A 
ATOM     87  C   UNL A   1      48.668  26.873  34.670  1.00  0.00     0.020 A 
ATOM     88  C   UNL A   1      48.512  25.864  35.622  1.00  0.00     0.054 A 
BRANCH  88  89
ATOM     89  S   UNL A   1      49.964  25.144  36.437  1.00  0.00     0.124 S 
ATOM     90  O   UNL A   1      50.913  26.251  36.399  1.00  0.00    -0.237 OA
ATOM     91  O   UNL A   1      49.451  24.800  37.762  1.00  0.00    -0.237 OA
ATOM     92  O   UNL A   1      50.302  24.001  35.593  1.00  0.00    -0.744 OA
ENDBRANCH  88  89
ENDBRANCH  62  83
ENDBRANCH  36  37
ENDBRANCH  28  31
ENDBRANCH  26  27
ENDBRANCH  25  26
ENDBRANCH   1  25
TORSDOF 17
ENDMDL
