MODEL 1
REMARK VINA RESULT:     -12.5      0.000      0.000
REMARK SMILES Cc1ccc(-c2c(C)sc(NC(=O)[C@H]3CC=CC[C@H]3C(=O)NCCCCNC(=O)c3ccc(-c4c5nc(c(-c6ccc(S(=O)(=O)[O-])cc6)c6ccc([nH]6)c(-c6ccc(S(=O)(=O)[O-])cc6)c6nc(c(-c7ccc(S(=O)(=O)[O-])cc7)c7ccc4[nH]7)C=C6)C=C5)cc3)c2C(N)=O)cc1
REMARK SMILES IDX 24 1 23 2 22 3 20 4 21 5 19 7 14 8 15 9 16 10 18 11 17 12
REMARK SMILES IDX 12 13 11 14 13 16 10 17 6 18 7 19 90 20 8 21 9 22 5 23 1 24
REMARK SMILES IDX 2 25 3 26 95 27 4 28 94 29 91 30 92 31 93 32 25 35 26 36
REMARK SMILES IDX 27 37 28 38 29 40 30 41 31 42 89 43 32 44 88 45 33 46 34 47
REMARK SMILES IDX 35 48 82 49 36 50 87 51 81 52 83 53 37 54 86 55 80 56 79 57
REMARK SMILES IDX 38 59 68 60 49 61 67 62 50 63 53 64 66 65 84 66 51 67 52 68
REMARK SMILES IDX 65 70 85 71 54 72 39 73 40 74 48 75 41 76 47 77 42 78 43 79
REMARK SMILES IDX 44 80 45 81 46 82 69 83 70 84 78 85 71 86 77 87 72 88 73 89
REMARK SMILES IDX 74 90 75 91 76 92 55 93 56 94 64 95 57 96 63 97 58 98 59 99
REMARK SMILES IDX 60 100 61 101 62 102
REMARK H PARENT 22 6 11 15 92 33 92 34 27 39 83 58 53 69
REMARK Flexibility Score: inf
ROOT
ATOM      1  C   UNL A   1      34.293  30.203  28.045  1.00  0.00     0.023 C 
ENDROOT
BRANCH   1   2
ATOM      2  C   UNL A   1      33.126  30.243  27.051  1.00  0.00     0.116 C 
BRANCH   2   3
ATOM      3  N   UNL A   1      33.635  30.104  25.722  1.00  0.00    -0.356 N 
ATOM      4  C   UNL A   1      33.595  28.998  24.948  1.00  0.00     0.224 C 
ATOM      5  O   UNL A   1      34.382  28.953  23.997  1.00  0.00    -0.275 OA
ATOM      6  H   UNL A   1      34.060  30.900  25.329  1.00  0.00     0.163 HD
BRANCH   4   7
ATOM      7  C   UNL A   1      32.572  27.889  25.157  1.00  0.00     0.095 C 
ATOM      8  C   UNL A   1      31.324  27.698  24.265  1.00  0.00     0.095 C 
ATOM      9  C   UNL A   1      30.234  27.043  25.144  1.00  0.00     0.041 C 
ATOM     10  C   UNL A   1      30.772  26.034  26.143  1.00  0.00    -0.030 C 
ATOM     11  C   UNL A   1      33.168  26.577  25.645  1.00  0.00     0.041 C 
ATOM     12  C   UNL A   1      32.082  25.786  26.326  1.00  0.00    -0.030 C 
BRANCH   8  13
ATOM     13  C   UNL A   1      31.337  27.180  22.786  1.00  0.00     0.229 C 
ATOM     14  N   UNL A   1      32.147  26.255  22.185  1.00  0.00    -0.317 N 
ATOM     15  H   UNL A   1      32.400  26.478  21.260  1.00  0.00     0.170 HD
ATOM     16  O   UNL A   1      30.542  27.729  22.000  1.00  0.00    -0.274 OA
BRANCH  14  17
ATOM     17  C   UNL A   1      32.672  25.064  22.647  1.00  0.00     0.109 A 
ATOM     18  C   UNL A   1      33.163  22.948  23.508  1.00  0.00     0.010 A 
ATOM     19  C   UNL A   1      34.406  23.433  23.126  1.00  0.00     0.012 A 
ATOM     20  C   UNL A   1      32.096  23.927  23.229  1.00  0.00     0.082 A 
ATOM     21  C   UNL A   1      35.728  22.770  22.935  1.00  0.00     0.057 C 
ATOM     22  S   UNL A   1      34.315  25.123  23.074  1.00  0.00    -0.122 S 
BRANCH  18  23
ATOM     23  C   UNL A   1      33.101  21.652  24.183  1.00  0.00    -0.016 A 
ATOM     24  C   UNL A   1      32.773  17.732  25.956  1.00  0.00     0.044 C 
ATOM     25  C   UNL A   1      32.859  19.099  25.348  1.00  0.00    -0.051 A 
ATOM     26  C   UNL A   1      33.247  20.207  26.118  1.00  0.00     0.004 A 
ATOM     27  C   UNL A   1      32.600  19.275  23.988  1.00  0.00     0.004 A 
ATOM     28  C   UNL A   1      33.359  21.482  25.543  1.00  0.00     0.009 A 
ATOM     29  C   UNL A   1      32.737  20.534  23.413  1.00  0.00     0.009 A 
ENDBRANCH  18  23
BRANCH  20  30
ATOM     30  C   UNL A   1      30.676  23.702  23.546  1.00  0.00     0.252 C 
ATOM     31  N   UNL A   1      30.360  22.958  24.644  1.00  0.00    -0.365 N 
ATOM     32  O   UNL A   1      29.756  24.147  22.860  1.00  0.00    -0.269 OA
ATOM     33  H   UNL A   1      31.074  22.590  25.213  1.00  0.00     0.159 HD
ATOM     34  H   UNL A   1      29.415  22.791  24.869  1.00  0.00     0.159 HD
ENDBRANCH  20  30
ENDBRANCH  14  17
ENDBRANCH   8  13
ENDBRANCH   4   7
ENDBRANCH   2   3
ENDBRANCH   1   2
BRANCH   1  35
ATOM     35  C   UNL A   1      34.812  31.565  28.529  1.00  0.00     0.023 C 
BRANCH  35  36
ATOM     36  C   UNL A   1      36.058  32.002  27.802  1.00  0.00     0.116 C 
BRANCH  36  37
ATOM     37  N   UNL A   1      37.195  31.945  28.682  1.00  0.00    -0.352 N 
ATOM     38  C   UNL A   1      38.166  31.008  28.835  1.00  0.00     0.251 C 
ATOM     39  H   UNL A   1      37.286  32.723  29.278  1.00  0.00     0.163 HD
ATOM     40  O   UNL A   1      39.174  31.407  29.415  1.00  0.00    -0.269 OA
BRANCH  38  41
ATOM     41  C   UNL A   1      38.093  29.687  28.132  1.00  0.00     0.039 A 
ATOM     42  C   UNL A   1      37.757  28.645  29.005  1.00  0.00     0.014 A 
ATOM     43  C   UNL A   1      39.136  29.498  27.229  1.00  0.00     0.014 A 
ATOM     44  C   UNL A   1      38.739  27.748  29.363  1.00  0.00     0.010 A 
ATOM     45  C   UNL A   1      40.170  28.722  27.647  1.00  0.00     0.010 A 
ATOM     46  C   UNL A   1      39.977  27.934  28.780  1.00  0.00    -0.014 A 
BRANCH  46  47
ATOM     47  C   UNL A   1      41.190  27.352  29.270  1.00  0.00     0.031 A 
ATOM     48  C   UNL A   1      41.354  25.941  28.943  1.00  0.00     0.074 A 
ATOM     49  C   UNL A   1      42.084  28.258  29.720  1.00  0.00     0.049 A 
ATOM     50  N   UNL A   1      42.178  25.146  29.508  1.00  0.00    -0.248 NA
ATOM     51  C   UNL A   1      40.492  25.269  27.960  1.00  0.00     0.031 C 
ATOM     52  C   UNL A   1      43.519  28.179  29.938  1.00  0.00     0.029 A 
ATOM     53  N   UNL A   1      41.719  29.461  30.332  1.00  0.00    -0.354 N 
ATOM     54  C   UNL A   1      42.276  24.063  28.661  1.00  0.00     0.074 A 
ATOM     55  C   UNL A   1      41.075  24.074  27.873  1.00  0.00     0.031 C 
ATOM     56  C   UNL A   1      43.855  29.097  30.870  1.00  0.00     0.029 A 
ATOM     57  C   UNL A   1      42.606  29.654  31.393  1.00  0.00     0.049 A 
ATOM     58  H   UNL A   1      40.982  30.057  30.067  1.00  0.00     0.167 HD
ATOM     59  C   UNL A   1      43.490  23.461  28.547  1.00  0.00     0.031 A 
ATOM     60  C   UNL A   1      42.130  29.404  32.654  1.00  0.00     0.031 A 
ATOM     61  C   UNL A   1      44.423  24.055  29.512  1.00  0.00     0.049 A 
ATOM     62  C   UNL A   1      42.787  28.170  33.259  1.00  0.00     0.074 A 
ATOM     63  C   UNL A   1      45.458  24.969  29.395  1.00  0.00     0.029 A 
ATOM     64  N   UNL A   1      44.063  24.054  30.855  1.00  0.00    -0.354 N 
ATOM     65  N   UNL A   1      43.237  27.138  32.589  1.00  0.00    -0.248 NA
ATOM     66  C   UNL A   1      43.059  28.066  34.684  1.00  0.00     0.031 C 
ATOM     67  C   UNL A   1      45.668  25.560  30.680  1.00  0.00     0.029 A 
ATOM     68  C   UNL A   1      44.765  25.003  31.572  1.00  0.00     0.049 A 
ATOM     69  H   UNL A   1      43.390  23.451  31.247  1.00  0.00     0.167 HD
ATOM     70  C   UNL A   1      43.894  26.275  33.439  1.00  0.00     0.074 A 
ATOM     71  C   UNL A   1      43.733  26.905  34.741  1.00  0.00     0.031 C 
ATOM     72  C   UNL A   1      44.519  25.129  33.010  1.00  0.00     0.031 A 
BRANCH  59  73
ATOM     73  C   UNL A   1      43.900  22.583  27.388  1.00  0.00    -0.014 A 
ATOM     74  C   UNL A   1      43.053  21.527  27.003  1.00  0.00     0.010 A 
ATOM     75  C   UNL A   1      45.101  22.707  26.658  1.00  0.00     0.010 A 
ATOM     76  C   UNL A   1      43.393  20.636  25.974  1.00  0.00     0.020 A 
ATOM     77  C   UNL A   1      45.463  21.816  25.636  1.00  0.00     0.020 A 
ATOM     78  C   UNL A   1      44.599  20.785  25.296  1.00  0.00     0.054 A 
BRANCH  78  79
ATOM     79  S   UNL A   1      45.006  19.646  23.951  1.00  0.00     0.124 S 
ATOM     80  O   UNL A   1      44.225  18.461  24.296  1.00  0.00    -0.237 OA
ATOM     81  O   UNL A   1      44.553  20.380  22.773  1.00  0.00    -0.237 OA
ATOM     82  O   UNL A   1      46.455  19.481  24.059  1.00  0.00    -0.744 OA
ENDBRANCH  78  79
ENDBRANCH  59  73
BRANCH  60  83
ATOM     83  C   UNL A   1      40.692  29.827  32.868  1.00  0.00    -0.014 A 
ATOM     84  C   UNL A   1      40.412  31.188  33.152  1.00  0.00     0.010 A 
ATOM     85  C   UNL A   1      39.606  29.010  32.510  1.00  0.00     0.010 A 
ATOM     86  C   UNL A   1      39.126  31.733  32.974  1.00  0.00     0.020 A 
ATOM     87  C   UNL A   1      38.310  29.553  32.344  1.00  0.00     0.020 A 
ATOM     88  C   UNL A   1      38.085  30.924  32.522  1.00  0.00     0.054 A 
BRANCH  88  89
ATOM     89  S   UNL A   1      36.428  31.651  32.227  1.00  0.00     0.124 S 
ATOM     90  O   UNL A   1      36.717  32.796  31.366  1.00  0.00    -0.237 OA
ATOM     91  O   UNL A   1      35.664  30.585  31.587  1.00  0.00    -0.237 OA
ATOM     92  O   UNL A   1      35.975  31.994  33.573  1.00  0.00    -0.744 OA
ENDBRANCH  88  89
ENDBRANCH  60  83
BRANCH  72  93
ATOM     93  C   UNL A   1      44.964  23.951  33.876  1.00  0.00    -0.014 A 
ATOM     94  C   UNL A   1      44.122  22.981  34.429  1.00  0.00     0.010 A 
ATOM     95  C   UNL A   1      46.357  23.743  34.086  1.00  0.00     0.010 A 
ATOM     96  C   UNL A   1      44.629  21.866  35.113  1.00  0.00     0.020 A 
ATOM     97  C   UNL A   1      46.879  22.616  34.724  1.00  0.00     0.020 A 
ATOM     98  C   UNL A   1      46.003  21.681  35.241  1.00  0.00     0.054 A 
BRANCH  98  99
ATOM     99  S   UNL A   1      46.617  20.207  36.080  1.00  0.00     0.124 S 
ATOM    100  O   UNL A   1      46.223  19.148  35.155  1.00  0.00    -0.237 OA
ATOM    101  O   UNL A   1      48.052  20.469  36.161  1.00  0.00    -0.237 OA
ATOM    102  O   UNL A   1      45.912  20.213  37.359  1.00  0.00    -0.744 OA
ENDBRANCH  98  99
ENDBRANCH  72  93
ENDBRANCH  46  47
ENDBRANCH  38  41
ENDBRANCH  36  37
ENDBRANCH  35  36
ENDBRANCH   1  35
TORSDOF 18
ENDMDL
MODEL 2
REMARK VINA RESULT:     -11.7      2.978      3.867
REMARK SMILES Cc1ccc(-c2c(C)sc(NC(=O)[C@H]3CC=CC[C@H]3C(=O)NCCCCNC(=O)c3ccc(-c4c5nc(c(-c6ccc(S(=O)(=O)[O-])cc6)c6ccc([nH]6)c(-c6ccc(S(=O)(=O)[O-])cc6)c6nc(c(-c7ccc(S(=O)(=O)[O-])cc7)c7ccc4[nH]7)C=C6)C=C5)cc3)c2C(N)=O)cc1
REMARK SMILES IDX 24 1 23 2 22 3 20 4 21 5 19 7 14 8 15 9 16 10 18 11 17 12
REMARK SMILES IDX 12 13 11 14 13 16 10 17 6 18 7 19 90 20 8 21 9 22 5 23 1 24
REMARK SMILES IDX 2 25 3 26 95 27 4 28 94 29 91 30 92 31 93 32 25 35 26 36
REMARK SMILES IDX 27 37 28 38 29 40 30 41 31 42 89 43 32 44 88 45 33 46 34 47
REMARK SMILES IDX 35 48 82 49 36 50 87 51 81 52 83 53 37 54 86 55 80 56 79 57
REMARK SMILES IDX 38 59 68 60 49 61 67 62 50 63 53 64 66 65 84 66 51 67 52 68
REMARK SMILES IDX 65 70 85 71 54 72 39 73 40 74 48 75 41 76 47 77 42 78 43 79
REMARK SMILES IDX 44 80 45 81 46 82 69 83 70 84 78 85 71 86 77 87 72 88 73 89
REMARK SMILES IDX 74 90 75 91 76 92 55 93 56 94 64 95 57 96 63 97 58 98 59 99
REMARK SMILES IDX 60 100 61 101 62 102
REMARK H PARENT 22 6 11 15 92 33 92 34 27 39 83 58 53 69
REMARK Flexibility Score: inf
ROOT
ATOM      1  C   UNL A   1      34.043  30.884  27.699  1.00  0.00     0.023 C 
ENDROOT
BRANCH   1   2
ATOM      2  C   UNL A   1      34.363  29.449  27.262  1.00  0.00     0.116 C 
BRANCH   2   3
ATOM      3  N   UNL A   1      33.268  28.597  27.609  1.00  0.00    -0.356 N 
ATOM      4  C   UNL A   1      32.353  28.067  26.769  1.00  0.00     0.224 C 
ATOM      5  O   UNL A   1      31.299  27.666  27.273  1.00  0.00    -0.275 OA
ATOM      6  H   UNL A   1      33.172  28.372  28.562  1.00  0.00     0.163 HD
BRANCH   4   7
ATOM      7  C   UNL A   1      32.621  27.873  25.282  1.00  0.00     0.095 C 
ATOM      8  C   UNL A   1      32.590  26.497  24.580  1.00  0.00     0.095 C 
ATOM      9  C   UNL A   1      33.566  26.575  23.385  1.00  0.00     0.041 C 
ATOM     10  C   UNL A   1      33.581  27.924  22.688  1.00  0.00    -0.030 C 
ATOM     11  C   UNL A   1      32.110  29.007  24.405  1.00  0.00     0.041 C 
ATOM     12  C   UNL A   1      32.885  28.995  23.113  1.00  0.00    -0.030 C 
BRANCH   8  13
ATOM     13  C   UNL A   1      31.299  25.657  24.287  1.00  0.00     0.229 C 
ATOM     14  N   UNL A   1      31.160  24.321  24.024  1.00  0.00    -0.317 N 
ATOM     15  H   UNL A   1      30.477  24.111  23.346  1.00  0.00     0.170 HD
ATOM     16  O   UNL A   1      30.231  26.293  24.208  1.00  0.00    -0.274 OA
BRANCH  14  17
ATOM     17  C   UNL A   1      31.807  23.217  24.541  1.00  0.00     0.109 A 
ATOM     18  C   UNL A   1      32.912  21.214  25.019  1.00  0.00     0.010 A 
ATOM     19  C   UNL A   1      32.834  21.838  26.256  1.00  0.00     0.012 A 
ATOM     20  C   UNL A   1      32.289  22.033  23.964  1.00  0.00     0.082 A 
ATOM     21  C   UNL A   1      33.524  21.587  27.555  1.00  0.00     0.057 C 
ATOM     22  S   UNL A   1      31.560  22.953  26.201  1.00  0.00    -0.122 S 
BRANCH  18  23
ATOM     23  C   UNL A   1      33.480  19.867  24.957  1.00  0.00    -0.016 A 
ATOM     24  C   UNL A   1      34.933  15.805  24.919  1.00  0.00     0.044 C 
ATOM     25  C   UNL A   1      34.437  17.218  24.960  1.00  0.00    -0.051 A 
ATOM     26  C   UNL A   1      35.282  18.288  24.623  1.00  0.00     0.004 A 
ATOM     27  C   UNL A   1      33.106  17.482  25.288  1.00  0.00     0.004 A 
ATOM     28  C   UNL A   1      34.810  19.609  24.630  1.00  0.00     0.009 A 
ATOM     29  C   UNL A   1      32.633  18.790  25.269  1.00  0.00     0.009 A 
ENDBRANCH  18  23
BRANCH  20  30
ATOM     30  C   UNL A   1      32.200  21.621  22.554  1.00  0.00     0.252 C 
ATOM     31  N   UNL A   1      32.545  22.518  21.586  1.00  0.00    -0.365 N 
ATOM     32  O   UNL A   1      31.818  20.504  22.203  1.00  0.00    -0.269 OA
ATOM     33  H   UNL A   1      32.854  23.418  21.836  1.00  0.00     0.159 HD
ATOM     34  H   UNL A   1      32.485  22.263  20.636  1.00  0.00     0.159 HD
ENDBRANCH  20  30
ENDBRANCH  14  17
ENDBRANCH   8  13
ENDBRANCH   4   7
ENDBRANCH   2   3
ENDBRANCH   1   2
BRANCH   1  35
ATOM     35  C   UNL A   1      35.229  31.708  28.221  1.00  0.00     0.023 C 
BRANCH  35  36
ATOM     36  C   UNL A   1      35.934  31.041  29.375  1.00  0.00     0.116 C 
BRANCH  36  37
ATOM     37  N   UNL A   1      37.312  31.453  29.422  1.00  0.00    -0.352 N 
ATOM     38  C   UNL A   1      38.465  30.742  29.331  1.00  0.00     0.251 C 
ATOM     39  H   UNL A   1      37.441  32.422  29.541  1.00  0.00     0.163 HD
ATOM     40  O   UNL A   1      39.459  31.414  29.063  1.00  0.00    -0.269 OA
BRANCH  38  41
ATOM     41  C   UNL A   1      38.459  29.245  29.315  1.00  0.00     0.039 A 
ATOM     42  C   UNL A   1      39.101  28.704  30.436  1.00  0.00     0.014 A 
ATOM     43  C   UNL A   1      38.743  28.717  28.058  1.00  0.00     0.014 A 
ATOM     44  C   UNL A   1      40.339  28.126  30.267  1.00  0.00     0.010 A 
ATOM     45  C   UNL A   1      40.013  28.275  27.855  1.00  0.00     0.010 A 
ATOM     46  C   UNL A   1      40.822  28.088  28.974  1.00  0.00    -0.014 A 
BRANCH  46  47
ATOM     47  C   UNL A   1      42.196  27.862  28.637  1.00  0.00     0.031 A 
ATOM     48  C   UNL A   1      42.605  26.463  28.690  1.00  0.00     0.074 A 
ATOM     49  C   UNL A   1      42.804  28.933  28.084  1.00  0.00     0.049 A 
ATOM     50  N   UNL A   1      43.813  26.050  28.728  1.00  0.00    -0.248 NA
ATOM     51  C   UNL A   1      41.624  25.374  28.795  1.00  0.00     0.031 C 
ATOM     52  C   UNL A   1      44.005  29.056  27.274  1.00  0.00     0.029 A 
ATOM     53  N   UNL A   1      42.489  30.254  28.419  1.00  0.00    -0.354 N 
ATOM     54  C   UNL A   1      43.752  24.718  28.383  1.00  0.00     0.074 A 
ATOM     55  C   UNL A   1      42.405  24.303  28.666  1.00  0.00     0.031 C 
ATOM     56  C   UNL A   1      44.488  30.309  27.425  1.00  0.00     0.029 A 
ATOM     57  C   UNL A   1      43.700  30.948  28.480  1.00  0.00     0.049 A 
ATOM     58  H   UNL A   1      41.591  30.624  28.579  1.00  0.00     0.167 HD
ATOM     59  C   UNL A   1      44.774  24.212  27.643  1.00  0.00     0.031 A 
ATOM     60  C   UNL A   1      44.187  31.237  29.728  1.00  0.00     0.031 A 
ATOM     61  C   UNL A   1      45.823  25.228  27.497  1.00  0.00     0.049 A 
ATOM     62  C   UNL A   1      45.448  30.435  30.027  1.00  0.00     0.074 A 
ATOM     63  C   UNL A   1      46.193  26.072  26.461  1.00  0.00     0.029 A 
ATOM     64  N   UNL A   1      46.359  25.784  28.653  1.00  0.00    -0.354 N 
ATOM     65  N   UNL A   1      45.731  29.249  29.548  1.00  0.00    -0.248 NA
ATOM     66  C   UNL A   1      46.528  30.978  30.836  1.00  0.00     0.031 C 
ATOM     67  C   UNL A   1      46.906  27.173  27.028  1.00  0.00     0.029 A 
ATOM     68  C   UNL A   1      46.970  26.997  28.401  1.00  0.00     0.049 A 
ATOM     69  H   UNL A   1      46.309  25.365  29.543  1.00  0.00     0.167 HD
ATOM     70  C   UNL A   1      47.010  28.887  29.912  1.00  0.00     0.074 A 
ATOM     71  C   UNL A   1      47.451  30.006  30.733  1.00  0.00     0.031 C 
ATOM     72  C   UNL A   1      47.603  27.715  29.508  1.00  0.00     0.031 A 
BRANCH  59  73
ATOM     73  C   UNL A   1      44.684  22.950  26.817  1.00  0.00    -0.014 A 
ATOM     74  C   UNL A   1      45.838  22.485  26.159  1.00  0.00     0.010 A 
ATOM     75  C   UNL A   1      43.511  22.193  26.611  1.00  0.00     0.010 A 
ATOM     76  C   UNL A   1      45.820  21.353  25.330  1.00  0.00     0.020 A 
ATOM     77  C   UNL A   1      43.472  21.067  25.775  1.00  0.00     0.020 A 
ATOM     78  C   UNL A   1      44.633  20.651  25.141  1.00  0.00     0.054 A 
BRANCH  78  79
ATOM     79  S   UNL A   1      44.635  19.175  24.094  1.00  0.00     0.124 S 
ATOM     80  O   UNL A   1      44.438  19.737  22.760  1.00  0.00    -0.237 OA
ATOM     81  O   UNL A   1      45.956  18.611  24.353  1.00  0.00    -0.237 OA
ATOM     82  O   UNL A   1      43.514  18.385  24.602  1.00  0.00    -0.744 OA
ENDBRANCH  78  79
ENDBRANCH  59  73
BRANCH  60  83
ATOM     83  C   UNL A   1      43.123  31.609  30.738  1.00  0.00    -0.014 A 
ATOM     84  C   UNL A   1      42.403  32.818  30.562  1.00  0.00     0.010 A 
ATOM     85  C   UNL A   1      42.612  30.687  31.667  1.00  0.00     0.010 A 
ATOM     86  C   UNL A   1      41.167  33.044  31.198  1.00  0.00     0.020 A 
ATOM     87  C   UNL A   1      41.376  30.918  32.317  1.00  0.00     0.020 A 
ATOM     88  C   UNL A   1      40.631  32.070  32.038  1.00  0.00     0.054 A 
BRANCH  88  89
ATOM     89  S   UNL A   1      38.989  32.338  32.811  1.00  0.00     0.124 S 
ATOM     90  O   UNL A   1      38.244  31.140  32.431  1.00  0.00    -0.237 OA
ATOM     91  O   UNL A   1      39.267  32.455  34.239  1.00  0.00    -0.237 OA
ATOM     92  O   UNL A   1      38.528  33.574  32.182  1.00  0.00    -0.744 OA
ENDBRANCH  88  89
ENDBRANCH  60  83
BRANCH  72  93
ATOM     93  C   UNL A   1      48.845  27.063  30.115  1.00  0.00    -0.014 A 
ATOM     94  C   UNL A   1      50.132  27.094  29.571  1.00  0.00     0.010 A 
ATOM     95  C   UNL A   1      48.734  26.434  31.388  1.00  0.00     0.010 A 
ATOM     96  C   UNL A   1      51.238  26.569  30.257  1.00  0.00     0.020 A 
ATOM     97  C   UNL A   1      49.830  25.948  32.103  1.00  0.00     0.020 A 
ATOM     98  C   UNL A   1      51.083  26.016  31.525  1.00  0.00     0.054 A 
BRANCH  98  99
ATOM     99  S   UNL A   1      52.536  25.400  32.398  1.00  0.00     0.124 S 
ATOM    100  O   UNL A   1      52.119  24.050  32.765  1.00  0.00    -0.237 OA
ATOM    101  O   UNL A   1      53.574  25.481  31.373  1.00  0.00    -0.237 OA
ATOM    102  O   UNL A   1      52.694  26.329  33.515  1.00  0.00    -0.744 OA
ENDBRANCH  98  99
ENDBRANCH  72  93
ENDBRANCH  46  47
ENDBRANCH  38  41
ENDBRANCH  36  37
ENDBRANCH  35  36
ENDBRANCH   1  35
TORSDOF 18
ENDMDL
MODEL 3
REMARK VINA RESULT:     -11.6      2.269      3.153
REMARK SMILES Cc1ccc(-c2c(C)sc(NC(=O)[C@H]3CC=CC[C@H]3C(=O)NCCCCNC(=O)c3ccc(-c4c5nc(c(-c6ccc(S(=O)(=O)[O-])cc6)c6ccc([nH]6)c(-c6ccc(S(=O)(=O)[O-])cc6)c6nc(c(-c7ccc(S(=O)(=O)[O-])cc7)c7ccc4[nH]7)C=C6)C=C5)cc3)c2C(N)=O)cc1
REMARK SMILES IDX 24 1 23 2 22 3 20 4 21 5 19 7 14 8 15 9 16 10 18 11 17 12
REMARK SMILES IDX 12 13 11 14 13 16 10 17 6 18 7 19 90 20 8 21 9 22 5 23 1 24
REMARK SMILES IDX 2 25 3 26 95 27 4 28 94 29 91 30 92 31 93 32 25 35 26 36
REMARK SMILES IDX 27 37 28 38 29 40 30 41 31 42 89 43 32 44 88 45 33 46 34 47
REMARK SMILES IDX 35 48 82 49 36 50 87 51 81 52 83 53 37 54 86 55 80 56 79 57
REMARK SMILES IDX 38 59 68 60 49 61 67 62 50 63 53 64 66 65 84 66 51 67 52 68
REMARK SMILES IDX 65 70 85 71 54 72 39 73 40 74 48 75 41 76 47 77 42 78 43 79
REMARK SMILES IDX 44 80 45 81 46 82 69 83 70 84 78 85 71 86 77 87 72 88 73 89
REMARK SMILES IDX 74 90 75 91 76 92 55 93 56 94 64 95 57 96 63 97 58 98 59 99
REMARK SMILES IDX 60 100 61 101 62 102
REMARK H PARENT 22 6 11 15 92 33 92 34 27 39 83 58 53 69
REMARK Flexibility Score: inf
ROOT
ATOM      1  C   UNL A   1      32.240  30.897  26.584  1.00  0.00     0.023 C 
ENDROOT
BRANCH   1   2
ATOM      2  C   UNL A   1      32.039  29.660  25.699  1.00  0.00     0.116 C 
BRANCH   2   3
ATOM      3  N   UNL A   1      31.066  29.955  24.693  1.00  0.00    -0.356 N 
ATOM      4  C   UNL A   1      30.691  29.160  23.669  1.00  0.00     0.224 C 
ATOM      5  O   UNL A   1      30.121  29.706  22.718  1.00  0.00    -0.275 OA
ATOM      6  H   UNL A   1      30.622  30.831  24.755  1.00  0.00     0.163 HD
BRANCH   4   7
ATOM      7  C   UNL A   1      30.861  27.647  23.702  1.00  0.00     0.095 C 
ATOM      8  C   UNL A   1      32.130  26.917  23.208  1.00  0.00     0.095 C 
ATOM      9  C   UNL A   1      31.688  25.519  22.718  1.00  0.00     0.041 C 
ATOM     10  C   UNL A   1      30.575  24.899  23.545  1.00  0.00    -0.030 C 
ATOM     11  C   UNL A   1      30.210  26.975  24.903  1.00  0.00     0.041 C 
ATOM     12  C   UNL A   1      29.954  25.531  24.559  1.00  0.00    -0.030 C 
BRANCH   8  13
ATOM     13  C   UNL A   1      33.519  26.921  23.933  1.00  0.00     0.229 C 
ATOM     14  N   UNL A   1      33.991  26.115  24.934  1.00  0.00    -0.317 N 
ATOM     15  H   UNL A   1      34.545  26.580  25.602  1.00  0.00     0.170 HD
ATOM     16  O   UNL A   1      34.307  27.832  23.616  1.00  0.00    -0.274 OA
BRANCH  14  17
ATOM     17  C   UNL A   1      33.828  24.765  25.172  1.00  0.00     0.109 A 
ATOM     18  C   UNL A   1      33.748  22.429  25.208  1.00  0.00     0.010 A 
ATOM     19  C   UNL A   1      33.171  22.788  26.419  1.00  0.00     0.012 A 
ATOM     20  C   UNL A   1      34.149  23.618  24.432  1.00  0.00     0.082 A 
ATOM     21  C   UNL A   1      32.859  22.010  27.653  1.00  0.00     0.057 C 
ATOM     22  S   UNL A   1      32.600  24.375  26.278  1.00  0.00    -0.122 S 
BRANCH  18  23
ATOM     23  C   UNL A   1      33.783  21.012  24.849  1.00  0.00    -0.016 A 
ATOM     24  C   UNL A   1      33.608  16.834  23.786  1.00  0.00     0.044 C 
ATOM     25  C   UNL A   1      33.662  18.278  24.182  1.00  0.00    -0.051 A 
ATOM     26  C   UNL A   1      34.849  18.847  24.672  1.00  0.00     0.004 A 
ATOM     27  C   UNL A   1      32.537  19.088  24.021  1.00  0.00     0.004 A 
ATOM     28  C   UNL A   1      34.909  20.207  25.014  1.00  0.00     0.009 A 
ATOM     29  C   UNL A   1      32.606  20.441  24.336  1.00  0.00     0.009 A 
ENDBRANCH  18  23
BRANCH  20  30
ATOM     30  C   UNL A   1      34.767  23.553  23.098  1.00  0.00     0.252 C 
ATOM     31  N   UNL A   1      36.070  23.164  22.997  1.00  0.00    -0.365 N 
ATOM     32  O   UNL A   1      34.164  23.844  22.064  1.00  0.00    -0.269 OA
ATOM     33  H   UNL A   1      36.577  22.925  23.807  1.00  0.00     0.159 HD
ATOM     34  H   UNL A   1      36.503  23.122  22.114  1.00  0.00     0.159 HD
ENDBRANCH  20  30
ENDBRANCH  14  17
ENDBRANCH   8  13
ENDBRANCH   4   7
ENDBRANCH   2   3
ENDBRANCH   1   2
BRANCH   1  35
ATOM     35  C   UNL A   1      33.638  31.068  27.195  1.00  0.00     0.023 C 
BRANCH  35  36
ATOM     36  C   UNL A   1      33.645  32.013  28.370  1.00  0.00     0.116 C 
BRANCH  36  37
ATOM     37  N   UNL A   1      34.982  32.481  28.625  1.00  0.00    -0.352 N 
ATOM     38  C   UNL A   1      36.170  31.827  28.660  1.00  0.00     0.251 C 
ATOM     39  H   UNL A   1      35.046  33.447  28.805  1.00  0.00     0.163 HD
ATOM     40  O   UNL A   1      37.158  32.554  28.562  1.00  0.00    -0.269 OA
BRANCH  38  41
ATOM     41  C   UNL A   1      36.242  30.333  28.574  1.00  0.00     0.039 A 
ATOM     42  C   UNL A   1      36.412  29.741  29.832  1.00  0.00     0.014 A 
ATOM     43  C   UNL A   1      37.025  29.891  27.511  1.00  0.00     0.014 A 
ATOM     44  C   UNL A   1      37.641  29.205  30.143  1.00  0.00     0.010 A 
ATOM     45  C   UNL A   1      38.290  29.493  27.811  1.00  0.00     0.010 A 
ATOM     46  C   UNL A   1      38.598  29.258  29.149  1.00  0.00    -0.014 A 
BRANCH  46  47
ATOM     47  C   UNL A   1      40.002  29.087  29.376  1.00  0.00     0.031 A 
ATOM     48  C   UNL A   1      40.470  27.713  29.236  1.00  0.00     0.074 A 
ATOM     49  C   UNL A   1      40.690  30.247  29.426  1.00  0.00     0.049 A 
ATOM     50  N   UNL A   1      41.584  27.267  29.672  1.00  0.00    -0.248 NA
ATOM     51  C   UNL A   1      39.630  26.667  28.636  1.00  0.00     0.031 C 
ATOM     52  C   UNL A   1      42.104  30.544  29.259  1.00  0.00     0.029 A 
ATOM     53  N   UNL A   1      40.154  31.440  29.924  1.00  0.00    -0.354 N 
ATOM     54  C   UNL A   1      41.785  26.078  29.006  1.00  0.00     0.074 A 
ATOM     55  C   UNL A   1      40.483  25.646  28.578  1.00  0.00     0.031 C 
ATOM     56  C   UNL A   1      42.373  31.695  29.915  1.00  0.00     0.029 A 
ATOM     57  C   UNL A   1      41.167  32.053  30.664  1.00  0.00     0.049 A 
ATOM     58  H   UNL A   1      39.242  31.781  29.779  1.00  0.00     0.167 HD
ATOM     59  C   UNL A   1      43.061  25.757  28.662  1.00  0.00     0.031 A 
ATOM     60  C   UNL A   1      41.068  31.980  32.029  1.00  0.00     0.031 A 
ATOM     61  C   UNL A   1      43.985  26.741  29.238  1.00  0.00     0.049 A 
ATOM     62  C   UNL A   1      42.155  31.088  32.615  1.00  0.00     0.074 A 
ATOM     63  C   UNL A   1      44.677  27.819  28.709  1.00  0.00     0.029 A 
ATOM     64  N   UNL A   1      43.945  26.949  30.612  1.00  0.00    -0.354 N 
ATOM     65  N   UNL A   1      42.711  30.065  32.014  1.00  0.00    -0.248 NA
ATOM     66  C   UNL A   1      42.753  31.359  33.913  1.00  0.00     0.031 C 
ATOM     67  C   UNL A   1      44.996  28.705  29.785  1.00  0.00     0.029 A 
ATOM     68  C   UNL A   1      44.501  28.165  30.961  1.00  0.00     0.049 A 
ATOM     69  H   UNL A   1      43.567  26.308  31.258  1.00  0.00     0.167 HD
ATOM     70  C   UNL A   1      43.750  29.578  32.777  1.00  0.00     0.074 A 
ATOM     71  C   UNL A   1      43.715  30.422  33.963  1.00  0.00     0.031 C 
ATOM     72  C   UNL A   1      44.554  28.540  32.375  1.00  0.00     0.031 A 
BRANCH  59  73
ATOM     73  C   UNL A   1      43.429  24.766  27.583  1.00  0.00    -0.014 A 
ATOM     74  C   UNL A   1      44.403  23.789  27.861  1.00  0.00     0.010 A 
ATOM     75  C   UNL A   1      42.897  24.750  26.276  1.00  0.00     0.010 A 
ATOM     76  C   UNL A   1      44.837  22.871  26.893  1.00  0.00     0.020 A 
ATOM     77  C   UNL A   1      43.330  23.849  25.292  1.00  0.00     0.020 A 
ATOM     78  C   UNL A   1      44.298  22.908  25.611  1.00  0.00     0.054 A 
BRANCH  78  79
ATOM     79  S   UNL A   1      44.847  21.697  24.384  1.00  0.00     0.124 S 
ATOM     80  O   UNL A   1      44.457  22.326  23.125  1.00  0.00    -0.237 OA
ATOM     81  O   UNL A   1      46.283  21.625  24.637  1.00  0.00    -0.237 OA
ATOM     82  O   UNL A   1      44.097  20.488  24.727  1.00  0.00    -0.744 OA
ENDBRANCH  78  79
ENDBRANCH  59  73
BRANCH  60  83
ATOM     83  C   UNL A   1      39.654  32.102  32.555  1.00  0.00    -0.014 A 
ATOM     84  C   UNL A   1      39.455  32.483  33.907  1.00  0.00     0.010 A 
ATOM     85  C   UNL A   1      38.535  32.145  31.706  1.00  0.00     0.010 A 
ATOM     86  C   UNL A   1      38.223  32.995  34.359  1.00  0.00     0.020 A 
ATOM     87  C   UNL A   1      37.293  32.646  32.162  1.00  0.00     0.020 A 
ATOM     88  C   UNL A   1      37.157  33.122  33.472  1.00  0.00     0.054 A 
BRANCH  88  89
ATOM     89  S   UNL A   1      35.575  33.852  34.047  1.00  0.00     0.124 S 
ATOM     90  O   UNL A   1      35.731  35.271  33.733  1.00  0.00    -0.237 OA
ATOM     91  O   UNL A   1      34.546  33.166  33.271  1.00  0.00    -0.237 OA
ATOM     92  O   UNL A   1      35.568  33.535  35.473  1.00  0.00    -0.744 OA
ENDBRANCH  88  89
ENDBRANCH  60  83
BRANCH  72  93
ATOM     93  C   UNL A   1      45.484  27.709  33.259  1.00  0.00    -0.014 A 
ATOM     94  C   UNL A   1      46.834  27.978  33.504  1.00  0.00     0.010 A 
ATOM     95  C   UNL A   1      44.940  26.608  33.980  1.00  0.00     0.010 A 
ATOM     96  C   UNL A   1      47.582  27.229  34.424  1.00  0.00     0.020 A 
ATOM     97  C   UNL A   1      45.657  25.882  34.932  1.00  0.00     0.020 A 
ATOM     98  C   UNL A   1      46.985  26.198  35.145  1.00  0.00     0.054 A 
BRANCH  98  99
ATOM     99  S   UNL A   1      47.965  25.293  36.359  1.00  0.00     0.124 S 
ATOM    100  O   UNL A   1      48.975  24.657  35.518  1.00  0.00    -0.237 OA
ATOM    101  O   UNL A   1      48.453  26.363  37.227  1.00  0.00    -0.237 OA
ATOM    102  O   UNL A   1      47.004  24.383  36.977  1.00  0.00    -0.744 OA
ENDBRANCH  98  99
ENDBRANCH  72  93
ENDBRANCH  46  47
ENDBRANCH  38  41
ENDBRANCH  36  37
ENDBRANCH  35  36
ENDBRANCH   1  35
TORSDOF 18
ENDMDL
