MODEL 1
REMARK VINA RESULT:     -11.7      0.000      0.000
REMARK SMILES O=C(NCCCCNC(=O)c1c(OCc2ccccn2)cnc2ccccc12)c1ccc(-c2c3nc(c(-c4ccc(S(=O)(=O)[O-])cc4)c4ccc([nH]4)c(-c4ccc(S(=O)(=O)[O-])cc4)c4nc(c(-c5ccc(S(=O)(=O)[O-])cc5)c5ccc2[nH]5)C=C4)C=C3)cc1
REMARK SMILES IDX 5 1 4 2 3 3 1 4 2 5 29 7 30 8 88 9 31 10 87 11 32 12 33 13
REMARK SMILES IDX 34 14 81 15 35 16 86 17 80 18 82 19 36 20 85 21 79 22 78 23
REMARK SMILES IDX 37 25 67 26 48 27 66 28 49 29 52 30 65 31 83 32 50 33 51 34
REMARK SMILES IDX 64 36 84 37 53 38 38 39 39 40 47 41 40 42 46 43 41 44 42 45
REMARK SMILES IDX 43 46 44 47 45 48 68 49 69 50 77 51 70 52 76 53 71 54 72 55
REMARK SMILES IDX 73 56 74 57 75 58 54 59 55 60 63 61 56 62 62 63 57 64 58 65
REMARK SMILES IDX 59 66 60 67 61 68 6 69 7 70 8 71 9 72 10 74 11 75 12 76
REMARK SMILES IDX 28 77 21 78 23 79 27 80 22 81 24 82 26 83 25 84 13 85 14 86
REMARK SMILES IDX 15 87 16 88 20 89 17 90 19 91 18 92
REMARK H PARENT 3 6 82 24 52 35 8 73
REMARK Flexibility Score: inf
ROOT
ATOM      1  C   UNL A   1      38.140  19.921  24.792  1.00  0.00     0.023 C 
ENDROOT
BRANCH   1   2
ATOM      2  C   UNL A   1      39.191  20.371  25.804  1.00  0.00     0.116 C 
BRANCH   2   3
ATOM      3  N   UNL A   1      40.224  19.374  26.031  1.00  0.00    -0.352 N 
ATOM      4  O   UNL A   1      42.304  18.553  26.292  1.00  0.00    -0.269 OA
ATOM      5  C   UNL A   1      41.567  19.536  26.276  1.00  0.00     0.251 C 
ATOM      6  H   UNL A   1      39.916  18.439  26.006  1.00  0.00     0.163 HD
BRANCH   5   7
ATOM      7  C   UNL A   1      42.131  20.887  26.491  1.00  0.00     0.039 A 
ATOM      8  C   UNL A   1      42.390  21.366  27.779  1.00  0.00     0.014 A 
ATOM      9  C   UNL A   1      42.427  21.678  25.379  1.00  0.00     0.014 A 
ATOM     10  C   UNL A   1      42.815  22.681  27.959  1.00  0.00     0.010 A 
ATOM     11  C   UNL A   1      42.921  22.972  25.560  1.00  0.00     0.010 A 
ATOM     12  C   UNL A   1      43.089  23.496  26.851  1.00  0.00    -0.014 A 
BRANCH  12  13
ATOM     13  C   UNL A   1      43.591  24.881  27.038  1.00  0.00     0.031 A 
ATOM     14  C   UNL A   1      45.040  25.209  26.804  1.00  0.00     0.074 A 
ATOM     15  C   UNL A   1      42.744  25.838  27.460  1.00  0.00     0.049 A 
ATOM     16  N   UNL A   1      45.674  26.336  27.009  1.00  0.00    -0.248 NA
ATOM     17  C   UNL A   1      45.889  24.127  26.282  1.00  0.00     0.031 C 
ATOM     18  C   UNL A   1      41.315  25.645  27.715  1.00  0.00     0.029 A 
ATOM     19  N   UNL A   1      42.961  27.158  27.765  1.00  0.00    -0.354 N 
ATOM     20  C   UNL A   1      47.000  26.094  26.669  1.00  0.00     0.074 A 
ATOM     21  C   UNL A   1      47.082  24.705  26.265  1.00  0.00     0.031 C 
ATOM     22  C   UNL A   1      40.784  26.803  28.133  1.00  0.00     0.029 A 
ATOM     23  C   UNL A   1      41.844  27.801  28.237  1.00  0.00     0.049 A 
ATOM     24  H   UNL A   1      43.834  27.600  27.655  1.00  0.00     0.167 HD
ATOM     25  C   UNL A   1      48.052  26.949  26.696  1.00  0.00     0.031 A 
ATOM     26  C   UNL A   1      41.687  29.042  28.737  1.00  0.00     0.031 A 
ATOM     27  C   UNL A   1      47.962  28.324  27.116  1.00  0.00     0.049 A 
ATOM     28  C   UNL A   1      42.870  29.961  28.802  1.00  0.00     0.074 A 
ATOM     29  C   UNL A   1      48.961  29.281  27.149  1.00  0.00     0.029 A 
ATOM     30  N   UNL A   1      46.808  28.935  27.587  1.00  0.00    -0.354 N 
ATOM     31  N   UNL A   1      44.111  29.727  28.446  1.00  0.00    -0.248 NA
ATOM     32  C   UNL A   1      42.637  31.312  29.328  1.00  0.00     0.031 C 
ATOM     33  C   UNL A   1      48.427  30.452  27.697  1.00  0.00     0.029 A 
ATOM     34  C   UNL A   1      47.077  30.247  27.940  1.00  0.00     0.049 A 
ATOM     35  H   UNL A   1      45.928  28.500  27.660  1.00  0.00     0.167 HD
ATOM     36  C   UNL A   1      44.801  30.911  28.677  1.00  0.00     0.074 A 
ATOM     37  C   UNL A   1      43.841  31.859  29.204  1.00  0.00     0.031 C 
ATOM     38  C   UNL A   1      46.111  31.185  28.461  1.00  0.00     0.031 A 
BRANCH  25  39
ATOM     39  C   UNL A   1      49.402  26.400  26.311  1.00  0.00    -0.014 A 
ATOM     40  C   UNL A   1      50.186  25.664  27.218  1.00  0.00     0.010 A 
ATOM     41  C   UNL A   1      49.894  26.620  25.010  1.00  0.00     0.010 A 
ATOM     42  C   UNL A   1      51.462  25.221  26.857  1.00  0.00     0.020 A 
ATOM     43  C   UNL A   1      51.157  26.152  24.634  1.00  0.00     0.020 A 
ATOM     44  C   UNL A   1      51.944  25.479  25.571  1.00  0.00     0.054 A 
BRANCH  44  45
ATOM     45  S   UNL A   1      53.616  24.924  25.137  1.00  0.00     0.124 S 
ATOM     46  O   UNL A   1      53.855  25.646  23.888  1.00  0.00    -0.237 OA
ATOM     47  O   UNL A   1      54.409  25.369  26.279  1.00  0.00    -0.237 OA
ATOM     48  O   UNL A   1      53.478  23.477  25.002  1.00  0.00    -0.744 OA
ENDBRANCH  44  45
ENDBRANCH  25  39
BRANCH  26  49
ATOM     49  C   UNL A   1      40.344  29.456  29.225  1.00  0.00    -0.014 A 
ATOM     50  C   UNL A   1      40.084  29.563  30.601  1.00  0.00     0.010 A 
ATOM     51  C   UNL A   1      39.348  29.838  28.306  1.00  0.00     0.010 A 
ATOM     52  C   UNL A   1      38.855  30.056  31.050  1.00  0.00     0.020 A 
ATOM     53  C   UNL A   1      38.129  30.356  28.750  1.00  0.00     0.020 A 
ATOM     54  C   UNL A   1      37.890  30.460  30.121  1.00  0.00     0.054 A 
BRANCH  54  55
ATOM     55  S   UNL A   1      36.347  31.196  30.729  1.00  0.00     0.124 S 
ATOM     56  O   UNL A   1      35.903  30.207  31.708  1.00  0.00    -0.237 OA
ATOM     57  O   UNL A   1      36.801  32.471  31.279  1.00  0.00    -0.237 OA
ATOM     58  O   UNL A   1      35.522  31.304  29.529  1.00  0.00    -0.744 OA
ENDBRANCH  54  55
ENDBRANCH  26  49
BRANCH  38  59
ATOM     59  C   UNL A   1      46.593  32.583  28.744  1.00  0.00    -0.014 A 
ATOM     60  C   UNL A   1      47.163  32.926  29.981  1.00  0.00     0.010 A 
ATOM     61  C   UNL A   1      46.565  33.539  27.712  1.00  0.00     0.010 A 
ATOM     62  C   UNL A   1      47.696  34.203  30.181  1.00  0.00     0.020 A 
ATOM     63  C   UNL A   1      47.118  34.807  27.900  1.00  0.00     0.020 A 
ATOM     64  C   UNL A   1      47.678  35.133  29.136  1.00  0.00     0.054 A 
BRANCH  64  65
ATOM     65  S   UNL A   1      48.459  36.750  29.389  1.00  0.00     0.124 S 
ATOM     66  O   UNL A   1      49.454  36.780  28.321  1.00  0.00    -0.237 OA
ATOM     67  O   UNL A   1      47.338  37.674  29.231  1.00  0.00    -0.237 OA
ATOM     68  O   UNL A   1      49.001  36.666  30.743  1.00  0.00    -0.744 OA
ENDBRANCH  64  65
ENDBRANCH  38  59
ENDBRANCH  12  13
ENDBRANCH   5   7
ENDBRANCH   2   3
ENDBRANCH   1   2
BRANCH   1  69
ATOM     69  C   UNL A   1      36.732  20.475  25.002  1.00  0.00     0.023 C 
BRANCH  69  70
ATOM     70  C   UNL A   1      36.653  21.927  25.457  1.00  0.00     0.116 C 
BRANCH  70  71
ATOM     71  N   UNL A   1      35.711  22.152  26.540  1.00  0.00    -0.352 N 
ATOM     72  C   UNL A   1      34.393  22.545  26.465  1.00  0.00     0.255 C 
ATOM     73  H   UNL A   1      36.060  22.004  27.448  1.00  0.00     0.163 HD
ATOM     74  O   UNL A   1      33.701  22.595  27.476  1.00  0.00    -0.269 OA
BRANCH  72  75
ATOM     75  C   UNL A   1      33.798  22.877  25.152  1.00  0.00     0.092 A 
ATOM     76  C   UNL A   1      33.296  21.830  24.368  1.00  0.00     0.151 A 
ATOM     77  C   UNL A   1      33.735  24.230  24.716  1.00  0.00     0.017 A 
ATOM     78  C   UNL A   1      32.779  22.199  23.144  1.00  0.00     0.159 A 
ATOM     79  C   UNL A   1      33.055  24.464  23.507  1.00  0.00     0.071 A 
ATOM     80  C   UNL A   1      34.272  25.344  25.413  1.00  0.00     0.011 A 
ATOM     81  N   UNL A   1      32.616  23.474  22.721  1.00  0.00    -0.252 NA
ATOM     82  C   UNL A   1      32.819  25.771  23.106  1.00  0.00     0.029 A 
ATOM     83  C   UNL A   1      34.030  26.648  24.988  1.00  0.00     0.001 A 
ATOM     84  C   UNL A   1      33.276  26.863  23.844  1.00  0.00     0.002 A 
BRANCH  76  85
ATOM     85  O   UNL A   1      33.333  20.561  24.867  1.00  0.00    -0.485 OA
BRANCH  85  86
ATOM     86  C   UNL A   1      32.633  19.499  24.202  1.00  0.00     0.285 C 
BRANCH  86  87
ATOM     87  C   UNL A   1      33.053  18.107  24.638  1.00  0.00     0.078 A 
ATOM     88  C   UNL A   1      34.301  17.594  24.280  1.00  0.00     0.027 A 
ATOM     89  N   UNL A   1      32.172  17.387  25.375  1.00  0.00    -0.258 NA
ATOM     90  C   UNL A   1      34.630  16.289  24.634  1.00  0.00     0.004 A 
ATOM     91  C   UNL A   1      32.527  16.132  25.731  1.00  0.00     0.111 A 
ATOM     92  C   UNL A   1      33.726  15.540  25.375  1.00  0.00     0.020 A 
ENDBRANCH  86  87
ENDBRANCH  85  86
ENDBRANCH  76  85
ENDBRANCH  72  75
ENDBRANCH  70  71
ENDBRANCH  69  70
ENDBRANCH   1  69
TORSDOF 17
ENDMDL
MODEL 2
REMARK VINA RESULT:     -11.7      0.461      8.119
REMARK SMILES O=C(NCCCCNC(=O)c1c(OCc2ccccn2)cnc2ccccc12)c1ccc(-c2c3nc(c(-c4ccc(S(=O)(=O)[O-])cc4)c4ccc([nH]4)c(-c4ccc(S(=O)(=O)[O-])cc4)c4nc(c(-c5ccc(S(=O)(=O)[O-])cc5)c5ccc2[nH]5)C=C4)C=C3)cc1
REMARK SMILES IDX 5 1 4 2 3 3 1 4 2 5 29 7 30 8 88 9 31 10 87 11 32 12 33 13
REMARK SMILES IDX 34 14 81 15 35 16 86 17 80 18 82 19 36 20 85 21 79 22 78 23
REMARK SMILES IDX 37 25 67 26 48 27 66 28 49 29 52 30 65 31 83 32 50 33 51 34
REMARK SMILES IDX 64 36 84 37 53 38 38 39 39 40 47 41 40 42 46 43 41 44 42 45
REMARK SMILES IDX 43 46 44 47 45 48 68 49 69 50 77 51 70 52 76 53 71 54 72 55
REMARK SMILES IDX 73 56 74 57 75 58 54 59 55 60 63 61 56 62 62 63 57 64 58 65
REMARK SMILES IDX 59 66 60 67 61 68 6 69 7 70 8 71 9 72 10 74 11 75 12 76
REMARK SMILES IDX 28 77 21 78 23 79 27 80 22 81 24 82 26 83 25 84 13 85 14 86
REMARK SMILES IDX 15 87 16 88 20 89 17 90 19 91 18 92
REMARK H PARENT 3 6 82 24 52 35 8 73
REMARK Flexibility Score: inf
ROOT
ATOM      1  C   UNL A   1      37.799  20.368  24.845  1.00  0.00     0.023 C 
ENDROOT
BRANCH   1   2
ATOM      2  C   UNL A   1      38.965  20.705  25.770  1.00  0.00     0.116 C 
BRANCH   2   3
ATOM      3  N   UNL A   1      39.929  19.623  25.885  1.00  0.00    -0.352 N 
ATOM      4  O   UNL A   1      41.949  18.642  26.036  1.00  0.00    -0.269 OA
ATOM      5  C   UNL A   1      41.282  19.669  26.125  1.00  0.00     0.251 C 
ATOM      6  H   UNL A   1      39.557  18.718  25.776  1.00  0.00     0.163 HD
BRANCH   5   7
ATOM      7  C   UNL A   1      41.940  20.951  26.461  1.00  0.00     0.039 A 
ATOM      8  C   UNL A   1      42.234  21.288  27.786  1.00  0.00     0.014 A 
ATOM      9  C   UNL A   1      42.288  21.821  25.425  1.00  0.00     0.014 A 
ATOM     10  C   UNL A   1      42.751  22.547  28.085  1.00  0.00     0.010 A 
ATOM     11  C   UNL A   1      42.872  23.055  25.722  1.00  0.00     0.010 A 
ATOM     12  C   UNL A   1      43.079  23.442  27.056  1.00  0.00    -0.014 A 
BRANCH  12  13
ATOM     13  C   UNL A   1      43.677  24.765  27.367  1.00  0.00     0.031 A 
ATOM     14  C   UNL A   1      42.819  25.896  27.863  1.00  0.00     0.074 A 
ATOM     15  C   UNL A   1      44.994  24.957  27.163  1.00  0.00     0.049 A 
ATOM     16  N   UNL A   1      43.149  27.142  28.093  1.00  0.00    -0.248 NA
ATOM     17  C   UNL A   1      41.404  25.591  28.123  1.00  0.00     0.031 C 
ATOM     18  C   UNL A   1      45.931  23.936  26.692  1.00  0.00     0.029 A 
ATOM     19  N   UNL A   1      45.769  26.080  27.309  1.00  0.00    -0.354 N 
ATOM     20  C   UNL A   1      41.981  27.777  28.497  1.00  0.00     0.074 A 
ATOM     21  C   UNL A   1      40.929  26.782  28.460  1.00  0.00     0.031 C 
ATOM     22  C   UNL A   1      47.154  24.477  26.592  1.00  0.00     0.029 A 
ATOM     23  C   UNL A   1      47.076  25.894  26.929  1.00  0.00     0.049 A 
ATOM     24  H   UNL A   1      45.422  26.934  27.654  1.00  0.00     0.167 HD
ATOM     25  C   UNL A   1      41.801  29.071  28.862  1.00  0.00     0.031 A 
ATOM     26  C   UNL A   1      48.094  26.769  26.822  1.00  0.00     0.031 A 
ATOM     27  C   UNL A   1      42.852  30.056  28.880  1.00  0.00     0.049 A 
ATOM     28  C   UNL A   1      47.868  28.207  27.186  1.00  0.00     0.074 A 
ATOM     29  C   UNL A   1      42.780  31.383  29.264  1.00  0.00     0.029 A 
ATOM     30  N   UNL A   1      44.163  29.824  28.486  1.00  0.00    -0.354 N 
ATOM     31  N   UNL A   1      46.764  28.784  27.598  1.00  0.00    -0.248 NA
ATOM     32  C   UNL A   1      49.020  29.111  27.079  1.00  0.00     0.031 C 
ATOM     33  C   UNL A   1      44.031  31.970  29.044  1.00  0.00     0.029 A 
ATOM     34  C   UNL A   1      44.902  30.991  28.590  1.00  0.00     0.049 A 
ATOM     35  H   UNL A   1      44.515  28.958  28.178  1.00  0.00     0.167 HD
ATOM     36  C   UNL A   1      47.096  30.114  27.828  1.00  0.00     0.074 A 
ATOM     37  C   UNL A   1      48.502  30.256  27.509  1.00  0.00     0.031 C 
ATOM     38  C   UNL A   1      46.304  31.120  28.274  1.00  0.00     0.031 A 
BRANCH  25  39
ATOM     39  C   UNL A   1      40.401  29.503  29.217  1.00  0.00    -0.014 A 
ATOM     40  C   UNL A   1      39.409  29.668  28.234  1.00  0.00     0.010 A 
ATOM     41  C   UNL A   1      40.072  29.742  30.565  1.00  0.00     0.010 A 
ATOM     42  C   UNL A   1      38.137  30.132  28.583  1.00  0.00     0.020 A 
ATOM     43  C   UNL A   1      38.791  30.177  30.922  1.00  0.00     0.020 A 
ATOM     44  C   UNL A   1      37.840  30.395  29.923  1.00  0.00     0.054 A 
BRANCH  44  45
ATOM     45  S   UNL A   1      36.194  31.029  30.346  1.00  0.00     0.124 S 
ATOM     46  O   UNL A   1      35.383  30.510  29.247  1.00  0.00    -0.237 OA
ATOM     47  O   UNL A   1      35.941  30.424  31.651  1.00  0.00    -0.237 OA
ATOM     48  O   UNL A   1      36.371  32.479  30.358  1.00  0.00    -0.744 OA
ENDBRANCH  44  45
ENDBRANCH  25  39
BRANCH  26  49
ATOM     49  C   UNL A   1      49.411  26.283  26.329  1.00  0.00    -0.014 A 
ATOM     50  C   UNL A   1      49.820  26.537  25.010  1.00  0.00     0.010 A 
ATOM     51  C   UNL A   1      50.302  25.645  27.213  1.00  0.00     0.010 A 
ATOM     52  C   UNL A   1      51.101  26.171  24.585  1.00  0.00     0.020 A 
ATOM     53  C   UNL A   1      51.593  25.303  26.801  1.00  0.00     0.020 A 
ATOM     54  C   UNL A   1      51.983  25.568  25.488  1.00  0.00     0.054 A 
BRANCH  54  55
ATOM     55  S   UNL A   1      53.675  25.202  24.943  1.00  0.00     0.124 S 
ATOM     56  O   UNL A   1      54.474  25.834  25.989  1.00  0.00    -0.237 OA
ATOM     57  O   UNL A   1      53.692  23.742  24.930  1.00  0.00    -0.237 OA
ATOM     58  O   UNL A   1      53.755  25.830  23.627  1.00  0.00    -0.744 OA
ENDBRANCH  54  55
ENDBRANCH  26  49
BRANCH  38  59
ATOM     59  C   UNL A   1      46.939  32.467  28.496  1.00  0.00    -0.014 A 
ATOM     60  C   UNL A   1      47.585  32.784  29.703  1.00  0.00     0.010 A 
ATOM     61  C   UNL A   1      46.974  33.391  27.435  1.00  0.00     0.010 A 
ATOM     62  C   UNL A   1      48.254  34.003  29.844  1.00  0.00     0.020 A 
ATOM     63  C   UNL A   1      47.663  34.599  27.564  1.00  0.00     0.020 A 
ATOM     64  C   UNL A   1      48.297  34.899  28.771  1.00  0.00     0.054 A 
BRANCH  64  65
ATOM     65  S   UNL A   1      49.250  36.432  28.947  1.00  0.00     0.124 S 
ATOM     66  O   UNL A   1      48.865  36.879  30.283  1.00  0.00    -0.237 OA
ATOM     67  O   UNL A   1      50.629  35.968  28.814  1.00  0.00    -0.237 OA
ATOM     68  O   UNL A   1      48.772  37.267  27.849  1.00  0.00    -0.744 OA
ENDBRANCH  64  65
ENDBRANCH  38  59
ENDBRANCH  12  13
ENDBRANCH   5   7
ENDBRANCH   2   3
ENDBRANCH   1   2
BRANCH   1  69
ATOM     69  C   UNL A   1      36.421  20.837  25.313  1.00  0.00     0.023 C 
BRANCH  69  70
ATOM     70  C   UNL A   1      36.367  22.235  25.916  1.00  0.00     0.116 C 
BRANCH  70  71
ATOM     71  N   UNL A   1      35.264  22.432  26.841  1.00  0.00    -0.352 N 
ATOM     72  C   UNL A   1      33.970  22.812  26.567  1.00  0.00     0.255 C 
ATOM     73  H   UNL A   1      35.469  22.271  27.790  1.00  0.00     0.163 HD
ATOM     74  O   UNL A   1      33.127  22.838  27.459  1.00  0.00    -0.269 OA
BRANCH  72  75
ATOM     75  C   UNL A   1      33.582  23.161  25.183  1.00  0.00     0.092 A 
ATOM     76  C   UNL A   1      33.163  22.129  24.333  1.00  0.00     0.151 A 
ATOM     77  C   UNL A   1      33.631  24.513  24.745  1.00  0.00     0.017 A 
ATOM     78  C   UNL A   1      32.841  22.513  23.047  1.00  0.00     0.159 A 
ATOM     79  C   UNL A   1      33.142  24.768  23.451  1.00  0.00     0.071 A 
ATOM     80  C   UNL A   1      34.100  25.610  25.515  1.00  0.00     0.011 A 
ATOM     81  N   UNL A   1      32.786  23.792  22.608  1.00  0.00    -0.252 NA
ATOM     82  C   UNL A   1      33.012  26.081  23.023  1.00  0.00     0.029 A 
ATOM     83  C   UNL A   1      33.968  26.921  25.062  1.00  0.00     0.001 A 
ATOM     84  C   UNL A   1      33.395  27.159  23.821  1.00  0.00     0.002 A 
BRANCH  76  85
ATOM     85  O   UNL A   1      33.082  20.861  24.829  1.00  0.00    -0.485 OA
BRANCH  85  86
ATOM     86  C   UNL A   1      32.634  19.783  23.995  1.00  0.00     0.285 C 
BRANCH  86  87
ATOM     87  C   UNL A   1      33.087  18.409  24.456  1.00  0.00     0.078 A 
ATOM     88  C   UNL A   1      34.364  17.938  24.144  1.00  0.00     0.027 A 
ATOM     89  N   UNL A   1      32.208  17.665  25.170  1.00  0.00    -0.258 NA
ATOM     90  C   UNL A   1      34.725  16.647  24.520  1.00  0.00     0.004 A 
ATOM     91  C   UNL A   1      32.594  16.425  25.547  1.00  0.00     0.111 A 
ATOM     92  C   UNL A   1      33.824  15.872  25.236  1.00  0.00     0.020 A 
ENDBRANCH  86  87
ENDBRANCH  85  86
ENDBRANCH  76  85
ENDBRANCH  72  75
ENDBRANCH  70  71
ENDBRANCH  69  70
ENDBRANCH   1  69
TORSDOF 17
ENDMDL
MODEL 3
REMARK VINA RESULT:     -11.6      5.650      7.952
REMARK SMILES O=C(NCCCCNC(=O)c1c(OCc2ccccn2)cnc2ccccc12)c1ccc(-c2c3nc(c(-c4ccc(S(=O)(=O)[O-])cc4)c4ccc([nH]4)c(-c4ccc(S(=O)(=O)[O-])cc4)c4nc(c(-c5ccc(S(=O)(=O)[O-])cc5)c5ccc2[nH]5)C=C4)C=C3)cc1
REMARK SMILES IDX 5 1 4 2 3 3 1 4 2 5 29 7 30 8 88 9 31 10 87 11 32 12 33 13
REMARK SMILES IDX 34 14 81 15 35 16 86 17 80 18 82 19 36 20 85 21 79 22 78 23
REMARK SMILES IDX 37 25 67 26 48 27 66 28 49 29 52 30 65 31 83 32 50 33 51 34
REMARK SMILES IDX 64 36 84 37 53 38 38 39 39 40 47 41 40 42 46 43 41 44 42 45
REMARK SMILES IDX 43 46 44 47 45 48 68 49 69 50 77 51 70 52 76 53 71 54 72 55
REMARK SMILES IDX 73 56 74 57 75 58 54 59 55 60 63 61 56 62 62 63 57 64 58 65
REMARK SMILES IDX 59 66 60 67 61 68 6 69 7 70 8 71 9 72 10 74 11 75 12 76
REMARK SMILES IDX 28 77 21 78 23 79 27 80 22 81 24 82 26 83 25 84 13 85 14 86
REMARK SMILES IDX 15 87 16 88 20 89 17 90 19 91 18 92
REMARK H PARENT 3 6 82 24 52 35 8 73
REMARK Flexibility Score: inf
ROOT
ATOM      1  C   UNL A   1      39.224  22.403  26.437  1.00  0.00     0.023 C 
ENDROOT
BRANCH   1   2
ATOM      2  C   UNL A   1      40.428  23.066  27.100  1.00  0.00     0.116 C 
BRANCH   2   3
ATOM      3  N   UNL A   1      41.338  23.676  26.145  1.00  0.00    -0.352 N 
ATOM      4  O   UNL A   1      42.526  25.308  25.150  1.00  0.00    -0.269 OA
ATOM      5  C   UNL A   1      41.894  24.932  26.134  1.00  0.00     0.251 C 
ATOM      6  H   UNL A   1      41.598  23.100  25.389  1.00  0.00     0.163 HD
BRANCH   5   7
ATOM      7  C   UNL A   1      41.711  25.842  27.287  1.00  0.00     0.039 A 
ATOM      8  C   UNL A   1      40.642  25.682  28.172  1.00  0.00     0.014 A 
ATOM      9  C   UNL A   1      42.645  26.860  27.495  1.00  0.00     0.014 A 
ATOM     10  C   UNL A   1      40.429  26.618  29.182  1.00  0.00     0.010 A 
ATOM     11  C   UNL A   1      42.469  27.756  28.552  1.00  0.00     0.010 A 
ATOM     12  C   UNL A   1      41.343  27.662  29.385  1.00  0.00    -0.014 A 
BRANCH  12  13
ATOM     13  C   UNL A   1      41.147  28.632  30.493  1.00  0.00     0.031 A 
ATOM     14  C   UNL A   1      41.982  28.549  31.741  1.00  0.00     0.074 A 
ATOM     15  C   UNL A   1      40.185  29.567  30.388  1.00  0.00     0.049 A 
ATOM     16  N   UNL A   1      41.887  29.246  32.845  1.00  0.00    -0.248 NA
ATOM     17  C   UNL A   1      43.056  27.543  31.755  1.00  0.00     0.031 C 
ATOM     18  C   UNL A   1      39.316  29.754  29.225  1.00  0.00     0.029 A 
ATOM     19  N   UNL A   1      39.765  30.526  31.275  1.00  0.00    -0.354 N 
ATOM     20  C   UNL A   1      42.867  28.748  33.695  1.00  0.00     0.074 A 
ATOM     21  C   UNL A   1      43.531  27.674  32.986  1.00  0.00     0.031 C 
ATOM     22  C   UNL A   1      38.469  30.765  29.468  1.00  0.00     0.029 A 
ATOM     23  C   UNL A   1      38.692  31.255  30.824  1.00  0.00     0.049 A 
ATOM     24  H   UNL A   1      40.191  30.675  32.150  1.00  0.00     0.167 HD
ATOM     25  C   UNL A   1      43.180  29.146  34.954  1.00  0.00     0.031 A 
ATOM     26  C   UNL A   1      37.941  32.189  31.439  1.00  0.00     0.031 A 
ATOM     27  C   UNL A   1      42.502  30.205  35.655  1.00  0.00     0.049 A 
ATOM     28  C   UNL A   1      38.272  32.586  32.847  1.00  0.00     0.074 A 
ATOM     29  C   UNL A   1      42.765  30.706  36.918  1.00  0.00     0.029 A 
ATOM     30  N   UNL A   1      41.419  30.918  35.161  1.00  0.00    -0.354 N 
ATOM     31  N   UNL A   1      39.224  32.128  33.626  1.00  0.00    -0.248 NA
ATOM     32  C   UNL A   1      37.439  33.629  33.460  1.00  0.00     0.031 C 
ATOM     33  C   UNL A   1      41.803  31.679  37.211  1.00  0.00     0.029 A 
ATOM     34  C   UNL A   1      40.985  31.835  36.103  1.00  0.00     0.049 A 
ATOM     35  H   UNL A   1      41.020  30.791  34.269  1.00  0.00     0.167 HD
ATOM     36  C   UNL A   1      39.122  32.847  34.811  1.00  0.00     0.074 A 
ATOM     37  C   UNL A   1      38.017  33.770  34.647  1.00  0.00     0.031 C 
ATOM     38  C   UNL A   1      39.885  32.753  35.927  1.00  0.00     0.031 A 
BRANCH  25  39
ATOM     39  C   UNL A   1      44.273  28.391  35.668  1.00  0.00    -0.014 A 
ATOM     40  C   UNL A   1      45.621  28.781  35.575  1.00  0.00     0.010 A 
ATOM     41  C   UNL A   1      43.941  27.271  36.453  1.00  0.00     0.010 A 
ATOM     42  C   UNL A   1      46.622  28.026  36.194  1.00  0.00     0.020 A 
ATOM     43  C   UNL A   1      44.935  26.530  37.100  1.00  0.00     0.020 A 
ATOM     44  C   UNL A   1      46.273  26.897  36.942  1.00  0.00     0.054 A 
BRANCH  44  45
ATOM     45  S   UNL A   1      47.592  25.914  37.707  1.00  0.00     0.124 S 
ATOM     46  O   UNL A   1      48.062  25.115  36.577  1.00  0.00    -0.237 OA
ATOM     47  O   UNL A   1      48.521  26.936  38.181  1.00  0.00    -0.237 OA
ATOM     48  O   UNL A   1      46.904  25.166  38.755  1.00  0.00    -0.744 OA
ENDBRANCH  44  45
ENDBRANCH  25  39
BRANCH  26  49
ATOM     49  C   UNL A   1      36.792  32.785  30.706  1.00  0.00    -0.014 A 
ATOM     50  C   UNL A   1      35.486  32.311  30.914  1.00  0.00     0.010 A 
ATOM     51  C   UNL A   1      36.993  33.896  29.866  1.00  0.00     0.010 A 
ATOM     52  C   UNL A   1      34.400  32.946  30.304  1.00  0.00     0.020 A 
ATOM     53  C   UNL A   1      35.908  34.550  29.276  1.00  0.00     0.020 A 
ATOM     54  C   UNL A   1      34.618  34.069  29.499  1.00  0.00     0.054 A 
BRANCH  54  55
ATOM     55  S   UNL A   1      33.183  34.939  28.807  1.00  0.00     0.124 S 
ATOM     56  O   UNL A   1      32.662  33.958  27.858  1.00  0.00    -0.237 OA
ATOM     57  O   UNL A   1      32.359  35.176  29.989  1.00  0.00    -0.237 OA
ATOM     58  O   UNL A   1      33.765  36.139  28.211  1.00  0.00    -0.744 OA
ENDBRANCH  54  55
ENDBRANCH  26  49
BRANCH  38  59
ATOM     59  C   UNL A   1      39.595  33.704  37.058  1.00  0.00    -0.014 A 
ATOM     60  C   UNL A   1      38.777  33.332  38.139  1.00  0.00     0.010 A 
ATOM     61  C   UNL A   1      40.240  34.955  37.084  1.00  0.00     0.010 A 
ATOM     62  C   UNL A   1      38.609  34.197  39.224  1.00  0.00     0.020 A 
ATOM     63  C   UNL A   1      40.094  35.810  38.178  1.00  0.00     0.020 A 
ATOM     64  C   UNL A   1      39.276  35.426  39.241  1.00  0.00     0.054 A 
BRANCH  64  65
ATOM     65  S   UNL A   1      39.115  36.489  40.703  1.00  0.00     0.124 S 
ATOM     66  O   UNL A   1      40.502  36.612  41.145  1.00  0.00    -0.237 OA
ATOM     67  O   UNL A   1      38.522  37.704  40.150  1.00  0.00    -0.237 OA
ATOM     68  O   UNL A   1      38.243  35.727  41.593  1.00  0.00    -0.744 OA
ENDBRANCH  64  65
ENDBRANCH  38  59
ENDBRANCH  12  13
ENDBRANCH   5   7
ENDBRANCH   2   3
ENDBRANCH   1   2
BRANCH   1  69
ATOM     69  C   UNL A   1      38.042  23.323  26.131  1.00  0.00     0.023 C 
BRANCH  69  70
ATOM     70  C   UNL A   1      36.765  22.631  25.674  1.00  0.00     0.116 C 
BRANCH  70  71
ATOM     71  N   UNL A   1      35.677  22.715  26.634  1.00  0.00    -0.352 N 
ATOM     72  C   UNL A   1      34.347  22.988  26.404  1.00  0.00     0.255 C 
ATOM     73  H   UNL A   1      35.923  22.555  27.574  1.00  0.00     0.163 HD
ATOM     74  O   UNL A   1      33.532  22.925  27.320  1.00  0.00    -0.269 OA
BRANCH  72  75
ATOM     75  C   UNL A   1      33.890  23.328  25.039  1.00  0.00     0.092 A 
ATOM     76  C   UNL A   1      33.569  22.279  24.168  1.00  0.00     0.151 A 
ATOM     77  C   UNL A   1      33.777  24.689  24.640  1.00  0.00     0.017 A 
ATOM     78  C   UNL A   1      33.176  22.658  22.901  1.00  0.00     0.159 A 
ATOM     79  C   UNL A   1      33.233  24.921  23.364  1.00  0.00     0.071 A 
ATOM     80  C   UNL A   1      34.139  25.810  25.432  1.00  0.00     0.011 A 
ATOM     81  N   UNL A   1      32.968  23.934  22.500  1.00  0.00    -0.252 NA
ATOM     82  C   UNL A   1      32.946  26.222  22.977  1.00  0.00     0.029 A 
ATOM     83  C   UNL A   1      33.850  27.109  25.020  1.00  0.00     0.001 A 
ATOM     84  C   UNL A   1      33.226  27.314  23.799  1.00  0.00     0.002 A 
BRANCH  76  85
ATOM     85  O   UNL A   1      33.643  20.997  24.629  1.00  0.00    -0.485 OA
BRANCH  85  86
ATOM     86  C   UNL A   1      32.490  20.143  24.584  1.00  0.00     0.285 C 
BRANCH  86  87
ATOM     87  C   UNL A   1      32.813  18.660  24.602  1.00  0.00     0.078 A 
ATOM     88  C   UNL A   1      33.496  18.067  23.538  1.00  0.00     0.027 A 
ATOM     89  N   UNL A   1      32.410  17.942  25.679  1.00  0.00    -0.258 NA
ATOM     90  C   UNL A   1      33.715  16.692  23.551  1.00  0.00     0.004 A 
ATOM     91  C   UNL A   1      32.660  16.613  25.679  1.00  0.00     0.111 A 
ATOM     92  C   UNL A   1      33.289  15.947  24.642  1.00  0.00     0.020 A 
ENDBRANCH  86  87
ENDBRANCH  85  86
ENDBRANCH  76  85
ENDBRANCH  72  75
ENDBRANCH  70  71
ENDBRANCH  69  70
ENDBRANCH   1  69
TORSDOF 17
ENDMDL
