MODEL 1
REMARK VINA RESULT:     -12.6      0.000      0.000
REMARK SMILES CCCn1nc(C(=O)NCCCCNC(=O)c2ccc(-c3c4nc(c(-c5ccc(S(=O)(=O)[O-])cc5)c5ccc([nH]5)c(-c5ccc(S(=O)(=O)[O-])cc5)c5nc(c(-c6ccc(S(=O)(=O)[O-])cc6)c6ccc3[nH]6)C=C5)C=C4)cc2)c2c1CC[C@@H]([NH+]1CC[NH+](Cc3ccccn3)CC1)C2
REMARK SMILES IDX 11 1 10 2 9 3 7 4 8 5 6 7 4 8 5 9 78 10 77 11 79 12 95 13
REMARK SMILES IDX 80 14 81 15 3 16 2 17 1 18 82 19 83 20 94 21 84 23 93 24
REMARK SMILES IDX 85 25 86 27 87 28 88 29 92 30 89 31 91 32 90 33 12 34 13 35
REMARK SMILES IDX 14 36 15 37 16 39 17 40 18 41 76 42 19 43 75 44 20 45 21 46
REMARK SMILES IDX 22 47 69 48 23 49 74 50 68 51 70 52 24 53 73 54 67 55 66 56
REMARK SMILES IDX 25 58 55 59 36 60 54 61 37 62 40 63 53 64 71 65 38 66 39 67
REMARK SMILES IDX 52 69 72 70 41 71 26 72 27 73 35 74 28 75 34 76 29 77 30 78
REMARK SMILES IDX 31 79 32 80 33 81 56 82 57 83 65 84 58 85 64 86 59 87 60 88
REMARK SMILES IDX 61 89 62 90 63 91 42 92 43 93 51 94 44 95 50 96 45 97 46 98
REMARK SMILES IDX 47 99 48 100 49 101
REMARK H PARENT 9 6 82 22 85 26 14 38 70 57 40 68
REMARK Flexibility Score: inf
ROOT
ATOM      1  C   UNL A   1      35.039  30.900  27.850  1.00  0.00     0.023 C 
ENDROOT
BRANCH   1   2
ATOM      2  C   UNL A   1      34.171  30.053  26.883  1.00  0.00     0.116 C 
BRANCH   2   3
ATOM      3  N   UNL A   1      33.040  29.356  27.519  1.00  0.00    -0.351 N 
ATOM      4  C   UNL A   1      31.983  28.513  27.193  1.00  0.00     0.272 C 
ATOM      5  O   UNL A   1      31.387  28.086  28.192  1.00  0.00    -0.267 OA
ATOM      6  H   UNL A   1      33.029  29.548  28.486  1.00  0.00     0.163 HD
BRANCH   4   7
ATOM      7  C   UNL A   1      31.519  28.136  25.822  1.00  0.00     0.153 A 
ATOM      8  N   UNL A   1      31.020  28.420  23.716  1.00  0.00    -0.269 N 
ATOM      9  N   UNL A   1      31.430  29.069  24.835  1.00  0.00    -0.167 NA
ATOM     10  C   UNL A   1      30.823  27.098  23.954  1.00  0.00     0.043 A 
ATOM     11  C   UNL A   1      31.205  26.883  25.257  1.00  0.00     0.012 A 
ATOM     12  C   UNL A   1      30.414  26.027  23.020  1.00  0.00     0.062 C 
ATOM     13  C   UNL A   1      31.310  25.537  25.823  1.00  0.00     0.105 C 
ATOM     14  C   UNL A   1      30.103  24.749  23.815  1.00  0.00     0.072 C 
ATOM     15  C   UNL A   1      31.169  24.377  24.846  1.00  0.00     0.189 C 
BRANCH   8  16
ATOM     16  C   UNL A   1      30.759  29.186  22.505  1.00  0.00     0.144 C 
BRANCH  16  17
ATOM     17  C   UNL A   1      29.306  29.598  22.196  1.00  0.00     0.020 C 
ATOM     18  C   UNL A   1      28.960  31.054  22.489  1.00  0.00     0.006 C 
ENDBRANCH  16  17
ENDBRANCH   8  16
BRANCH  15  19
ATOM     19  N   UNL A   1      32.451  23.873  24.342  1.00  0.00    -0.323 N 
ATOM     20  C   UNL A   1      32.540  23.172  23.073  1.00  0.00     0.324 C 
ATOM     21  C   UNL A   1      33.445  23.546  25.361  1.00  0.00     0.324 C 
ATOM     22  H   UNL A   1      32.771  24.754  23.937  1.00  0.00     0.348 HD
ATOM     23  C   UNL A   1      33.101  21.729  23.095  1.00  0.00     0.324 C 
ATOM     24  C   UNL A   1      34.291  22.279  25.113  1.00  0.00     0.324 C 
ATOM     25  N   UNL A   1      33.620  21.224  24.364  1.00  0.00    -0.321 N 
ATOM     26  H   UNL A   1      34.360  20.563  24.127  1.00  0.00     0.348 HD
BRANCH  25  27
ATOM     27  C   UNL A   1      32.820  20.226  25.095  1.00  0.00     0.319 C 
BRANCH  27  28
ATOM     28  C   UNL A   1      33.069  18.720  24.979  1.00  0.00     0.095 A 
ATOM     29  C   UNL A   1      34.061  18.240  24.115  1.00  0.00     0.030 A 
ATOM     30  N   UNL A   1      32.364  17.866  25.766  1.00  0.00    -0.255 NA
ATOM     31  C   UNL A   1      34.218  16.863  23.928  1.00  0.00     0.004 A 
ATOM     32  C   UNL A   1      32.558  16.534  25.589  1.00  0.00     0.111 A 
ATOM     33  C   UNL A   1      33.438  15.989  24.670  1.00  0.00     0.020 A 
ENDBRANCH  27  28
ENDBRANCH  25  27
ENDBRANCH  15  19
ENDBRANCH   4   7
ENDBRANCH   2   3
ENDBRANCH   1   2
BRANCH   1  34
ATOM     34  C   UNL A   1      34.906  32.426  27.850  1.00  0.00     0.023 C 
BRANCH  34  35
ATOM     35  C   UNL A   1      35.782  33.132  28.878  1.00  0.00     0.116 C 
BRANCH  35  36
ATOM     36  N   UNL A   1      35.159  33.322  30.205  1.00  0.00    -0.352 N 
ATOM     37  C   UNL A   1      35.203  32.427  31.271  1.00  0.00     0.251 C 
ATOM     38  H   UNL A   1      34.667  34.162  30.350  1.00  0.00     0.163 HD
ATOM     39  O   UNL A   1      34.360  32.431  32.169  1.00  0.00    -0.269 OA
BRANCH  37  40
ATOM     40  C   UNL A   1      36.348  31.509  31.317  1.00  0.00     0.039 A 
ATOM     41  C   UNL A   1      36.295  30.149  30.984  1.00  0.00     0.014 A 
ATOM     42  C   UNL A   1      37.553  32.144  31.584  1.00  0.00     0.014 A 
ATOM     43  C   UNL A   1      37.499  29.456  30.852  1.00  0.00     0.010 A 
ATOM     44  C   UNL A   1      38.699  31.546  31.170  1.00  0.00     0.010 A 
ATOM     45  C   UNL A   1      38.694  30.178  30.941  1.00  0.00    -0.014 A 
BRANCH  45  46
ATOM     46  C   UNL A   1      40.015  29.607  30.748  1.00  0.00     0.031 A 
ATOM     47  C   UNL A   1      40.749  29.320  32.005  1.00  0.00     0.074 A 
ATOM     48  C   UNL A   1      40.331  29.050  29.556  1.00  0.00     0.049 A 
ATOM     49  N   UNL A   1      41.779  29.943  32.470  1.00  0.00    -0.248 NA
ATOM     50  C   UNL A   1      40.167  28.352  32.957  1.00  0.00     0.031 C 
ATOM     51  C   UNL A   1      39.492  28.931  28.351  1.00  0.00     0.029 A 
ATOM     52  N   UNL A   1      41.412  28.308  29.217  1.00  0.00    -0.354 N 
ATOM     53  C   UNL A   1      42.135  29.262  33.628  1.00  0.00     0.074 A 
ATOM     54  C   UNL A   1      40.973  28.503  34.011  1.00  0.00     0.031 C 
ATOM     55  C   UNL A   1      39.978  27.953  27.555  1.00  0.00     0.029 A 
ATOM     56  C   UNL A   1      41.234  27.484  28.110  1.00  0.00     0.049 A 
ATOM     57  H   UNL A   1      42.260  28.348  29.718  1.00  0.00     0.167 HD
ATOM     58  C   UNL A   1      43.440  29.123  34.000  1.00  0.00     0.031 A 
ATOM     59  C   UNL A   1      42.030  26.446  27.736  1.00  0.00     0.031 A 
ATOM     60  C   UNL A   1      44.304  29.942  33.179  1.00  0.00     0.049 A 
ATOM     61  C   UNL A   1      43.338  26.658  28.419  1.00  0.00     0.074 A 
ATOM     62  C   UNL A   1      44.352  31.288  32.872  1.00  0.00     0.029 A 
ATOM     63  N   UNL A   1      44.998  29.299  32.176  1.00  0.00    -0.354 N 
ATOM     64  N   UNL A   1      44.102  27.692  28.183  1.00  0.00    -0.248 NA
ATOM     65  C   UNL A   1      43.530  26.033  29.722  1.00  0.00     0.031 C 
ATOM     66  C   UNL A   1      44.603  31.326  31.468  1.00  0.00     0.029 A 
ATOM     67  C   UNL A   1      44.812  30.018  31.022  1.00  0.00     0.049 A 
ATOM     68  H   UNL A   1      45.529  28.475  32.269  1.00  0.00     0.167 HD
ATOM     69  C   UNL A   1      44.527  28.117  29.436  1.00  0.00     0.074 A 
ATOM     70  C   UNL A   1      44.212  27.006  30.338  1.00  0.00     0.031 C 
ATOM     71  C   UNL A   1      44.793  29.435  29.695  1.00  0.00     0.031 A 
BRANCH  58  72
ATOM     72  C   UNL A   1      43.988  27.952  34.783  1.00  0.00    -0.014 A 
ATOM     73  C   UNL A   1      44.013  28.041  36.190  1.00  0.00     0.010 A 
ATOM     74  C   UNL A   1      44.709  26.890  34.201  1.00  0.00     0.010 A 
ATOM     75  C   UNL A   1      44.789  27.168  36.963  1.00  0.00     0.020 A 
ATOM     76  C   UNL A   1      45.450  25.985  34.965  1.00  0.00     0.020 A 
ATOM     77  C   UNL A   1      45.514  26.154  36.340  1.00  0.00     0.054 A 
BRANCH  77  78
ATOM     78  S   UNL A   1      46.593  25.097  37.334  1.00  0.00     0.124 S 
ATOM     79  O   UNL A   1      46.935  24.042  36.385  1.00  0.00    -0.237 OA
ATOM     80  O   UNL A   1      47.676  26.010  37.688  1.00  0.00    -0.237 OA
ATOM     81  O   UNL A   1      45.739  24.688  38.447  1.00  0.00    -0.744 OA
ENDBRANCH  77  78
ENDBRANCH  58  72
BRANCH  59  82
ATOM     82  C   UNL A   1      41.580  25.130  27.187  1.00  0.00    -0.014 A 
ATOM     83  C   UNL A   1      42.347  24.416  26.245  1.00  0.00     0.010 A 
ATOM     84  C   UNL A   1      40.509  24.438  27.794  1.00  0.00     0.010 A 
ATOM     85  C   UNL A   1      42.098  23.051  25.983  1.00  0.00     0.020 A 
ATOM     86  C   UNL A   1      40.248  23.088  27.532  1.00  0.00     0.020 A 
ATOM     87  C   UNL A   1      41.064  22.390  26.649  1.00  0.00     0.054 A 
BRANCH  87  88
ATOM     88  S   UNL A   1      40.871  20.589  26.475  1.00  0.00     0.124 S 
ATOM     89  O   UNL A   1      42.053  20.221  25.702  1.00  0.00    -0.237 OA
ATOM     90  O   UNL A   1      40.856  20.136  27.863  1.00  0.00    -0.237 OA
ATOM     91  O   UNL A   1      39.599  20.449  25.768  1.00  0.00    -0.744 OA
ENDBRANCH  87  88
ENDBRANCH  59  82
BRANCH  71  92
ATOM     92  C   UNL A   1      44.847  30.421  28.544  1.00  0.00    -0.014 A 
ATOM     93  C   UNL A   1      43.732  30.803  27.772  1.00  0.00     0.010 A 
ATOM     94  C   UNL A   1      46.047  31.134  28.372  1.00  0.00     0.010 A 
ATOM     95  C   UNL A   1      43.823  31.851  26.840  1.00  0.00     0.020 A 
ATOM     96  C   UNL A   1      46.140  32.189  27.462  1.00  0.00     0.020 A 
ATOM     97  C   UNL A   1      45.032  32.537  26.690  1.00  0.00     0.054 A 
BRANCH  97  98
ATOM     98  S   UNL A   1      45.147  33.911  25.510  1.00  0.00     0.124 S 
ATOM     99  O   UNL A   1      44.514  35.007  26.238  1.00  0.00    -0.237 OA
ATOM    100  O   UNL A   1      46.587  34.042  25.302  1.00  0.00    -0.237 OA
ATOM    101  O   UNL A   1      44.403  33.433  24.345  1.00  0.00    -0.744 OA
ENDBRANCH  97  98
ENDBRANCH  71  92
ENDBRANCH  45  46
ENDBRANCH  37  40
ENDBRANCH  35  36
ENDBRANCH  34  35
ENDBRANCH   1  34
TORSDOF 19
ENDMDL
MODEL 2
REMARK VINA RESULT:     -12.3      1.470      1.841
REMARK SMILES CCCn1nc(C(=O)NCCCCNC(=O)c2ccc(-c3c4nc(c(-c5ccc(S(=O)(=O)[O-])cc5)c5ccc([nH]5)c(-c5ccc(S(=O)(=O)[O-])cc5)c5nc(c(-c6ccc(S(=O)(=O)[O-])cc6)c6ccc3[nH]6)C=C5)C=C4)cc2)c2c1CC[C@@H]([NH+]1CC[NH+](Cc3ccccn3)CC1)C2
REMARK SMILES IDX 11 1 10 2 9 3 7 4 8 5 6 7 4 8 5 9 78 10 77 11 79 12 95 13
REMARK SMILES IDX 80 14 81 15 3 16 2 17 1 18 82 19 83 20 94 21 84 23 93 24
REMARK SMILES IDX 85 25 86 27 87 28 88 29 92 30 89 31 91 32 90 33 12 34 13 35
REMARK SMILES IDX 14 36 15 37 16 39 17 40 18 41 76 42 19 43 75 44 20 45 21 46
REMARK SMILES IDX 22 47 69 48 23 49 74 50 68 51 70 52 24 53 73 54 67 55 66 56
REMARK SMILES IDX 25 58 55 59 36 60 54 61 37 62 40 63 53 64 71 65 38 66 39 67
REMARK SMILES IDX 52 69 72 70 41 71 26 72 27 73 35 74 28 75 34 76 29 77 30 78
REMARK SMILES IDX 31 79 32 80 33 81 56 82 57 83 65 84 58 85 64 86 59 87 60 88
REMARK SMILES IDX 61 89 62 90 63 91 42 92 43 93 51 94 44 95 50 96 45 97 46 98
REMARK SMILES IDX 47 99 48 100 49 101
REMARK H PARENT 9 6 82 22 85 26 14 38 70 57 40 68
REMARK Flexibility Score: inf
ROOT
ATOM      1  C   UNL A   1      35.258  30.764  27.754  1.00  0.00     0.023 C 
ENDROOT
BRANCH   1   2
ATOM      2  C   UNL A   1      34.564  29.575  27.042  1.00  0.00     0.116 C 
BRANCH   2   3
ATOM      3  N   UNL A   1      33.328  29.101  27.691  1.00  0.00    -0.351 N 
ATOM      4  C   UNL A   1      32.068  28.611  27.365  1.00  0.00     0.272 C 
ATOM      5  O   UNL A   1      31.442  28.208  28.355  1.00  0.00    -0.267 OA
ATOM      6  H   UNL A   1      33.427  29.145  28.671  1.00  0.00     0.163 HD
BRANCH   4   7
ATOM      7  C   UNL A   1      31.439  28.571  26.008  1.00  0.00     0.153 A 
ATOM      8  N   UNL A   1      30.601  29.358  24.153  1.00  0.00    -0.269 N 
ATOM      9  N   UNL A   1      31.113  29.720  25.357  1.00  0.00    -0.167 NA
ATOM     10  C   UNL A   1      30.569  28.008  24.014  1.00  0.00     0.043 A 
ATOM     11  C   UNL A   1      31.164  27.494  25.142  1.00  0.00     0.012 A 
ATOM     12  C   UNL A   1      30.127  27.193  22.862  1.00  0.00     0.062 C 
ATOM     13  C   UNL A   1      31.482  26.071  25.271  1.00  0.00     0.105 C 
ATOM     14  C   UNL A   1      30.065  25.714  23.277  1.00  0.00     0.072 C 
ATOM     15  C   UNL A   1      31.306  25.219  24.020  1.00  0.00     0.189 C 
BRANCH   8  16
ATOM     16  C   UNL A   1      30.086  30.387  23.260  1.00  0.00     0.144 C 
BRANCH  16  17
ATOM     17  C   UNL A   1      29.098  31.425  23.828  1.00  0.00     0.020 C 
ATOM     18  C   UNL A   1      27.622  31.135  23.572  1.00  0.00     0.006 C 
ENDBRANCH  16  17
ENDBRANCH   8  16
BRANCH  15  19
ATOM     19  N   UNL A   1      32.538  25.053  23.243  1.00  0.00    -0.323 N 
ATOM     20  C   UNL A   1      32.548  24.315  21.991  1.00  0.00     0.324 C 
ATOM     21  C   UNL A   1      33.780  25.086  24.013  1.00  0.00     0.324 C 
ATOM     22  H   UNL A   1      32.500  25.957  22.770  1.00  0.00     0.348 HD
ATOM     23  C   UNL A   1      33.487  23.088  21.896  1.00  0.00     0.324 C 
ATOM     24  C   UNL A   1      34.877  24.086  23.589  1.00  0.00     0.324 C 
ATOM     25  N   UNL A   1      34.388  22.837  23.018  1.00  0.00    -0.321 N 
ATOM     26  H   UNL A   1      35.217  22.390  22.625  1.00  0.00     0.348 HD
BRANCH  25  27
ATOM     27  C   UNL A   1      34.082  21.712  23.918  1.00  0.00     0.319 C 
BRANCH  27  28
ATOM     28  C   UNL A   1      33.689  21.906  25.385  1.00  0.00     0.095 A 
ATOM     29  C   UNL A   1      32.379  22.275  25.714  1.00  0.00     0.030 A 
ATOM     30  N   UNL A   1      34.603  21.655  26.358  1.00  0.00    -0.255 NA
ATOM     31  C   UNL A   1      32.046  22.557  27.043  1.00  0.00     0.004 A 
ATOM     32  C   UNL A   1      34.244  21.904  27.644  1.00  0.00     0.111 A 
ATOM     33  C   UNL A   1      33.004  22.383  28.029  1.00  0.00     0.020 A 
ENDBRANCH  27  28
ENDBRANCH  25  27
ENDBRANCH  15  19
ENDBRANCH   4   7
ENDBRANCH   2   3
ENDBRANCH   1   2
BRANCH   1  34
ATOM     34  C   UNL A   1      34.506  32.088  27.927  1.00  0.00     0.023 C 
BRANCH  34  35
ATOM     35  C   UNL A   1      35.311  33.180  28.623  1.00  0.00     0.116 C 
BRANCH  35  36
ATOM     36  N   UNL A   1      34.774  33.615  29.929  1.00  0.00    -0.352 N 
ATOM     37  C   UNL A   1      34.927  32.954  31.145  1.00  0.00     0.251 C 
ATOM     38  H   UNL A   1      34.259  34.455  29.942  1.00  0.00     0.163 HD
ATOM     39  O   UNL A   1      34.149  33.116  32.085  1.00  0.00    -0.269 OA
BRANCH  37  40
ATOM     40  C   UNL A   1      36.108  32.093  31.285  1.00  0.00     0.039 A 
ATOM     41  C   UNL A   1      36.089  30.694  31.216  1.00  0.00     0.014 A 
ATOM     42  C   UNL A   1      37.301  32.800  31.348  1.00  0.00     0.014 A 
ATOM     43  C   UNL A   1      37.309  30.022  31.136  1.00  0.00     0.010 A 
ATOM     44  C   UNL A   1      38.442  32.167  30.978  1.00  0.00     0.010 A 
ATOM     45  C   UNL A   1      38.478  30.780  31.009  1.00  0.00    -0.014 A 
BRANCH  45  46
ATOM     46  C   UNL A   1      39.807  30.220  30.838  1.00  0.00     0.031 A 
ATOM     47  C   UNL A   1      40.511  29.913  32.108  1.00  0.00     0.074 A 
ATOM     48  C   UNL A   1      40.156  29.687  29.644  1.00  0.00     0.049 A 
ATOM     49  N   UNL A   1      41.526  30.533  32.609  1.00  0.00    -0.248 NA
ATOM     50  C   UNL A   1      39.912  28.925  33.026  1.00  0.00     0.031 C 
ATOM     51  C   UNL A   1      39.348  29.587  28.416  1.00  0.00     0.029 A 
ATOM     52  N   UNL A   1      41.249  28.958  29.319  1.00  0.00    -0.354 N 
ATOM     53  C   UNL A   1      41.857  29.832  33.764  1.00  0.00     0.074 A 
ATOM     54  C   UNL A   1      40.690  29.060  34.103  1.00  0.00     0.031 C 
ATOM     55  C   UNL A   1      39.859  28.627  27.615  1.00  0.00     0.029 A 
ATOM     56  C   UNL A   1      41.103  28.155  28.192  1.00  0.00     0.049 A 
ATOM     57  H   UNL A   1      42.084  28.994  29.841  1.00  0.00     0.167 HD
ATOM     58  C   UNL A   1      43.153  29.693  34.165  1.00  0.00     0.031 A 
ATOM     59  C   UNL A   1      41.915  27.128  27.818  1.00  0.00     0.031 A 
ATOM     60  C   UNL A   1      44.032  30.532  33.381  1.00  0.00     0.049 A 
ATOM     61  C   UNL A   1      43.204  27.334  28.538  1.00  0.00     0.074 A 
ATOM     62  C   UNL A   1      44.080  31.884  33.101  1.00  0.00     0.029 A 
ATOM     63  N   UNL A   1      44.755  29.912  32.383  1.00  0.00    -0.354 N 
ATOM     64  N   UNL A   1      43.968  28.376  28.340  1.00  0.00    -0.248 NA
ATOM     65  C   UNL A   1      43.367  26.686  29.833  1.00  0.00     0.031 C 
ATOM     66  C   UNL A   1      44.366  31.950  31.705  1.00  0.00     0.029 A 
ATOM     67  C   UNL A   1      44.593  30.652  31.240  1.00  0.00     0.049 A 
ATOM     68  H   UNL A   1      45.288  29.089  32.474  1.00  0.00     0.167 HD
ATOM     69  C   UNL A   1      44.358  28.779  29.611  1.00  0.00     0.074 A 
ATOM     70  C   UNL A   1      44.028  27.649  30.484  1.00  0.00     0.031 C 
ATOM     71  C   UNL A   1      44.611  30.094  29.901  1.00  0.00     0.031 A 
BRANCH  58  72
ATOM     72  C   UNL A   1      43.688  28.510  34.939  1.00  0.00    -0.014 A 
ATOM     73  C   UNL A   1      44.488  28.759  36.073  1.00  0.00     0.010 A 
ATOM     74  C   UNL A   1      43.658  27.185  34.461  1.00  0.00     0.010 A 
ATOM     75  C   UNL A   1      45.281  27.754  36.641  1.00  0.00     0.020 A 
ATOM     76  C   UNL A   1      44.409  26.164  35.048  1.00  0.00     0.020 A 
ATOM     77  C   UNL A   1      45.245  26.465  36.112  1.00  0.00     0.054 A 
BRANCH  77  78
ATOM     78  S   UNL A   1      46.349  25.200  36.786  1.00  0.00     0.124 S 
ATOM     79  O   UNL A   1      47.332  25.061  35.716  1.00  0.00    -0.237 OA
ATOM     80  O   UNL A   1      46.828  25.832  38.012  1.00  0.00    -0.237 OA
ATOM     81  O   UNL A   1      45.469  24.051  36.984  1.00  0.00    -0.744 OA
ENDBRANCH  77  78
ENDBRANCH  58  72
BRANCH  59  82
ATOM     82  C   UNL A   1      41.485  25.820  27.234  1.00  0.00    -0.014 A 
ATOM     83  C   UNL A   1      42.343  25.053  26.420  1.00  0.00     0.010 A 
ATOM     84  C   UNL A   1      40.311  25.188  27.697  1.00  0.00     0.010 A 
ATOM     85  C   UNL A   1      42.071  23.695  26.148  1.00  0.00     0.020 A 
ATOM     86  C   UNL A   1      40.028  23.844  27.424  1.00  0.00     0.020 A 
ATOM     87  C   UNL A   1      40.926  23.093  26.674  1.00  0.00     0.054 A 
BRANCH  87  88
ATOM     88  S   UNL A   1      40.678  21.298  26.505  1.00  0.00     0.124 S 
ATOM     89  O   UNL A   1      39.384  21.224  25.833  1.00  0.00    -0.237 OA
ATOM     90  O   UNL A   1      41.830  20.893  25.705  1.00  0.00    -0.237 OA
ATOM     91  O   UNL A   1      40.688  20.820  27.886  1.00  0.00    -0.744 OA
ENDBRANCH  87  88
ENDBRANCH  59  82
BRANCH  71  92
ATOM     92  C   UNL A   1      44.688  31.102  28.771  1.00  0.00    -0.014 A 
ATOM     93  C   UNL A   1      45.548  30.986  27.661  1.00  0.00     0.010 A 
ATOM     94  C   UNL A   1      43.702  32.104  28.743  1.00  0.00     0.010 A 
ATOM     95  C   UNL A   1      45.439  31.864  26.569  1.00  0.00     0.020 A 
ATOM     96  C   UNL A   1      43.575  32.968  27.653  1.00  0.00     0.020 A 
ATOM     97  C   UNL A   1      44.451  32.853  26.574  1.00  0.00     0.054 A 
BRANCH  97  98
ATOM     98  S   UNL A   1      44.287  33.969  25.153  1.00  0.00     0.124 S 
ATOM     99  O   UNL A   1      45.482  34.801  25.264  1.00  0.00    -0.237 OA
ATOM    100  O   UNL A   1      44.264  33.050  24.017  1.00  0.00    -0.237 OA
ATOM    101  O   UNL A   1      43.025  34.666  25.400  1.00  0.00    -0.744 OA
ENDBRANCH  97  98
ENDBRANCH  71  92
ENDBRANCH  45  46
ENDBRANCH  37  40
ENDBRANCH  35  36
ENDBRANCH  34  35
ENDBRANCH   1  34
TORSDOF 19
ENDMDL
MODEL 3
REMARK VINA RESULT:     -11.3      1.688      2.194
REMARK SMILES CCCn1nc(C(=O)NCCCCNC(=O)c2ccc(-c3c4nc(c(-c5ccc(S(=O)(=O)[O-])cc5)c5ccc([nH]5)c(-c5ccc(S(=O)(=O)[O-])cc5)c5nc(c(-c6ccc(S(=O)(=O)[O-])cc6)c6ccc3[nH]6)C=C5)C=C4)cc2)c2c1CC[C@@H]([NH+]1CC[NH+](Cc3ccccn3)CC1)C2
REMARK SMILES IDX 11 1 10 2 9 3 7 4 8 5 6 7 4 8 5 9 78 10 77 11 79 12 95 13
REMARK SMILES IDX 80 14 81 15 3 16 2 17 1 18 82 19 83 20 94 21 84 23 93 24
REMARK SMILES IDX 85 25 86 27 87 28 88 29 92 30 89 31 91 32 90 33 12 34 13 35
REMARK SMILES IDX 14 36 15 37 16 39 17 40 18 41 76 42 19 43 75 44 20 45 21 46
REMARK SMILES IDX 22 47 69 48 23 49 74 50 68 51 70 52 24 53 73 54 67 55 66 56
REMARK SMILES IDX 25 58 55 59 36 60 54 61 37 62 40 63 53 64 71 65 38 66 39 67
REMARK SMILES IDX 52 69 72 70 41 71 26 72 27 73 35 74 28 75 34 76 29 77 30 78
REMARK SMILES IDX 31 79 32 80 33 81 56 82 57 83 65 84 58 85 64 86 59 87 60 88
REMARK SMILES IDX 61 89 62 90 63 91 42 92 43 93 51 94 44 95 50 96 45 97 46 98
REMARK SMILES IDX 47 99 48 100 49 101
REMARK H PARENT 9 6 82 22 85 26 14 38 70 57 40 68
REMARK Flexibility Score: inf
ROOT
ATOM      1  C   UNL A   1      34.535  32.469  27.806  1.00  0.00     0.023 C 
ENDROOT
BRANCH   1   2
ATOM      2  C   UNL A   1      33.566  31.284  27.558  1.00  0.00     0.116 C 
BRANCH   2   3
ATOM      3  N   UNL A   1      34.224  30.009  27.221  1.00  0.00    -0.351 N 
ATOM      4  C   UNL A   1      34.003  28.855  26.476  1.00  0.00     0.272 C 
ATOM      5  O   UNL A   1      35.002  28.124  26.421  1.00  0.00    -0.267 OA
ATOM      6  H   UNL A   1      35.102  29.957  27.665  1.00  0.00     0.163 HD
BRANCH   4   7
ATOM      7  C   UNL A   1      32.728  28.440  25.814  1.00  0.00     0.153 A 
ATOM      8  N   UNL A   1      30.932  28.651  24.591  1.00  0.00    -0.269 N 
ATOM      9  N   UNL A   1      31.999  29.329  25.087  1.00  0.00    -0.167 NA
ATOM     10  C   UNL A   1      30.940  27.354  24.991  1.00  0.00     0.043 A 
ATOM     11  C   UNL A   1      32.105  27.180  25.700  1.00  0.00     0.012 A 
ATOM     12  C   UNL A   1      29.998  26.263  24.660  1.00  0.00     0.062 C 
ATOM     13  C   UNL A   1      32.558  25.858  26.137  1.00  0.00     0.105 C 
ATOM     14  C   UNL A   1      30.302  25.041  25.541  1.00  0.00     0.072 C 
ATOM     15  C   UNL A   1      31.783  24.662  25.599  1.00  0.00     0.189 C 
BRANCH   8  16
ATOM     16  C   UNL A   1      29.922  29.372  23.828  1.00  0.00     0.144 C 
BRANCH  16  17
ATOM     17  C   UNL A   1      30.350  30.071  22.522  1.00  0.00     0.020 C 
ATOM     18  C   UNL A   1      29.240  30.280  21.496  1.00  0.00     0.006 C 
ENDBRANCH  16  17
ENDBRANCH   8  16
BRANCH  15  19
ATOM     19  N   UNL A   1      32.376  24.070  24.396  1.00  0.00    -0.323 N 
ATOM     20  C   UNL A   1      31.610  23.188  23.532  1.00  0.00     0.324 C 
ATOM     21  C   UNL A   1      33.825  23.879  24.435  1.00  0.00     0.324 C 
ATOM     22  H   UNL A   1      32.235  24.876  23.787  1.00  0.00     0.348 HD
ATOM     23  C   UNL A   1      32.155  21.755  23.315  1.00  0.00     0.324 C 
ATOM     24  C   UNL A   1      34.363  22.576  23.807  1.00  0.00     0.324 C 
ATOM     25  N   UNL A   1      33.461  21.434  23.885  1.00  0.00    -0.321 N 
ATOM     26  H   UNL A   1      33.876  20.733  23.271  1.00  0.00     0.348 HD
BRANCH  25  27
ATOM     27  C   UNL A   1      33.505  20.567  25.075  1.00  0.00     0.319 C 
BRANCH  27  28
ATOM     28  C   UNL A   1      33.449  19.039  24.989  1.00  0.00     0.095 A 
ATOM     29  C   UNL A   1      34.505  18.333  24.400  1.00  0.00     0.030 A 
ATOM     30  N   UNL A   1      32.401  18.379  25.545  1.00  0.00    -0.255 NA
ATOM     31  C   UNL A   1      34.409  16.949  24.225  1.00  0.00     0.004 A 
ATOM     32  C   UNL A   1      32.346  17.031  25.391  1.00  0.00     0.111 A 
ATOM     33  C   UNL A   1      33.297  16.284  24.717  1.00  0.00     0.020 A 
ENDBRANCH  27  28
ENDBRANCH  25  27
ENDBRANCH  15  19
ENDBRANCH   4   7
ENDBRANCH   2   3
ENDBRANCH   1   2
BRANCH   1  34
ATOM     34  C   UNL A   1      33.975  33.830  28.230  1.00  0.00     0.023 C 
BRANCH  34  35
ATOM     35  C   UNL A   1      34.856  34.593  29.213  1.00  0.00     0.116 C 
BRANCH  35  36
ATOM     36  N   UNL A   1      34.213  34.925  30.501  1.00  0.00    -0.352 N 
ATOM     37  C   UNL A   1      34.241  34.154  31.659  1.00  0.00     0.251 C 
ATOM     38  H   UNL A   1      33.717  35.775  30.546  1.00  0.00     0.163 HD
ATOM     39  O   UNL A   1      33.385  34.254  32.539  1.00  0.00    -0.269 OA
BRANCH  37  40
ATOM     40  C   UNL A   1      35.386  33.249  31.824  1.00  0.00     0.039 A 
ATOM     41  C   UNL A   1      35.394  31.896  31.460  1.00  0.00     0.014 A 
ATOM     42  C   UNL A   1      36.542  33.894  32.244  1.00  0.00     0.014 A 
ATOM     43  C   UNL A   1      36.615  31.220  31.459  1.00  0.00     0.010 A 
ATOM     44  C   UNL A   1      37.737  33.319  31.958  1.00  0.00     0.010 A 
ATOM     45  C   UNL A   1      37.780  31.955  31.703  1.00  0.00    -0.014 A 
BRANCH  45  46
ATOM     46  C   UNL A   1      39.123  31.405  31.657  1.00  0.00     0.031 A 
ATOM     47  C   UNL A   1      39.806  31.343  32.973  1.00  0.00     0.074 A 
ATOM     48  C   UNL A   1      39.508  30.679  30.582  1.00  0.00     0.049 A 
ATOM     49  N   UNL A   1      40.797  32.065  33.375  1.00  0.00    -0.248 NA
ATOM     50  C   UNL A   1      39.207  30.518  34.041  1.00  0.00     0.031 C 
ATOM     51  C   UNL A   1      38.729  30.346  29.377  1.00  0.00     0.029 A 
ATOM     52  N   UNL A   1      40.623  29.930  30.410  1.00  0.00    -0.354 N 
ATOM     53  C   UNL A   1      41.117  31.586  34.641  1.00  0.00     0.074 A 
ATOM     54  C   UNL A   1      39.959  30.858  35.090  1.00  0.00     0.031 C 
ATOM     55  C   UNL A   1      39.276  29.271  28.767  1.00  0.00     0.029 A 
ATOM     56  C   UNL A   1      40.517  28.937  29.440  1.00  0.00     0.049 A 
ATOM     57  H   UNL A   1      41.445  30.076  30.932  1.00  0.00     0.167 HD
ATOM     58  C   UNL A   1      42.407  31.550  35.083  1.00  0.00     0.031 A 
ATOM     59  C   UNL A   1      41.357  27.880  29.267  1.00  0.00     0.031 A 
ATOM     60  C   UNL A   1      43.286  32.258  34.180  1.00  0.00     0.049 A 
ATOM     61  C   UNL A   1      42.626  28.240  29.962  1.00  0.00     0.074 A 
ATOM     62  C   UNL A   1      43.313  33.540  33.666  1.00  0.00     0.029 A 
ATOM     63  N   UNL A   1      44.042  31.490  33.320  1.00  0.00    -0.354 N 
ATOM     64  N   UNL A   1      43.373  29.249  29.597  1.00  0.00    -0.248 NA
ATOM     65  C   UNL A   1      42.773  27.833  31.354  1.00  0.00     0.031 C 
ATOM     66  C   UNL A   1      43.627  33.367  32.285  1.00  0.00     0.029 A 
ATOM     67  C   UNL A   1      43.890  32.013  32.061  1.00  0.00     0.049 A 
ATOM     68  H   UNL A   1      44.590  30.708  33.564  1.00  0.00     0.167 HD
ATOM     69  C   UNL A   1      43.728  29.878  30.784  1.00  0.00     0.074 A 
ATOM     70  C   UNL A   1      43.401  28.912  31.837  1.00  0.00     0.031 C 
ATOM     71  C   UNL A   1      43.947  31.229  30.842  1.00  0.00     0.031 A 
BRANCH  58  72
ATOM     72  C   UNL A   1      42.948  30.535  36.063  1.00  0.00    -0.014 A 
ATOM     73  C   UNL A   1      44.040  30.904  36.875  1.00  0.00     0.010 A 
ATOM     74  C   UNL A   1      42.608  29.167  36.040  1.00  0.00     0.010 A 
ATOM     75  C   UNL A   1      44.801  29.945  37.555  1.00  0.00     0.020 A 
ATOM     76  C   UNL A   1      43.331  28.207  36.752  1.00  0.00     0.020 A 
ATOM     77  C   UNL A   1      44.447  28.600  37.475  1.00  0.00     0.054 A 
BRANCH  77  78
ATOM     78  S   UNL A   1      45.495  27.359  38.272  1.00  0.00     0.124 S 
ATOM     79  O   UNL A   1      44.717  27.032  39.463  1.00  0.00    -0.237 OA
ATOM     80  O   UNL A   1      45.565  26.317  37.253  1.00  0.00    -0.237 OA
ATOM     81  O   UNL A   1      46.745  28.074  38.515  1.00  0.00    -0.744 OA
ENDBRANCH  77  78
ENDBRANCH  58  72
BRANCH  59  82
ATOM     82  C   UNL A   1      40.966  26.481  28.915  1.00  0.00    -0.014 A 
ATOM     83  C   UNL A   1      39.709  26.179  28.354  1.00  0.00     0.010 A 
ATOM     84  C   UNL A   1      41.940  25.459  28.886  1.00  0.00     0.010 A 
ATOM     85  C   UNL A   1      39.468  24.938  27.725  1.00  0.00     0.020 A 
ATOM     86  C   UNL A   1      41.707  24.221  28.273  1.00  0.00     0.020 A 
ATOM     87  C   UNL A   1      40.480  23.977  27.667  1.00  0.00     0.054 A 
BRANCH  87  88
ATOM     88  S   UNL A   1      40.248  22.466  26.680  1.00  0.00     0.124 S 
ATOM     89  O   UNL A   1      40.302  21.418  27.695  1.00  0.00    -0.237 OA
ATOM     90  O   UNL A   1      38.941  22.686  26.066  1.00  0.00    -0.237 OA
ATOM     91  O   UNL A   1      41.376  22.489  25.751  1.00  0.00    -0.744 OA
ENDBRANCH  87  88
ENDBRANCH  59  82
BRANCH  71  92
ATOM     92  C   UNL A   1      44.029  32.024  29.554  1.00  0.00    -0.014 A 
ATOM     93  C   UNL A   1      43.075  32.979  29.148  1.00  0.00     0.010 A 
ATOM     94  C   UNL A   1      45.227  31.934  28.824  1.00  0.00     0.010 A 
ATOM     95  C   UNL A   1      43.306  33.802  28.032  1.00  0.00     0.020 A 
ATOM     96  C   UNL A   1      45.472  32.761  27.725  1.00  0.00     0.020 A 
ATOM     97  C   UNL A   1      44.507  33.684  27.326  1.00  0.00     0.054 A 
BRANCH  97  98
ATOM     98  S   UNL A   1      44.823  34.764  25.902  1.00  0.00     0.124 S 
ATOM     99  O   UNL A   1      45.773  35.731  26.444  1.00  0.00    -0.237 OA
ATOM    100  O   UNL A   1      45.362  33.842  24.906  1.00  0.00    -0.237 OA
ATOM    101  O   UNL A   1      43.505  35.310  25.578  1.00  0.00    -0.744 OA
ENDBRANCH  97  98
ENDBRANCH  71  92
ENDBRANCH  45  46
ENDBRANCH  37  40
ENDBRANCH  35  36
ENDBRANCH  34  35
ENDBRANCH   1  34
TORSDOF 19
ENDMDL
