MODEL 1
REMARK VINA RESULT:     -11.1      0.000      0.000
REMARK SMILES O=C(NCCCCNC(=O)[C@@H](Cc1ccccc1)Nc1ccc(Cl)c(Br)c1)c1ccc(-c2c3nc(c(-c4ccc(S(=O)(=O)[O-])cc4)c4ccc([nH]4)c(-c4ccc(S(=O)(=O)[O-])cc4)c4nc(c(-c5ccc(S(=O)(=O)[O-])cc5)c5ccc2[nH]5)C=C4)C=C3)cc1
REMARK SMILES IDX 5 1 4 2 3 3 1 4 2 5 28 7 29 8 87 9 30 10 86 11 31 12 32 13
REMARK SMILES IDX 33 14 80 15 34 16 85 17 79 18 81 19 35 20 84 21 78 22 77 23
REMARK SMILES IDX 36 25 66 26 47 27 65 28 48 29 51 30 64 31 82 32 49 33 50 34
REMARK SMILES IDX 63 36 83 37 52 38 37 39 38 40 46 41 39 42 45 43 40 44 41 45
REMARK SMILES IDX 42 46 43 47 44 48 67 49 68 50 76 51 69 52 75 53 70 54 71 55
REMARK SMILES IDX 72 56 73 57 74 58 53 59 54 60 62 61 55 62 61 63 56 64 57 65
REMARK SMILES IDX 58 66 59 67 60 68 6 69 7 70 8 71 9 72 10 74 11 75 12 76
REMARK SMILES IDX 13 77 14 78 18 79 15 80 17 81 16 82 19 83 20 85 21 86 27 87
REMARK SMILES IDX 22 88 25 89 23 90 26 91 24 92
REMARK H PARENT 3 6 81 24 51 35 8 73 19 84
REMARK Flexibility Score: inf
ROOT
ATOM      1  C   UNL A   1      37.777  21.000  25.375  1.00  0.00     0.023 C 
ENDROOT
BRANCH   1   2
ATOM      2  C   UNL A   1      39.182  21.183  25.931  1.00  0.00     0.116 C 
BRANCH   2   3
ATOM      3  N   UNL A   1      39.984  19.967  25.947  1.00  0.00    -0.352 N 
ATOM      4  O   UNL A   1      41.923  18.797  26.096  1.00  0.00    -0.269 OA
ATOM      5  C   UNL A   1      41.345  19.870  26.163  1.00  0.00     0.251 C 
ATOM      6  H   UNL A   1      39.503  19.123  25.789  1.00  0.00     0.163 HD
BRANCH   5   7
ATOM      7  C   UNL A   1      42.090  21.122  26.427  1.00  0.00     0.039 A 
ATOM      8  C   UNL A   1      42.417  21.470  27.739  1.00  0.00     0.014 A 
ATOM      9  C   UNL A   1      42.347  22.003  25.374  1.00  0.00     0.014 A 
ATOM     10  C   UNL A   1      42.843  22.761  28.016  1.00  0.00     0.010 A 
ATOM     11  C   UNL A   1      42.866  23.272  25.649  1.00  0.00     0.010 A 
ATOM     12  C   UNL A   1      43.082  23.676  26.975  1.00  0.00    -0.014 A 
BRANCH  12  13
ATOM     13  C   UNL A   1      43.623  25.019  27.309  1.00  0.00     0.031 A 
ATOM     14  C   UNL A   1      42.755  26.100  27.894  1.00  0.00     0.074 A 
ATOM     15  C   UNL A   1      44.938  25.239  27.107  1.00  0.00     0.049 A 
ATOM     16  N   UNL A   1      43.090  27.317  28.242  1.00  0.00    -0.248 NA
ATOM     17  C   UNL A   1      41.333  25.789  28.113  1.00  0.00     0.031 C 
ATOM     18  C   UNL A   1      45.876  24.267  26.534  1.00  0.00     0.029 A 
ATOM     19  N   UNL A   1      45.719  26.332  27.375  1.00  0.00    -0.354 N 
ATOM     20  C   UNL A   1      41.922  27.927  28.688  1.00  0.00     0.074 A 
ATOM     21  C   UNL A   1      40.865  26.946  28.567  1.00  0.00     0.031 C 
ATOM     22  C   UNL A   1      47.111  24.788  26.542  1.00  0.00     0.029 A 
ATOM     23  C   UNL A   1      47.042  26.152  27.047  1.00  0.00     0.049 A 
ATOM     24  H   UNL A   1      45.367  27.165  27.763  1.00  0.00     0.167 HD
ATOM     25  C   UNL A   1      41.752  29.188  29.151  1.00  0.00     0.031 A 
ATOM     26  C   UNL A   1      48.086  26.998  27.114  1.00  0.00     0.031 A 
ATOM     27  C   UNL A   1      42.815  30.152  29.292  1.00  0.00     0.049 A 
ATOM     28  C   UNL A   1      47.862  28.390  27.621  1.00  0.00     0.074 A 
ATOM     29  C   UNL A   1      42.747  31.437  29.804  1.00  0.00     0.029 A 
ATOM     30  N   UNL A   1      44.132  29.942  28.914  1.00  0.00    -0.354 N 
ATOM     31  N   UNL A   1      46.754  28.931  28.069  1.00  0.00    -0.248 NA
ATOM     32  C   UNL A   1      49.023  29.290  27.620  1.00  0.00     0.031 C 
ATOM     33  C   UNL A   1      44.013  32.021  29.692  1.00  0.00     0.029 A 
ATOM     34  C   UNL A   1      44.879  31.085  29.152  1.00  0.00     0.049 A 
ATOM     35  H   UNL A   1      44.485  29.105  28.535  1.00  0.00     0.167 HD
ATOM     36  C   UNL A   1      47.083  30.239  28.395  1.00  0.00     0.074 A 
ATOM     37  C   UNL A   1      48.499  30.396  28.129  1.00  0.00     0.031 C 
ATOM     38  C   UNL A   1      46.282  31.227  28.862  1.00  0.00     0.031 A 
BRANCH  25  39
ATOM     39  C   UNL A   1      40.362  29.633  29.524  1.00  0.00    -0.014 A 
ATOM     40  C   UNL A   1      39.966  29.746  30.867  1.00  0.00     0.010 A 
ATOM     41  C   UNL A   1      39.477  30.054  28.513  1.00  0.00     0.010 A 
ATOM     42  C   UNL A   1      38.708  30.263  31.193  1.00  0.00     0.020 A 
ATOM     43  C   UNL A   1      38.225  30.588  28.835  1.00  0.00     0.020 A 
ATOM     44  C   UNL A   1      37.846  30.682  30.174  1.00  0.00     0.054 A 
BRANCH  44  45
ATOM     45  S   UNL A   1      36.246  31.410  30.627  1.00  0.00     0.124 S 
ATOM     46  O   UNL A   1      35.895  30.644  31.821  1.00  0.00    -0.237 OA
ATOM     47  O   UNL A   1      36.584  32.812  30.859  1.00  0.00    -0.237 OA
ATOM     48  O   UNL A   1      35.406  31.160  29.459  1.00  0.00    -0.744 OA
ENDBRANCH  44  45
ENDBRANCH  25  39
BRANCH  26  49
ATOM     49  C   UNL A   1      49.420  26.559  26.628  1.00  0.00    -0.014 A 
ATOM     50  C   UNL A   1      50.301  25.862  27.473  1.00  0.00     0.010 A 
ATOM     51  C   UNL A   1      49.802  26.818  25.299  1.00  0.00     0.010 A 
ATOM     52  C   UNL A   1      51.548  25.445  26.999  1.00  0.00     0.020 A 
ATOM     53  C   UNL A   1      51.033  26.377  24.813  1.00  0.00     0.020 A 
ATOM     54  C   UNL A   1      51.906  25.705  25.671  1.00  0.00     0.054 A 
BRANCH  54  55
ATOM     55  S   UNL A   1      53.504  25.111  25.053  1.00  0.00     0.124 S 
ATOM     56  O   UNL A   1      54.442  25.783  25.946  1.00  0.00    -0.237 OA
ATOM     57  O   UNL A   1      53.394  23.663  25.221  1.00  0.00    -0.237 OA
ATOM     58  O   UNL A   1      53.518  25.566  23.665  1.00  0.00    -0.744 OA
ENDBRANCH  54  55
ENDBRANCH  26  49
BRANCH  38  59
ATOM     59  C   UNL A   1      46.925  32.561  29.106  1.00  0.00    -0.014 A 
ATOM     60  C   UNL A   1      46.948  33.541  28.098  1.00  0.00     0.010 A 
ATOM     61  C   UNL A   1      47.492  32.848  30.360  1.00  0.00     0.010 A 
ATOM     62  C   UNL A   1      47.559  34.775  28.327  1.00  0.00     0.020 A 
ATOM     63  C   UNL A   1      48.085  34.090  30.601  1.00  0.00     0.020 A 
ATOM     64  C   UNL A   1      48.129  35.039  29.577  1.00  0.00     0.054 A 
BRANCH  64  65
ATOM     65  S   UNL A   1      48.894  36.658  29.864  1.00  0.00     0.124 S 
ATOM     66  O   UNL A   1      47.969  37.266  30.816  1.00  0.00    -0.237 OA
ATOM     67  O   UNL A   1      50.206  36.306  30.401  1.00  0.00    -0.237 OA
ATOM     68  O   UNL A   1      48.915  37.269  28.537  1.00  0.00    -0.744 OA
ENDBRANCH  64  65
ENDBRANCH  38  59
ENDBRANCH  12  13
ENDBRANCH   5   7
ENDBRANCH   2   3
ENDBRANCH   1   2
BRANCH   1  69
ATOM     69  C   UNL A   1      37.251  22.210  24.613  1.00  0.00     0.023 C 
BRANCH  69  70
ATOM     70  C   UNL A   1      36.302  23.099  25.419  1.00  0.00     0.116 C 
BRANCH  70  71
ATOM     71  N   UNL A   1      35.612  22.331  26.430  1.00  0.00    -0.354 N 
ATOM     72  C   UNL A   1      34.320  21.925  26.515  1.00  0.00     0.242 C 
ATOM     73  H   UNL A   1      36.177  22.055  27.188  1.00  0.00     0.163 HD
ATOM     74  O   UNL A   1      33.977  21.431  27.599  1.00  0.00    -0.273 OA
BRANCH  72  75
ATOM     75  C   UNL A   1      33.302  22.011  25.352  1.00  0.00     0.173 C 
BRANCH  75  76
ATOM     76  C   UNL A   1      32.537  20.715  25.012  1.00  0.00     0.070 C 
BRANCH  76  77
ATOM     77  C   UNL A   1      33.149  19.459  24.419  1.00  0.00    -0.045 A 
ATOM     78  C   UNL A   1      32.403  18.766  23.443  1.00  0.00     0.004 A 
ATOM     79  C   UNL A   1      34.355  18.887  24.837  1.00  0.00     0.004 A 
ATOM     80  C   UNL A   1      32.884  17.593  22.855  1.00  0.00     0.000 A 
ATOM     81  C   UNL A   1      34.853  17.727  24.228  1.00  0.00     0.000 A 
ATOM     82  C   UNL A   1      34.122  17.084  23.234  1.00  0.00     0.000 A 
ENDBRANCH  76  77
ENDBRANCH  75  76
BRANCH  75  83
ATOM     83  N   UNL A   1      32.494  23.238  25.408  1.00  0.00    -0.373 N 
ATOM     84  H   UNL A   1      31.587  23.172  25.784  1.00  0.00     0.161 HD
BRANCH  83  85
ATOM     85  C   UNL A   1      32.920  24.480  24.967  1.00  0.00     0.036 A 
ATOM     86  C   UNL A   1      33.148  24.665  23.597  1.00  0.00     0.027 A 
ATOM     87  C   UNL A   1      33.183  25.564  25.814  1.00  0.00     0.043 A 
ATOM     88  C   UNL A   1      33.558  25.902  23.084  1.00  0.00     0.024 A 
ATOM     89  C   UNL A   1      33.582  26.811  25.310  1.00  0.00     0.038 A 
ATOM     90  C   UNL A   1      33.764  26.983  23.938  1.00  0.00     0.055 A 
ATOM     91  Br  UNL A   1      33.844  28.217  26.563  1.00  0.00    -0.049 Br
ATOM     92  Cl  UNL A   1      34.238  28.487  23.235  1.00  0.00    -0.083 Cl
ENDBRANCH  83  85
ENDBRANCH  75  83
ENDBRANCH  72  75
ENDBRANCH  70  71
ENDBRANCH  69  70
ENDBRANCH   1  69
TORSDOF 18
ENDMDL
MODEL 2
REMARK VINA RESULT:     -11.1      3.672      9.138
REMARK SMILES O=C(NCCCCNC(=O)[C@@H](Cc1ccccc1)Nc1ccc(Cl)c(Br)c1)c1ccc(-c2c3nc(c(-c4ccc(S(=O)(=O)[O-])cc4)c4ccc([nH]4)c(-c4ccc(S(=O)(=O)[O-])cc4)c4nc(c(-c5ccc(S(=O)(=O)[O-])cc5)c5ccc2[nH]5)C=C4)C=C3)cc1
REMARK SMILES IDX 5 1 4 2 3 3 1 4 2 5 28 7 29 8 87 9 30 10 86 11 31 12 32 13
REMARK SMILES IDX 33 14 80 15 34 16 85 17 79 18 81 19 35 20 84 21 78 22 77 23
REMARK SMILES IDX 36 25 66 26 47 27 65 28 48 29 51 30 64 31 82 32 49 33 50 34
REMARK SMILES IDX 63 36 83 37 52 38 37 39 38 40 46 41 39 42 45 43 40 44 41 45
REMARK SMILES IDX 42 46 43 47 44 48 67 49 68 50 76 51 69 52 75 53 70 54 71 55
REMARK SMILES IDX 72 56 73 57 74 58 53 59 54 60 62 61 55 62 61 63 56 64 57 65
REMARK SMILES IDX 58 66 59 67 60 68 6 69 7 70 8 71 9 72 10 74 11 75 12 76
REMARK SMILES IDX 13 77 14 78 18 79 15 80 17 81 16 82 19 83 20 85 21 86 27 87
REMARK SMILES IDX 22 88 25 89 23 90 26 91 24 92
REMARK H PARENT 3 6 81 24 51 35 8 73 19 84
REMARK Flexibility Score: inf
ROOT
ATOM      1  C   UNL A   1      33.605  26.967  26.114  1.00  0.00     0.023 C 
ENDROOT
BRANCH   1   2
ATOM      2  C   UNL A   1      34.491  28.198  26.246  1.00  0.00     0.116 C 
BRANCH   2   3
ATOM      3  N   UNL A   1      33.812  29.372  26.778  1.00  0.00    -0.352 N 
ATOM      4  O   UNL A   1      33.645  31.224  28.080  1.00  0.00    -0.269 OA
ATOM      5  C   UNL A   1      34.329  30.307  27.655  1.00  0.00     0.251 C 
ATOM      6  H   UNL A   1      32.885  29.515  26.479  1.00  0.00     0.163 HD
BRANCH   5   7
ATOM      7  C   UNL A   1      35.730  30.129  28.102  1.00  0.00     0.039 A 
ATOM      8  C   UNL A   1      36.778  30.410  27.224  1.00  0.00     0.014 A 
ATOM      9  C   UNL A   1      35.983  29.563  29.353  1.00  0.00     0.014 A 
ATOM     10  C   UNL A   1      38.058  29.971  27.528  1.00  0.00     0.010 A 
ATOM     11  C   UNL A   1      37.292  29.208  29.695  1.00  0.00     0.010 A 
ATOM     12  C   UNL A   1      38.334  29.373  28.770  1.00  0.00    -0.014 A 
BRANCH  12  13
ATOM     13  C   UNL A   1      39.736  28.998  29.093  1.00  0.00     0.031 A 
ATOM     14  C   UNL A   1      40.318  27.673  28.676  1.00  0.00     0.074 A 
ATOM     15  C   UNL A   1      40.498  29.899  29.744  1.00  0.00     0.049 A 
ATOM     16  N   UNL A   1      41.526  27.212  28.880  1.00  0.00    -0.248 NA
ATOM     17  C   UNL A   1      39.441  26.743  27.946  1.00  0.00     0.031 C 
ATOM     18  C   UNL A   1      40.037  31.213  30.208  1.00  0.00     0.029 A 
ATOM     19  N   UNL A   1      41.817  29.864  30.113  1.00  0.00    -0.354 N 
ATOM     20  C   UNL A   1      41.548  25.932  28.337  1.00  0.00     0.074 A 
ATOM     21  C   UNL A   1      40.230  25.686  27.793  1.00  0.00     0.031 C 
ATOM     22  C   UNL A   1      41.067  31.876  30.750  1.00  0.00     0.029 A 
ATOM     23  C   UNL A   1      42.239  31.011  30.743  1.00  0.00     0.049 A 
ATOM     24  H   UNL A   1      42.405  29.093  29.942  1.00  0.00     0.167 HD
ATOM     25  C   UNL A   1      42.573  25.047  28.301  1.00  0.00     0.031 A 
ATOM     26  C   UNL A   1      43.429  31.327  31.285  1.00  0.00     0.031 A 
ATOM     27  C   UNL A   1      43.890  25.310  28.823  1.00  0.00     0.049 A 
ATOM     28  C   UNL A   1      44.539  30.322  31.238  1.00  0.00     0.074 A 
ATOM     29  C   UNL A   1      45.009  24.495  28.783  1.00  0.00     0.029 A 
ATOM     30  N   UNL A   1      44.266  26.468  29.486  1.00  0.00    -0.354 N 
ATOM     31  N   UNL A   1      44.544  29.132  30.688  1.00  0.00    -0.248 NA
ATOM     32  C   UNL A   1      45.798  30.696  31.895  1.00  0.00     0.031 C 
ATOM     33  C   UNL A   1      46.047  25.139  29.463  1.00  0.00     0.029 A 
ATOM     34  C   UNL A   1      45.589  26.375  29.888  1.00  0.00     0.049 A 
ATOM     35  H   UNL A   1      43.680  27.243  29.647  1.00  0.00     0.167 HD
ATOM     36  C   UNL A   1      45.805  28.609  30.941  1.00  0.00     0.074 A 
ATOM     37  C   UNL A   1      46.546  29.627  31.659  1.00  0.00     0.031 C 
ATOM     38  C   UNL A   1      46.302  27.391  30.618  1.00  0.00     0.031 A 
BRANCH  25  39
ATOM     39  C   UNL A   1      42.326  23.689  27.700  1.00  0.00    -0.014 A 
ATOM     40  C   UNL A   1      42.665  23.407  26.366  1.00  0.00     0.010 A 
ATOM     41  C   UNL A   1      41.852  22.647  28.520  1.00  0.00     0.010 A 
ATOM     42  C   UNL A   1      42.527  22.110  25.860  1.00  0.00     0.020 A 
ATOM     43  C   UNL A   1      41.729  21.345  28.023  1.00  0.00     0.020 A 
ATOM     44  C   UNL A   1      42.061  21.087  26.693  1.00  0.00     0.054 A 
BRANCH  44  45
ATOM     45  S   UNL A   1      41.955  19.400  26.030  1.00  0.00     0.124 S 
ATOM     46  O   UNL A   1      42.432  18.604  27.158  1.00  0.00    -0.237 OA
ATOM     47  O   UNL A   1      40.534  19.264  25.723  1.00  0.00    -0.237 OA
ATOM     48  O   UNL A   1      42.840  19.426  24.868  1.00  0.00    -0.744 OA
ENDBRANCH  44  45
ENDBRANCH  25  39
BRANCH  26  49
ATOM     49  C   UNL A   1      43.599  32.634  31.972  1.00  0.00    -0.014 A 
ATOM     50  C   UNL A   1      44.030  33.769  31.264  1.00  0.00     0.010 A 
ATOM     51  C   UNL A   1      43.303  32.749  33.342  1.00  0.00     0.010 A 
ATOM     52  C   UNL A   1      44.174  34.994  31.920  1.00  0.00     0.020 A 
ATOM     53  C   UNL A   1      43.417  33.978  33.994  1.00  0.00     0.020 A 
ATOM     54  C   UNL A   1      43.867  35.091  33.282  1.00  0.00     0.054 A 
BRANCH  54  55
ATOM     55  S   UNL A   1      44.006  36.699  34.109  1.00  0.00     0.124 S 
ATOM     56  O   UNL A   1      45.445  36.936  34.067  1.00  0.00    -0.237 OA
ATOM     57  O   UNL A   1      43.195  37.568  33.259  1.00  0.00    -0.237 OA
ATOM     58  O   UNL A   1      43.447  36.444  35.435  1.00  0.00    -0.744 OA
ENDBRANCH  54  55
ENDBRANCH  26  49
BRANCH  38  59
ATOM     59  C   UNL A   1      47.710  27.099  31.047  1.00  0.00    -0.014 A 
ATOM     60  C   UNL A   1      47.969  26.474  32.281  1.00  0.00     0.010 A 
ATOM     61  C   UNL A   1      48.784  27.430  30.203  1.00  0.00     0.010 A 
ATOM     62  C   UNL A   1      49.281  26.218  32.679  1.00  0.00     0.020 A 
ATOM     63  C   UNL A   1      50.099  27.155  30.589  1.00  0.00     0.020 A 
ATOM     64  C   UNL A   1      50.339  26.565  31.832  1.00  0.00     0.054 A 
BRANCH  64  65
ATOM     65  S   UNL A   1      52.036  26.199  32.357  1.00  0.00     0.124 S 
ATOM     66  O   UNL A   1      52.713  26.005  31.077  1.00  0.00    -0.237 OA
ATOM     67  O   UNL A   1      52.415  27.403  33.091  1.00  0.00    -0.237 OA
ATOM     68  O   UNL A   1      51.891  24.997  33.175  1.00  0.00    -0.744 OA
ENDBRANCH  64  65
ENDBRANCH  38  59
ENDBRANCH  12  13
ENDBRANCH   5   7
ENDBRANCH   2   3
ENDBRANCH   1   2
BRANCH   1  69
ATOM     69  C   UNL A   1      32.217  27.137  26.719  1.00  0.00     0.023 C 
BRANCH  69  70
ATOM     70  C   UNL A   1      31.087  26.535  25.884  1.00  0.00     0.116 C 
BRANCH  70  71
ATOM     71  N   UNL A   1      30.351  25.553  26.647  1.00  0.00    -0.354 N 
ATOM     72  C   UNL A   1      30.385  24.196  26.625  1.00  0.00     0.242 C 
ATOM     73  H   UNL A   1      29.714  25.934  27.294  1.00  0.00     0.163 HD
ATOM     74  O   UNL A   1      29.499  23.621  27.272  1.00  0.00    -0.273 OA
BRANCH  72  75
ATOM     75  C   UNL A   1      31.463  23.365  25.887  1.00  0.00     0.173 C 
BRANCH  75  76
ATOM     76  C   UNL A   1      31.432  23.416  24.345  1.00  0.00     0.070 C 
BRANCH  76  77
ATOM     77  C   UNL A   1      32.007  24.528  23.487  1.00  0.00    -0.045 A 
ATOM     78  C   UNL A   1      31.100  25.349  22.787  1.00  0.00     0.004 A 
ATOM     79  C   UNL A   1      33.372  24.738  23.266  1.00  0.00     0.004 A 
ATOM     80  C   UNL A   1      31.542  26.387  21.963  1.00  0.00     0.000 A 
ATOM     81  C   UNL A   1      33.818  25.797  22.464  1.00  0.00     0.000 A 
ATOM     82  C   UNL A   1      32.905  26.625  21.818  1.00  0.00     0.000 A 
ENDBRANCH  76  77
ENDBRANCH  75  76
BRANCH  75  83
ATOM     83  N   UNL A   1      32.789  23.496  26.507  1.00  0.00    -0.373 N 
ATOM     84  H   UNL A   1      32.894  24.157  27.229  1.00  0.00     0.161 HD
BRANCH  83  85
ATOM     85  C   UNL A   1      33.902  22.754  26.146  1.00  0.00     0.036 A 
ATOM     86  C   UNL A   1      33.717  21.433  25.716  1.00  0.00     0.027 A 
ATOM     87  C   UNL A   1      35.218  23.226  26.225  1.00  0.00     0.043 A 
ATOM     88  C   UNL A   1      34.798  20.636  25.317  1.00  0.00     0.024 A 
ATOM     89  C   UNL A   1      36.307  22.441  25.816  1.00  0.00     0.038 A 
ATOM     90  C   UNL A   1      36.095  21.142  25.353  1.00  0.00     0.055 A 
ATOM     91  Br  UNL A   1      38.036  23.226  25.913  1.00  0.00    -0.049 Br
ATOM     92  Cl  UNL A   1      37.376  20.117  24.816  1.00  0.00    -0.083 Cl
ENDBRANCH  83  85
ENDBRANCH  75  83
ENDBRANCH  72  75
ENDBRANCH  70  71
ENDBRANCH  69  70
ENDBRANCH   1  69
TORSDOF 18
ENDMDL
MODEL 3
REMARK VINA RESULT:     -11.0      4.115      9.702
REMARK SMILES O=C(NCCCCNC(=O)[C@@H](Cc1ccccc1)Nc1ccc(Cl)c(Br)c1)c1ccc(-c2c3nc(c(-c4ccc(S(=O)(=O)[O-])cc4)c4ccc([nH]4)c(-c4ccc(S(=O)(=O)[O-])cc4)c4nc(c(-c5ccc(S(=O)(=O)[O-])cc5)c5ccc2[nH]5)C=C4)C=C3)cc1
REMARK SMILES IDX 5 1 4 2 3 3 1 4 2 5 28 7 29 8 87 9 30 10 86 11 31 12 32 13
REMARK SMILES IDX 33 14 80 15 34 16 85 17 79 18 81 19 35 20 84 21 78 22 77 23
REMARK SMILES IDX 36 25 66 26 47 27 65 28 48 29 51 30 64 31 82 32 49 33 50 34
REMARK SMILES IDX 63 36 83 37 52 38 37 39 38 40 46 41 39 42 45 43 40 44 41 45
REMARK SMILES IDX 42 46 43 47 44 48 67 49 68 50 76 51 69 52 75 53 70 54 71 55
REMARK SMILES IDX 72 56 73 57 74 58 53 59 54 60 62 61 55 62 61 63 56 64 57 65
REMARK SMILES IDX 58 66 59 67 60 68 6 69 7 70 8 71 9 72 10 74 11 75 12 76
REMARK SMILES IDX 13 77 14 78 18 79 15 80 17 81 16 82 19 83 20 85 21 86 27 87
REMARK SMILES IDX 22 88 25 89 23 90 26 91 24 92
REMARK H PARENT 3 6 81 24 51 35 8 73 19 84
REMARK Flexibility Score: inf
ROOT
ATOM      1  C   UNL A   1      32.720  27.858  27.098  1.00  0.00     0.023 C 
ENDROOT
BRANCH   1   2
ATOM      2  C   UNL A   1      33.803  28.896  26.836  1.00  0.00     0.116 C 
BRANCH   2   3
ATOM      3  N   UNL A   1      33.606  30.158  27.539  1.00  0.00    -0.352 N 
ATOM      4  O   UNL A   1      34.233  31.857  28.907  1.00  0.00    -0.269 OA
ATOM      5  C   UNL A   1      34.529  30.830  28.316  1.00  0.00     0.251 C 
ATOM      6  H   UNL A   1      32.720  30.577  27.448  1.00  0.00     0.163 HD
BRANCH   5   7
ATOM      7  C   UNL A   1      35.879  30.235  28.451  1.00  0.00     0.039 A 
ATOM      8  C   UNL A   1      36.259  29.647  29.658  1.00  0.00     0.014 A 
ATOM      9  C   UNL A   1      36.799  30.380  27.410  1.00  0.00     0.014 A 
ATOM     10  C   UNL A   1      37.597  29.359  29.884  1.00  0.00     0.010 A 
ATOM     11  C   UNL A   1      38.130  30.000  27.610  1.00  0.00     0.010 A 
ATOM     12  C   UNL A   1      38.548  29.523  28.862  1.00  0.00    -0.014 A 
BRANCH  12  13
ATOM     13  C   UNL A   1      39.956  29.119  29.116  1.00  0.00     0.031 A 
ATOM     14  C   UNL A   1      40.483  27.774  28.694  1.00  0.00     0.074 A 
ATOM     15  C   UNL A   1      40.772  30.011  29.711  1.00  0.00     0.049 A 
ATOM     16  N   UNL A   1      41.689  27.286  28.841  1.00  0.00    -0.248 NA
ATOM     17  C   UNL A   1      39.547  26.854  28.027  1.00  0.00     0.031 C 
ATOM     18  C   UNL A   1      40.368  31.344  30.175  1.00  0.00     0.029 A 
ATOM     19  N   UNL A   1      42.108  29.950  30.009  1.00  0.00    -0.354 N 
ATOM     20  C   UNL A   1      41.652  25.997  28.320  1.00  0.00     0.074 A 
ATOM     21  C   UNL A   1      40.301  25.774  27.851  1.00  0.00     0.031 C 
ATOM     22  C   UNL A   1      41.442  31.990  30.650  1.00  0.00     0.029 A 
ATOM     23  C   UNL A   1      42.590  31.096  30.596  1.00  0.00     0.049 A 
ATOM     24  H   UNL A   1      42.667  29.162  29.822  1.00  0.00     0.167 HD
ATOM     25  C   UNL A   1      42.652  25.087  28.247  1.00  0.00     0.031 A 
ATOM     26  C   UNL A   1      43.815  31.392  31.069  1.00  0.00     0.031 A 
ATOM     27  C   UNL A   1      44.001  25.326  28.694  1.00  0.00     0.049 A 
ATOM     28  C   UNL A   1      44.896  30.359  30.982  1.00  0.00     0.074 A 
ATOM     29  C   UNL A   1      45.096  24.482  28.609  1.00  0.00     0.029 A 
ATOM     30  N   UNL A   1      44.439  26.485  29.316  1.00  0.00    -0.354 N 
ATOM     31  N   UNL A   1      44.844  29.160  30.454  1.00  0.00    -0.248 NA
ATOM     32  C   UNL A   1      46.197  30.712  31.564  1.00  0.00     0.031 C 
ATOM     33  C   UNL A   1      46.184  25.112  29.222  1.00  0.00     0.029 A 
ATOM     34  C   UNL A   1      45.778  26.366  29.649  1.00  0.00     0.049 A 
ATOM     35  H   UNL A   1      43.881  27.277  29.493  1.00  0.00     0.167 HD
ATOM     36  C   UNL A   1      46.104  28.611  30.648  1.00  0.00     0.074 A 
ATOM     37  C   UNL A   1      46.906  29.621  31.308  1.00  0.00     0.031 C 
ATOM     38  C   UNL A   1      46.553  27.375  30.322  1.00  0.00     0.031 A 
BRANCH  25  39
ATOM     39  C   UNL A   1      42.341  23.725  27.684  1.00  0.00    -0.014 A 
ATOM     40  C   UNL A   1      42.468  23.455  26.311  1.00  0.00     0.010 A 
ATOM     41  C   UNL A   1      42.027  22.670  28.562  1.00  0.00     0.010 A 
ATOM     42  C   UNL A   1      42.278  22.157  25.825  1.00  0.00     0.020 A 
ATOM     43  C   UNL A   1      41.854  21.368  28.083  1.00  0.00     0.020 A 
ATOM     44  C   UNL A   1      41.974  21.121  26.715  1.00  0.00     0.054 A 
BRANCH  44  45
ATOM     45  S   UNL A   1      41.799  19.435  26.066  1.00  0.00     0.124 S 
ATOM     46  O   UNL A   1      42.673  19.471  24.896  1.00  0.00    -0.237 OA
ATOM     47  O   UNL A   1      42.270  18.612  27.176  1.00  0.00    -0.237 OA
ATOM     48  O   UNL A   1      40.372  19.322  25.772  1.00  0.00    -0.744 OA
ENDBRANCH  44  45
ENDBRANCH  25  39
BRANCH  26  49
ATOM     49  C   UNL A   1      44.052  32.706  31.722  1.00  0.00    -0.014 A 
ATOM     50  C   UNL A   1      43.833  32.876  33.100  1.00  0.00     0.010 A 
ATOM     51  C   UNL A   1      44.526  33.790  30.962  1.00  0.00     0.010 A 
ATOM     52  C   UNL A   1      44.071  34.114  33.702  1.00  0.00     0.020 A 
ATOM     53  C   UNL A   1      44.794  35.020  31.565  1.00  0.00     0.020 A 
ATOM     54  C   UNL A   1      44.551  35.178  32.930  1.00  0.00     0.054 A 
BRANCH  54  55
ATOM     55  S   UNL A   1      44.908  36.764  33.735  1.00  0.00     0.124 S 
ATOM     56  O   UNL A   1      44.510  37.720  32.706  1.00  0.00    -0.237 OA
ATOM     57  O   UNL A   1      44.057  36.720  34.922  1.00  0.00    -0.237 OA
ATOM     58  O   UNL A   1      46.342  36.689  34.005  1.00  0.00    -0.744 OA
ENDBRANCH  54  55
ENDBRANCH  26  49
BRANCH  38  59
ATOM     59  C   UNL A   1      47.975  27.056  30.681  1.00  0.00    -0.014 A 
ATOM     60  C   UNL A   1      49.019  27.314  29.774  1.00  0.00     0.010 A 
ATOM     61  C   UNL A   1      48.276  26.514  31.943  1.00  0.00     0.010 A 
ATOM     62  C   UNL A   1      50.337  27.001  30.110  1.00  0.00     0.020 A 
ATOM     63  C   UNL A   1      49.596  26.220  32.291  1.00  0.00     0.020 A 
ATOM     64  C   UNL A   1      50.617  26.451  31.365  1.00  0.00     0.054 A 
BRANCH  64  65
ATOM     65  S   UNL A   1      52.339  26.078  31.792  1.00  0.00     0.124 S 
ATOM     66  O   UNL A   1      53.038  26.420  30.556  1.00  0.00    -0.237 OA
ATOM     67  O   UNL A   1      52.593  26.967  32.923  1.00  0.00    -0.237 OA
ATOM     68  O   UNL A   1      52.312  24.655  32.121  1.00  0.00    -0.744 OA
ENDBRANCH  64  65
ENDBRANCH  38  59
ENDBRANCH  12  13
ENDBRANCH   5   7
ENDBRANCH   2   3
ENDBRANCH   1   2
BRANCH   1  69
ATOM     69  C   UNL A   1      31.540  27.941  26.139  1.00  0.00     0.023 C 
BRANCH  69  70
ATOM     70  C   UNL A   1      31.574  29.148  25.199  1.00  0.00     0.116 C 
BRANCH  70  71
ATOM     71  N   UNL A   1      31.521  28.725  23.819  1.00  0.00    -0.354 N 
ATOM     72  C   UNL A   1      30.610  27.973  23.149  1.00  0.00     0.242 C 
ATOM     73  H   UNL A   1      32.276  29.034  23.268  1.00  0.00     0.163 HD
ATOM     74  O   UNL A   1      30.931  27.623  22.005  1.00  0.00    -0.273 OA
BRANCH  72  75
ATOM     75  C   UNL A   1      29.223  27.579  23.714  1.00  0.00     0.173 C 
BRANCH  75  76
ATOM     76  C   UNL A   1      28.025  28.437  23.253  1.00  0.00     0.070 C 
BRANCH  76  77
ATOM     77  C   UNL A   1      28.102  29.876  22.778  1.00  0.00    -0.045 A 
ATOM     78  C   UNL A   1      28.099  30.107  21.387  1.00  0.00     0.004 A 
ATOM     79  C   UNL A   1      28.272  30.983  23.616  1.00  0.00     0.004 A 
ATOM     80  C   UNL A   1      28.181  31.399  20.862  1.00  0.00     0.000 A 
ATOM     81  C   UNL A   1      28.326  32.282  23.094  1.00  0.00     0.000 A 
ATOM     82  C   UNL A   1      28.273  32.492  21.719  1.00  0.00     0.000 A 
ENDBRANCH  76  77
ENDBRANCH  75  76
BRANCH  75  83
ATOM     83  N   UNL A   1      29.011  26.125  23.708  1.00  0.00    -0.373 N 
ATOM     84  H   UNL A   1      28.176  25.785  23.314  1.00  0.00     0.161 HD
BRANCH  83  85
ATOM     85  C   UNL A   1      29.905  25.198  24.220  1.00  0.00     0.036 A 
ATOM     86  C   UNL A   1      30.116  25.163  25.605  1.00  0.00     0.027 A 
ATOM     87  C   UNL A   1      30.652  24.313  23.434  1.00  0.00     0.043 A 
ATOM     88  C   UNL A   1      30.990  24.237  26.188  1.00  0.00     0.024 A 
ATOM     89  C   UNL A   1      31.521  23.372  24.008  1.00  0.00     0.038 A 
ATOM     90  C   UNL A   1      31.685  23.330  25.392  1.00  0.00     0.055 A 
ATOM     91  Br  UNL A   1      32.427  22.186  22.830  1.00  0.00    -0.049 Br
ATOM     92  Cl  UNL A   1      32.720  22.194  26.180  1.00  0.00    -0.083 Cl
ENDBRANCH  83  85
ENDBRANCH  75  83
ENDBRANCH  72  75
ENDBRANCH  70  71
ENDBRANCH  69  70
ENDBRANCH   1  69
TORSDOF 18
ENDMDL
