MODEL 1
REMARK VINA RESULT:     -11.2      0.000      0.000
REMARK SMILES CC[NH2+][C@]1(C(=O)NCCCCNC(=O)c2ccc(-c3c4nc(c(-c5ccc(S(=O)(=O)[O-])cc5)c5ccc([nH]5)c(-c5ccc(S(=O)(=O)[O-])cc5)c5nc(c(-c6ccc(S(=O)(=O)[O-])cc6)c6ccc3[nH]6)C=C5)C=C4)cc2)CC[C@@H](Sc2ccccc2C)C1
REMARK SMILES IDX 10 1 9 2 8 3 7 4 5 5 6 6 4 8 75 9 86 10 76 11 77 12 3 13
REMARK SMILES IDX 2 16 1 17 78 18 79 19 80 20 84 21 81 22 83 23 85 24 82 25
REMARK SMILES IDX 11 26 12 27 13 28 14 30 15 31 16 32 74 33 17 34 73 35 18 36
REMARK SMILES IDX 19 37 20 38 67 39 21 40 72 41 66 42 68 43 22 44 71 45 65 46
REMARK SMILES IDX 64 47 23 49 53 50 34 51 52 52 35 53 38 54 51 55 69 56 36 57
REMARK SMILES IDX 37 58 50 60 70 61 39 62 24 63 25 64 33 65 26 66 32 67 27 68
REMARK SMILES IDX 28 69 29 70 30 71 31 72 54 73 55 74 63 75 56 76 62 77 57 78
REMARK SMILES IDX 58 79 59 80 60 81 61 82 40 83 41 84 49 85 42 86 48 87 43 88
REMARK SMILES IDX 44 89 45 90 46 91 47 92
REMARK H PARENT 7 7 3 14 3 15 12 29 68 48 38 59
REMARK Flexibility Score: inf
ROOT
ATOM      1  C   UNL A   1      37.966  23.367  25.953  1.00  0.00     0.023 C 
ENDROOT
BRANCH   1   2
ATOM      2  C   UNL A   1      36.465  23.607  26.099  1.00  0.00     0.023 C 
BRANCH   2   3
ATOM      3  C   UNL A   1      35.641  22.362  26.394  1.00  0.00     0.116 C 
BRANCH   3   4
ATOM      4  N   UNL A   1      34.564  22.593  27.332  1.00  0.00    -0.351 N 
ATOM      5  C   UNL A   1      33.209  22.484  27.196  1.00  0.00     0.281 C 
ATOM      6  O   UNL A   1      32.561  22.532  28.250  1.00  0.00    -0.268 OA
ATOM      7  H   UNL A   1      34.860  22.878  28.228  1.00  0.00     0.163 HD
BRANCH   5   8
ATOM      8  C   UNL A   1      32.502  22.301  25.810  1.00  0.00     0.176 C 
ATOM      9  C   UNL A   1      31.165  23.097  25.893  1.00  0.00     0.080 C 
ATOM     10  C   UNL A   1      33.191  23.023  24.643  1.00  0.00     0.094 C 
ATOM     11  C   UNL A   1      30.790  23.489  24.469  1.00  0.00     0.022 C 
ATOM     12  C   UNL A   1      32.111  23.575  23.718  1.00  0.00     0.058 C 
BRANCH   8  13
ATOM     13  N   UNL A   1      32.176  20.875  25.537  1.00  0.00    -0.334 N 
ATOM     14  H   UNL A   1      32.029  20.409  26.433  1.00  0.00     0.347 HD
ATOM     15  H   UNL A   1      31.352  20.887  24.936  1.00  0.00     0.347 HD
BRANCH  13  16
ATOM     16  C   UNL A   1      33.190  20.122  24.803  1.00  0.00     0.257 C 
ATOM     17  C   UNL A   1      32.565  19.139  23.827  1.00  0.00     0.071 C 
ENDBRANCH  13  16
ENDBRANCH   8  13
BRANCH  12  18
ATOM     18  S   UNL A   1      32.606  25.175  22.955  1.00  0.00    -0.122 SA
BRANCH  18  19
ATOM     19  C   UNL A   1      32.566  26.357  24.301  1.00  0.00     0.010 A 
ATOM     20  C   UNL A   1      33.723  26.413  25.100  1.00  0.00     0.015 A 
ATOM     21  C   UNL A   1      31.433  27.095  24.702  1.00  0.00    -0.038 A 
ATOM     22  C   UNL A   1      33.786  27.223  26.234  1.00  0.00     0.001 A 
ATOM     23  C   UNL A   1      31.530  27.943  25.824  1.00  0.00     0.004 A 
ATOM     24  C   UNL A   1      30.094  27.052  24.022  1.00  0.00     0.045 C 
ATOM     25  C   UNL A   1      32.693  28.002  26.589  1.00  0.00     0.000 A 
ENDBRANCH  18  19
ENDBRANCH  12  18
ENDBRANCH   5   8
ENDBRANCH   3   4
ENDBRANCH   2   3
ENDBRANCH   1   2
BRANCH   1  26
ATOM     26  C   UNL A   1      38.862  24.452  26.541  1.00  0.00     0.116 C 
BRANCH  26  27
ATOM     27  N   UNL A   1      40.153  24.560  25.879  1.00  0.00    -0.352 N 
ATOM     28  C   UNL A   1      41.229  25.361  26.191  1.00  0.00     0.251 C 
ATOM     29  H   UNL A   1      40.276  23.976  25.095  1.00  0.00     0.163 HD
ATOM     30  O   UNL A   1      42.205  25.389  25.458  1.00  0.00    -0.269 OA
BRANCH  28  31
ATOM     31  C   UNL A   1      41.170  26.215  27.398  1.00  0.00     0.039 A 
ATOM     32  C   UNL A   1      41.944  27.376  27.439  1.00  0.00     0.014 A 
ATOM     33  C   UNL A   1      40.326  25.889  28.463  1.00  0.00     0.014 A 
ATOM     34  C   UNL A   1      41.818  28.249  28.522  1.00  0.00     0.010 A 
ATOM     35  C   UNL A   1      40.140  26.800  29.497  1.00  0.00     0.010 A 
ATOM     36  C   UNL A   1      40.888  27.987  29.541  1.00  0.00    -0.014 A 
BRANCH  36  37
ATOM     37  C   UNL A   1      40.695  28.932  30.671  1.00  0.00     0.031 A 
ATOM     38  C   UNL A   1      41.547  28.811  31.906  1.00  0.00     0.074 A 
ATOM     39  C   UNL A   1      39.717  29.858  30.613  1.00  0.00     0.049 A 
ATOM     40  N   UNL A   1      41.498  29.505  33.014  1.00  0.00    -0.248 NA
ATOM     41  C   UNL A   1      42.568  27.749  31.910  1.00  0.00     0.031 C 
ATOM     42  C   UNL A   1      38.790  30.048  29.495  1.00  0.00     0.029 A 
ATOM     43  N   UNL A   1      39.338  30.816  31.521  1.00  0.00    -0.354 N 
ATOM     44  C   UNL A   1      42.462  28.953  33.849  1.00  0.00     0.074 A 
ATOM     45  C   UNL A   1      43.041  27.832  33.144  1.00  0.00     0.031 C 
ATOM     46  C   UNL A   1      37.972  31.078  29.769  1.00  0.00     0.029 A 
ATOM     47  C   UNL A   1      38.291  31.599  31.094  1.00  0.00     0.049 A 
ATOM     48  H   UNL A   1      39.775  30.931  32.396  1.00  0.00     0.167 HD
ATOM     49  C   UNL A   1      42.850  29.356  35.083  1.00  0.00     0.031 A 
ATOM     50  C   UNL A   1      37.661  32.624  31.700  1.00  0.00     0.031 A 
ATOM     51  C   UNL A   1      42.288  30.483  35.776  1.00  0.00     0.049 A 
ATOM     52  C   UNL A   1      38.123  33.067  33.061  1.00  0.00     0.074 A 
ATOM     53  C   UNL A   1      42.647  31.005  37.007  1.00  0.00     0.029 A 
ATOM     54  N   UNL A   1      41.251  31.269  35.296  1.00  0.00    -0.354 N 
ATOM     55  N   UNL A   1      39.078  32.569  33.811  1.00  0.00    -0.248 NA
ATOM     56  C   UNL A   1      37.437  34.225  33.650  1.00  0.00     0.031 C 
ATOM     57  C   UNL A   1      41.800  32.082  37.288  1.00  0.00     0.029 A 
ATOM     58  C   UNL A   1      40.950  32.265  36.208  1.00  0.00     0.049 A 
ATOM     59  H   UNL A   1      40.796  31.137  34.432  1.00  0.00     0.167 HD
ATOM     60  C   UNL A   1      39.129  33.375  34.943  1.00  0.00     0.074 A 
ATOM     61  C   UNL A   1      38.117  34.398  34.774  1.00  0.00     0.031 C 
ATOM     62  C   UNL A   1      39.944  33.279  36.023  1.00  0.00     0.031 A 
BRANCH  49  63
ATOM     63  C   UNL A   1      43.941  28.565  35.757  1.00  0.00    -0.014 A 
ATOM     64  C   UNL A   1      45.297  28.892  35.567  1.00  0.00     0.010 A 
ATOM     65  C   UNL A   1      43.609  27.497  36.609  1.00  0.00     0.010 A 
ATOM     66  C   UNL A   1      46.301  28.135  36.176  1.00  0.00     0.020 A 
ATOM     67  C   UNL A   1      44.609  26.756  37.244  1.00  0.00     0.020 A 
ATOM     68  C   UNL A   1      45.949  27.067  37.007  1.00  0.00     0.054 A 
BRANCH  68  69
ATOM     69  S   UNL A   1      47.272  26.109  37.797  1.00  0.00     0.124 S 
ATOM     70  O   UNL A   1      46.518  25.258  38.715  1.00  0.00    -0.237 OA
ATOM     71  O   UNL A   1      47.889  25.419  36.665  1.00  0.00    -0.237 OA
ATOM     72  O   UNL A   1      48.106  27.126  38.431  1.00  0.00    -0.744 OA
ENDBRANCH  68  69
ENDBRANCH  49  63
BRANCH  50  73
ATOM     73  C   UNL A   1      36.547  33.328  31.007  1.00  0.00    -0.014 A 
ATOM     74  C   UNL A   1      35.270  33.389  31.591  1.00  0.00     0.010 A 
ATOM     75  C   UNL A   1      36.760  33.949  29.762  1.00  0.00     0.010 A 
ATOM     76  C   UNL A   1      34.220  34.038  30.936  1.00  0.00     0.020 A 
ATOM     77  C   UNL A   1      35.719  34.623  29.115  1.00  0.00     0.020 A 
ATOM     78  C   UNL A   1      34.452  34.652  29.701  1.00  0.00     0.054 A 
BRANCH  78  79
ATOM     79  S   UNL A   1      33.087  35.530  28.890  1.00  0.00     0.124 S 
ATOM     80  O   UNL A   1      33.794  36.540  28.110  1.00  0.00    -0.237 OA
ATOM     81  O   UNL A   1      32.444  34.469  28.118  1.00  0.00    -0.237 OA
ATOM     82  O   UNL A   1      32.297  36.040  30.009  1.00  0.00    -0.744 OA
ENDBRANCH  78  79
ENDBRANCH  50  73
BRANCH  62  83
ATOM     83  C   UNL A   1      39.811  34.338  37.084  1.00  0.00    -0.014 A 
ATOM     84  C   UNL A   1      39.033  34.130  38.237  1.00  0.00     0.010 A 
ATOM     85  C   UNL A   1      40.511  35.551  36.939  1.00  0.00     0.010 A 
ATOM     86  C   UNL A   1      38.923  35.132  39.205  1.00  0.00     0.020 A 
ATOM     87  C   UNL A   1      40.426  36.544  37.918  1.00  0.00     0.020 A 
ATOM     88  C   UNL A   1      39.617  36.335  39.036  1.00  0.00     0.054 A 
BRANCH  88  89
ATOM     89  S   UNL A   1      39.479  37.613  40.316  1.00  0.00     0.124 S 
ATOM     90  O   UNL A   1      38.573  38.571  39.691  1.00  0.00    -0.237 OA
ATOM     91  O   UNL A   1      38.930  36.874  41.450  1.00  0.00    -0.237 OA
ATOM     92  O   UNL A   1      40.854  38.076  40.491  1.00  0.00    -0.744 OA
ENDBRANCH  88  89
ENDBRANCH  62  83
ENDBRANCH  36  37
ENDBRANCH  28  31
ENDBRANCH  26  27
ENDBRANCH   1  26
TORSDOF 18
ENDMDL
MODEL 2
REMARK VINA RESULT:     -11.2      6.562     12.050
REMARK SMILES CC[NH2+][C@]1(C(=O)NCCCCNC(=O)c2ccc(-c3c4nc(c(-c5ccc(S(=O)(=O)[O-])cc5)c5ccc([nH]5)c(-c5ccc(S(=O)(=O)[O-])cc5)c5nc(c(-c6ccc(S(=O)(=O)[O-])cc6)c6ccc3[nH]6)C=C5)C=C4)cc2)CC[C@@H](Sc2ccccc2C)C1
REMARK SMILES IDX 10 1 9 2 8 3 7 4 5 5 6 6 4 8 75 9 86 10 76 11 77 12 3 13
REMARK SMILES IDX 2 16 1 17 78 18 79 19 80 20 84 21 81 22 83 23 85 24 82 25
REMARK SMILES IDX 11 26 12 27 13 28 14 30 15 31 16 32 74 33 17 34 73 35 18 36
REMARK SMILES IDX 19 37 20 38 67 39 21 40 72 41 66 42 68 43 22 44 71 45 65 46
REMARK SMILES IDX 64 47 23 49 53 50 34 51 52 52 35 53 38 54 51 55 69 56 36 57
REMARK SMILES IDX 37 58 50 60 70 61 39 62 24 63 25 64 33 65 26 66 32 67 27 68
REMARK SMILES IDX 28 69 29 70 30 71 31 72 54 73 55 74 63 75 56 76 62 77 57 78
REMARK SMILES IDX 58 79 59 80 60 81 61 82 40 83 41 84 49 85 42 86 48 87 43 88
REMARK SMILES IDX 44 89 45 90 46 91 47 92
REMARK H PARENT 7 7 3 14 3 15 12 29 68 48 38 59
REMARK Flexibility Score: inf
ROOT
ATOM      1  C   UNL A   1      34.351  29.114  27.054  1.00  0.00     0.023 C 
ENDROOT
BRANCH   1   2
ATOM      2  C   UNL A   1      33.201  30.119  27.057  1.00  0.00     0.023 C 
BRANCH   2   3
ATOM      3  C   UNL A   1      31.970  29.690  26.271  1.00  0.00     0.116 C 
BRANCH   3   4
ATOM      4  N   UNL A   1      31.406  28.436  26.723  1.00  0.00    -0.351 N 
ATOM      5  C   UNL A   1      31.314  27.216  26.116  1.00  0.00     0.281 C 
ATOM      6  O   UNL A   1      30.977  26.278  26.851  1.00  0.00    -0.268 OA
ATOM      7  H   UNL A   1      31.020  28.469  27.629  1.00  0.00     0.163 HD
BRANCH   5   8
ATOM      8  C   UNL A   1      31.619  26.994  24.595  1.00  0.00     0.176 C 
ATOM      9  C   UNL A   1      33.164  27.112  24.438  1.00  0.00     0.080 C 
ATOM     10  C   UNL A   1      31.392  25.557  24.103  1.00  0.00     0.094 C 
ATOM     11  C   UNL A   1      33.551  26.299  23.209  1.00  0.00     0.022 C 
ATOM     12  C   UNL A   1      32.483  25.221  23.092  1.00  0.00     0.058 C 
BRANCH   8  13
ATOM     13  N   UNL A   1      30.985  28.038  23.744  1.00  0.00    -0.334 N 
ATOM     14  H   UNL A   1      30.828  28.863  24.324  1.00  0.00     0.347 HD
ATOM     15  H   UNL A   1      31.629  28.193  22.969  1.00  0.00     0.347 HD
BRANCH  13  16
ATOM     16  C   UNL A   1      29.710  27.670  23.134  1.00  0.00     0.257 C 
ATOM     17  C   UNL A   1      28.780  28.865  23.007  1.00  0.00     0.071 C 
ENDBRANCH  13  16
ENDBRANCH   8  13
BRANCH  12  18
ATOM     18  S   UNL A   1      32.982  23.451  23.177  1.00  0.00    -0.122 SA
BRANCH  18  19
ATOM     19  C   UNL A   1      34.556  23.459  24.035  1.00  0.00     0.010 A 
ATOM     20  C   UNL A   1      35.678  23.133  23.252  1.00  0.00     0.015 A 
ATOM     21  C   UNL A   1      34.722  23.604  25.427  1.00  0.00    -0.038 A 
ATOM     22  C   UNL A   1      36.949  23.013  23.817  1.00  0.00     0.001 A 
ATOM     23  C   UNL A   1      36.020  23.525  25.973  1.00  0.00     0.004 A 
ATOM     24  C   UNL A   1      33.608  23.839  26.407  1.00  0.00     0.045 C 
ATOM     25  C   UNL A   1      37.123  23.225  25.177  1.00  0.00     0.000 A 
ENDBRANCH  18  19
ENDBRANCH  12  18
ENDBRANCH   5   8
ENDBRANCH   3   4
ENDBRANCH   2   3
ENDBRANCH   1   2
BRANCH   1  26
ATOM     26  C   UNL A   1      35.627  29.578  27.747  1.00  0.00     0.116 C 
BRANCH  26  27
ATOM     27  N   UNL A   1      35.456  29.835  29.168  1.00  0.00    -0.352 N 
ATOM     28  C   UNL A   1      36.396  29.830  30.175  1.00  0.00     0.251 C 
ATOM     29  H   UNL A   1      34.535  30.041  29.452  1.00  0.00     0.163 HD
ATOM     30  O   UNL A   1      36.049  29.975  31.336  1.00  0.00    -0.269 OA
BRANCH  28  31
ATOM     31  C   UNL A   1      37.818  29.608  29.836  1.00  0.00     0.039 A 
ATOM     32  C   UNL A   1      38.607  28.851  30.704  1.00  0.00     0.014 A 
ATOM     33  C   UNL A   1      38.358  30.113  28.649  1.00  0.00     0.014 A 
ATOM     34  C   UNL A   1      39.920  28.540  30.347  1.00  0.00     0.010 A 
ATOM     35  C   UNL A   1      39.636  29.731  28.258  1.00  0.00     0.010 A 
ATOM     36  C   UNL A   1      40.434  28.946  29.104  1.00  0.00    -0.014 A 
BRANCH  36  37
ATOM     37  C   UNL A   1      41.808  28.575  28.678  1.00  0.00     0.031 A 
ATOM     38  C   UNL A   1      42.887  29.623  28.626  1.00  0.00     0.074 A 
ATOM     39  C   UNL A   1      42.071  27.313  28.282  1.00  0.00     0.049 A 
ATOM     40  N   UNL A   1      44.131  29.508  28.235  1.00  0.00    -0.248 NA
ATOM     41  C   UNL A   1      42.513  30.986  29.038  1.00  0.00     0.031 C 
ATOM     42  C   UNL A   1      41.101  26.215  28.237  1.00  0.00     0.029 A 
ATOM     43  N   UNL A   1      43.237  26.741  27.837  1.00  0.00    -0.354 N 
ATOM     44  C   UNL A   1      44.677  30.782  28.335  1.00  0.00     0.074 A 
ATOM     45  C   UNL A   1      43.617  31.665  28.767  1.00  0.00     0.031 C 
ATOM     46  C   UNL A   1      41.720  25.098  27.821  1.00  0.00     0.029 A 
ATOM     47  C   UNL A   1      43.117  25.405  27.536  1.00  0.00     0.049 A 
ATOM     48  H   UNL A   1      44.080  27.241  27.743  1.00  0.00     0.167 HD
ATOM     49  C   UNL A   1      45.953  31.180  28.110  1.00  0.00     0.031 A 
ATOM     50  C   UNL A   1      44.031  24.523  27.084  1.00  0.00     0.031 A 
ATOM     51  C   UNL A   1      47.011  30.298  27.699  1.00  0.00     0.049 A 
ATOM     52  C   UNL A   1      45.446  24.984  26.862  1.00  0.00     0.074 A 
ATOM     53  C   UNL A   1      48.348  30.593  27.496  1.00  0.00     0.029 A 
ATOM     54  N   UNL A   1      46.855  28.946  27.435  1.00  0.00    -0.354 N 
ATOM     55  N   UNL A   1      45.957  26.182  27.019  1.00  0.00    -0.248 NA
ATOM     56  C   UNL A   1      46.412  23.968  26.422  1.00  0.00     0.031 C 
ATOM     57  C   UNL A   1      48.992  29.426  27.069  1.00  0.00     0.029 A 
ATOM     58  C   UNL A   1      48.068  28.394  27.061  1.00  0.00     0.049 A 
ATOM     59  H   UNL A   1      46.006  28.451  27.504  1.00  0.00     0.167 HD
ATOM     60  C   UNL A   1      47.312  26.055  26.730  1.00  0.00     0.074 A 
ATOM     61  C   UNL A   1      47.540  24.663  26.401  1.00  0.00     0.031 C 
ATOM     62  C   UNL A   1      48.281  27.005  26.742  1.00  0.00     0.031 A 
BRANCH  49  63
ATOM     63  C   UNL A   1      46.266  32.640  28.310  1.00  0.00    -0.014 A 
ATOM     64  C   UNL A   1      46.335  33.523  27.215  1.00  0.00     0.010 A 
ATOM     65  C   UNL A   1      46.471  33.142  29.607  1.00  0.00     0.010 A 
ATOM     66  C   UNL A   1      46.652  34.870  27.410  1.00  0.00     0.020 A 
ATOM     67  C   UNL A   1      46.759  34.495  29.809  1.00  0.00     0.020 A 
ATOM     68  C   UNL A   1      46.868  35.346  28.707  1.00  0.00     0.054 A 
BRANCH  68  69
ATOM     69  S   UNL A   1      47.265  37.101  28.933  1.00  0.00     0.124 S 
ATOM     70  O   UNL A   1      46.893  37.314  30.330  1.00  0.00    -0.237 OA
ATOM     71  O   UNL A   1      48.698  37.146  28.651  1.00  0.00    -0.237 OA
ATOM     72  O   UNL A   1      46.419  37.777  27.953  1.00  0.00    -0.744 OA
ENDBRANCH  68  69
ENDBRANCH  49  63
BRANCH  50  73
ATOM     73  C   UNL A   1      43.645  23.105  26.847  1.00  0.00    -0.014 A 
ATOM     74  C   UNL A   1      43.866  22.506  25.595  1.00  0.00     0.010 A 
ATOM     75  C   UNL A   1      43.062  22.343  27.876  1.00  0.00     0.010 A 
ATOM     76  C   UNL A   1      43.492  21.180  25.366  1.00  0.00     0.020 A 
ATOM     77  C   UNL A   1      42.711  21.006  27.660  1.00  0.00     0.020 A 
ATOM     78  C   UNL A   1      42.917  20.437  26.402  1.00  0.00     0.054 A 
BRANCH  78  79
ATOM     79  S   UNL A   1      42.483  18.701  26.098  1.00  0.00     0.124 S 
ATOM     80  O   UNL A   1      42.686  18.102  27.412  1.00  0.00    -0.237 OA
ATOM     81  O   UNL A   1      41.095  18.797  25.652  1.00  0.00    -0.237 OA
ATOM     82  O   UNL A   1      43.432  18.288  25.066  1.00  0.00    -0.744 OA
ENDBRANCH  78  79
ENDBRANCH  50  73
BRANCH  62  83
ATOM     83  C   UNL A   1      49.686  26.561  26.439  1.00  0.00    -0.014 A 
ATOM     84  C   UNL A   1      50.536  26.073  27.447  1.00  0.00     0.010 A 
ATOM     85  C   UNL A   1      50.150  26.600  25.110  1.00  0.00     0.010 A 
ATOM     86  C   UNL A   1      51.839  25.672  27.139  1.00  0.00     0.020 A 
ATOM     87  C   UNL A   1      51.441  26.174  24.794  1.00  0.00     0.020 A 
ATOM     88  C   UNL A   1      52.285  25.730  25.814  1.00  0.00     0.054 A 
BRANCH  88  89
ATOM     89  S   UNL A   1      53.971  25.182  25.433  1.00  0.00     0.124 S 
ATOM     90  O   UNL A   1      54.747  25.841  26.479  1.00  0.00    -0.237 OA
ATOM     91  O   UNL A   1      53.870  23.729  25.543  1.00  0.00    -0.237 OA
ATOM     92  O   UNL A   1      54.199  25.682  24.079  1.00  0.00    -0.744 OA
ENDBRANCH  88  89
ENDBRANCH  62  83
ENDBRANCH  36  37
ENDBRANCH  28  31
ENDBRANCH  26  27
ENDBRANCH   1  26
TORSDOF 18
ENDMDL
MODEL 3
REMARK VINA RESULT:     -11.1      6.072      8.210
REMARK SMILES CC[NH2+][C@]1(C(=O)NCCCCNC(=O)c2ccc(-c3c4nc(c(-c5ccc(S(=O)(=O)[O-])cc5)c5ccc([nH]5)c(-c5ccc(S(=O)(=O)[O-])cc5)c5nc(c(-c6ccc(S(=O)(=O)[O-])cc6)c6ccc3[nH]6)C=C5)C=C4)cc2)CC[C@@H](Sc2ccccc2C)C1
REMARK SMILES IDX 10 1 9 2 8 3 7 4 5 5 6 6 4 8 75 9 86 10 76 11 77 12 3 13
REMARK SMILES IDX 2 16 1 17 78 18 79 19 80 20 84 21 81 22 83 23 85 24 82 25
REMARK SMILES IDX 11 26 12 27 13 28 14 30 15 31 16 32 74 33 17 34 73 35 18 36
REMARK SMILES IDX 19 37 20 38 67 39 21 40 72 41 66 42 68 43 22 44 71 45 65 46
REMARK SMILES IDX 64 47 23 49 53 50 34 51 52 52 35 53 38 54 51 55 69 56 36 57
REMARK SMILES IDX 37 58 50 60 70 61 39 62 24 63 25 64 33 65 26 66 32 67 27 68
REMARK SMILES IDX 28 69 29 70 30 71 31 72 54 73 55 74 63 75 56 76 62 77 57 78
REMARK SMILES IDX 58 79 59 80 60 81 61 82 40 83 41 84 49 85 42 86 48 87 43 88
REMARK SMILES IDX 44 89 45 90 46 91 47 92
REMARK H PARENT 7 7 3 14 3 15 12 29 68 48 38 59
REMARK Flexibility Score: inf
ROOT
ATOM      1  C   UNL A   1      38.517  19.799  24.997  1.00  0.00     0.023 C 
ENDROOT
BRANCH   1   2
ATOM      2  C   UNL A   1      37.496  20.906  24.749  1.00  0.00     0.023 C 
BRANCH   2   3
ATOM      3  C   UNL A   1      36.047  20.513  25.004  1.00  0.00     0.116 C 
BRANCH   3   4
ATOM      4  N   UNL A   1      35.485  21.124  26.190  1.00  0.00    -0.351 N 
ATOM      5  C   UNL A   1      34.198  21.445  26.516  1.00  0.00     0.281 C 
ATOM      6  O   UNL A   1      34.008  21.751  27.700  1.00  0.00    -0.268 OA
ATOM      7  H   UNL A   1      36.147  21.346  26.885  1.00  0.00     0.163 HD
BRANCH   5   8
ATOM      8  C   UNL A   1      33.024  21.425  25.479  1.00  0.00     0.176 C 
ATOM      9  C   UNL A   1      31.939  22.399  26.030  1.00  0.00     0.080 C 
ATOM     10  C   UNL A   1      33.349  22.094  24.135  1.00  0.00     0.094 C 
ATOM     11  C   UNL A   1      31.142  22.902  24.833  1.00  0.00     0.022 C 
ATOM     12  C   UNL A   1      32.105  22.833  23.656  1.00  0.00     0.058 C 
BRANCH   8  13
ATOM     13  N   UNL A   1      32.415  20.073  25.357  1.00  0.00    -0.334 N 
ATOM     14  H   UNL A   1      32.444  19.631  26.275  1.00  0.00     0.347 HD
ATOM     15  H   UNL A   1      31.471  20.224  24.999  1.00  0.00     0.347 HD
BRANCH  13  16
ATOM     16  C   UNL A   1      33.059  19.172  24.405  1.00  0.00     0.257 C 
ATOM     17  C   UNL A   1      32.179  18.906  23.195  1.00  0.00     0.071 C 
ENDBRANCH  13  16
ENDBRANCH   8  13
BRANCH  12  18
ATOM     18  S   UNL A   1      32.525  24.379  22.749  1.00  0.00    -0.122 SA
BRANCH  18  19
ATOM     19  C   UNL A   1      32.144  25.701  23.897  1.00  0.00     0.010 A 
ATOM     20  C   UNL A   1      31.002  26.464  23.591  1.00  0.00     0.015 A 
ATOM     21  C   UNL A   1      32.971  26.120  24.958  1.00  0.00    -0.038 A 
ATOM     22  C   UNL A   1      30.648  27.580  24.351  1.00  0.00     0.001 A 
ATOM     23  C   UNL A   1      32.573  27.222  25.744  1.00  0.00     0.004 A 
ATOM     24  C   UNL A   1      34.278  25.482  25.335  1.00  0.00     0.045 C 
ATOM     25  C   UNL A   1      31.425  27.950  25.439  1.00  0.00     0.000 A 
ENDBRANCH  18  19
ENDBRANCH  12  18
ENDBRANCH   5   8
ENDBRANCH   3   4
ENDBRANCH   2   3
ENDBRANCH   1   2
BRANCH   1  26
ATOM     26  C   UNL A   1      39.510  20.065  26.124  1.00  0.00     0.116 C 
BRANCH  26  27
ATOM     27  N   UNL A   1      40.715  19.255  26.038  1.00  0.00    -0.352 N 
ATOM     28  C   UNL A   1      42.034  19.643  26.125  1.00  0.00     0.251 C 
ATOM     29  H   UNL A   1      40.567  18.292  25.898  1.00  0.00     0.163 HD
ATOM     30  O   UNL A   1      42.925  18.830  25.932  1.00  0.00    -0.269 OA
BRANCH  28  31
ATOM     31  C   UNL A   1      42.356  21.058  26.413  1.00  0.00     0.039 A 
ATOM     32  C   UNL A   1      42.598  21.437  27.735  1.00  0.00     0.014 A 
ATOM     33  C   UNL A   1      42.454  21.993  25.379  1.00  0.00     0.014 A 
ATOM     34  C   UNL A   1      43.010  22.742  28.011  1.00  0.00     0.010 A 
ATOM     35  C   UNL A   1      42.946  23.266  25.648  1.00  0.00     0.010 A 
ATOM     36  C   UNL A   1      43.222  23.657  26.966  1.00  0.00    -0.014 A 
BRANCH  36  37
ATOM     37  C   UNL A   1      43.718  25.032  27.233  1.00  0.00     0.031 A 
ATOM     38  C   UNL A   1      45.173  25.359  27.028  1.00  0.00     0.074 A 
ATOM     39  C   UNL A   1      42.876  25.968  27.716  1.00  0.00     0.049 A 
ATOM     40  N   UNL A   1      45.806  26.482  27.253  1.00  0.00    -0.248 NA
ATOM     41  C   UNL A   1      46.037  24.273  26.535  1.00  0.00     0.031 C 
ATOM     42  C   UNL A   1      41.455  25.766  28.006  1.00  0.00     0.029 A 
ATOM     43  N   UNL A   1      43.098  27.281  28.050  1.00  0.00    -0.354 N 
ATOM     44  C   UNL A   1      47.139  26.232  26.949  1.00  0.00     0.074 A 
ATOM     45  C   UNL A   1      47.235  24.837  26.580  1.00  0.00     0.031 C 
ATOM     46  C   UNL A   1      40.925  26.920  28.443  1.00  0.00     0.029 A 
ATOM     47  C   UNL A   1      41.974  27.934  28.500  1.00  0.00     0.049 A 
ATOM     48  H   UNL A   1      43.978  27.714  27.976  1.00  0.00     0.167 HD
ATOM     49  C   UNL A   1      48.188  27.089  26.953  1.00  0.00     0.031 A 
ATOM     50  C   UNL A   1      41.804  29.207  28.908  1.00  0.00     0.031 A 
ATOM     51  C   UNL A   1      48.089  28.481  27.301  1.00  0.00     0.049 A 
ATOM     52  C   UNL A   1      42.979  30.146  28.884  1.00  0.00     0.074 A 
ATOM     53  C   UNL A   1      49.081  29.445  27.286  1.00  0.00     0.029 A 
ATOM     54  N   UNL A   1      46.926  29.109  27.721  1.00  0.00    -0.354 N 
ATOM     55  N   UNL A   1      44.221  29.905  28.537  1.00  0.00    -0.248 NA
ATOM     56  C   UNL A   1      42.724  31.536  29.287  1.00  0.00     0.031 C 
ATOM     57  C   UNL A   1      48.527  30.649  27.736  1.00  0.00     0.029 A 
ATOM     58  C   UNL A   1      47.178  30.446  27.977  1.00  0.00     0.049 A 
ATOM     59  H   UNL A   1      46.051  28.670  27.821  1.00  0.00     0.167 HD
ATOM     60  C   UNL A   1      44.887  31.121  28.646  1.00  0.00     0.074 A 
ATOM     61  C   UNL A   1      43.908  32.096  29.080  1.00  0.00     0.031 C 
ATOM     62  C   UNL A   1      46.191  31.406  28.404  1.00  0.00     0.031 A 
BRANCH  49  63
ATOM     63  C   UNL A   1      49.535  26.536  26.565  1.00  0.00    -0.014 A 
ATOM     64  C   UNL A   1      50.431  26.060  27.540  1.00  0.00     0.010 A 
ATOM     65  C   UNL A   1      49.900  26.469  25.209  1.00  0.00     0.010 A 
ATOM     66  C   UNL A   1      51.688  25.574  27.169  1.00  0.00     0.020 A 
ATOM     67  C   UNL A   1      51.144  25.955  24.831  1.00  0.00     0.020 A 
ATOM     68  C   UNL A   1      52.038  25.530  25.816  1.00  0.00     0.054 A 
BRANCH  68  69
ATOM     69  S   UNL A   1      53.670  24.881  25.362  1.00  0.00     0.124 S 
ATOM     70  O   UNL A   1      54.039  25.753  24.249  1.00  0.00    -0.237 OA
ATOM     71  O   UNL A   1      54.442  25.067  26.588  1.00  0.00    -0.237 OA
ATOM     72  O   UNL A   1      53.402  23.491  25.002  1.00  0.00    -0.744 OA
ENDBRANCH  68  69
ENDBRANCH  49  63
BRANCH  50  73
ATOM     73  C   UNL A   1      40.460  29.679  29.339  1.00  0.00    -0.014 A 
ATOM     74  C   UNL A   1      40.152  29.801  30.706  1.00  0.00     0.010 A 
ATOM     75  C   UNL A   1      39.482  30.016  28.386  1.00  0.00     0.010 A 
ATOM     76  C   UNL A   1      38.887  30.231  31.113  1.00  0.00     0.020 A 
ATOM     77  C   UNL A   1      38.222  30.472  28.788  1.00  0.00     0.020 A 
ATOM     78  C   UNL A   1      37.929  30.565  30.150  1.00  0.00     0.054 A 
BRANCH  78  79
ATOM     79  S   UNL A   1      36.307  31.166  30.700  1.00  0.00     0.124 S 
ATOM     80  O   UNL A   1      35.533  31.128  29.464  1.00  0.00    -0.237 OA
ATOM     81  O   UNL A   1      35.933  30.181  31.713  1.00  0.00    -0.237 OA
ATOM     82  O   UNL A   1      36.597  32.501  31.219  1.00  0.00    -0.744 OA
ENDBRANCH  78  79
ENDBRANCH  50  73
BRANCH  62  83
ATOM     83  C   UNL A   1      46.624  32.839  28.553  1.00  0.00    -0.014 A 
ATOM     84  C   UNL A   1      47.310  33.285  29.696  1.00  0.00     0.010 A 
ATOM     85  C   UNL A   1      46.371  33.747  27.507  1.00  0.00     0.010 A 
ATOM     86  C   UNL A   1      47.697  34.622  29.811  1.00  0.00     0.020 A 
ATOM     87  C   UNL A   1      46.781  35.079  27.606  1.00  0.00     0.020 A 
ATOM     88  C   UNL A   1      47.425  35.512  28.766  1.00  0.00     0.054 A 
BRANCH  88  89
ATOM     89  S   UNL A   1      47.957  37.239  28.925  1.00  0.00     0.124 S 
ATOM     90  O   UNL A   1      48.683  37.449  27.676  1.00  0.00    -0.237 OA
ATOM     91  O   UNL A   1      46.691  37.956  29.046  1.00  0.00    -0.237 OA
ATOM     92  O   UNL A   1      48.781  37.236  30.132  1.00  0.00    -0.744 OA
ENDBRANCH  88  89
ENDBRANCH  62  83
ENDBRANCH  36  37
ENDBRANCH  28  31
ENDBRANCH  26  27
ENDBRANCH   1  26
TORSDOF 18
ENDMDL
