MODEL 1
REMARK VINA RESULT:     -10.6      0.000      0.000
REMARK SMILES CC(C)CCNC(=O)[C@@H](C)Oc1ccc(N)cc1C(=O)NCCCCNC(=O)c1ccc(-c2c3nc(c(-c4ccc(S(=O)(=O)[O-])cc4)c4ccc([nH]4)c(-c4ccc(S(=O)(=O)[O-])cc4)c4nc(c(-c5ccc(S(=O)(=O)[O-])cc5)c5ccc2[nH]5)C=C4)C=C3)cc1
REMARK SMILES IDX 22 1 21 2 19 3 20 4 18 6 12 7 13 8 14 9 17 10 15 11 11 12
REMARK SMILES IDX 9 13 10 14 7 15 6 16 8 18 5 19 4 20 2 21 1 22 3 23 16 24
REMARK SMILES IDX 23 27 24 28 25 29 26 30 27 31 28 33 29 34 30 35 88 36 31 37
REMARK SMILES IDX 87 38 32 39 33 40 34 41 81 42 35 43 86 44 80 45 82 46 36 47
REMARK SMILES IDX 85 48 79 49 78 50 37 52 67 53 48 54 66 55 49 56 52 57 65 58
REMARK SMILES IDX 83 59 50 60 51 61 64 63 84 64 53 65 38 66 39 67 47 68 40 69
REMARK SMILES IDX 46 70 41 71 42 72 43 73 44 74 45 75 68 76 69 77 77 78 70 79
REMARK SMILES IDX 76 80 71 81 72 82 73 83 74 84 75 85 54 86 55 87 63 88 56 89
REMARK SMILES IDX 62 90 57 91 58 92 59 93 60 94 61 95
REMARK H PARENT 21 5 6 17 16 25 16 26 26 32 82 51 52 62
REMARK Flexibility Score: inf
ROOT
ATOM      1  C   UNL A   1      30.605  26.762  26.137  1.00  0.00     0.116 C 
ENDROOT
BRANCH   1   2
ATOM      2  N   UNL A   1      30.388  25.352  26.195  1.00  0.00    -0.352 N 
ATOM      3  C   UNL A   1      30.949  24.313  25.500  1.00  0.00     0.255 C 
ATOM      4  O   UNL A   1      30.445  23.213  25.765  1.00  0.00    -0.269 OA
ATOM      5  H   UNL A   1      29.712  25.076  26.854  1.00  0.00     0.163 HD
BRANCH   3   6
ATOM      6  C   UNL A   1      32.102  24.347  24.517  1.00  0.00     0.083 A 
ATOM      7  C   UNL A   1      33.413  23.841  24.592  1.00  0.00     0.133 A 
ATOM      8  C   UNL A   1      34.116  23.591  23.403  1.00  0.00     0.049 A 
ATOM      9  C   UNL A   1      33.671  24.088  22.178  1.00  0.00     0.029 A 
ATOM     10  C   UNL A   1      31.714  24.891  23.263  1.00  0.00     0.043 A 
ATOM     11  C   UNL A   1      32.514  24.843  22.120  1.00  0.00     0.032 A 
BRANCH   7  12
ATOM     12  O   UNL A   1      34.046  23.448  25.727  1.00  0.00    -0.480 OA
BRANCH  12  13
ATOM     13  C   UNL A   1      33.952  22.069  26.150  1.00  0.00     0.258 C 
ATOM     14  C   UNL A   1      33.620  21.801  27.638  1.00  0.00     0.064 C 
BRANCH  13  15
ATOM     15  C   UNL A   1      34.904  20.978  25.594  1.00  0.00     0.260 C 
ATOM     16  N   UNL A   1      34.438  19.908  24.885  1.00  0.00    -0.353 N 
ATOM     17  H   UNL A   1      35.108  19.435  24.341  1.00  0.00     0.163 HD
ATOM     18  O   UNL A   1      36.127  21.066  25.744  1.00  0.00    -0.271 OA
BRANCH  16  19
ATOM     19  C   UNL A   1      33.094  19.375  24.825  1.00  0.00     0.116 C 
BRANCH  19  20
ATOM     20  C   UNL A   1      32.882  18.137  25.680  1.00  0.00     0.024 C 
BRANCH  20  21
ATOM     21  C   UNL A   1      33.446  16.843  25.069  1.00  0.00    -0.016 C 
ATOM     22  C   UNL A   1      32.606  15.610  25.419  1.00  0.00     0.007 C 
ATOM     23  C   UNL A   1      33.515  17.001  23.550  1.00  0.00     0.007 C 
ENDBRANCH  20  21
ENDBRANCH  19  20
ENDBRANCH  16  19
ENDBRANCH  13  15
ENDBRANCH  12  13
ENDBRANCH   7  12
BRANCH  11  24
ATOM     24  N   UNL A   1      32.083  25.397  20.928  1.00  0.00    -0.399 N 
ATOM     25  H   UNL A   1      31.150  25.698  20.835  1.00  0.00     0.156 HD
ATOM     26  H   UNL A   1      32.708  25.491  20.174  1.00  0.00     0.156 HD
ENDBRANCH  11  24
ENDBRANCH   3   6
ENDBRANCH   1   2
BRANCH   1  27
ATOM     27  C   UNL A   1      31.547  27.298  27.202  1.00  0.00     0.023 C 
BRANCH  27  28
ATOM     28  C   UNL A   1      31.950  28.745  27.013  1.00  0.00     0.023 C 
BRANCH  28  29
ATOM     29  C   UNL A   1      33.394  29.050  27.383  1.00  0.00     0.116 C 
BRANCH  29  30
ATOM     30  N   UNL A   1      33.649  30.454  27.706  1.00  0.00    -0.352 N 
ATOM     31  C   UNL A   1      34.812  31.040  28.156  1.00  0.00     0.251 C 
ATOM     32  H   UNL A   1      32.885  31.063  27.585  1.00  0.00     0.163 HD
ATOM     33  O   UNL A   1      34.846  32.229  28.456  1.00  0.00    -0.269 OA
BRANCH  31  34
ATOM     34  C   UNL A   1      36.001  30.185  28.320  1.00  0.00     0.039 A 
ATOM     35  C   UNL A   1      36.967  30.164  27.313  1.00  0.00     0.014 A 
ATOM     36  C   UNL A   1      36.227  29.554  29.543  1.00  0.00     0.014 A 
ATOM     37  C   UNL A   1      38.220  29.614  27.587  1.00  0.00     0.010 A 
ATOM     38  C   UNL A   1      37.510  29.130  29.852  1.00  0.00     0.010 A 
ATOM     39  C   UNL A   1      38.524  29.159  28.881  1.00  0.00    -0.014 A 
BRANCH  39  40
ATOM     40  C   UNL A   1      39.892  28.720  29.259  1.00  0.00     0.031 A 
ATOM     41  C   UNL A   1      40.804  29.672  29.985  1.00  0.00     0.074 A 
ATOM     42  C   UNL A   1      40.351  27.517  28.858  1.00  0.00     0.049 A 
ATOM     43  N   UNL A   1      42.066  29.530  30.296  1.00  0.00    -0.248 NA
ATOM     44  C   UNL A   1      40.236  30.977  30.364  1.00  0.00     0.031 C 
ATOM     45  C   UNL A   1      39.596  26.530  28.080  1.00  0.00     0.029 A 
ATOM     46  N   UNL A   1      41.574  26.921  29.045  1.00  0.00    -0.354 N 
ATOM     47  C   UNL A   1      42.449  30.739  30.866  1.00  0.00     0.074 A 
ATOM     48  C   UNL A   1      41.307  31.621  30.797  1.00  0.00     0.031 C 
ATOM     49  C   UNL A   1      40.358  25.439  27.893  1.00  0.00     0.029 A 
ATOM     50  C   UNL A   1      41.667  25.662  28.498  1.00  0.00     0.049 A 
ATOM     51  H   UNL A   1      42.316  27.355  29.526  1.00  0.00     0.167 HD
ATOM     52  C   UNL A   1      43.634  31.078  31.424  1.00  0.00     0.031 A 
ATOM     53  C   UNL A   1      42.689  24.785  28.485  1.00  0.00     0.031 A 
ATOM     54  C   UNL A   1      44.753  30.183  31.533  1.00  0.00     0.049 A 
ATOM     55  C   UNL A   1      43.978  25.157  29.161  1.00  0.00     0.074 A 
ATOM     56  C   UNL A   1      45.970  30.397  32.154  1.00  0.00     0.029 A 
ATOM     57  N   UNL A   1      44.785  28.897  31.016  1.00  0.00    -0.354 N 
ATOM     58  N   UNL A   1      44.300  26.280  29.759  1.00  0.00    -0.248 NA
ATOM     59  C   UNL A   1      45.039  24.140  29.174  1.00  0.00     0.031 C 
ATOM     60  C   UNL A   1      46.753  29.250  31.983  1.00  0.00     0.029 A 
ATOM     61  C   UNL A   1      46.004  28.307  31.293  1.00  0.00     0.049 A 
ATOM     62  H   UNL A   1      44.048  28.467  30.523  1.00  0.00     0.167 HD
ATOM     63  C   UNL A   1      45.591  26.098  30.238  1.00  0.00     0.074 A 
ATOM     64  C   UNL A   1      45.988  24.753  29.872  1.00  0.00     0.031 C 
ATOM     65  C   UNL A   1      46.379  26.966  30.919  1.00  0.00     0.031 A 
BRANCH  52  66
ATOM     66  C   UNL A   1      43.762  32.479  31.959  1.00  0.00    -0.014 A 
ATOM     67  C   UNL A   1      44.149  33.543  31.122  1.00  0.00     0.010 A 
ATOM     68  C   UNL A   1      43.512  32.734  33.319  1.00  0.00     0.010 A 
ATOM     69  C   UNL A   1      44.353  34.820  31.649  1.00  0.00     0.020 A 
ATOM     70  C   UNL A   1      43.683  34.019  33.844  1.00  0.00     0.020 A 
ATOM     71  C   UNL A   1      44.129  35.047  33.009  1.00  0.00     0.054 A 
BRANCH  71  72
ATOM     72  S   UNL A   1      44.413  36.710  33.674  1.00  0.00     0.124 S 
ATOM     73  O   UNL A   1      45.871  36.749  33.768  1.00  0.00    -0.237 OA
ATOM     74  O   UNL A   1      43.829  37.572  32.650  1.00  0.00    -0.237 OA
ATOM     75  O   UNL A   1      43.705  36.698  34.951  1.00  0.00    -0.744 OA
ENDBRANCH  71  72
ENDBRANCH  52  66
BRANCH  53  76
ATOM     76  C   UNL A   1      42.511  23.454  27.843  1.00  0.00    -0.014 A 
ATOM     77  C   UNL A   1      43.025  23.215  26.556  1.00  0.00     0.010 A 
ATOM     78  C   UNL A   1      41.870  22.408  28.529  1.00  0.00     0.010 A 
ATOM     79  C   UNL A   1      42.898  21.955  25.965  1.00  0.00     0.020 A 
ATOM     80  C   UNL A   1      41.760  21.139  27.949  1.00  0.00     0.020 A 
ATOM     81  C   UNL A   1      42.271  20.923  26.667  1.00  0.00     0.054 A 
BRANCH  81  82
ATOM     82  S   UNL A   1      42.192  19.272  25.915  1.00  0.00     0.124 S 
ATOM     83  O   UNL A   1      43.034  19.437  24.734  1.00  0.00    -0.237 OA
ATOM     84  O   UNL A   1      42.738  18.418  26.966  1.00  0.00    -0.237 OA
ATOM     85  O   UNL A   1      40.768  19.087  25.650  1.00  0.00    -0.744 OA
ENDBRANCH  81  82
ENDBRANCH  53  76
BRANCH  65  86
ATOM     86  C   UNL A   1      47.740  26.483  31.338  1.00  0.00    -0.014 A 
ATOM     87  C   UNL A   1      47.963  25.976  32.630  1.00  0.00     0.010 A 
ATOM     88  C   UNL A   1      48.791  26.477  30.403  1.00  0.00     0.010 A 
ATOM     89  C   UNL A   1      49.224  25.493  32.988  1.00  0.00     0.020 A 
ATOM     90  C   UNL A   1      50.047  25.972  30.751  1.00  0.00     0.020 A 
ATOM     91  C   UNL A   1      50.258  25.495  32.046  1.00  0.00     0.054 A 
BRANCH  91  92
ATOM     92  S   UNL A   1      51.872  24.815  32.517  1.00  0.00     0.124 S 
ATOM     93  O   UNL A   1      51.990  25.251  33.906  1.00  0.00    -0.237 OA
ATOM     94  O   UNL A   1      51.687  23.380  32.321  1.00  0.00    -0.237 OA
ATOM     95  O   UNL A   1      52.800  25.450  31.585  1.00  0.00    -0.744 OA
ENDBRANCH  91  92
ENDBRANCH  65  86
ENDBRANCH  39  40
ENDBRANCH  31  34
ENDBRANCH  29  30
ENDBRANCH  28  29
ENDBRANCH  27  28
ENDBRANCH   1  27
TORSDOF 21
ENDMDL
MODEL 2
REMARK VINA RESULT:     -10.5      1.162      2.161
REMARK SMILES CC(C)CCNC(=O)[C@@H](C)Oc1ccc(N)cc1C(=O)NCCCCNC(=O)c1ccc(-c2c3nc(c(-c4ccc(S(=O)(=O)[O-])cc4)c4ccc([nH]4)c(-c4ccc(S(=O)(=O)[O-])cc4)c4nc(c(-c5ccc(S(=O)(=O)[O-])cc5)c5ccc2[nH]5)C=C4)C=C3)cc1
REMARK SMILES IDX 22 1 21 2 19 3 20 4 18 6 12 7 13 8 14 9 17 10 15 11 11 12
REMARK SMILES IDX 9 13 10 14 7 15 6 16 8 18 5 19 4 20 2 21 1 22 3 23 16 24
REMARK SMILES IDX 23 27 24 28 25 29 26 30 27 31 28 33 29 34 30 35 88 36 31 37
REMARK SMILES IDX 87 38 32 39 33 40 34 41 81 42 35 43 86 44 80 45 82 46 36 47
REMARK SMILES IDX 85 48 79 49 78 50 37 52 67 53 48 54 66 55 49 56 52 57 65 58
REMARK SMILES IDX 83 59 50 60 51 61 64 63 84 64 53 65 38 66 39 67 47 68 40 69
REMARK SMILES IDX 46 70 41 71 42 72 43 73 44 74 45 75 68 76 69 77 77 78 70 79
REMARK SMILES IDX 76 80 71 81 72 82 73 83 74 84 75 85 54 86 55 87 63 88 56 89
REMARK SMILES IDX 62 90 57 91 58 92 59 93 60 94 61 95
REMARK H PARENT 21 5 6 17 16 25 16 26 26 32 82 51 52 62
REMARK Flexibility Score: inf
ROOT
ATOM      1  C   UNL A   1      32.089  26.390  26.673  1.00  0.00     0.116 C 
ENDROOT
BRANCH   1   2
ATOM      2  N   UNL A   1      31.277  25.221  26.556  1.00  0.00    -0.352 N 
ATOM      3  C   UNL A   1      31.194  24.261  25.583  1.00  0.00     0.255 C 
ATOM      4  O   UNL A   1      30.302  23.426  25.787  1.00  0.00    -0.269 OA
ATOM      5  H   UNL A   1      30.664  25.080  27.313  1.00  0.00     0.163 HD
BRANCH   3   6
ATOM      6  C   UNL A   1      32.066  24.081  24.356  1.00  0.00     0.083 A 
ATOM      7  C   UNL A   1      32.907  23.028  23.949  1.00  0.00     0.133 A 
ATOM      8  C   UNL A   1      33.225  22.898  22.588  1.00  0.00     0.049 A 
ATOM      9  C   UNL A   1      32.975  23.929  21.682  1.00  0.00     0.029 A 
ATOM     10  C   UNL A   1      31.884  25.133  23.418  1.00  0.00     0.043 A 
ATOM     11  C   UNL A   1      32.398  25.106  22.120  1.00  0.00     0.032 A 
BRANCH   7  12
ATOM     12  O   UNL A   1      33.360  22.025  24.744  1.00  0.00    -0.480 OA
BRANCH  12  13
ATOM     13  C   UNL A   1      33.446  20.684  24.214  1.00  0.00     0.258 C 
ATOM     14  C   UNL A   1      32.118  19.933  23.953  1.00  0.00     0.064 C 
BRANCH  13  15
ATOM     15  C   UNL A   1      34.555  19.697  24.664  1.00  0.00     0.260 C 
ATOM     16  N   UNL A   1      35.567  20.081  25.496  1.00  0.00    -0.353 N 
ATOM     17  H   UNL A   1      36.046  19.349  25.948  1.00  0.00     0.163 HD
ATOM     18  O   UNL A   1      34.532  18.514  24.311  1.00  0.00    -0.271 OA
BRANCH  16  19
ATOM     19  C   UNL A   1      36.032  21.416  25.804  1.00  0.00     0.116 C 
BRANCH  19  20
ATOM     20  C   UNL A   1      36.828  22.067  24.686  1.00  0.00     0.024 C 
BRANCH  20  21
ATOM     21  C   UNL A   1      37.195  23.537  24.945  1.00  0.00    -0.016 C 
ATOM     22  C   UNL A   1      35.989  24.381  25.371  1.00  0.00     0.007 C 
ATOM     23  C   UNL A   1      38.270  23.596  26.030  1.00  0.00     0.007 C 
ENDBRANCH  20  21
ENDBRANCH  19  20
ENDBRANCH  16  19
ENDBRANCH  13  15
ENDBRANCH  12  13
ENDBRANCH   7  12
BRANCH  11  24
ATOM     24  N   UNL A   1      32.192  26.165  21.254  1.00  0.00    -0.399 N 
ATOM     25  H   UNL A   1      31.310  26.600  21.209  1.00  0.00     0.156 HD
ATOM     26  H   UNL A   1      32.928  26.485  20.683  1.00  0.00     0.156 HD
ENDBRANCH  11  24
ENDBRANCH   3   6
ENDBRANCH   1   2
BRANCH   1  27
ATOM     27  C   UNL A   1      31.328  27.649  27.051  1.00  0.00     0.023 C 
BRANCH  27  28
ATOM     28  C   UNL A   1      31.922  28.930  26.504  1.00  0.00     0.023 C 
BRANCH  28  29
ATOM     29  C   UNL A   1      33.315  29.250  27.025  1.00  0.00     0.116 C 
BRANCH  29  30
ATOM     30  N   UNL A   1      33.428  30.554  27.680  1.00  0.00    -0.352 N 
ATOM     31  C   UNL A   1      34.492  31.083  28.377  1.00  0.00     0.251 C 
ATOM     32  H   UNL A   1      32.634  31.133  27.613  1.00  0.00     0.163 HD
ATOM     33  O   UNL A   1      34.403  32.170  28.937  1.00  0.00    -0.269 OA
BRANCH  31  34
ATOM     34  C   UNL A   1      35.723  30.278  28.479  1.00  0.00     0.039 A 
ATOM     35  C   UNL A   1      36.618  30.267  27.408  1.00  0.00     0.014 A 
ATOM     36  C   UNL A   1      36.056  29.689  29.698  1.00  0.00     0.014 A 
ATOM     37  C   UNL A   1      37.907  29.772  27.608  1.00  0.00     0.010 A 
ATOM     38  C   UNL A   1      37.373  29.323  29.928  1.00  0.00     0.010 A 
ATOM     39  C   UNL A   1      38.317  29.364  28.889  1.00  0.00    -0.014 A 
BRANCH  39  40
ATOM     40  C   UNL A   1      39.723  28.987  29.181  1.00  0.00     0.031 A 
ATOM     41  C   UNL A   1      40.654  30.003  29.788  1.00  0.00     0.074 A 
ATOM     42  C   UNL A   1      40.192  27.779  28.806  1.00  0.00     0.049 A 
ATOM     43  N   UNL A   1      41.940  29.915  30.008  1.00  0.00    -0.248 NA
ATOM     44  C   UNL A   1      40.071  31.307  30.146  1.00  0.00     0.031 C 
ATOM     45  C   UNL A   1      39.416  26.731  28.137  1.00  0.00     0.029 A 
ATOM     46  N   UNL A   1      41.446  27.232  28.927  1.00  0.00    -0.354 N 
ATOM     47  C   UNL A   1      42.323  31.163  30.487  1.00  0.00     0.074 A 
ATOM     48  C   UNL A   1      41.148  32.005  30.463  1.00  0.00     0.031 C 
ATOM     49  C   UNL A   1      40.199  25.656  27.945  1.00  0.00     0.029 A 
ATOM     50  C   UNL A   1      41.541  25.951  28.436  1.00  0.00     0.049 A 
ATOM     51  H   UNL A   1      42.207  27.712  29.327  1.00  0.00     0.167 HD
ATOM     52  C   UNL A   1      43.534  31.567  30.935  1.00  0.00     0.031 A 
ATOM     53  C   UNL A   1      42.589  25.106  28.387  1.00  0.00     0.031 A 
ATOM     54  C   UNL A   1      44.687  30.714  31.001  1.00  0.00     0.049 A 
ATOM     55  C   UNL A   1      43.912  25.551  28.944  1.00  0.00     0.074 A 
ATOM     56  C   UNL A   1      45.940  30.997  31.516  1.00  0.00     0.029 A 
ATOM     57  N   UNL A   1      44.725  29.404  30.547  1.00  0.00    -0.354 N 
ATOM     58  N   UNL A   1      44.238  26.713  29.460  1.00  0.00    -0.248 NA
ATOM     59  C   UNL A   1      45.005  24.569  28.925  1.00  0.00     0.031 C 
ATOM     60  C   UNL A   1      46.747  29.867  31.342  1.00  0.00     0.029 A 
ATOM     61  C   UNL A   1      45.982  28.867  30.758  1.00  0.00     0.049 A 
ATOM     62  H   UNL A   1      43.969  28.927  30.134  1.00  0.00     0.167 HD
ATOM     63  C   UNL A   1      45.568  26.595  29.846  1.00  0.00     0.074 A 
ATOM     64  C   UNL A   1      45.982  25.246  29.516  1.00  0.00     0.031 C 
ATOM     65  C   UNL A   1      46.374  27.522  30.421  1.00  0.00     0.031 A 
BRANCH  52  66
ATOM     66  C   UNL A   1      43.652  32.996  31.391  1.00  0.00    -0.014 A 
ATOM     67  C   UNL A   1      44.070  34.008  30.504  1.00  0.00     0.010 A 
ATOM     68  C   UNL A   1      43.364  33.333  32.724  1.00  0.00     0.010 A 
ATOM     69  C   UNL A   1      44.264  35.314  30.960  1.00  0.00     0.020 A 
ATOM     70  C   UNL A   1      43.525  34.646  33.177  1.00  0.00     0.020 A 
ATOM     71  C   UNL A   1      44.001  35.621  32.298  1.00  0.00     0.054 A 
BRANCH  71  72
ATOM     72  S   UNL A   1      44.274  37.320  32.871  1.00  0.00     0.124 S 
ATOM     73  O   UNL A   1      43.222  37.470  33.874  1.00  0.00    -0.237 OA
ATOM     74  O   UNL A   1      45.637  37.269  33.395  1.00  0.00    -0.237 OA
ATOM     75  O   UNL A   1      44.104  38.124  31.663  1.00  0.00    -0.744 OA
ENDBRANCH  71  72
ENDBRANCH  52  66
BRANCH  53  76
ATOM     76  C   UNL A   1      42.410  23.739  27.826  1.00  0.00    -0.014 A 
ATOM     77  C   UNL A   1      42.491  23.527  26.438  1.00  0.00     0.010 A 
ATOM     78  C   UNL A   1      42.202  22.638  28.675  1.00  0.00     0.010 A 
ATOM     79  C   UNL A   1      42.366  22.240  25.910  1.00  0.00     0.020 A 
ATOM     80  C   UNL A   1      42.098  21.345  28.151  1.00  0.00     0.020 A 
ATOM     81  C   UNL A   1      42.175  21.155  26.769  1.00  0.00     0.054 A 
BRANCH  81  82
ATOM     82  S   UNL A   1      42.100  19.483  26.067  1.00  0.00     0.124 S 
ATOM     83  O   UNL A   1      42.624  18.670  27.160  1.00  0.00    -0.237 OA
ATOM     84  O   UNL A   1      40.676  19.322  25.785  1.00  0.00    -0.237 OA
ATOM     85  O   UNL A   1      42.954  19.571  24.885  1.00  0.00    -0.744 OA
ENDBRANCH  81  82
ENDBRANCH  53  76
BRANCH  65  86
ATOM     86  C   UNL A   1      47.778  27.102  30.758  1.00  0.00    -0.014 A 
ATOM     87  C   UNL A   1      48.073  26.472  31.979  1.00  0.00     0.010 A 
ATOM     88  C   UNL A   1      48.801  27.286  29.810  1.00  0.00     0.010 A 
ATOM     89  C   UNL A   1      49.377  26.052  32.257  1.00  0.00     0.020 A 
ATOM     90  C   UNL A   1      50.101  26.845  30.075  1.00  0.00     0.020 A 
ATOM     91  C   UNL A   1      50.382  26.242  31.303  1.00  0.00     0.054 A 
BRANCH  91  92
ATOM     92  S   UNL A   1      52.055  25.643  31.664  1.00  0.00     0.124 S 
ATOM     93  O   UNL A   1      52.752  25.916  30.410  1.00  0.00    -0.237 OA
ATOM     94  O   UNL A   1      52.456  26.471  32.800  1.00  0.00    -0.237 OA
ATOM     95  O   UNL A   1      51.857  24.229  31.972  1.00  0.00    -0.744 OA
ENDBRANCH  91  92
ENDBRANCH  65  86
ENDBRANCH  39  40
ENDBRANCH  31  34
ENDBRANCH  29  30
ENDBRANCH  28  29
ENDBRANCH  27  28
ENDBRANCH   1  27
TORSDOF 21
ENDMDL
MODEL 3
REMARK VINA RESULT:     -10.4      3.235      4.140
REMARK SMILES CC(C)CCNC(=O)[C@@H](C)Oc1ccc(N)cc1C(=O)NCCCCNC(=O)c1ccc(-c2c3nc(c(-c4ccc(S(=O)(=O)[O-])cc4)c4ccc([nH]4)c(-c4ccc(S(=O)(=O)[O-])cc4)c4nc(c(-c5ccc(S(=O)(=O)[O-])cc5)c5ccc2[nH]5)C=C4)C=C3)cc1
REMARK SMILES IDX 22 1 21 2 19 3 20 4 18 6 12 7 13 8 14 9 17 10 15 11 11 12
REMARK SMILES IDX 9 13 10 14 7 15 6 16 8 18 5 19 4 20 2 21 1 22 3 23 16 24
REMARK SMILES IDX 23 27 24 28 25 29 26 30 27 31 28 33 29 34 30 35 88 36 31 37
REMARK SMILES IDX 87 38 32 39 33 40 34 41 81 42 35 43 86 44 80 45 82 46 36 47
REMARK SMILES IDX 85 48 79 49 78 50 37 52 67 53 48 54 66 55 49 56 52 57 65 58
REMARK SMILES IDX 83 59 50 60 51 61 64 63 84 64 53 65 38 66 39 67 47 68 40 69
REMARK SMILES IDX 46 70 41 71 42 72 43 73 44 74 45 75 68 76 69 77 77 78 70 79
REMARK SMILES IDX 76 80 71 81 72 82 73 83 74 84 75 85 54 86 55 87 63 88 56 89
REMARK SMILES IDX 62 90 57 91 58 92 59 93 60 94 61 95
REMARK H PARENT 21 5 6 17 16 25 16 26 26 32 82 51 52 62
REMARK Flexibility Score: inf
ROOT
ATOM      1  C   UNL A   1      34.348  28.953  26.707  1.00  0.00     0.116 C 
ENDROOT
BRANCH   1   2
ATOM      2  N   UNL A   1      33.213  28.573  27.486  1.00  0.00    -0.352 N 
ATOM      3  C   UNL A   1      31.967  28.129  27.127  1.00  0.00     0.255 C 
ATOM      4  O   UNL A   1      31.202  27.973  28.089  1.00  0.00    -0.269 OA
ATOM      5  H   UNL A   1      33.350  28.643  28.458  1.00  0.00     0.163 HD
BRANCH   3   6
ATOM      6  C   UNL A   1      31.451  27.776  25.746  1.00  0.00     0.083 A 
ATOM      7  C   UNL A   1      31.085  26.546  25.169  1.00  0.00     0.133 A 
ATOM      8  C   UNL A   1      30.215  26.543  24.067  1.00  0.00     0.049 A 
ATOM      9  C   UNL A   1      29.935  27.712  23.359  1.00  0.00     0.029 A 
ATOM     10  C   UNL A   1      31.194  28.934  24.964  1.00  0.00     0.043 A 
ATOM     11  C   UNL A   1      30.518  28.905  23.743  1.00  0.00     0.032 A 
BRANCH   7  12
ATOM     12  O   UNL A   1      31.402  25.318  25.654  1.00  0.00    -0.480 OA
BRANCH  12  13
ATOM     13  C   UNL A   1      32.618  24.673  25.215  1.00  0.00     0.258 C 
ATOM     14  C   UNL A   1      33.959  25.336  25.610  1.00  0.00     0.064 C 
BRANCH  13  15
ATOM     15  C   UNL A   1      32.728  23.998  23.823  1.00  0.00     0.260 C 
ATOM     16  N   UNL A   1      32.479  22.668  23.645  1.00  0.00    -0.353 N 
ATOM     17  H   UNL A   1      32.294  22.390  22.718  1.00  0.00     0.163 HD
ATOM     18  O   UNL A   1      33.009  24.659  22.818  1.00  0.00    -0.271 OA
BRANCH  16  19
ATOM     19  C   UNL A   1      32.448  21.610  24.631  1.00  0.00     0.116 C 
BRANCH  19  20
ATOM     20  C   UNL A   1      33.619  20.646  24.540  1.00  0.00     0.024 C 
BRANCH  20  21
ATOM     21  C   UNL A   1      33.213  19.163  24.482  1.00  0.00    -0.016 C 
ATOM     22  C   UNL A   1      32.315  18.844  23.282  1.00  0.00     0.007 C 
ATOM     23  C   UNL A   1      34.476  18.305  24.419  1.00  0.00     0.007 C 
ENDBRANCH  20  21
ENDBRANCH  19  20
ENDBRANCH  16  19
ENDBRANCH  13  15
ENDBRANCH  12  13
ENDBRANCH   7  12
BRANCH  11  24
ATOM     24  N   UNL A   1      30.304  30.068  23.024  1.00  0.00    -0.399 N 
ATOM     25  H   UNL A   1      29.400  30.289  22.704  1.00  0.00     0.156 HD
ATOM     26  H   UNL A   1      31.056  30.674  22.832  1.00  0.00     0.156 HD
ENDBRANCH  11  24
ENDBRANCH   3   6
ENDBRANCH   1   2
BRANCH   1  27
ATOM     27  C   UNL A   1      35.313  29.887  27.417  1.00  0.00     0.023 C 
BRANCH  27  28
ATOM     28  C   UNL A   1      34.655  31.066  28.102  1.00  0.00     0.023 C 
BRANCH  28  29
ATOM     29  C   UNL A   1      35.499  31.710  29.193  1.00  0.00     0.116 C 
BRANCH  29  30
ATOM     30  N   UNL A   1      35.516  30.973  30.456  1.00  0.00    -0.352 N 
ATOM     31  C   UNL A   1      36.542  30.250  31.022  1.00  0.00     0.251 C 
ATOM     32  H   UNL A   1      34.678  30.998  30.974  1.00  0.00     0.163 HD
ATOM     33  O   UNL A   1      36.375  29.620  32.061  1.00  0.00    -0.269 OA
BRANCH  31  34
ATOM     34  C   UNL A   1      37.834  30.207  30.312  1.00  0.00     0.039 A 
ATOM     35  C   UNL A   1      38.929  30.883  30.852  1.00  0.00     0.014 A 
ATOM     36  C   UNL A   1      37.985  29.355  29.219  1.00  0.00     0.014 A 
ATOM     37  C   UNL A   1      40.206  30.600  30.368  1.00  0.00     0.010 A 
ATOM     38  C   UNL A   1      39.263  28.980  28.834  1.00  0.00     0.010 A 
ATOM     39  C   UNL A   1      40.390  29.592  29.406  1.00  0.00    -0.014 A 
BRANCH  39  40
ATOM     40  C   UNL A   1      41.742  29.145  28.985  1.00  0.00     0.031 A 
ATOM     41  C   UNL A   1      42.872  30.137  28.936  1.00  0.00     0.074 A 
ATOM     42  C   UNL A   1      41.931  27.883  28.545  1.00  0.00     0.049 A 
ATOM     43  N   UNL A   1      44.089  29.980  28.486  1.00  0.00    -0.248 NA
ATOM     44  C   UNL A   1      42.578  31.501  29.409  1.00  0.00     0.031 C 
ATOM     45  C   UNL A   1      40.901  26.843  28.465  1.00  0.00     0.029 A 
ATOM     46  N   UNL A   1      43.060  27.263  28.071  1.00  0.00    -0.354 N 
ATOM     47  C   UNL A   1      44.687  31.232  28.581  1.00  0.00     0.074 A 
ATOM     48  C   UNL A   1      43.681  32.147  29.069  1.00  0.00     0.031 C 
ATOM     49  C   UNL A   1      41.456  25.706  28.012  1.00  0.00     0.029 A 
ATOM     50  C   UNL A   1      42.867  25.945  27.728  1.00  0.00     0.049 A 
ATOM     51  H   UNL A   1      43.929  27.720  27.984  1.00  0.00     0.167 HD
ATOM     52  C   UNL A   1      45.966  31.585  28.316  1.00  0.00     0.031 A 
ATOM     53  C   UNL A   1      43.728  25.030  27.241  1.00  0.00     0.031 A 
ATOM     54  C   UNL A   1      46.976  30.664  27.875  1.00  0.00     0.049 A 
ATOM     55  C   UNL A   1      45.159  25.426  27.008  1.00  0.00     0.074 A 
ATOM     56  C   UNL A   1      48.322  30.899  27.658  1.00  0.00     0.029 A 
ATOM     57  N   UNL A   1      46.751  29.324  27.595  1.00  0.00    -0.354 N 
ATOM     58  N   UNL A   1      45.725  26.598  27.172  1.00  0.00    -0.248 NA
ATOM     59  C   UNL A   1      46.071  24.374  26.538  1.00  0.00     0.031 C 
ATOM     60  C   UNL A   1      48.905  29.708  27.213  1.00  0.00     0.029 A 
ATOM     61  C   UNL A   1      47.930  28.721  27.196  1.00  0.00     0.049 A 
ATOM     62  H   UNL A   1      45.881  28.870  27.668  1.00  0.00     0.167 HD
ATOM     63  C   UNL A   1      47.064  26.421  26.846  1.00  0.00     0.074 A 
ATOM     64  C   UNL A   1      47.226  25.026  26.487  1.00  0.00     0.031 C 
ATOM     65  C   UNL A   1      48.069  27.331  26.842  1.00  0.00     0.031 A 
BRANCH  52  66
ATOM     66  C   UNL A   1      46.329  33.033  28.506  1.00  0.00    -0.014 A 
ATOM     67  C   UNL A   1      46.785  33.510  29.750  1.00  0.00     0.010 A 
ATOM     68  C   UNL A   1      46.193  33.935  27.436  1.00  0.00     0.010 A 
ATOM     69  C   UNL A   1      47.031  34.872  29.940  1.00  0.00     0.020 A 
ATOM     70  C   UNL A   1      46.470  35.294  27.613  1.00  0.00     0.020 A 
ATOM     71  C   UNL A   1      46.860  35.757  28.873  1.00  0.00     0.054 A 
BRANCH  71  72
ATOM     72  S   UNL A   1      47.171  37.522  29.147  1.00  0.00     0.124 S 
ATOM     73  O   UNL A   1      48.224  37.796  28.171  1.00  0.00    -0.237 OA
ATOM     74  O   UNL A   1      45.875  38.128  28.856  1.00  0.00    -0.237 OA
ATOM     75  O   UNL A   1      47.585  37.587  30.547  1.00  0.00    -0.744 OA
ENDBRANCH  71  72
ENDBRANCH  52  66
BRANCH  53  76
ATOM     76  C   UNL A   1      43.261  23.641  26.984  1.00  0.00    -0.014 A 
ATOM     77  C   UNL A   1      42.992  23.215  25.671  1.00  0.00     0.010 A 
ATOM     78  C   UNL A   1      43.125  22.724  28.042  1.00  0.00     0.010 A 
ATOM     79  C   UNL A   1      42.595  21.899  25.420  1.00  0.00     0.020 A 
ATOM     80  C   UNL A   1      42.748  21.400  27.792  1.00  0.00     0.020 A 
ATOM     81  C   UNL A   1      42.480  20.998  26.481  1.00  0.00     0.054 A 
BRANCH  81  82
ATOM     82  S   UNL A   1      42.043  19.273  26.122  1.00  0.00     0.124 S 
ATOM     83  O   UNL A   1      40.598  19.358  25.931  1.00  0.00    -0.237 OA
ATOM     84  O   UNL A   1      42.824  18.991  24.921  1.00  0.00    -0.237 OA
ATOM     85  O   UNL A   1      42.476  18.556  27.319  1.00  0.00    -0.744 OA
ENDBRANCH  81  82
ENDBRANCH  53  76
BRANCH  65  86
ATOM     86  C   UNL A   1      49.441  26.844  26.464  1.00  0.00    -0.014 A 
ATOM     87  C   UNL A   1      50.301  26.284  27.424  1.00  0.00     0.010 A 
ATOM     88  C   UNL A   1      49.846  26.892  25.118  1.00  0.00     0.010 A 
ATOM     89  C   UNL A   1      51.556  25.799  27.047  1.00  0.00     0.020 A 
ATOM     90  C   UNL A   1      51.091  26.386  24.734  1.00  0.00     0.020 A 
ATOM     91  C   UNL A   1      51.943  25.854  25.704  1.00  0.00     0.054 A 
BRANCH  91  92
ATOM     92  S   UNL A   1      53.555  25.172  25.229  1.00  0.00     0.124 S 
ATOM     93  O   UNL A   1      54.422  25.681  26.289  1.00  0.00    -0.237 OA
ATOM     94  O   UNL A   1      53.314  23.731  25.251  1.00  0.00    -0.237 OA
ATOM     95  O   UNL A   1      53.792  25.738  23.904  1.00  0.00    -0.744 OA
ENDBRANCH  91  92
ENDBRANCH  65  86
ENDBRANCH  39  40
ENDBRANCH  31  34
ENDBRANCH  29  30
ENDBRANCH  28  29
ENDBRANCH  27  28
ENDBRANCH   1  27
TORSDOF 21
ENDMDL
