MODEL 1
REMARK VINA RESULT:     -11.0      0.000      0.000
REMARK SMILES O=C(CSc1ccnc(C(=O)NCCCCNC(=O)c2ccc(-c3c4nc(c(-c5ccc(S(=O)(=O)[O-])cc5)c5ccc([nH]5)c(-c5ccc(S(=O)(=O)[O-])cc5)c5nc(c(-c6ccc(S(=O)(=O)[O-])cc6)c6ccc3[nH]6)C=C5)C=C4)cc2)c1)NCC(F)(F)F
REMARK SMILES IDX 13 1 12 2 10 3 11 4 9 6 5 7 6 8 80 9 7 10 8 11 4 12 3 13
REMARK SMILES IDX 2 14 1 15 81 16 82 18 83 19 84 20 85 21 86 22 14 23 15 24
REMARK SMILES IDX 16 25 17 26 18 27 19 29 20 30 21 31 79 32 22 33 78 34 23 35
REMARK SMILES IDX 24 36 25 37 72 38 26 39 77 40 71 41 73 42 27 43 76 44 70 45
REMARK SMILES IDX 69 46 28 48 58 49 39 50 57 51 40 52 43 53 56 54 74 55 41 56
REMARK SMILES IDX 42 57 55 59 75 60 44 61 29 62 30 63 38 64 31 65 37 66 32 67
REMARK SMILES IDX 33 68 34 69 35 70 36 71 59 72 60 73 68 74 61 75 67 76 62 77
REMARK SMILES IDX 63 78 64 79 65 80 66 81 45 82 46 83 54 84 47 85 53 86 48 87
REMARK SMILES IDX 49 88 50 89 51 90 52 91
REMARK H PARENT 12 5 81 17 17 28 73 47 43 58
REMARK Flexibility Score: inf
ROOT
ATOM      1  C   UNL A   1      33.489  30.708  27.090  1.00  0.00     0.116 C 
ENDROOT
BRANCH   1   2
ATOM      2  N   UNL A   1      32.703  29.693  27.758  1.00  0.00    -0.351 N 
ATOM      3  C   UNL A   1      32.204  28.461  27.409  1.00  0.00     0.269 C 
ATOM      4  O   UNL A   1      31.540  27.903  28.290  1.00  0.00    -0.268 OA
ATOM      5  H   UNL A   1      32.471  29.945  28.682  1.00  0.00     0.163 HD
BRANCH   3   6
ATOM      6  C   UNL A   1      32.411  27.754  26.089  1.00  0.00     0.129 A 
ATOM      7  C   UNL A   1      31.928  27.163  23.811  1.00  0.00     0.012 A 
ATOM      8  C   UNL A   1      33.134  26.478  23.744  1.00  0.00     0.035 A 
ATOM      9  C   UNL A   1      31.554  27.794  25.002  1.00  0.00     0.049 A 
ATOM     10  C   UNL A   1      33.914  26.439  24.881  1.00  0.00     0.113 A 
ATOM     11  N   UNL A   1      33.584  27.062  26.026  1.00  0.00    -0.251 NA
BRANCH   7  12
ATOM     12  S   UNL A   1      30.874  27.350  22.380  1.00  0.00    -0.116 SA
BRANCH  12  13
ATOM     13  C   UNL A   1      29.234  27.426  23.184  1.00  0.00     0.174 C 
BRANCH  13  14
ATOM     14  C   UNL A   1      28.480  28.695  22.821  1.00  0.00     0.230 C 
ATOM     15  O   UNL A   1      27.255  28.759  22.858  1.00  0.00    -0.274 OA
ATOM     16  N   UNL A   1      29.266  29.777  22.496  1.00  0.00    -0.346 N 
ATOM     17  H   UNL A   1      30.245  29.682  22.545  1.00  0.00     0.163 HD
BRANCH  16  18
ATOM     18  C   UNL A   1      28.706  31.063  22.081  1.00  0.00     0.231 C 
BRANCH  18  19
ATOM     19  C   UNL A   1      28.436  32.043  23.219  1.00  0.00     0.405 C 
ATOM     20  F   UNL A   1      27.145  31.963  23.621  1.00  0.00    -0.169 F 
ATOM     21  F   UNL A   1      29.211  31.757  24.290  1.00  0.00    -0.169 F 
ATOM     22  F   UNL A   1      28.678  33.320  22.862  1.00  0.00    -0.169 F 
ENDBRANCH  18  19
ENDBRANCH  16  18
ENDBRANCH  13  14
ENDBRANCH  12  13
ENDBRANCH   7  12
ENDBRANCH   3   6
ENDBRANCH   1   2
BRANCH   1  23
ATOM     23  C   UNL A   1      34.924  30.738  27.617  1.00  0.00     0.023 C 
BRANCH  23  24
ATOM     24  C   UNL A   1      35.430  32.147  27.958  1.00  0.00     0.023 C 
BRANCH  24  25
ATOM     25  C   UNL A   1      36.270  32.250  29.231  1.00  0.00     0.116 C 
BRANCH  25  26
ATOM     26  N   UNL A   1      35.901  31.286  30.254  1.00  0.00    -0.352 N 
ATOM     27  C   UNL A   1      36.660  30.255  30.764  1.00  0.00     0.251 C 
ATOM     28  H   UNL A   1      34.996  31.380  30.630  1.00  0.00     0.163 HD
ATOM     29  O   UNL A   1      36.179  29.468  31.566  1.00  0.00    -0.269 OA
BRANCH  27  30
ATOM     30  C   UNL A   1      38.048  30.091  30.285  1.00  0.00     0.039 A 
ATOM     31  C   UNL A   1      39.084  30.079  31.221  1.00  0.00     0.014 A 
ATOM     32  C   UNL A   1      38.312  29.887  28.929  1.00  0.00     0.014 A 
ATOM     33  C   UNL A   1      40.383  29.785  30.804  1.00  0.00     0.010 A 
ATOM     34  C   UNL A   1      39.596  29.536  28.525  1.00  0.00     0.010 A 
ATOM     35  C   UNL A   1      40.641  29.469  29.460  1.00  0.00    -0.014 A 
BRANCH  35  36
ATOM     36  C   UNL A   1      41.989  29.040  29.014  1.00  0.00     0.031 A 
ATOM     37  C   UNL A   1      43.115  30.033  28.948  1.00  0.00     0.074 A 
ATOM     38  C   UNL A   1      42.176  27.773  28.592  1.00  0.00     0.049 A 
ATOM     39  N   UNL A   1      44.335  29.865  28.510  1.00  0.00    -0.248 NA
ATOM     40  C   UNL A   1      42.823  31.400  29.410  1.00  0.00     0.031 C 
ATOM     41  C   UNL A   1      41.150  26.727  28.564  1.00  0.00     0.029 A 
ATOM     42  N   UNL A   1      43.295  27.152  28.094  1.00  0.00    -0.354 N 
ATOM     43  C   UNL A   1      44.951  31.106  28.623  1.00  0.00     0.074 A 
ATOM     44  C   UNL A   1      43.957  32.026  29.131  1.00  0.00     0.031 C 
ATOM     45  C   UNL A   1      41.692  25.592  28.095  1.00  0.00     0.029 A 
ATOM     46  C   UNL A   1      43.090  25.836  27.755  1.00  0.00     0.049 A 
ATOM     47  H   UNL A   1      44.162  27.607  27.991  1.00  0.00     0.167 HD
ATOM     48  C   UNL A   1      46.232  31.446  28.343  1.00  0.00     0.031 A 
ATOM     49  C   UNL A   1      43.931  24.927  27.225  1.00  0.00     0.031 A 
ATOM     50  C   UNL A   1      47.222  30.526  27.852  1.00  0.00     0.049 A 
ATOM     51  C   UNL A   1      45.351  25.326  26.933  1.00  0.00     0.074 A 
ATOM     52  C   UNL A   1      48.562  30.760  27.594  1.00  0.00     0.029 A 
ATOM     53  N   UNL A   1      46.983  29.195  27.546  1.00  0.00    -0.354 N 
ATOM     54  N   UNL A   1      45.931  26.490  27.105  1.00  0.00    -0.248 NA
ATOM     55  C   UNL A   1      46.234  24.285  26.386  1.00  0.00     0.031 C 
ATOM     56  C   UNL A   1      49.123  29.579  27.096  1.00  0.00     0.029 A 
ATOM     57  C   UNL A   1      48.144  28.599  27.087  1.00  0.00     0.049 A 
ATOM     58  H   UNL A   1      46.114  28.741  27.642  1.00  0.00     0.167 HD
ATOM     59  C   UNL A   1      47.253  26.315  26.709  1.00  0.00     0.074 A 
ATOM     60  C   UNL A   1      47.389  24.931  26.303  1.00  0.00     0.031 C 
ATOM     61  C   UNL A   1      48.262  27.220  26.687  1.00  0.00     0.031 A 
BRANCH  48  62
ATOM     62  C   UNL A   1      46.630  32.881  28.563  1.00  0.00    -0.014 A 
ATOM     63  C   UNL A   1      47.134  33.309  29.805  1.00  0.00     0.010 A 
ATOM     64  C   UNL A   1      46.522  33.807  27.511  1.00  0.00     0.010 A 
ATOM     65  C   UNL A   1      47.480  34.648  30.004  1.00  0.00     0.020 A 
ATOM     66  C   UNL A   1      46.891  35.143  27.698  1.00  0.00     0.020 A 
ATOM     67  C   UNL A   1      47.350  35.558  28.950  1.00  0.00     0.054 A 
BRANCH  67  68
ATOM     68  S   UNL A   1      47.815  37.288  29.231  1.00  0.00     0.124 S 
ATOM     69  O   UNL A   1      47.123  37.966  28.138  1.00  0.00    -0.237 OA
ATOM     70  O   UNL A   1      47.286  37.552  30.567  1.00  0.00    -0.237 OA
ATOM     71  O   UNL A   1      49.273  37.275  29.134  1.00  0.00    -0.744 OA
ENDBRANCH  67  68
ENDBRANCH  48  62
BRANCH  49  72
ATOM     72  C   UNL A   1      43.456  23.544  26.955  1.00  0.00    -0.014 A 
ATOM     73  C   UNL A   1      43.465  23.033  25.646  1.00  0.00     0.010 A 
ATOM     74  C   UNL A   1      43.011  22.724  28.008  1.00  0.00     0.010 A 
ATOM     75  C   UNL A   1      43.022  21.732  25.390  1.00  0.00     0.020 A 
ATOM     76  C   UNL A   1      42.590  21.415  27.760  1.00  0.00     0.020 A 
ATOM     77  C   UNL A   1      42.588  20.931  26.450  1.00  0.00     0.054 A 
BRANCH  77  78
ATOM     78  S   UNL A   1      42.072  19.226  26.105  1.00  0.00     0.124 S 
ATOM     79  O   UNL A   1      42.799  18.932  24.874  1.00  0.00    -0.237 OA
ATOM     80  O   UNL A   1      42.526  18.509  27.295  1.00  0.00    -0.237 OA
ATOM     81  O   UNL A   1      40.622  19.330  25.968  1.00  0.00    -0.744 OA
ENDBRANCH  77  78
ENDBRANCH  49  72
BRANCH  61  82
ATOM     82  C   UNL A   1      49.612  26.734  26.235  1.00  0.00    -0.014 A 
ATOM     83  C   UNL A   1      50.027  26.881  24.900  1.00  0.00     0.010 A 
ATOM     84  C   UNL A   1      50.497  26.174  27.174  1.00  0.00     0.010 A 
ATOM     85  C   UNL A   1      51.296  26.450  24.505  1.00  0.00     0.020 A 
ATOM     86  C   UNL A   1      51.775  25.764  26.788  1.00  0.00     0.020 A 
ATOM     87  C   UNL A   1      52.162  25.891  25.452  1.00  0.00     0.054 A 
BRANCH  87  88
ATOM     88  S   UNL A   1      53.822  25.382  24.928  1.00  0.00     0.124 S 
ATOM     89  O   UNL A   1      54.010  26.168  23.712  1.00  0.00    -0.237 OA
ATOM     90  O   UNL A   1      54.653  25.772  26.063  1.00  0.00    -0.237 OA
ATOM     91  O   UNL A   1      53.693  23.941  24.724  1.00  0.00    -0.744 OA
ENDBRANCH  87  88
ENDBRANCH  61  82
ENDBRANCH  35  36
ENDBRANCH  27  30
ENDBRANCH  25  26
ENDBRANCH  24  25
ENDBRANCH  23  24
ENDBRANCH   1  23
TORSDOF 19
ENDMDL
MODEL 2
REMARK VINA RESULT:     -10.6      4.038      5.480
REMARK SMILES O=C(CSc1ccnc(C(=O)NCCCCNC(=O)c2ccc(-c3c4nc(c(-c5ccc(S(=O)(=O)[O-])cc5)c5ccc([nH]5)c(-c5ccc(S(=O)(=O)[O-])cc5)c5nc(c(-c6ccc(S(=O)(=O)[O-])cc6)c6ccc3[nH]6)C=C5)C=C4)cc2)c1)NCC(F)(F)F
REMARK SMILES IDX 13 1 12 2 10 3 11 4 9 6 5 7 6 8 80 9 7 10 8 11 4 12 3 13
REMARK SMILES IDX 2 14 1 15 81 16 82 18 83 19 84 20 85 21 86 22 14 23 15 24
REMARK SMILES IDX 16 25 17 26 18 27 19 29 20 30 21 31 79 32 22 33 78 34 23 35
REMARK SMILES IDX 24 36 25 37 72 38 26 39 77 40 71 41 73 42 27 43 76 44 70 45
REMARK SMILES IDX 69 46 28 48 58 49 39 50 57 51 40 52 43 53 56 54 74 55 41 56
REMARK SMILES IDX 42 57 55 59 75 60 44 61 29 62 30 63 38 64 31 65 37 66 32 67
REMARK SMILES IDX 33 68 34 69 35 70 36 71 59 72 60 73 68 74 61 75 67 76 62 77
REMARK SMILES IDX 63 78 64 79 65 80 66 81 45 82 46 83 54 84 47 85 53 86 48 87
REMARK SMILES IDX 49 88 50 89 51 90 52 91
REMARK H PARENT 12 5 81 17 17 28 73 47 43 58
REMARK Flexibility Score: inf
ROOT
ATOM      1  C   UNL A   1      31.349  28.838  24.389  1.00  0.00     0.116 C 
ENDROOT
BRANCH   1   2
ATOM      2  N   UNL A   1      32.611  29.042  23.711  1.00  0.00    -0.351 N 
ATOM      3  C   UNL A   1      33.517  28.230  23.073  1.00  0.00     0.269 C 
ATOM      4  O   UNL A   1      34.515  28.811  22.633  1.00  0.00    -0.268 OA
ATOM      5  H   UNL A   1      32.886  29.988  23.707  1.00  0.00     0.163 HD
BRANCH   3   6
ATOM      6  C   UNL A   1      33.384  26.739  22.859  1.00  0.00     0.129 A 
ATOM      7  C   UNL A   1      33.256  24.427  23.501  1.00  0.00     0.012 A 
ATOM      8  C   UNL A   1      32.938  24.092  22.191  1.00  0.00     0.035 A 
ATOM      9  C   UNL A   1      33.499  25.763  23.835  1.00  0.00     0.049 A 
ATOM     10  C   UNL A   1      32.889  25.110  21.262  1.00  0.00     0.113 A 
ATOM     11  N   UNL A   1      33.093  26.403  21.570  1.00  0.00    -0.251 NA
BRANCH   7  12
ATOM     12  S   UNL A   1      33.268  23.206  24.806  1.00  0.00    -0.116 SA
BRANCH  12  13
ATOM     13  C   UNL A   1      34.695  22.187  24.292  1.00  0.00     0.174 C 
BRANCH  13  14
ATOM     14  C   UNL A   1      36.019  22.885  24.557  1.00  0.00     0.230 C 
ATOM     15  O   UNL A   1      36.737  23.291  23.648  1.00  0.00    -0.274 OA
ATOM     16  N   UNL A   1      36.333  23.072  25.884  1.00  0.00    -0.346 N 
ATOM     17  H   UNL A   1      35.687  22.781  26.568  1.00  0.00     0.163 HD
BRANCH  16  18
ATOM     18  C   UNL A   1      37.586  23.688  26.319  1.00  0.00     0.231 C 
BRANCH  18  19
ATOM     19  C   UNL A   1      38.772  22.733  26.411  1.00  0.00     0.405 C 
ATOM     20  F   UNL A   1      38.375  21.456  26.192  1.00  0.00    -0.169 F 
ATOM     21  F   UNL A   1      39.701  23.032  25.474  1.00  0.00    -0.169 F 
ATOM     22  F   UNL A   1      39.372  22.776  27.617  1.00  0.00    -0.169 F 
ENDBRANCH  18  19
ENDBRANCH  16  18
ENDBRANCH  13  14
ENDBRANCH  12  13
ENDBRANCH   7  12
ENDBRANCH   3   6
ENDBRANCH   1   2
BRANCH   1  23
ATOM     23  C   UNL A   1      31.492  29.024  25.900  1.00  0.00     0.023 C 
BRANCH  23  24
ATOM     24  C   UNL A   1      32.393  27.977  26.572  1.00  0.00     0.023 C 
BRANCH  24  25
ATOM     25  C   UNL A   1      33.668  28.525  27.213  1.00  0.00     0.116 C 
BRANCH  25  26
ATOM     26  N   UNL A   1      33.551  29.904  27.659  1.00  0.00    -0.352 N 
ATOM     27  C   UNL A   1      34.516  30.692  28.247  1.00  0.00     0.251 C 
ATOM     28  H   UNL A   1      32.673  30.328  27.525  1.00  0.00     0.163 HD
ATOM     29  O   UNL A   1      34.242  31.813  28.648  1.00  0.00    -0.269 OA
BRANCH  27  30
ATOM     30  C   UNL A   1      35.874  30.137  28.426  1.00  0.00     0.039 A 
ATOM     31  C   UNL A   1      36.762  30.173  27.349  1.00  0.00     0.014 A 
ATOM     32  C   UNL A   1      36.281  29.643  29.668  1.00  0.00     0.014 A 
ATOM     33  C   UNL A   1      38.089  29.784  27.540  1.00  0.00     0.010 A 
ATOM     34  C   UNL A   1      37.617  29.313  29.871  1.00  0.00     0.010 A 
ATOM     35  C   UNL A   1      38.536  29.391  28.813  1.00  0.00    -0.014 A 
BRANCH  35  36
ATOM     36  C   UNL A   1      39.966  29.086  29.066  1.00  0.00     0.031 A 
ATOM     37  C   UNL A   1      40.878  30.146  29.615  1.00  0.00     0.074 A 
ATOM     38  C   UNL A   1      40.457  27.878  28.725  1.00  0.00     0.049 A 
ATOM     39  N   UNL A   1      42.167  30.093  29.826  1.00  0.00    -0.248 NA
ATOM     40  C   UNL A   1      40.266  31.444  29.945  1.00  0.00     0.031 C 
ATOM     41  C   UNL A   1      39.682  26.780  28.141  1.00  0.00     0.029 A 
ATOM     42  N   UNL A   1      41.731  27.374  28.810  1.00  0.00    -0.354 N 
ATOM     43  C   UNL A   1      42.525  31.352  30.293  1.00  0.00     0.074 A 
ATOM     44  C   UNL A   1      41.325  32.160  30.294  1.00  0.00     0.031 C 
ATOM     45  C   UNL A   1      40.491  25.728  27.940  1.00  0.00     0.029 A 
ATOM     46  C   UNL A   1      41.847  26.086  28.345  1.00  0.00     0.049 A 
ATOM     47  H   UNL A   1      42.490  27.888  29.171  1.00  0.00     0.167 HD
ATOM     48  C   UNL A   1      43.741  31.793  30.698  1.00  0.00     0.031 A 
ATOM     49  C   UNL A   1      42.924  25.283  28.251  1.00  0.00     0.031 A 
ATOM     50  C   UNL A   1      44.929  30.984  30.710  1.00  0.00     0.049 A 
ATOM     51  C   UNL A   1      44.260  25.791  28.716  1.00  0.00     0.074 A 
ATOM     52  C   UNL A   1      46.195  31.319  31.157  1.00  0.00     0.029 A 
ATOM     53  N   UNL A   1      45.000  29.675  30.256  1.00  0.00    -0.354 N 
ATOM     54  N   UNL A   1      44.566  26.965  29.213  1.00  0.00    -0.248 NA
ATOM     55  C   UNL A   1      45.394  24.860  28.621  1.00  0.00     0.031 C 
ATOM     56  C   UNL A   1      47.040  30.227  30.938  1.00  0.00     0.029 A 
ATOM     57  C   UNL A   1      46.291  29.195  30.397  1.00  0.00     0.049 A 
ATOM     58  H   UNL A   1      44.244  29.163  29.889  1.00  0.00     0.167 HD
ATOM     59  C   UNL A   1      45.923  26.908  29.510  1.00  0.00     0.074 A 
ATOM     60  C   UNL A   1      46.374  25.578  29.151  1.00  0.00     0.031 C 
ATOM     61  C   UNL A   1      46.722  27.869  30.035  1.00  0.00     0.031 A 
BRANCH  48  62
ATOM     62  C   UNL A   1      43.839  33.221  31.160  1.00  0.00    -0.014 A 
ATOM     63  C   UNL A   1      44.201  34.247  30.268  1.00  0.00     0.010 A 
ATOM     64  C   UNL A   1      43.542  33.549  32.495  1.00  0.00     0.010 A 
ATOM     65  C   UNL A   1      44.310  35.567  30.713  1.00  0.00     0.020 A 
ATOM     66  C   UNL A   1      43.623  34.872  32.939  1.00  0.00     0.020 A 
ATOM     67  C   UNL A   1      44.027  35.870  32.049  1.00  0.00     0.054 A 
BRANCH  67  68
ATOM     68  S   UNL A   1      44.165  37.592  32.599  1.00  0.00     0.124 S 
ATOM     69  O   UNL A   1      43.216  37.628  33.709  1.00  0.00    -0.237 OA
ATOM     70  O   UNL A   1      45.573  37.699  32.974  1.00  0.00    -0.237 OA
ATOM     71  O   UNL A   1      43.777  38.365  31.421  1.00  0.00    -0.744 OA
ENDBRANCH  67  68
ENDBRANCH  48  62
BRANCH  49  72
ATOM     72  C   UNL A   1      42.778  23.905  27.710  1.00  0.00    -0.014 A 
ATOM     73  C   UNL A   1      42.552  22.823  28.577  1.00  0.00     0.010 A 
ATOM     74  C   UNL A   1      42.844  23.671  26.324  1.00  0.00     0.010 A 
ATOM     75  C   UNL A   1      42.411  21.527  28.072  1.00  0.00     0.020 A 
ATOM     76  C   UNL A   1      42.679  22.380  25.813  1.00  0.00     0.020 A 
ATOM     77  C   UNL A   1      42.474  21.315  26.692  1.00  0.00     0.054 A 
BRANCH  77  78
ATOM     78  S   UNL A   1      42.231  19.635  26.052  1.00  0.00     0.124 S 
ATOM     79  O   UNL A   1      43.360  19.491  25.140  1.00  0.00    -0.237 OA
ATOM     80  O   UNL A   1      42.288  18.821  27.265  1.00  0.00    -0.237 OA
ATOM     81  O   UNL A   1      40.916  19.699  25.418  1.00  0.00    -0.744 OA
ENDBRANCH  77  78
ENDBRANCH  49  72
BRANCH  61  82
ATOM     82  C   UNL A   1      48.162  27.509  30.281  1.00  0.00    -0.014 A 
ATOM     83  C   UNL A   1      48.560  26.877  31.472  1.00  0.00     0.010 A 
ATOM     84  C   UNL A   1      49.119  27.758  29.280  1.00  0.00     0.010 A 
ATOM     85  C   UNL A   1      49.897  26.525  31.670  1.00  0.00     0.020 A 
ATOM     86  C   UNL A   1      50.453  27.387  29.465  1.00  0.00     0.020 A 
ATOM     87  C   UNL A   1      50.836  26.784  30.665  1.00  0.00     0.054 A 
BRANCH  87  88
ATOM     88  S   UNL A   1      52.558  26.276  30.924  1.00  0.00     0.124 S 
ATOM     89  O   UNL A   1      52.986  25.955  29.565  1.00  0.00    -0.237 OA
ATOM     90  O   UNL A   1      53.164  27.470  31.508  1.00  0.00    -0.237 OA
ATOM     91  O   UNL A   1      52.450  25.134  31.829  1.00  0.00    -0.744 OA
ENDBRANCH  87  88
ENDBRANCH  61  82
ENDBRANCH  35  36
ENDBRANCH  27  30
ENDBRANCH  25  26
ENDBRANCH  24  25
ENDBRANCH  23  24
ENDBRANCH   1  23
TORSDOF 19
ENDMDL
MODEL 3
REMARK VINA RESULT:     -10.5      4.652      5.952
REMARK SMILES O=C(CSc1ccnc(C(=O)NCCCCNC(=O)c2ccc(-c3c4nc(c(-c5ccc(S(=O)(=O)[O-])cc5)c5ccc([nH]5)c(-c5ccc(S(=O)(=O)[O-])cc5)c5nc(c(-c6ccc(S(=O)(=O)[O-])cc6)c6ccc3[nH]6)C=C5)C=C4)cc2)c1)NCC(F)(F)F
REMARK SMILES IDX 13 1 12 2 10 3 11 4 9 6 5 7 6 8 80 9 7 10 8 11 4 12 3 13
REMARK SMILES IDX 2 14 1 15 81 16 82 18 83 19 84 20 85 21 86 22 14 23 15 24
REMARK SMILES IDX 16 25 17 26 18 27 19 29 20 30 21 31 79 32 22 33 78 34 23 35
REMARK SMILES IDX 24 36 25 37 72 38 26 39 77 40 71 41 73 42 27 43 76 44 70 45
REMARK SMILES IDX 69 46 28 48 58 49 39 50 57 51 40 52 43 53 56 54 74 55 41 56
REMARK SMILES IDX 42 57 55 59 75 60 44 61 29 62 30 63 38 64 31 65 37 66 32 67
REMARK SMILES IDX 33 68 34 69 35 70 36 71 59 72 60 73 68 74 61 75 67 76 62 77
REMARK SMILES IDX 63 78 64 79 65 80 66 81 45 82 46 83 54 84 47 85 53 86 48 87
REMARK SMILES IDX 49 88 50 89 51 90 52 91
REMARK H PARENT 12 5 81 17 17 28 73 47 43 58
REMARK Flexibility Score: inf
ROOT
ATOM      1  C   UNL A   1      31.450  28.826  23.997  1.00  0.00     0.116 C 
ENDROOT
BRANCH   1   2
ATOM      2  N   UNL A   1      32.630  28.914  23.163  1.00  0.00    -0.351 N 
ATOM      3  C   UNL A   1      33.471  28.006  22.566  1.00  0.00     0.269 C 
ATOM      4  O   UNL A   1      34.410  28.506  21.936  1.00  0.00    -0.268 OA
ATOM      5  H   UNL A   1      32.893  29.846  22.982  1.00  0.00     0.163 HD
BRANCH   3   6
ATOM      6  C   UNL A   1      33.332  26.501  22.603  1.00  0.00     0.129 A 
ATOM      7  C   UNL A   1      33.048  24.343  23.619  1.00  0.00     0.012 A 
ATOM      8  C   UNL A   1      32.922  23.777  22.357  1.00  0.00     0.035 A 
ATOM      9  C   UNL A   1      33.273  25.717  23.743  1.00  0.00     0.049 A 
ATOM     10  C   UNL A   1      33.039  24.611  21.265  1.00  0.00     0.113 A 
ATOM     11  N   UNL A   1      33.228  25.939  21.366  1.00  0.00    -0.251 NA
BRANCH   7  12
ATOM     12  S   UNL A   1      32.833  23.376  25.107  1.00  0.00    -0.116 SA
BRANCH  12  13
ATOM     13  C   UNL A   1      32.169  21.826  24.402  1.00  0.00     0.174 C 
BRANCH  13  14
ATOM     14  C   UNL A   1      33.117  20.656  24.607  1.00  0.00     0.230 C 
ATOM     15  O   UNL A   1      34.330  20.763  24.450  1.00  0.00    -0.274 OA
ATOM     16  N   UNL A   1      32.528  19.484  25.025  1.00  0.00    -0.346 N 
ATOM     17  H   UNL A   1      31.557  19.477  25.194  1.00  0.00     0.163 HD
BRANCH  16  18
ATOM     18  C   UNL A   1      33.284  18.250  25.230  1.00  0.00     0.231 C 
BRANCH  18  19
ATOM     19  C   UNL A   1      33.504  17.415  23.971  1.00  0.00     0.405 C 
ATOM     20  F   UNL A   1      33.195  18.133  22.864  1.00  0.00    -0.169 F 
ATOM     21  F   UNL A   1      34.799  17.044  23.863  1.00  0.00    -0.169 F 
ATOM     22  F   UNL A   1      32.749  16.298  23.960  1.00  0.00    -0.169 F 
ENDBRANCH  18  19
ENDBRANCH  16  18
ENDBRANCH  13  14
ENDBRANCH  12  13
ENDBRANCH   7  12
ENDBRANCH   3   6
ENDBRANCH   1   2
BRANCH   1  23
ATOM     23  C   UNL A   1      31.727  29.337  25.411  1.00  0.00     0.023 C 
BRANCH  23  24
ATOM     24  C   UNL A   1      32.611  28.399  26.247  1.00  0.00     0.023 C 
BRANCH  24  25
ATOM     25  C   UNL A   1      33.929  29.001  26.733  1.00  0.00     0.116 C 
BRANCH  25  26
ATOM     26  N   UNL A   1      33.770  30.262  27.440  1.00  0.00    -0.352 N 
ATOM     27  C   UNL A   1      34.655  30.873  28.300  1.00  0.00     0.251 C 
ATOM     28  H   UNL A   1      32.923  30.740  27.284  1.00  0.00     0.163 HD
ATOM     29  O   UNL A   1      34.343  31.897  28.889  1.00  0.00    -0.269 OA
BRANCH  27  30
ATOM     30  C   UNL A   1      35.969  30.238  28.535  1.00  0.00     0.039 A 
ATOM     31  C   UNL A   1      36.960  30.366  27.559  1.00  0.00     0.014 A 
ATOM     32  C   UNL A   1      36.234  29.577  29.737  1.00  0.00     0.014 A 
ATOM     33  C   UNL A   1      38.247  29.896  27.823  1.00  0.00     0.010 A 
ATOM     34  C   UNL A   1      37.531  29.164  30.020  1.00  0.00     0.010 A 
ATOM     35  C   UNL A   1      38.553  29.330  29.072  1.00  0.00    -0.014 A 
BRANCH  35  36
ATOM     36  C   UNL A   1      39.939  28.930  29.418  1.00  0.00     0.031 A 
ATOM     37  C   UNL A   1      40.857  29.904  30.102  1.00  0.00     0.074 A 
ATOM     38  C   UNL A   1      40.394  27.718  29.043  1.00  0.00     0.049 A 
ATOM     39  N   UNL A   1      42.121  29.767  30.410  1.00  0.00    -0.248 NA
ATOM     40  C   UNL A   1      40.288  31.213  30.461  1.00  0.00     0.031 C 
ATOM     41  C   UNL A   1      39.614  26.701  28.332  1.00  0.00     0.029 A 
ATOM     42  N   UNL A   1      41.629  27.140  29.197  1.00  0.00    -0.354 N 
ATOM     43  C   UNL A   1      42.503  30.975  30.980  1.00  0.00     0.074 A 
ATOM     44  C   UNL A   1      41.350  31.848  30.936  1.00  0.00     0.031 C 
ATOM     45  C   UNL A   1      40.382  25.619  28.131  1.00  0.00     0.029 A 
ATOM     46  C   UNL A   1      41.717  25.875  28.664  1.00  0.00     0.049 A 
ATOM     47  H   UNL A   1      42.381  27.588  29.647  1.00  0.00     0.167 HD
ATOM     48  C   UNL A   1      43.703  31.322  31.507  1.00  0.00     0.031 A 
ATOM     49  C   UNL A   1      42.755  25.020  28.605  1.00  0.00     0.031 A 
ATOM     50  C   UNL A   1      44.843  30.448  31.562  1.00  0.00     0.049 A 
ATOM     51  C   UNL A   1      44.073  25.424  29.205  1.00  0.00     0.074 A 
ATOM     52  C   UNL A   1      46.083  30.686  32.127  1.00  0.00     0.029 A 
ATOM     53  N   UNL A   1      44.883  29.166  31.036  1.00  0.00    -0.354 N 
ATOM     54  N   UNL A   1      44.397  26.549  29.796  1.00  0.00    -0.248 NA
ATOM     55  C   UNL A   1      45.161  24.438  29.142  1.00  0.00     0.031 C 
ATOM     56  C   UNL A   1      46.886  29.562  31.909  1.00  0.00     0.029 A 
ATOM     57  C   UNL A   1      46.131  28.606  31.248  1.00  0.00     0.049 A 
ATOM     58  H   UNL A   1      44.134  28.720  30.578  1.00  0.00     0.167 HD
ATOM     59  C   UNL A   1      45.721  26.398  30.195  1.00  0.00     0.074 A 
ATOM     60  C   UNL A   1      46.130  25.068  29.791  1.00  0.00     0.031 C 
ATOM     61  C   UNL A   1      46.522  27.281  30.839  1.00  0.00     0.031 A 
BRANCH  48  62
ATOM     62  C   UNL A   1      43.836  32.714  32.062  1.00  0.00    -0.014 A 
ATOM     63  C   UNL A   1      43.534  32.987  33.410  1.00  0.00     0.010 A 
ATOM     64  C   UNL A   1      44.291  33.758  31.237  1.00  0.00     0.010 A 
ATOM     65  C   UNL A   1      43.641  34.288  33.908  1.00  0.00     0.020 A 
ATOM     66  C   UNL A   1      44.425  35.056  31.740  1.00  0.00     0.020 A 
ATOM     67  C   UNL A   1      44.079  35.316  33.068  1.00  0.00     0.054 A 
BRANCH  67  68
ATOM     68  S   UNL A   1      44.219  36.992  33.744  1.00  0.00     0.124 S 
ATOM     69  O   UNL A   1      44.898  36.748  35.013  1.00  0.00    -0.237 OA
ATOM     70  O   UNL A   1      45.014  37.683  32.731  1.00  0.00    -0.237 OA
ATOM     71  O   UNL A   1      42.833  37.440  33.854  1.00  0.00    -0.744 OA
ENDBRANCH  67  68
ENDBRANCH  48  62
BRANCH  49  72
ATOM     72  C   UNL A   1      42.583  23.686  27.970  1.00  0.00    -0.014 A 
ATOM     73  C   UNL A   1      42.287  22.559  28.756  1.00  0.00     0.010 A 
ATOM     74  C   UNL A   1      42.695  23.539  26.576  1.00  0.00     0.010 A 
ATOM     75  C   UNL A   1      42.121  21.304  28.162  1.00  0.00     0.020 A 
ATOM     76  C   UNL A   1      42.507  22.290  25.976  1.00  0.00     0.020 A 
ATOM     77  C   UNL A   1      42.231  21.179  26.775  1.00  0.00     0.054 A 
BRANCH  77  78
ATOM     78  S   UNL A   1      41.955  19.553  26.018  1.00  0.00     0.124 S 
ATOM     79  O   UNL A   1      42.831  19.609  24.852  1.00  0.00    -0.237 OA
ATOM     80  O   UNL A   1      42.369  18.635  27.077  1.00  0.00    -0.237 OA
ATOM     81  O   UNL A   1      40.523  19.551  25.728  1.00  0.00    -0.744 OA
ENDBRANCH  77  78
ENDBRANCH  49  72
BRANCH  61  82
ATOM     82  C   UNL A   1      47.917  26.827  31.175  1.00  0.00    -0.014 A 
ATOM     83  C   UNL A   1      48.212  26.250  32.423  1.00  0.00     0.010 A 
ATOM     84  C   UNL A   1      48.931  26.931  30.206  1.00  0.00     0.010 A 
ATOM     85  C   UNL A   1      49.507  25.809  32.706  1.00  0.00     0.020 A 
ATOM     86  C   UNL A   1      50.221  26.469  30.477  1.00  0.00     0.020 A 
ATOM     87  C   UNL A   1      50.505  25.923  31.731  1.00  0.00     0.054 A 
BRANCH  87  88
ATOM     88  S   UNL A   1      52.167  25.301  32.103  1.00  0.00     0.124 S 
ATOM     89  O   UNL A   1      52.444  25.928  33.392  1.00  0.00    -0.237 OA
ATOM     90  O   UNL A   1      51.971  23.854  32.137  1.00  0.00    -0.237 OA
ATOM     91  O   UNL A   1      52.976  25.787  30.987  1.00  0.00    -0.744 OA
ENDBRANCH  87  88
ENDBRANCH  61  82
ENDBRANCH  35  36
ENDBRANCH  27  30
ENDBRANCH  25  26
ENDBRANCH  24  25
ENDBRANCH  23  24
ENDBRANCH   1  23
TORSDOF 19
ENDMDL
