MODEL 1
REMARK VINA RESULT:     -12.1      0.000      0.000
REMARK SMILES CC1(C)[C@@]2(CC[C@@H]2C(=O)NCc2ccco2)[C@]1(C)C(=O)NCCCCNC(=O)c1ccc(-c2c3nc(c(-c4ccc(S(=O)(=O)[O-])cc4)c4ccc([nH]4)c(-c4ccc(S(=O)(=O)[O-])cc4)c4nc(c(-c5ccc(S(=O)(=O)[O-])cc5)c5ccc2[nH]5)C=C4)C=C3)cc1
REMARK SMILES IDX 23 1 22 2 21 3 19 4 20 5 17 7 1 8 2 9 3 10 4 11 18 12 5 13
REMARK SMILES IDX 7 14 6 15 8 16 9 17 10 18 11 20 12 21 13 22 16 23 14 24
REMARK SMILES IDX 15 25 24 26 25 27 26 28 27 29 28 31 29 32 30 33 88 34 31 35
REMARK SMILES IDX 87 36 32 37 33 38 34 39 81 40 35 41 86 42 80 43 82 44 36 45
REMARK SMILES IDX 85 46 79 47 78 48 37 50 67 51 48 52 66 53 49 54 52 55 65 56
REMARK SMILES IDX 83 57 50 58 51 59 64 61 84 62 53 63 38 64 39 65 47 66 40 67
REMARK SMILES IDX 46 68 41 69 42 70 43 71 44 72 45 73 68 74 69 75 77 76 70 77
REMARK SMILES IDX 76 78 71 79 72 80 73 81 74 82 75 83 54 84 55 85 63 86 56 87
REMARK SMILES IDX 62 88 57 89 58 90 59 91 60 92 61 93
REMARK H PARENT 21 6 10 19 26 30 82 49 52 60
REMARK Flexibility Score: inf
ROOT
ATOM      1  C   UNL A   1      35.958  23.521  25.362  1.00  0.00     0.023 C 
ENDROOT
BRANCH   1   2
ATOM      2  C   UNL A   1      35.098  23.206  24.140  1.00  0.00     0.116 C 
BRANCH   2   3
ATOM      3  N   UNL A   1      33.874  22.525  24.479  1.00  0.00    -0.356 N 
ATOM      4  C   UNL A   1      32.621  22.899  24.867  1.00  0.00     0.227 C 
ATOM      5  O   UNL A   1      31.793  21.988  24.757  1.00  0.00    -0.274 OA
ATOM      6  H   UNL A   1      33.964  21.547  24.414  1.00  0.00     0.163 HD
BRANCH   4   7
ATOM      7  C   UNL A   1      32.113  24.231  25.430  1.00  0.00     0.059 C 
ATOM      8  C   UNL A   1      30.621  24.642  23.299  1.00  0.00     0.013 C 
ATOM      9  C   UNL A   1      31.070  25.101  24.674  1.00  0.00    -0.013 C 
ATOM     10  C   UNL A   1      29.904  25.720  25.426  1.00  0.00     0.013 C 
ATOM     11  C   UNL A   1      32.467  25.654  24.968  1.00  0.00     0.003 C 
ATOM     12  C   UNL A   1      31.856  24.063  26.948  1.00  0.00     0.023 C 
ATOM     13  C   UNL A   1      32.834  26.692  26.001  1.00  0.00     0.010 C 
ATOM     14  C   UNL A   1      33.520  26.158  24.027  1.00  0.00     0.086 C 
ATOM     15  C   UNL A   1      34.046  27.036  25.156  1.00  0.00     0.015 C 
BRANCH  14  16
ATOM     16  C   UNL A   1      33.171  26.793  22.654  1.00  0.00     0.224 C 
ATOM     17  O   UNL A   1      33.602  26.320  21.588  1.00  0.00    -0.275 OA
ATOM     18  N   UNL A   1      32.397  27.910  22.481  1.00  0.00    -0.349 N 
ATOM     19  H   UNL A   1      32.167  28.096  21.541  1.00  0.00     0.163 HD
BRANCH  18  20
ATOM     20  C   UNL A   1      31.859  28.863  23.417  1.00  0.00     0.191 C 
BRANCH  20  21
ATOM     21  C   UNL A   1      30.396  29.012  23.198  1.00  0.00     0.122 A 
ATOM     22  C   UNL A   1      29.385  28.156  22.804  1.00  0.00     0.047 A 
ATOM     23  O   UNL A   1      29.882  30.257  23.422  1.00  0.00    -0.467 OA
ATOM     24  C   UNL A   1      28.195  28.921  22.777  1.00  0.00     0.042 A 
ATOM     25  C   UNL A   1      28.550  30.190  23.166  1.00  0.00     0.195 A 
ENDBRANCH  20  21
ENDBRANCH  18  20
ENDBRANCH  14  16
ENDBRANCH   4   7
ENDBRANCH   2   3
ENDBRANCH   1   2
BRANCH   1  26
ATOM     26  C   UNL A   1      37.447  23.692  25.081  1.00  0.00     0.023 C 
BRANCH  26  27
ATOM     27  C   UNL A   1      38.286  24.147  26.266  1.00  0.00     0.116 C 
BRANCH  27  28
ATOM     28  N   UNL A   1      39.703  23.831  26.137  1.00  0.00    -0.352 N 
ATOM     29  C   UNL A   1      40.781  24.495  26.676  1.00  0.00     0.251 C 
ATOM     30  H   UNL A   1      39.917  23.040  25.591  1.00  0.00     0.163 HD
ATOM     31  O   UNL A   1      41.928  24.150  26.419  1.00  0.00    -0.269 OA
BRANCH  29  32
ATOM     32  C   UNL A   1      40.528  25.665  27.539  1.00  0.00     0.039 A 
ATOM     33  C   UNL A   1      39.582  25.560  28.561  1.00  0.00     0.014 A 
ATOM     34  C   UNL A   1      41.297  26.822  27.394  1.00  0.00     0.014 A 
ATOM     35  C   UNL A   1      39.472  26.584  29.503  1.00  0.00     0.010 A 
ATOM     36  C   UNL A   1      41.238  27.805  28.374  1.00  0.00     0.010 A 
ATOM     37  C   UNL A   1      40.335  27.691  29.443  1.00  0.00    -0.014 A 
BRANCH  37  38
ATOM     38  C   UNL A   1      40.334  28.742  30.491  1.00  0.00     0.031 A 
ATOM     39  C   UNL A   1      41.231  28.596  31.688  1.00  0.00     0.074 A 
ATOM     40  C   UNL A   1      39.444  29.752  30.428  1.00  0.00     0.049 A 
ATOM     41  N   UNL A   1      41.265  29.307  32.784  1.00  0.00    -0.248 NA
ATOM     42  C   UNL A   1      42.186  27.476  31.664  1.00  0.00     0.031 C 
ATOM     43  C   UNL A   1      38.481  29.971  29.346  1.00  0.00     0.029 A 
ATOM     44  N   UNL A   1      39.185  30.770  31.311  1.00  0.00    -0.354 N 
ATOM     45  C   UNL A   1      42.208  28.695  33.598  1.00  0.00     0.074 A 
ATOM     46  C   UNL A   1      42.703  27.539  32.882  1.00  0.00     0.031 C 
ATOM     47  C   UNL A   1      37.742  31.056  29.628  1.00  0.00     0.029 A 
ATOM     48  C   UNL A   1      38.149  31.586  30.926  1.00  0.00     0.049 A 
ATOM     49  H   UNL A   1      39.694  30.903  32.144  1.00  0.00     0.167 HD
ATOM     50  C   UNL A   1      42.632  29.065  34.830  1.00  0.00     0.031 A 
ATOM     51  C   UNL A   1      37.576  32.632  31.552  1.00  0.00     0.031 A 
ATOM     52  C   UNL A   1      42.166  30.236  35.522  1.00  0.00     0.049 A 
ATOM     53  C   UNL A   1      38.097  33.060  32.894  1.00  0.00     0.074 A 
ATOM     54  C   UNL A   1      42.597  30.748  36.732  1.00  0.00     0.029 A 
ATOM     55  N   UNL A   1      41.164  31.077  35.061  1.00  0.00    -0.354 N 
ATOM     56  N   UNL A   1      39.044  32.514  33.618  1.00  0.00    -0.248 NA
ATOM     57  C   UNL A   1      37.480  34.247  33.501  1.00  0.00     0.031 C 
ATOM     58  C   UNL A   1      41.831  31.884  37.021  1.00  0.00     0.029 A 
ATOM     59  C   UNL A   1      40.951  32.098  35.971  1.00  0.00     0.049 A 
ATOM     60  H   UNL A   1      40.676  30.965  34.214  1.00  0.00     0.167 HD
ATOM     61  C   UNL A   1      39.153  33.302  34.757  1.00  0.00     0.074 A 
ATOM     62  C   UNL A   1      38.179  34.367  34.624  1.00  0.00     0.031 C 
ATOM     63  C   UNL A   1      39.985  33.155  35.817  1.00  0.00     0.031 A 
BRANCH  50  64
ATOM     64  C   UNL A   1      43.643  28.180  35.506  1.00  0.00    -0.014 A 
ATOM     65  C   UNL A   1      45.022  28.364  35.304  1.00  0.00     0.010 A 
ATOM     66  C   UNL A   1      43.205  27.148  36.354  1.00  0.00     0.010 A 
ATOM     67  C   UNL A   1      45.943  27.493  35.891  1.00  0.00     0.020 A 
ATOM     68  C   UNL A   1      44.124  26.292  36.965  1.00  0.00     0.020 A 
ATOM     69  C   UNL A   1      45.488  26.455  36.709  1.00  0.00     0.054 A 
BRANCH  69  70
ATOM     70  S   UNL A   1      46.701  25.331  37.453  1.00  0.00     0.124 S 
ATOM     71  O   UNL A   1      45.928  24.730  38.537  1.00  0.00    -0.237 OA
ATOM     72  O   UNL A   1      47.033  24.434  36.348  1.00  0.00    -0.237 OA
ATOM     73  O   UNL A   1      47.781  26.219  37.875  1.00  0.00    -0.744 OA
ENDBRANCH  69  70
ENDBRANCH  50  64
BRANCH  51  74
ATOM     74  C   UNL A   1      36.449  33.349  30.897  1.00  0.00    -0.014 A 
ATOM     75  C   UNL A   1      35.180  33.379  31.500  1.00  0.00     0.010 A 
ATOM     76  C   UNL A   1      36.654  34.051  29.695  1.00  0.00     0.010 A 
ATOM     77  C   UNL A   1      34.133  34.096  30.912  1.00  0.00     0.020 A 
ATOM     78  C   UNL A   1      35.616  34.787  29.115  1.00  0.00     0.020 A 
ATOM     79  C   UNL A   1      34.360  34.801  29.726  1.00  0.00     0.054 A 
BRANCH  79  80
ATOM     80  S   UNL A   1      33.013  35.796  29.026  1.00  0.00     0.124 S 
ATOM     81  O   UNL A   1      32.257  36.166  30.218  1.00  0.00    -0.237 OA
ATOM     82  O   UNL A   1      33.731  36.886  28.369  1.00  0.00    -0.237 OA
ATOM     83  O   UNL A   1      32.340  34.869  28.119  1.00  0.00    -0.744 OA
ENDBRANCH  79  80
ENDBRANCH  51  74
BRANCH  63  84
ATOM     84  C   UNL A   1      39.911  34.184  36.910  1.00  0.00    -0.014 A 
ATOM     85  C   UNL A   1      40.561  35.423  36.782  1.00  0.00     0.010 A 
ATOM     86  C   UNL A   1      39.096  33.944  38.032  1.00  0.00     0.010 A 
ATOM     87  C   UNL A   1      40.401  36.406  37.763  1.00  0.00     0.020 A 
ATOM     88  C   UNL A   1      38.919  34.931  39.004  1.00  0.00     0.020 A 
ATOM     89  C   UNL A   1      39.578  36.155  38.866  1.00  0.00     0.054 A 
BRANCH  89  90
ATOM     90  S   UNL A   1      39.317  37.475  40.082  1.00  0.00     0.124 S 
ATOM     91  O   UNL A   1      38.804  36.732  41.230  1.00  0.00    -0.237 OA
ATOM     92  O   UNL A   1      40.656  38.035  40.245  1.00  0.00    -0.237 OA
ATOM     93  O   UNL A   1      38.354  38.360  39.430  1.00  0.00    -0.744 OA
ENDBRANCH  89  90
ENDBRANCH  63  84
ENDBRANCH  37  38
ENDBRANCH  29  32
ENDBRANCH  27  28
ENDBRANCH  26  27
ENDBRANCH   1  26
TORSDOF 17
ENDMDL
MODEL 2
REMARK VINA RESULT:     -12.1      2.394      3.014
REMARK SMILES CC1(C)[C@@]2(CC[C@@H]2C(=O)NCc2ccco2)[C@]1(C)C(=O)NCCCCNC(=O)c1ccc(-c2c3nc(c(-c4ccc(S(=O)(=O)[O-])cc4)c4ccc([nH]4)c(-c4ccc(S(=O)(=O)[O-])cc4)c4nc(c(-c5ccc(S(=O)(=O)[O-])cc5)c5ccc2[nH]5)C=C4)C=C3)cc1
REMARK SMILES IDX 23 1 22 2 21 3 19 4 20 5 17 7 1 8 2 9 3 10 4 11 18 12 5 13
REMARK SMILES IDX 7 14 6 15 8 16 9 17 10 18 11 20 12 21 13 22 16 23 14 24
REMARK SMILES IDX 15 25 24 26 25 27 26 28 27 29 28 31 29 32 30 33 88 34 31 35
REMARK SMILES IDX 87 36 32 37 33 38 34 39 81 40 35 41 86 42 80 43 82 44 36 45
REMARK SMILES IDX 85 46 79 47 78 48 37 50 67 51 48 52 66 53 49 54 52 55 65 56
REMARK SMILES IDX 83 57 50 58 51 59 64 61 84 62 53 63 38 64 39 65 47 66 40 67
REMARK SMILES IDX 46 68 41 69 42 70 43 71 44 72 45 73 68 74 69 75 77 76 70 77
REMARK SMILES IDX 76 78 71 79 72 80 73 81 74 82 75 83 54 84 55 85 63 86 56 87
REMARK SMILES IDX 62 88 57 89 58 90 59 91 60 92 61 93
REMARK H PARENT 21 6 10 19 26 30 82 49 52 60
REMARK Flexibility Score: inf
ROOT
ATOM      1  C   UNL A   1      35.469  22.722  23.225  1.00  0.00     0.023 C 
ENDROOT
BRANCH   1   2
ATOM      2  C   UNL A   1      33.990  22.829  22.864  1.00  0.00     0.116 C 
BRANCH   2   3
ATOM      3  N   UNL A   1      33.130  22.209  23.842  1.00  0.00    -0.356 N 
ATOM      4  C   UNL A   1      32.190  22.639  24.732  1.00  0.00     0.227 C 
ATOM      5  O   UNL A   1      31.481  21.722  25.160  1.00  0.00    -0.274 OA
ATOM      6  H   UNL A   1      33.251  21.233  23.874  1.00  0.00     0.163 HD
BRANCH   4   7
ATOM      7  C   UNL A   1      31.915  24.042  25.283  1.00  0.00     0.059 C 
ATOM      8  C   UNL A   1      30.237  24.560  23.320  1.00  0.00     0.013 C 
ATOM      9  C   UNL A   1      30.899  25.007  24.610  1.00  0.00    -0.013 C 
ATOM     10  C   UNL A   1      29.913  25.791  25.460  1.00  0.00     0.013 C 
ATOM     11  C   UNL A   1      32.376  25.393  24.715  1.00  0.00     0.003 C 
ATOM     12  C   UNL A   1      31.823  23.960  26.827  1.00  0.00     0.023 C 
ATOM     13  C   UNL A   1      32.985  26.414  25.646  1.00  0.00     0.010 C 
ATOM     14  C   UNL A   1      33.361  25.732  23.635  1.00  0.00     0.086 C 
ATOM     15  C   UNL A   1      34.118  26.576  24.652  1.00  0.00     0.015 C 
BRANCH  14  16
ATOM     16  C   UNL A   1      32.927  26.356  22.282  1.00  0.00     0.224 C 
ATOM     17  O   UNL A   1      33.281  25.867  21.195  1.00  0.00    -0.275 OA
ATOM     18  N   UNL A   1      32.157  27.480  22.149  1.00  0.00    -0.349 N 
ATOM     19  H   UNL A   1      31.866  27.660  21.225  1.00  0.00     0.163 HD
BRANCH  18  20
ATOM     20  C   UNL A   1      31.694  28.449  23.108  1.00  0.00     0.191 C 
BRANCH  20  21
ATOM     21  C   UNL A   1      30.328  28.907  22.742  1.00  0.00     0.122 A 
ATOM     22  C   UNL A   1      29.050  28.535  23.118  1.00  0.00     0.047 A 
ATOM     23  O   UNL A   1      30.260  29.922  21.833  1.00  0.00    -0.467 OA
ATOM     24  C   UNL A   1      28.159  29.360  22.393  1.00  0.00     0.042 A 
ATOM     25  C   UNL A   1      28.944  30.189  21.629  1.00  0.00     0.195 A 
ENDBRANCH  20  21
ENDBRANCH  18  20
ENDBRANCH  14  16
ENDBRANCH   4   7
ENDBRANCH   2   3
ENDBRANCH   1   2
BRANCH   1  26
ATOM     26  C   UNL A   1      35.801  22.991  24.689  1.00  0.00     0.023 C 
BRANCH  26  27
ATOM     27  C   UNL A   1      37.142  23.664  24.940  1.00  0.00     0.116 C 
BRANCH  27  28
ATOM     28  N   UNL A   1      38.208  22.736  25.296  1.00  0.00    -0.352 N 
ATOM     29  C   UNL A   1      39.296  22.952  26.109  1.00  0.00     0.251 C 
ATOM     30  H   UNL A   1      38.140  21.836  24.902  1.00  0.00     0.163 HD
ATOM     31  O   UNL A   1      40.154  22.090  26.259  1.00  0.00    -0.269 OA
BRANCH  29  32
ATOM     32  C   UNL A   1      39.436  24.267  26.765  1.00  0.00     0.039 A 
ATOM     33  C   UNL A   1      38.886  24.451  28.035  1.00  0.00     0.014 A 
ATOM     34  C   UNL A   1      40.193  25.275  26.161  1.00  0.00     0.014 A 
ATOM     35  C   UNL A   1      39.177  25.616  28.747  1.00  0.00     0.010 A 
ATOM     36  C   UNL A   1      40.540  26.399  26.899  1.00  0.00     0.010 A 
ATOM     37  C   UNL A   1      40.046  26.576  28.202  1.00  0.00    -0.014 A 
BRANCH  37  38
ATOM     38  C   UNL A   1      40.476  27.769  28.972  1.00  0.00     0.031 A 
ATOM     39  C   UNL A   1      41.772  27.735  29.730  1.00  0.00     0.074 A 
ATOM     40  C   UNL A   1      39.648  28.826  29.089  1.00  0.00     0.049 A 
ATOM     41  N   UNL A   1      42.249  28.598  30.587  1.00  0.00    -0.248 NA
ATOM     42  C   UNL A   1      42.625  26.552  29.526  1.00  0.00     0.031 C 
ATOM     43  C   UNL A   1      38.337  28.955  28.448  1.00  0.00     0.029 A 
ATOM     44  N   UNL A   1      39.775  29.983  29.816  1.00  0.00    -0.354 N 
ATOM     45  C   UNL A   1      43.430  28.043  31.061  1.00  0.00     0.074 A 
ATOM     46  C   UNL A   1      43.584  26.756  30.416  1.00  0.00     0.031 C 
ATOM     47  C   UNL A   1      37.785  30.126  28.807  1.00  0.00     0.029 A 
ATOM     48  C   UNL A   1      38.682  30.812  29.732  1.00  0.00     0.049 A 
ATOM     49  H   UNL A   1      40.575  30.199  30.349  1.00  0.00     0.167 HD
ATOM     50  C   UNL A   1      44.314  28.561  31.948  1.00  0.00     0.031 A 
ATOM     51  C   UNL A   1      38.419  31.983  30.344  1.00  0.00     0.031 A 
ATOM     52  C   UNL A   1      44.177  29.856  32.555  1.00  0.00     0.049 A 
ATOM     53  C   UNL A   1      39.436  32.565  31.283  1.00  0.00     0.074 A 
ATOM     54  C   UNL A   1      45.061  30.509  33.395  1.00  0.00     0.029 A 
ATOM     55  N   UNL A   1      43.086  30.695  32.386  1.00  0.00    -0.354 N 
ATOM     56  N   UNL A   1      40.586  32.062  31.662  1.00  0.00    -0.248 NA
ATOM     57  C   UNL A   1      39.128  33.877  31.871  1.00  0.00     0.031 C 
ATOM     58  C   UNL A   1      44.488  31.732  33.762  1.00  0.00     0.029 A 
ATOM     59  C   UNL A   1      43.266  31.855  33.118  1.00  0.00     0.049 A 
ATOM     60  H   UNL A   1      42.300  30.495  31.828  1.00  0.00     0.167 HD
ATOM     61  C   UNL A   1      41.149  33.002  32.516  1.00  0.00     0.074 A 
ATOM     62  C   UNL A   1      40.217  34.109  32.594  1.00  0.00     0.031 C 
ATOM     63  C   UNL A   1      42.332  32.950  33.176  1.00  0.00     0.031 A 
BRANCH  50  64
ATOM     64  C   UNL A   1      45.498  27.710  32.316  1.00  0.00    -0.014 A 
ATOM     65  C   UNL A   1      45.507  26.945  33.496  1.00  0.00     0.010 A 
ATOM     66  C   UNL A   1      46.620  27.678  31.470  1.00  0.00     0.010 A 
ATOM     67  C   UNL A   1      46.640  26.210  33.852  1.00  0.00     0.020 A 
ATOM     68  C   UNL A   1      47.745  26.922  31.809  1.00  0.00     0.020 A 
ATOM     69  C   UNL A   1      47.757  26.212  33.012  1.00  0.00     0.054 A 
BRANCH  69  70
ATOM     70  S   UNL A   1      49.220  25.258  33.499  1.00  0.00     0.124 S 
ATOM     71  O   UNL A   1      48.622  24.016  33.981  1.00  0.00    -0.237 OA
ATOM     72  O   UNL A   1      49.968  25.150  32.248  1.00  0.00    -0.237 OA
ATOM     73  O   UNL A   1      49.847  26.088  34.525  1.00  0.00    -0.744 OA
ENDBRANCH  69  70
ENDBRANCH  50  64
BRANCH  51  74
ATOM     74  C   UNL A   1      37.134  32.680  30.069  1.00  0.00    -0.014 A 
ATOM     75  C   UNL A   1      36.043  32.530  30.942  1.00  0.00     0.010 A 
ATOM     76  C   UNL A   1      37.014  33.541  28.963  1.00  0.00     0.010 A 
ATOM     77  C   UNL A   1      34.852  33.226  30.713  1.00  0.00     0.020 A 
ATOM     78  C   UNL A   1      35.833  34.255  28.742  1.00  0.00     0.020 A 
ATOM     79  C   UNL A   1      34.757  34.089  29.617  1.00  0.00     0.054 A 
BRANCH  79  80
ATOM     80  S   UNL A   1      33.234  35.050  29.387  1.00  0.00     0.124 S 
ATOM     81  O   UNL A   1      32.536  34.274  28.366  1.00  0.00    -0.237 OA
ATOM     82  O   UNL A   1      32.636  35.023  30.719  1.00  0.00    -0.237 OA
ATOM     83  O   UNL A   1      33.719  36.360  28.958  1.00  0.00    -0.744 OA
ENDBRANCH  79  80
ENDBRANCH  51  74
BRANCH  63  84
ATOM     84  C   UNL A   1      42.713  34.135  34.018  1.00  0.00    -0.014 A 
ATOM     85  C   UNL A   1      42.587  34.098  35.417  1.00  0.00     0.010 A 
ATOM     86  C   UNL A   1      43.297  35.260  33.407  1.00  0.00     0.010 A 
ATOM     87  C   UNL A   1      43.037  35.169  36.193  1.00  0.00     0.020 A 
ATOM     88  C   UNL A   1      43.764  36.325  34.181  1.00  0.00     0.020 A 
ATOM     89  C   UNL A   1      43.626  36.275  35.570  1.00  0.00     0.054 A 
BRANCH  89  90
ATOM     90  S   UNL A   1      44.280  37.616  36.601  1.00  0.00     0.124 S 
ATOM     91  O   UNL A   1      45.555  37.062  37.048  1.00  0.00    -0.237 OA
ATOM     92  O   UNL A   1      44.375  38.730  35.661  1.00  0.00    -0.237 OA
ATOM     93  O   UNL A   1      43.269  37.775  37.644  1.00  0.00    -0.744 OA
ENDBRANCH  89  90
ENDBRANCH  63  84
ENDBRANCH  37  38
ENDBRANCH  29  32
ENDBRANCH  27  28
ENDBRANCH  26  27
ENDBRANCH   1  26
TORSDOF 17
ENDMDL
MODEL 3
REMARK VINA RESULT:     -12.0      3.355      4.254
REMARK SMILES CC1(C)[C@@]2(CC[C@@H]2C(=O)NCc2ccco2)[C@]1(C)C(=O)NCCCCNC(=O)c1ccc(-c2c3nc(c(-c4ccc(S(=O)(=O)[O-])cc4)c4ccc([nH]4)c(-c4ccc(S(=O)(=O)[O-])cc4)c4nc(c(-c5ccc(S(=O)(=O)[O-])cc5)c5ccc2[nH]5)C=C4)C=C3)cc1
REMARK SMILES IDX 23 1 22 2 21 3 19 4 20 5 17 7 1 8 2 9 3 10 4 11 18 12 5 13
REMARK SMILES IDX 7 14 6 15 8 16 9 17 10 18 11 20 12 21 13 22 16 23 14 24
REMARK SMILES IDX 15 25 24 26 25 27 26 28 27 29 28 31 29 32 30 33 88 34 31 35
REMARK SMILES IDX 87 36 32 37 33 38 34 39 81 40 35 41 86 42 80 43 82 44 36 45
REMARK SMILES IDX 85 46 79 47 78 48 37 50 67 51 48 52 66 53 49 54 52 55 65 56
REMARK SMILES IDX 83 57 50 58 51 59 64 61 84 62 53 63 38 64 39 65 47 66 40 67
REMARK SMILES IDX 46 68 41 69 42 70 43 71 44 72 45 73 68 74 69 75 77 76 70 77
REMARK SMILES IDX 76 78 71 79 72 80 73 81 74 82 75 83 54 84 55 85 63 86 56 87
REMARK SMILES IDX 62 88 57 89 58 90 59 91 60 92 61 93
REMARK H PARENT 21 6 10 19 26 30 82 49 52 60
REMARK Flexibility Score: inf
ROOT
ATOM      1  C   UNL A   1      34.765  22.901  25.602  1.00  0.00     0.023 C 
ENDROOT
BRANCH   1   2
ATOM      2  C   UNL A   1      33.642  22.818  26.633  1.00  0.00     0.116 C 
BRANCH   2   3
ATOM      3  N   UNL A   1      33.001  24.088  26.864  1.00  0.00    -0.356 N 
ATOM      4  C   UNL A   1      32.090  24.859  26.204  1.00  0.00     0.227 C 
ATOM      5  O   UNL A   1      31.595  25.737  26.922  1.00  0.00    -0.274 OA
ATOM      6  H   UNL A   1      33.293  24.501  27.708  1.00  0.00     0.163 HD
BRANCH   4   7
ATOM      7  C   UNL A   1      31.627  24.818  24.744  1.00  0.00     0.059 C 
ATOM      8  C   UNL A   1      33.778  26.114  23.952  1.00  0.00     0.013 C 
ATOM      9  C   UNL A   1      32.486  25.405  23.590  1.00  0.00    -0.013 C 
ATOM     10  C   UNL A   1      32.661  24.627  22.296  1.00  0.00     0.013 C 
ATOM     11  C   UNL A   1      31.096  25.974  23.883  1.00  0.00     0.003 C 
ATOM     12  C   UNL A   1      31.002  23.429  24.461  1.00  0.00     0.023 C 
ATOM     13  C   UNL A   1      29.840  25.770  23.070  1.00  0.00     0.010 C 
ATOM     14  C   UNL A   1      30.685  27.372  24.242  1.00  0.00     0.086 C 
ATOM     15  C   UNL A   1      29.320  27.079  23.631  1.00  0.00     0.015 C 
BRANCH  14  16
ATOM     16  C   UNL A   1      31.487  28.618  23.781  1.00  0.00     0.224 C 
ATOM     17  O   UNL A   1      31.972  28.696  22.639  1.00  0.00    -0.275 OA
ATOM     18  N   UNL A   1      31.754  29.711  24.562  1.00  0.00    -0.349 N 
ATOM     19  H   UNL A   1      32.158  30.464  24.073  1.00  0.00     0.163 HD
BRANCH  18  20
ATOM     20  C   UNL A   1      31.555  29.963  25.966  1.00  0.00     0.191 C 
BRANCH  20  21
ATOM     21  C   UNL A   1      32.869  30.010  26.659  1.00  0.00     0.122 A 
ATOM     22  C   UNL A   1      33.555  30.979  27.367  1.00  0.00     0.047 A 
ATOM     23  O   UNL A   1      33.608  28.863  26.619  1.00  0.00    -0.467 OA
ATOM     24  C   UNL A   1      34.779  30.396  27.771  1.00  0.00     0.042 A 
ATOM     25  C   UNL A   1      34.760  29.106  27.295  1.00  0.00     0.195 A 
ENDBRANCH  20  21
ENDBRANCH  18  20
ENDBRANCH  14  16
ENDBRANCH   4   7
ENDBRANCH   2   3
ENDBRANCH   1   2
BRANCH   1  26
ATOM     26  C   UNL A   1      36.075  23.490  26.115  1.00  0.00     0.023 C 
BRANCH  26  27
ATOM     27  C   UNL A   1      37.255  23.385  25.161  1.00  0.00     0.116 C 
BRANCH  27  28
ATOM     28  N   UNL A   1      38.309  22.492  25.628  1.00  0.00    -0.352 N 
ATOM     29  C   UNL A   1      39.404  22.793  26.405  1.00  0.00     0.251 C 
ATOM     30  H   UNL A   1      38.227  21.551  25.350  1.00  0.00     0.163 HD
ATOM     31  O   UNL A   1      40.250  21.943  26.659  1.00  0.00    -0.269 OA
BRANCH  29  32
ATOM     32  C   UNL A   1      39.565  24.177  26.891  1.00  0.00     0.039 A 
ATOM     33  C   UNL A   1      39.128  24.496  28.178  1.00  0.00     0.014 A 
ATOM     34  C   UNL A   1      40.235  25.121  26.108  1.00  0.00     0.014 A 
ATOM     35  C   UNL A   1      39.448  25.742  28.722  1.00  0.00     0.010 A 
ATOM     36  C   UNL A   1      40.616  26.329  26.678  1.00  0.00     0.010 A 
ATOM     37  C   UNL A   1      40.237  26.647  27.993  1.00  0.00    -0.014 A 
BRANCH  37  38
ATOM     38  C   UNL A   1      40.701  27.929  28.579  1.00  0.00     0.031 A 
ATOM     39  C   UNL A   1      42.082  28.021  29.161  1.00  0.00     0.074 A 
ATOM     40  C   UNL A   1      39.843  28.961  28.698  1.00  0.00     0.049 A 
ATOM     41  N   UNL A   1      42.620  28.986  29.861  1.00  0.00    -0.248 NA
ATOM     42  C   UNL A   1      42.960  26.855  28.967  1.00  0.00     0.031 C 
ATOM     43  C   UNL A   1      38.457  28.976  28.223  1.00  0.00     0.029 A 
ATOM     44  N   UNL A   1      40.004  30.192  29.284  1.00  0.00    -0.354 N 
ATOM     45  C   UNL A   1      43.877  28.526  30.229  1.00  0.00     0.074 A 
ATOM     46  C   UNL A   1      44.012  27.185  29.700  1.00  0.00     0.031 C 
ATOM     47  C   UNL A   1      37.898  30.156  28.533  1.00  0.00     0.029 A 
ATOM     48  C   UNL A   1      38.869  30.967  29.261  1.00  0.00     0.049 A 
ATOM     49  H   UNL A   1      40.852  30.491  29.684  1.00  0.00     0.167 HD
ATOM     50  C   UNL A   1      44.838  29.165  30.938  1.00  0.00     0.031 A 
ATOM     51  C   UNL A   1      38.627  32.185  29.784  1.00  0.00     0.031 A 
ATOM     52  C   UNL A   1      44.715  30.510  31.427  1.00  0.00     0.049 A 
ATOM     53  C   UNL A   1      39.725  32.899  30.520  1.00  0.00     0.074 A 
ATOM     54  C   UNL A   1      45.664  31.279  32.076  1.00  0.00     0.029 A 
ATOM     55  N   UNL A   1      43.572  31.287  31.319  1.00  0.00    -0.354 N 
ATOM     56  N   UNL A   1      40.937  32.480  30.794  1.00  0.00    -0.248 NA
ATOM     57  C   UNL A   1      39.429  34.252  31.010  1.00  0.00     0.031 C 
ATOM     58  C   UNL A   1      45.083  32.512  32.392  1.00  0.00     0.029 A 
ATOM     59  C   UNL A   1      43.785  32.524  31.904  1.00  0.00     0.049 A 
ATOM     60  H   UNL A   1      42.733  31.002  30.891  1.00  0.00     0.167 HD
ATOM     61  C   UNL A   1      41.555  33.523  31.471  1.00  0.00     0.074 A 
ATOM     62  C   UNL A   1      40.587  34.598  31.559  1.00  0.00     0.031 C 
ATOM     63  C   UNL A   1      42.813  33.584  31.973  1.00  0.00     0.031 A 
BRANCH  50  64
ATOM     64  C   UNL A   1      46.100  28.400  31.232  1.00  0.00    -0.014 A 
ATOM     65  C   UNL A   1      46.215  27.598  32.381  1.00  0.00     0.010 A 
ATOM     66  C   UNL A   1      47.188  28.489  30.345  1.00  0.00     0.010 A 
ATOM     67  C   UNL A   1      47.416  26.945  32.669  1.00  0.00     0.020 A 
ATOM     68  C   UNL A   1      48.381  27.815  30.615  1.00  0.00     0.020 A 
ATOM     69  C   UNL A   1      48.496  27.067  31.790  1.00  0.00     0.054 A 
BRANCH  69  70
ATOM     70  S   UNL A   1      50.048  26.219  32.188  1.00  0.00     0.124 S 
ATOM     71  O   UNL A   1      49.808  25.783  33.562  1.00  0.00    -0.237 OA
ATOM     72  O   UNL A   1      50.100  25.151  31.192  1.00  0.00    -0.237 OA
ATOM     73  O   UNL A   1      51.060  27.260  32.033  1.00  0.00    -0.744 OA
ENDBRANCH  69  70
ENDBRANCH  50  64
BRANCH  51  74
ATOM     74  C   UNL A   1      37.286  32.804  29.610  1.00  0.00    -0.014 A 
ATOM     75  C   UNL A   1      36.344  32.763  30.653  1.00  0.00     0.010 A 
ATOM     76  C   UNL A   1      36.963  33.483  28.421  1.00  0.00     0.010 A 
ATOM     77  C   UNL A   1      35.102  33.388  30.510  1.00  0.00     0.020 A 
ATOM     78  C   UNL A   1      35.731  34.128  28.282  1.00  0.00     0.020 A 
ATOM     79  C   UNL A   1      34.805  34.072  29.327  1.00  0.00     0.054 A 
BRANCH  79  80
ATOM     80  S   UNL A   1      33.223  34.952  29.196  1.00  0.00     0.124 S 
ATOM     81  O   UNL A   1      33.643  36.264  28.716  1.00  0.00    -0.237 OA
ATOM     82  O   UNL A   1      32.483  34.135  28.237  1.00  0.00    -0.237 OA
ATOM     83  O   UNL A   1      32.702  34.920  30.561  1.00  0.00    -0.744 OA
ENDBRANCH  79  80
ENDBRANCH  51  74
BRANCH  63  84
ATOM     84  C   UNL A   1      43.237  34.863  32.638  1.00  0.00    -0.014 A 
ATOM     85  C   UNL A   1      43.840  35.896  31.901  1.00  0.00     0.010 A 
ATOM     86  C   UNL A   1      42.935  35.070  33.997  1.00  0.00     0.010 A 
ATOM     87  C   UNL A   1      44.138  37.116  32.514  1.00  0.00     0.020 A 
ATOM     88  C   UNL A   1      43.215  36.295  34.607  1.00  0.00     0.020 A 
ATOM     89  C   UNL A   1      43.820  37.309  33.862  1.00  0.00     0.054 A 
BRANCH  89  90
ATOM     90  S   UNL A   1      44.138  38.929  34.615  1.00  0.00     0.124 S 
ATOM     91  O   UNL A   1      44.046  38.625  36.040  1.00  0.00    -0.237 OA
ATOM     92  O   UNL A   1      45.475  39.256  34.127  1.00  0.00    -0.237 OA
ATOM     93  O   UNL A   1      43.067  39.771  34.086  1.00  0.00    -0.744 OA
ENDBRANCH  89  90
ENDBRANCH  63  84
ENDBRANCH  37  38
ENDBRANCH  29  32
ENDBRANCH  27  28
ENDBRANCH  26  27
ENDBRANCH   1  26
TORSDOF 17
ENDMDL
