MODEL 1
REMARK VINA RESULT:     -10.3      0.000      0.000
REMARK SMILES CC(C)(O)CC[C@@H](C(=O)NCCCCNC(=O)c1ccc(-c2c3nc(c(-c4ccc(S(=O)(=O)[O-])cc4)c4ccc([nH]4)c(-c4ccc(S(=O)(=O)[O-])cc4)c4nc(c(-c5ccc(S(=O)(=O)[O-])cc5)c5ccc2[nH]5)C=C4)C=C3)cc1)[C@@H]1CCS(=O)(=O)C1
REMARK SMILES IDX 12 1 11 2 10 3 8 4 9 5 7 7 6 8 5 9 2 10 1 11 3 12 4 13 78 15
REMARK SMILES IDX 79 16 84 17 80 18 81 19 82 20 83 21 13 22 14 23 15 24 16 25
REMARK SMILES IDX 17 27 18 28 19 29 77 30 20 31 76 32 21 33 22 34 23 35 70 36
REMARK SMILES IDX 24 37 75 38 69 39 71 40 25 41 74 42 68 43 67 44 26 46 56 47
REMARK SMILES IDX 37 48 55 49 38 50 41 51 54 52 72 53 39 54 40 55 53 57 73 58
REMARK SMILES IDX 42 59 27 60 28 61 36 62 29 63 35 64 30 65 31 66 32 67 33 68
REMARK SMILES IDX 34 69 57 70 58 71 66 72 59 73 65 74 60 75 61 76 62 77 63 78
REMARK SMILES IDX 64 79 43 80 44 81 52 82 45 83 51 84 46 85 47 86 48 87 49 88
REMARK SMILES IDX 50 89
REMARK H PARENT 10 6 4 14 15 26 71 45 41 56
REMARK Flexibility Score: inf
ROOT
ATOM      1  C   UNL A   1      32.041  26.669  26.674  1.00  0.00     0.023 C 
ENDROOT
BRANCH   1   2
ATOM      2  C   UNL A   1      30.759  26.081  26.071  1.00  0.00     0.116 C 
BRANCH   2   3
ATOM      3  N   UNL A   1      30.418  24.858  26.752  1.00  0.00    -0.356 N 
ATOM      4  C   UNL A   1      30.643  23.572  26.376  1.00  0.00     0.223 C 
ATOM      5  O   UNL A   1      29.809  22.752  26.761  1.00  0.00    -0.275 OA
ATOM      6  H   UNL A   1      29.957  24.970  27.614  1.00  0.00     0.163 HD
BRANCH   4   7
ATOM      7  C   UNL A   1      31.880  23.166  25.546  1.00  0.00     0.082 C 
BRANCH   7   8
ATOM      8  C   UNL A   1      31.571  22.929  24.036  1.00  0.00     0.017 C 
BRANCH   8   9
ATOM      9  C   UNL A   1      31.462  24.117  23.067  1.00  0.00     0.035 C 
BRANCH   9  10
ATOM     10  C   UNL A   1      32.731  24.795  22.477  1.00  0.00     0.059 C 
ATOM     11  C   UNL A   1      33.629  25.591  23.424  1.00  0.00     0.042 C 
ATOM     12  C   UNL A   1      32.312  25.697  21.301  1.00  0.00     0.042 C 
BRANCH  10  13
ATOM     13  O   UNL A   1      33.551  23.743  21.947  1.00  0.00    -0.390 OA
ATOM     14  H   UNL A   1      33.698  23.895  21.000  1.00  0.00     0.211 HD
ENDBRANCH  10  13
ENDBRANCH   9  10
ENDBRANCH   8   9
ENDBRANCH   7   8
BRANCH   7  15
ATOM     15  C   UNL A   1      32.593  21.855  26.084  1.00  0.00     0.017 C 
ATOM     16  C   UNL A   1      33.683  21.973  27.173  1.00  0.00     0.021 C 
ATOM     17  C   UNL A   1      33.192  20.971  24.988  1.00  0.00     0.141 C 
ATOM     18  C   UNL A   1      35.075  22.038  26.531  1.00  0.00     0.137 C 
ATOM     19  S   UNL A   1      34.920  21.343  24.898  1.00  0.00     0.150 S 
ATOM     20  O   UNL A   1      35.098  22.376  23.905  1.00  0.00    -0.229 OA
ATOM     21  O   UNL A   1      35.649  20.088  24.847  1.00  0.00    -0.229 OA
ENDBRANCH   7  15
ENDBRANCH   4   7
ENDBRANCH   2   3
ENDBRANCH   1   2
BRANCH   1  22
ATOM     22  C   UNL A   1      32.077  28.188  26.705  1.00  0.00     0.023 C 
BRANCH  22  23
ATOM     23  C   UNL A   1      33.443  28.762  27.046  1.00  0.00     0.116 C 
BRANCH  23  24
ATOM     24  N   UNL A   1      33.400  30.111  27.603  1.00  0.00    -0.352 N 
ATOM     25  C   UNL A   1      34.415  30.779  28.251  1.00  0.00     0.251 C 
ATOM     26  H   UNL A   1      32.549  30.597  27.505  1.00  0.00     0.163 HD
ATOM     27  O   UNL A   1      34.234  31.888  28.739  1.00  0.00    -0.269 OA
BRANCH  25  28
ATOM     28  C   UNL A   1      35.711  30.087  28.381  1.00  0.00     0.039 A 
ATOM     29  C   UNL A   1      36.636  30.185  27.342  1.00  0.00     0.014 A 
ATOM     30  C   UNL A   1      36.057  29.505  29.602  1.00  0.00     0.014 A 
ATOM     31  C   UNL A   1      37.949  29.768  27.562  1.00  0.00     0.010 A 
ATOM     32  C   UNL A   1      37.385  29.191  29.850  1.00  0.00     0.010 A 
ATOM     33  C   UNL A   1      38.346  29.319  28.834  1.00  0.00    -0.014 A 
BRANCH  33  34
ATOM     34  C   UNL A   1      39.759  28.971  29.126  1.00  0.00     0.031 A 
ATOM     35  C   UNL A   1      40.661  29.995  29.762  1.00  0.00     0.074 A 
ATOM     36  C   UNL A   1      40.248  27.769  28.756  1.00  0.00     0.049 A 
ATOM     37  N   UNL A   1      41.934  29.908  30.044  1.00  0.00    -0.248 NA
ATOM     38  C   UNL A   1      40.060  31.298  30.093  1.00  0.00     0.031 C 
ATOM     39  C   UNL A   1      39.490  26.710  28.082  1.00  0.00     0.029 A 
ATOM     40  N   UNL A   1      41.505  27.234  28.894  1.00  0.00    -0.354 N 
ATOM     41  C   UNL A   1      42.290  31.148  30.561  1.00  0.00     0.074 A 
ATOM     42  C   UNL A   1      41.116  31.989  30.496  1.00  0.00     0.031 C 
ATOM     43  C   UNL A   1      40.285  25.643  27.905  1.00  0.00     0.029 A 
ATOM     44  C   UNL A   1      41.619  25.951  28.409  1.00  0.00     0.049 A 
ATOM     45  H   UNL A   1      42.256  27.722  29.303  1.00  0.00     0.167 HD
ATOM     46  C   UNL A   1      43.478  31.545  31.070  1.00  0.00     0.031 A 
ATOM     47  C   UNL A   1      42.677  25.119  28.375  1.00  0.00     0.031 A 
ATOM     48  C   UNL A   1      44.636  30.699  31.156  1.00  0.00     0.049 A 
ATOM     49  C   UNL A   1      43.989  25.583  28.950  1.00  0.00     0.074 A 
ATOM     50  C   UNL A   1      45.867  30.982  31.719  1.00  0.00     0.029 A 
ATOM     51  N   UNL A   1      44.705  29.403  30.667  1.00  0.00    -0.354 N 
ATOM     52  N   UNL A   1      44.283  26.733  29.507  1.00  0.00    -0.248 NA
ATOM     53  C   UNL A   1      45.109  24.632  28.902  1.00  0.00     0.031 C 
ATOM     54  C   UNL A   1      46.700  29.876  31.519  1.00  0.00     0.029 A 
ATOM     55  C   UNL A   1      45.967  28.882  30.891  1.00  0.00     0.049 A 
ATOM     56  H   UNL A   1      43.966  28.925  30.226  1.00  0.00     0.167 HD
ATOM     57  C   UNL A   1      45.612  26.633  29.905  1.00  0.00     0.074 A 
ATOM     58  C   UNL A   1      46.059  25.305  29.536  1.00  0.00     0.031 C 
ATOM     59  C   UNL A   1      46.393  27.556  30.520  1.00  0.00     0.031 A 
BRANCH  46  60
ATOM     60  C   UNL A   1      43.583  32.962  31.573  1.00  0.00    -0.014 A 
ATOM     61  C   UNL A   1      43.216  33.296  32.890  1.00  0.00     0.010 A 
ATOM     62  C   UNL A   1      44.084  33.967  30.727  1.00  0.00     0.010 A 
ATOM     63  C   UNL A   1      43.310  34.615  33.337  1.00  0.00     0.020 A 
ATOM     64  C   UNL A   1      44.209  35.283  31.182  1.00  0.00     0.020 A 
ATOM     65  C   UNL A   1      43.805  35.601  32.480  1.00  0.00     0.054 A 
BRANCH  65  66
ATOM     66  S   UNL A   1      43.941  37.301  33.098  1.00  0.00     0.124 S 
ATOM     67  O   UNL A   1      45.237  37.271  33.774  1.00  0.00    -0.237 OA
ATOM     68  O   UNL A   1      43.892  38.091  31.870  1.00  0.00    -0.237 OA
ATOM     69  O   UNL A   1      42.784  37.446  33.976  1.00  0.00    -0.744 OA
ENDBRANCH  65  66
ENDBRANCH  46  60
BRANCH  47  70
ATOM     70  C   UNL A   1      42.539  23.750  27.801  1.00  0.00    -0.014 A 
ATOM     71  C   UNL A   1      42.172  22.667  28.621  1.00  0.00     0.010 A 
ATOM     72  C   UNL A   1      42.771  23.520  26.433  1.00  0.00     0.010 A 
ATOM     73  C   UNL A   1      42.065  21.378  28.089  1.00  0.00     0.020 A 
ATOM     74  C   UNL A   1      42.636  22.238  25.892  1.00  0.00     0.020 A 
ATOM     75  C   UNL A   1      42.294  21.172  26.727  1.00  0.00     0.054 A 
BRANCH  75  76
ATOM     76  S   UNL A   1      42.106  19.499  26.050  1.00  0.00     0.124 S 
ATOM     77  O   UNL A   1      42.957  19.553  24.866  1.00  0.00    -0.237 OA
ATOM     78  O   UNL A   1      42.594  18.661  27.143  1.00  0.00    -0.237 OA
ATOM     79  O   UNL A   1      40.673  19.396  25.788  1.00  0.00    -0.744 OA
ENDBRANCH  75  76
ENDBRANCH  47  70
BRANCH  59  80
ATOM     80  C   UNL A   1      47.799  27.152  30.873  1.00  0.00    -0.014 A 
ATOM     81  C   UNL A   1      48.070  26.343  31.990  1.00  0.00     0.010 A 
ATOM     82  C   UNL A   1      48.860  27.537  30.031  1.00  0.00     0.010 A 
ATOM     83  C   UNL A   1      49.381  25.953  32.277  1.00  0.00     0.020 A 
ATOM     84  C   UNL A   1      50.166  27.124  30.297  1.00  0.00     0.020 A 
ATOM     85  C   UNL A   1      50.420  26.345  31.428  1.00  0.00     0.054 A 
BRANCH  85  86
ATOM     86  S   UNL A   1      52.106  25.787  31.796  1.00  0.00     0.124 S 
ATOM     87  O   UNL A   1      51.882  24.409  32.227  1.00  0.00    -0.237 OA
ATOM     88  O   UNL A   1      52.782  25.941  30.511  1.00  0.00    -0.237 OA
ATOM     89  O   UNL A   1      52.554  26.703  32.844  1.00  0.00    -0.744 OA
ENDBRANCH  85  86
ENDBRANCH  59  80
ENDBRANCH  33  34
ENDBRANCH  25  28
ENDBRANCH  23  24
ENDBRANCH  22  23
ENDBRANCH   1  22
TORSDOF 19
ENDMDL
MODEL 2
REMARK VINA RESULT:     -10.3      1.144      2.533
REMARK SMILES CC(C)(O)CC[C@@H](C(=O)NCCCCNC(=O)c1ccc(-c2c3nc(c(-c4ccc(S(=O)(=O)[O-])cc4)c4ccc([nH]4)c(-c4ccc(S(=O)(=O)[O-])cc4)c4nc(c(-c5ccc(S(=O)(=O)[O-])cc5)c5ccc2[nH]5)C=C4)C=C3)cc1)[C@@H]1CCS(=O)(=O)C1
REMARK SMILES IDX 12 1 11 2 10 3 8 4 9 5 7 7 6 8 5 9 2 10 1 11 3 12 4 13 78 15
REMARK SMILES IDX 79 16 84 17 80 18 81 19 82 20 83 21 13 22 14 23 15 24 16 25
REMARK SMILES IDX 17 27 18 28 19 29 77 30 20 31 76 32 21 33 22 34 23 35 70 36
REMARK SMILES IDX 24 37 75 38 69 39 71 40 25 41 74 42 68 43 67 44 26 46 56 47
REMARK SMILES IDX 37 48 55 49 38 50 41 51 54 52 72 53 39 54 40 55 53 57 73 58
REMARK SMILES IDX 42 59 27 60 28 61 36 62 29 63 35 64 30 65 31 66 32 67 33 68
REMARK SMILES IDX 34 69 57 70 58 71 66 72 59 73 65 74 60 75 61 76 62 77 63 78
REMARK SMILES IDX 64 79 43 80 44 81 52 82 45 83 51 84 46 85 47 86 48 87 49 88
REMARK SMILES IDX 50 89
REMARK H PARENT 10 6 4 14 15 26 71 45 41 56
REMARK Flexibility Score: inf
ROOT
ATOM      1  C   UNL A   1      33.306  26.862  25.668  1.00  0.00     0.023 C 
ENDROOT
BRANCH   1   2
ATOM      2  C   UNL A   1      34.273  26.596  24.508  1.00  0.00     0.116 C 
BRANCH   2   3
ATOM      3  N   UNL A   1      33.535  26.151  23.353  1.00  0.00    -0.356 N 
ATOM      4  C   UNL A   1      33.240  24.886  22.953  1.00  0.00     0.223 C 
ATOM      5  O   UNL A   1      33.145  24.721  21.738  1.00  0.00    -0.275 OA
ATOM      6  H   UNL A   1      33.194  26.866  22.769  1.00  0.00     0.163 HD
BRANCH   4   7
ATOM      7  C   UNL A   1      33.013  23.741  23.965  1.00  0.00     0.082 C 
BRANCH   7   8
ATOM      8  C   UNL A   1      33.717  22.407  23.570  1.00  0.00     0.017 C 
BRANCH   8   9
ATOM      9  C   UNL A   1      34.873  21.854  24.419  1.00  0.00     0.035 C 
BRANCH   9  10
ATOM     10  C   UNL A   1      36.317  22.411  24.276  1.00  0.00     0.059 C 
ATOM     11  C   UNL A   1      37.485  21.462  24.545  1.00  0.00     0.042 C 
ATOM     12  C   UNL A   1      36.461  23.656  25.171  1.00  0.00     0.042 C 
BRANCH  10  13
ATOM     13  O   UNL A   1      36.460  22.837  22.913  1.00  0.00    -0.390 OA
ATOM     14  H   UNL A   1      36.953  23.672  22.886  1.00  0.00     0.211 HD
ENDBRANCH  10  13
ENDBRANCH   9  10
ENDBRANCH   8   9
ENDBRANCH   7   8
BRANCH   7  15
ATOM     15  C   UNL A   1      31.480  23.405  24.195  1.00  0.00     0.017 C 
ATOM     16  C   UNL A   1      30.440  24.548  24.188  1.00  0.00     0.021 C 
ATOM     17  C   UNL A   1      31.199  22.593  25.463  1.00  0.00     0.141 C 
ATOM     18  C   UNL A   1      30.180  25.044  25.616  1.00  0.00     0.137 C 
ATOM     19  S   UNL A   1      30.684  23.735  26.714  1.00  0.00     0.150 S 
ATOM     20  O   UNL A   1      31.857  24.138  27.454  1.00  0.00    -0.229 OA
ATOM     21  O   UNL A   1      29.508  23.186  27.367  1.00  0.00    -0.229 OA
ENDBRANCH   7  15
ENDBRANCH   4   7
ENDBRANCH   2   3
ENDBRANCH   1   2
BRANCH   1  22
ATOM     22  C   UNL A   1      33.130  28.333  26.009  1.00  0.00     0.023 C 
BRANCH  22  23
ATOM     23  C   UNL A   1      33.344  28.651  27.480  1.00  0.00     0.116 C 
BRANCH  23  24
ATOM     24  N   UNL A   1      33.386  30.079  27.781  1.00  0.00    -0.352 N 
ATOM     25  C   UNL A   1      34.472  30.810  28.209  1.00  0.00     0.251 C 
ATOM     26  H   UNL A   1      32.543  30.574  27.666  1.00  0.00     0.163 HD
ATOM     27  O   UNL A   1      34.363  31.996  28.497  1.00  0.00    -0.269 OA
BRANCH  25  28
ATOM     28  C   UNL A   1      35.756  30.100  28.356  1.00  0.00     0.039 A 
ATOM     29  C   UNL A   1      36.648  30.088  27.284  1.00  0.00     0.014 A 
ATOM     30  C   UNL A   1      36.129  29.613  29.611  1.00  0.00     0.014 A 
ATOM     31  C   UNL A   1      37.958  29.659  27.498  1.00  0.00     0.010 A 
ATOM     32  C   UNL A   1      37.457  29.289  29.843  1.00  0.00     0.010 A 
ATOM     33  C   UNL A   1      38.387  29.308  28.790  1.00  0.00    -0.014 A 
BRANCH  33  34
ATOM     34  C   UNL A   1      39.801  28.950  29.067  1.00  0.00     0.031 A 
ATOM     35  C   UNL A   1      40.720  29.974  29.677  1.00  0.00     0.074 A 
ATOM     36  C   UNL A   1      40.274  27.740  28.706  1.00  0.00     0.049 A 
ATOM     37  N   UNL A   1      41.997  29.879  29.942  1.00  0.00    -0.248 NA
ATOM     38  C   UNL A   1      40.137  31.288  29.999  1.00  0.00     0.031 C 
ATOM     39  C   UNL A   1      39.497  26.679  28.057  1.00  0.00     0.029 A 
ATOM     40  N   UNL A   1      41.527  27.195  28.833  1.00  0.00    -0.354 N 
ATOM     41  C   UNL A   1      42.371  31.123  30.437  1.00  0.00     0.074 A 
ATOM     42  C   UNL A   1      41.204  31.974  30.378  1.00  0.00     0.031 C 
ATOM     43  C   UNL A   1      40.279  25.602  27.883  1.00  0.00     0.029 A 
ATOM     44  C   UNL A   1      41.623  25.905  28.364  1.00  0.00     0.049 A 
ATOM     45  H   UNL A   1      42.288  27.682  29.225  1.00  0.00     0.167 HD
ATOM     46  C   UNL A   1      43.571  31.516  30.924  1.00  0.00     0.031 A 
ATOM     47  C   UNL A   1      42.673  25.062  28.326  1.00  0.00     0.031 A 
ATOM     48  C   UNL A   1      44.722  30.660  31.005  1.00  0.00     0.049 A 
ATOM     49  C   UNL A   1      43.998  25.522  28.876  1.00  0.00     0.074 A 
ATOM     50  C   UNL A   1      45.963  30.940  31.546  1.00  0.00     0.029 A 
ATOM     51  N   UNL A   1      44.772  29.358  30.531  1.00  0.00    -0.354 N 
ATOM     52  N   UNL A   1      44.309  26.677  29.414  1.00  0.00    -0.248 NA
ATOM     53  C   UNL A   1      45.108  24.560  28.825  1.00  0.00     0.031 C 
ATOM     54  C   UNL A   1      46.783  29.824  31.349  1.00  0.00     0.029 A 
ATOM     55  C   UNL A   1      46.032  28.828  30.745  1.00  0.00     0.049 A 
ATOM     56  H   UNL A   1      44.023  28.881  30.108  1.00  0.00     0.167 HD
ATOM     57  C   UNL A   1      45.643  26.570  29.793  1.00  0.00     0.074 A 
ATOM     58  C   UNL A   1      46.073  25.233  29.436  1.00  0.00     0.031 C 
ATOM     59  C   UNL A   1      46.441  27.493  30.385  1.00  0.00     0.031 A 
BRANCH  46  60
ATOM     60  C   UNL A   1      43.694  32.938  31.406  1.00  0.00    -0.014 A 
ATOM     61  C   UNL A   1      44.203  33.949  30.570  1.00  0.00     0.010 A 
ATOM     62  C   UNL A   1      43.266  33.275  32.703  1.00  0.00     0.010 A 
ATOM     63  C   UNL A   1      44.320  35.260  31.036  1.00  0.00     0.020 A 
ATOM     64  C   UNL A   1      43.352  34.592  33.161  1.00  0.00     0.020 A 
ATOM     65  C   UNL A   1      43.895  35.573  32.330  1.00  0.00     0.054 A 
BRANCH  65  66
ATOM     66  S   UNL A   1      44.033  37.290  32.898  1.00  0.00     0.124 S 
ATOM     67  O   UNL A   1      43.858  38.034  31.651  1.00  0.00    -0.237 OA
ATOM     68  O   UNL A   1      42.934  37.399  33.853  1.00  0.00    -0.237 OA
ATOM     69  O   UNL A   1      45.371  37.358  33.480  1.00  0.00    -0.744 OA
ENDBRANCH  65  66
ENDBRANCH  46  60
BRANCH  47  70
ATOM     70  C   UNL A   1      42.514  23.688  27.772  1.00  0.00    -0.014 A 
ATOM     71  C   UNL A   1      42.843  23.417  26.432  1.00  0.00     0.010 A 
ATOM     72  C   UNL A   1      42.034  22.641  28.580  1.00  0.00     0.010 A 
ATOM     73  C   UNL A   1      42.673  22.134  25.903  1.00  0.00     0.020 A 
ATOM     74  C   UNL A   1      41.890  21.350  28.063  1.00  0.00     0.020 A 
ATOM     75  C   UNL A   1      42.199  21.107  26.724  1.00  0.00     0.054 A 
BRANCH  75  76
ATOM     76  S   UNL A   1      42.028  19.439  26.029  1.00  0.00     0.124 S 
ATOM     77  O   UNL A   1      42.540  18.605  27.112  1.00  0.00    -0.237 OA
ATOM     78  O   UNL A   1      40.590  19.347  25.784  1.00  0.00    -0.237 OA
ATOM     79  O   UNL A   1      42.855  19.483  24.826  1.00  0.00    -0.744 OA
ENDBRANCH  75  76
ENDBRANCH  47  70
BRANCH  59  80
ATOM     80  C   UNL A   1      47.849  27.081  30.723  1.00  0.00    -0.014 A 
ATOM     81  C   UNL A   1      48.912  27.310  29.834  1.00  0.00     0.010 A 
ATOM     82  C   UNL A   1      48.118  26.513  31.983  1.00  0.00     0.010 A 
ATOM     83  C   UNL A   1      50.216  26.950  30.184  1.00  0.00     0.020 A 
ATOM     84  C   UNL A   1      49.423  26.179  32.349  1.00  0.00     0.020 A 
ATOM     85  C   UNL A   1      50.463  26.388  31.441  1.00  0.00     0.054 A 
BRANCH  85  86
ATOM     86  S   UNL A   1      52.170  25.972  31.890  1.00  0.00     0.124 S 
ATOM     87  O   UNL A   1      52.412  26.864  33.020  1.00  0.00    -0.237 OA
ATOM     88  O   UNL A   1      52.077  24.552  32.219  1.00  0.00    -0.237 OA
ATOM     89  O   UNL A   1      52.931  26.277  30.680  1.00  0.00    -0.744 OA
ENDBRANCH  85  86
ENDBRANCH  59  80
ENDBRANCH  33  34
ENDBRANCH  25  28
ENDBRANCH  23  24
ENDBRANCH  22  23
ENDBRANCH   1  22
TORSDOF 19
ENDMDL
MODEL 3
REMARK VINA RESULT:     -10.3      1.285      2.703
REMARK SMILES CC(C)(O)CC[C@@H](C(=O)NCCCCNC(=O)c1ccc(-c2c3nc(c(-c4ccc(S(=O)(=O)[O-])cc4)c4ccc([nH]4)c(-c4ccc(S(=O)(=O)[O-])cc4)c4nc(c(-c5ccc(S(=O)(=O)[O-])cc5)c5ccc2[nH]5)C=C4)C=C3)cc1)[C@@H]1CCS(=O)(=O)C1
REMARK SMILES IDX 12 1 11 2 10 3 8 4 9 5 7 7 6 8 5 9 2 10 1 11 3 12 4 13 78 15
REMARK SMILES IDX 79 16 84 17 80 18 81 19 82 20 83 21 13 22 14 23 15 24 16 25
REMARK SMILES IDX 17 27 18 28 19 29 77 30 20 31 76 32 21 33 22 34 23 35 70 36
REMARK SMILES IDX 24 37 75 38 69 39 71 40 25 41 74 42 68 43 67 44 26 46 56 47
REMARK SMILES IDX 37 48 55 49 38 50 41 51 54 52 72 53 39 54 40 55 53 57 73 58
REMARK SMILES IDX 42 59 27 60 28 61 36 62 29 63 35 64 30 65 31 66 32 67 33 68
REMARK SMILES IDX 34 69 57 70 58 71 66 72 59 73 65 74 60 75 61 76 62 77 63 78
REMARK SMILES IDX 64 79 43 80 44 81 52 82 45 83 51 84 46 85 47 86 48 87 49 88
REMARK SMILES IDX 50 89
REMARK H PARENT 10 6 4 14 15 26 71 45 41 56
REMARK Flexibility Score: inf
ROOT
ATOM      1  C   UNL A   1      33.271  27.386  24.839  1.00  0.00     0.023 C 
ENDROOT
BRANCH   1   2
ATOM      2  C   UNL A   1      34.097  26.094  24.790  1.00  0.00     0.116 C 
BRANCH   2   3
ATOM      3  N   UNL A   1      33.801  25.374  23.578  1.00  0.00    -0.356 N 
ATOM      4  C   UNL A   1      33.621  24.040  23.390  1.00  0.00     0.223 C 
ATOM      5  O   UNL A   1      33.956  23.608  22.288  1.00  0.00    -0.275 OA
ATOM      6  H   UNL A   1      33.715  25.928  22.768  1.00  0.00     0.163 HD
BRANCH   4   7
ATOM      7  C   UNL A   1      33.009  23.135  24.483  1.00  0.00     0.082 C 
BRANCH   7   8
ATOM      8  C   UNL A   1      33.456  21.645  24.383  1.00  0.00     0.017 C 
BRANCH   8   9
ATOM      9  C   UNL A   1      32.416  20.533  24.170  1.00  0.00     0.035 C 
BRANCH   9  10
ATOM     10  C   UNL A   1      32.823  19.032  24.205  1.00  0.00     0.059 C 
ATOM     11  C   UNL A   1      34.282  18.688  24.503  1.00  0.00     0.042 C 
ATOM     12  C   UNL A   1      32.409  18.374  22.875  1.00  0.00     0.042 C 
BRANCH  10  13
ATOM     13  O   UNL A   1      32.051  18.421  25.250  1.00  0.00    -0.390 OA
ATOM     14  H   UNL A   1      31.284  18.979  25.452  1.00  0.00     0.211 HD
ENDBRANCH  10  13
ENDBRANCH   9  10
ENDBRANCH   8   9
ENDBRANCH   7   8
BRANCH   7  15
ATOM     15  C   UNL A   1      31.423  23.145  24.487  1.00  0.00     0.017 C 
ATOM     16  C   UNL A   1      30.666  24.199  23.648  1.00  0.00     0.021 C 
ATOM     17  C   UNL A   1      30.801  23.197  25.885  1.00  0.00     0.141 C 
ATOM     18  C   UNL A   1      30.322  25.421  24.509  1.00  0.00     0.137 C 
ATOM     19  S   UNL A   1      30.374  24.885  26.207  1.00  0.00     0.150 S 
ATOM     20  O   UNL A   1      31.491  25.502  26.883  1.00  0.00    -0.229 OA
ATOM     21  O   UNL A   1      29.028  24.913  26.753  1.00  0.00    -0.229 OA
ENDBRANCH   7  15
ENDBRANCH   4   7
ENDBRANCH   2   3
ENDBRANCH   1   2
BRANCH   1  22
ATOM     22  C   UNL A   1      33.948  28.532  25.572  1.00  0.00     0.023 C 
BRANCH  22  23
ATOM     23  C   UNL A   1      33.577  28.623  27.043  1.00  0.00     0.116 C 
BRANCH  23  24
ATOM     24  N   UNL A   1      33.552  29.986  27.568  1.00  0.00    -0.352 N 
ATOM     25  C   UNL A   1      34.587  30.667  28.170  1.00  0.00     0.251 C 
ATOM     26  H   UNL A   1      32.700  30.471  27.483  1.00  0.00     0.163 HD
ATOM     27  O   UNL A   1      34.422  31.788  28.635  1.00  0.00    -0.269 OA
BRANCH  25  28
ATOM     28  C   UNL A   1      35.885  29.975  28.279  1.00  0.00     0.039 A 
ATOM     29  C   UNL A   1      36.816  30.120  27.251  1.00  0.00     0.014 A 
ATOM     30  C   UNL A   1      36.225  29.344  29.478  1.00  0.00     0.014 A 
ATOM     31  C   UNL A   1      38.129  29.700  27.463  1.00  0.00     0.010 A 
ATOM     32  C   UNL A   1      37.553  29.026  29.721  1.00  0.00     0.010 A 
ATOM     33  C   UNL A   1      38.520  29.200  28.717  1.00  0.00    -0.014 A 
BRANCH  33  34
ATOM     34  C   UNL A   1      39.933  28.845  29.004  1.00  0.00     0.031 A 
ATOM     35  C   UNL A   1      40.846  29.872  29.619  1.00  0.00     0.074 A 
ATOM     36  C   UNL A   1      40.411  27.635  28.648  1.00  0.00     0.049 A 
ATOM     37  N   UNL A   1      42.121  29.779  29.893  1.00  0.00    -0.248 NA
ATOM     38  C   UNL A   1      40.258  31.184  29.936  1.00  0.00     0.031 C 
ATOM     39  C   UNL A   1      39.640  26.573  27.994  1.00  0.00     0.029 A 
ATOM     40  N   UNL A   1      41.664  27.093  28.784  1.00  0.00    -0.354 N 
ATOM     41  C   UNL A   1      42.490  31.024  30.390  1.00  0.00     0.074 A 
ATOM     42  C   UNL A   1      41.321  31.872  30.322  1.00  0.00     0.031 C 
ATOM     43  C   UNL A   1      40.425  25.497  27.826  1.00  0.00     0.029 A 
ATOM     44  C   UNL A   1      41.765  25.802  28.317  1.00  0.00     0.049 A 
ATOM     45  H   UNL A   1      42.422  27.581  29.180  1.00  0.00     0.167 HD
ATOM     46  C   UNL A   1      43.685  31.420  30.884  1.00  0.00     0.031 A 
ATOM     47  C   UNL A   1      42.817  24.962  28.286  1.00  0.00     0.031 A 
ATOM     48  C   UNL A   1      44.837  30.566  30.974  1.00  0.00     0.049 A 
ATOM     49  C   UNL A   1      44.137  25.425  28.845  1.00  0.00     0.074 A 
ATOM     50  C   UNL A   1      46.074  30.848  31.523  1.00  0.00     0.029 A 
ATOM     51  N   UNL A   1      44.893  29.263  30.502  1.00  0.00    -0.354 N 
ATOM     52  N   UNL A   1      44.443  26.580  29.384  1.00  0.00    -0.248 NA
ATOM     53  C   UNL A   1      45.249  24.465  28.802  1.00  0.00     0.031 C 
ATOM     54  C   UNL A   1      46.898  29.734  31.334  1.00  0.00     0.029 A 
ATOM     55  C   UNL A   1      46.153  28.736  30.725  1.00  0.00     0.049 A 
ATOM     56  H   UNL A   1      44.147  28.784  30.074  1.00  0.00     0.167 HD
ATOM     57  C   UNL A   1      45.775  26.476  29.773  1.00  0.00     0.074 A 
ATOM     58  C   UNL A   1      46.209  25.139  29.420  1.00  0.00     0.031 C 
ATOM     59  C   UNL A   1      46.566  27.401  30.370  1.00  0.00     0.031 A 
BRANCH  46  60
ATOM     60  C   UNL A   1      43.803  32.842  31.366  1.00  0.00    -0.014 A 
ATOM     61  C   UNL A   1      43.469  33.193  32.688  1.00  0.00     0.010 A 
ATOM     62  C   UNL A   1      44.285  33.836  30.496  1.00  0.00     0.010 A 
ATOM     63  C   UNL A   1      43.575  34.518  33.116  1.00  0.00     0.020 A 
ATOM     64  C   UNL A   1      44.422  35.157  30.931  1.00  0.00     0.020 A 
ATOM     65  C   UNL A   1      44.050  35.493  32.234  1.00  0.00     0.054 A 
BRANCH  65  66
ATOM     66  S   UNL A   1      44.204  37.200  32.827  1.00  0.00     0.124 S 
ATOM     67  O   UNL A   1      43.176  37.251  33.864  1.00  0.00    -0.237 OA
ATOM     68  O   UNL A   1      45.583  37.247  33.307  1.00  0.00    -0.237 OA
ATOM     69  O   UNL A   1      43.932  38.006  31.640  1.00  0.00    -0.744 OA
ENDBRANCH  65  66
ENDBRANCH  46  60
BRANCH  47  70
ATOM     70  C   UNL A   1      42.665  23.586  27.733  1.00  0.00    -0.014 A 
ATOM     71  C   UNL A   1      43.023  23.311  26.401  1.00  0.00     0.010 A 
ATOM     72  C   UNL A   1      42.162  22.544  28.532  1.00  0.00     0.010 A 
ATOM     73  C   UNL A   1      42.858  22.027  25.872  1.00  0.00     0.020 A 
ATOM     74  C   UNL A   1      42.024  21.252  28.016  1.00  0.00     0.020 A 
ATOM     75  C   UNL A   1      42.362  21.004  26.684  1.00  0.00     0.054 A 
BRANCH  75  76
ATOM     76  S   UNL A   1      42.199  19.335  25.990  1.00  0.00     0.124 S 
ATOM     77  O   UNL A   1      43.019  19.426  24.787  1.00  0.00    -0.237 OA
ATOM     78  O   UNL A   1      42.734  18.496  27.060  1.00  0.00    -0.237 OA
ATOM     79  O   UNL A   1      40.762  19.199  25.762  1.00  0.00    -0.744 OA
ENDBRANCH  75  76
ENDBRANCH  47  70
BRANCH  59  80
ATOM     80  C   UNL A   1      47.972  26.992  30.718  1.00  0.00    -0.014 A 
ATOM     81  C   UNL A   1      49.034  27.181  29.817  1.00  0.00     0.010 A 
ATOM     82  C   UNL A   1      48.242  26.469  31.996  1.00  0.00     0.010 A 
ATOM     83  C   UNL A   1      50.336  26.825  30.176  1.00  0.00     0.020 A 
ATOM     84  C   UNL A   1      49.547  26.140  32.370  1.00  0.00     0.020 A 
ATOM     85  C   UNL A   1      50.584  26.308  31.451  1.00  0.00     0.054 A 
BRANCH  85  86
ATOM     86  S   UNL A   1      52.290  25.897  31.910  1.00  0.00     0.124 S 
ATOM     87  O   UNL A   1      53.037  26.357  30.743  1.00  0.00    -0.237 OA
ATOM     88  O   UNL A   1      52.489  26.674  33.130  1.00  0.00    -0.237 OA
ATOM     89  O   UNL A   1      52.259  24.448  32.099  1.00  0.00    -0.744 OA
ENDBRANCH  85  86
ENDBRANCH  59  80
ENDBRANCH  33  34
ENDBRANCH  25  28
ENDBRANCH  23  24
ENDBRANCH  22  23
ENDBRANCH   1  22
TORSDOF 19
ENDMDL
