MODEL 1
REMARK VINA RESULT:     -12.7      0.000      0.000
REMARK SMILES CC(=O)n1cc2c3c(cccc31)C(=O)C[C@@H]2C(=O)NCCCCNC(=O)c1ccc(-c2c3nc(c(-c4ccc(S(=O)(=O)[O-])cc4)c4ccc([nH]4)c(-c4ccc(S(=O)(=O)[O-])cc4)c4nc(c(-c5ccc(S(=O)(=O)[O-])cc5)c5ccc2[nH]5)C=C4)C=C3)cc1
REMARK SMILES IDX 22 1 21 2 20 3 19 4 17 5 18 6 16 8 4 9 5 10 12 11 6 12 7 13
REMARK SMILES IDX 11 14 8 15 10 16 15 17 9 18 13 19 14 20 2 21 1 22 3 23 23 24
REMARK SMILES IDX 24 25 25 26 26 28 27 29 28 30 86 31 29 32 85 33 30 34 31 35
REMARK SMILES IDX 32 36 79 37 33 38 84 39 78 40 80 41 34 42 83 43 77 44 76 45
REMARK SMILES IDX 35 47 65 48 46 49 64 50 47 51 50 52 63 53 81 54 48 55 49 56
REMARK SMILES IDX 62 58 82 59 51 60 36 61 37 62 45 63 38 64 44 65 39 66 40 67
REMARK SMILES IDX 41 68 42 69 43 70 66 71 67 72 75 73 68 74 74 75 69 76 70 77
REMARK SMILES IDX 71 78 72 79 73 80 52 81 53 82 61 83 54 84 60 85 55 86 56 87
REMARK SMILES IDX 57 88 58 89 59 90
REMARK H PARENT 19 7 24 27 80 46 50 57
REMARK Flexibility Score: inf
ROOT
ATOM      1  C   UNL A   1      39.041  22.062  26.136  1.00  0.00     0.023 C 
ENDROOT
BRANCH   1   2
ATOM      2  C   UNL A   1      38.194  23.341  26.177  1.00  0.00     0.023 C 
BRANCH   2   3
ATOM      3  C   UNL A   1      37.134  23.473  25.081  1.00  0.00     0.116 C 
BRANCH   3   4
ATOM      4  N   UNL A   1      35.798  23.173  25.570  1.00  0.00    -0.356 N 
ATOM      5  C   UNL A   1      34.594  23.758  25.300  1.00  0.00     0.228 C 
ATOM      6  O   UNL A   1      33.603  23.306  25.883  1.00  0.00    -0.274 OA
ATOM      7  H   UNL A   1      35.754  22.422  26.204  1.00  0.00     0.163 HD
BRANCH   5   8
ATOM      8  C   UNL A   1      34.450  24.949  24.350  1.00  0.00     0.118 C 
ATOM      9  N   UNL A   1      32.432  27.557  26.133  1.00  0.00    -0.287 N 
ATOM     10  C   UNL A   1      33.490  26.641  26.139  1.00  0.00     0.100 A 
ATOM     11  C   UNL A   1      31.856  27.524  24.857  1.00  0.00     0.057 A 
ATOM     12  C   UNL A   1      33.567  26.023  24.910  1.00  0.00    -0.008 A 
ATOM     13  C   UNL A   1      32.595  26.627  24.102  1.00  0.00     0.015 A 
ATOM     14  C   UNL A   1      30.793  28.229  24.267  1.00  0.00     0.027 A 
ATOM     15  C   UNL A   1      32.322  26.415  22.752  1.00  0.00     0.027 A 
ATOM     16  C   UNL A   1      30.532  28.018  22.900  1.00  0.00     0.003 A 
ATOM     17  C   UNL A   1      34.018  24.468  22.939  1.00  0.00     0.099 C 
ATOM     18  C   UNL A   1      31.294  27.128  22.140  1.00  0.00     0.012 A 
ATOM     19  C   UNL A   1      33.181  25.420  22.074  1.00  0.00     0.164 C 
ATOM     20  O   UNL A   1      33.146  25.320  20.850  1.00  0.00    -0.294 OA
BRANCH   9  21
ATOM     21  C   UNL A   1      32.023  28.393  27.192  1.00  0.00     0.227 C 
ATOM     22  C   UNL A   1      32.666  29.744  27.230  1.00  0.00     0.115 C 
ATOM     23  O   UNL A   1      31.123  28.029  27.944  1.00  0.00    -0.274 OA
ENDBRANCH   9  21
ENDBRANCH   5   8
ENDBRANCH   3   4
ENDBRANCH   2   3
ENDBRANCH   1   2
BRANCH   1  24
ATOM     24  C   UNL A   1      40.307  22.125  26.978  1.00  0.00     0.116 C 
BRANCH  24  25
ATOM     25  N   UNL A   1      41.517  22.049  26.166  1.00  0.00    -0.352 N 
ATOM     26  C   UNL A   1      42.262  23.092  25.659  1.00  0.00     0.251 C 
ATOM     27  H   UNL A   1      41.840  21.143  25.954  1.00  0.00     0.163 HD
ATOM     28  O   UNL A   1      43.007  22.913  24.702  1.00  0.00    -0.269 OA
BRANCH  26  29
ATOM     29  C   UNL A   1      42.159  24.420  26.290  1.00  0.00     0.039 A 
ATOM     30  C   UNL A   1      41.331  25.407  25.747  1.00  0.00     0.014 A 
ATOM     31  C   UNL A   1      42.928  24.677  27.425  1.00  0.00     0.014 A 
ATOM     32  C   UNL A   1      41.237  26.639  26.390  1.00  0.00     0.010 A 
ATOM     33  C   UNL A   1      42.760  25.853  28.116  1.00  0.00     0.010 A 
ATOM     34  C   UNL A   1      41.952  26.850  27.577  1.00  0.00    -0.014 A 
BRANCH  34  35
ATOM     35  C   UNL A   1      41.790  28.085  28.334  1.00  0.00     0.031 A 
ATOM     36  C   UNL A   1      42.874  29.088  28.138  1.00  0.00     0.074 A 
ATOM     37  C   UNL A   1      40.632  28.400  28.952  1.00  0.00     0.049 A 
ATOM     38  N   UNL A   1      43.714  29.534  29.011  1.00  0.00    -0.248 NA
ATOM     39  C   UNL A   1      43.126  29.572  26.768  1.00  0.00     0.031 C 
ATOM     40  C   UNL A   1      39.366  27.657  28.944  1.00  0.00     0.029 A 
ATOM     41  N   UNL A   1      40.304  29.537  29.620  1.00  0.00    -0.354 N 
ATOM     42  C   UNL A   1      44.474  30.499  28.357  1.00  0.00     0.074 A 
ATOM     43  C   UNL A   1      44.185  30.361  26.951  1.00  0.00     0.031 C 
ATOM     44  C   UNL A   1      38.365  28.465  29.362  1.00  0.00     0.029 A 
ATOM     45  C   UNL A   1      38.939  29.717  29.820  1.00  0.00     0.049 A 
ATOM     46  H   UNL A   1      40.978  30.181  29.938  1.00  0.00     0.167 HD
ATOM     47  C   UNL A   1      45.112  31.500  29.026  1.00  0.00     0.031 A 
ATOM     48  C   UNL A   1      38.331  30.837  30.291  1.00  0.00     0.031 A 
ATOM     49  C   UNL A   1      45.166  31.257  30.441  1.00  0.00     0.049 A 
ATOM     50  C   UNL A   1      39.377  31.619  30.998  1.00  0.00     0.074 A 
ATOM     51  C   UNL A   1      45.719  30.271  31.235  1.00  0.00     0.029 A 
ATOM     52  N   UNL A   1      44.222  31.887  31.219  1.00  0.00    -0.354 N 
ATOM     53  N   UNL A   1      39.980  31.201  32.077  1.00  0.00    -0.248 NA
ATOM     54  C   UNL A   1      40.076  32.654  30.254  1.00  0.00     0.031 C 
ATOM     55  C   UNL A   1      44.751  30.041  32.257  1.00  0.00     0.029 A 
ATOM     56  C   UNL A   1      43.702  30.945  32.070  1.00  0.00     0.049 A 
ATOM     57  H   UNL A   1      43.969  32.837  31.174  1.00  0.00     0.167 HD
ATOM     58  C   UNL A   1      41.300  31.602  31.926  1.00  0.00     0.074 A 
ATOM     59  C   UNL A   1      41.278  32.569  30.830  1.00  0.00     0.031 C 
ATOM     60  C   UNL A   1      42.323  30.913  32.513  1.00  0.00     0.031 A 
BRANCH  47  61
ATOM     61  C   UNL A   1      45.346  32.869  28.444  1.00  0.00    -0.014 A 
ATOM     62  C   UNL A   1      46.643  33.420  28.456  1.00  0.00     0.010 A 
ATOM     63  C   UNL A   1      44.280  33.738  28.130  1.00  0.00     0.010 A 
ATOM     64  C   UNL A   1      46.853  34.783  28.201  1.00  0.00     0.020 A 
ATOM     65  C   UNL A   1      44.483  35.086  27.833  1.00  0.00     0.020 A 
ATOM     66  C   UNL A   1      45.768  35.608  27.896  1.00  0.00     0.054 A 
BRANCH  66  67
ATOM     67  S   UNL A   1      46.034  37.385  27.681  1.00  0.00     0.124 S 
ATOM     68  O   UNL A   1      47.247  37.417  26.869  1.00  0.00    -0.237 OA
ATOM     69  O   UNL A   1      44.807  37.798  27.007  1.00  0.00    -0.237 OA
ATOM     70  O   UNL A   1      46.187  37.877  29.049  1.00  0.00    -0.744 OA
ENDBRANCH  66  67
ENDBRANCH  47  61
BRANCH  48  71
ATOM     71  C   UNL A   1      37.010  31.413  29.923  1.00  0.00    -0.014 A 
ATOM     72  C   UNL A   1      36.149  31.933  30.910  1.00  0.00     0.010 A 
ATOM     73  C   UNL A   1      36.712  31.714  28.578  1.00  0.00     0.010 A 
ATOM     74  C   UNL A   1      35.079  32.781  30.570  1.00  0.00     0.020 A 
ATOM     75  C   UNL A   1      35.643  32.553  28.231  1.00  0.00     0.020 A 
ATOM     76  C   UNL A   1      34.851  33.109  29.232  1.00  0.00     0.054 A 
BRANCH  76  77
ATOM     77  S   UNL A   1      33.573  34.334  28.816  1.00  0.00     0.124 S 
ATOM     78  O   UNL A   1      32.701  33.589  27.912  1.00  0.00    -0.237 OA
ATOM     79  O   UNL A   1      33.008  34.650  30.124  1.00  0.00    -0.237 OA
ATOM     80  O   UNL A   1      34.329  35.419  28.190  1.00  0.00    -0.744 OA
ENDBRANCH  76  77
ENDBRANCH  48  71
BRANCH  60  81
ATOM     81  C   UNL A   1      41.989  29.858  33.543  1.00  0.00    -0.014 A 
ATOM     82  C   UNL A   1      41.607  28.541  33.218  1.00  0.00     0.010 A 
ATOM     83  C   UNL A   1      42.277  30.162  34.885  1.00  0.00     0.010 A 
ATOM     84  C   UNL A   1      41.523  27.553  34.214  1.00  0.00     0.020 A 
ATOM     85  C   UNL A   1      42.209  29.181  35.877  1.00  0.00     0.020 A 
ATOM     86  C   UNL A   1      41.839  27.880  35.537  1.00  0.00     0.054 A 
BRANCH  86  87
ATOM     87  S   UNL A   1      41.807  26.586  36.812  1.00  0.00     0.124 S 
ATOM     88  O   UNL A   1      40.519  26.808  37.465  1.00  0.00    -0.237 OA
ATOM     89  O   UNL A   1      41.910  25.359  36.025  1.00  0.00    -0.237 OA
ATOM     90  O   UNL A   1      42.975  26.882  37.641  1.00  0.00    -0.744 OA
ENDBRANCH  86  87
ENDBRANCH  60  81
ENDBRANCH  34  35
ENDBRANCH  26  29
ENDBRANCH  24  25
ENDBRANCH   1  24
TORSDOF 15
ENDMDL
MODEL 2
REMARK VINA RESULT:     -12.2      2.727      4.061
REMARK SMILES CC(=O)n1cc2c3c(cccc31)C(=O)C[C@@H]2C(=O)NCCCCNC(=O)c1ccc(-c2c3nc(c(-c4ccc(S(=O)(=O)[O-])cc4)c4ccc([nH]4)c(-c4ccc(S(=O)(=O)[O-])cc4)c4nc(c(-c5ccc(S(=O)(=O)[O-])cc5)c5ccc2[nH]5)C=C4)C=C3)cc1
REMARK SMILES IDX 22 1 21 2 20 3 19 4 17 5 18 6 16 8 4 9 5 10 12 11 6 12 7 13
REMARK SMILES IDX 11 14 8 15 10 16 15 17 9 18 13 19 14 20 2 21 1 22 3 23 23 24
REMARK SMILES IDX 24 25 25 26 26 28 27 29 28 30 86 31 29 32 85 33 30 34 31 35
REMARK SMILES IDX 32 36 79 37 33 38 84 39 78 40 80 41 34 42 83 43 77 44 76 45
REMARK SMILES IDX 35 47 65 48 46 49 64 50 47 51 50 52 63 53 81 54 48 55 49 56
REMARK SMILES IDX 62 58 82 59 51 60 36 61 37 62 45 63 38 64 44 65 39 66 40 67
REMARK SMILES IDX 41 68 42 69 43 70 66 71 67 72 75 73 68 74 74 75 69 76 70 77
REMARK SMILES IDX 71 78 72 79 73 80 52 81 53 82 61 83 54 84 60 85 55 86 56 87
REMARK SMILES IDX 57 88 58 89 59 90
REMARK H PARENT 19 7 24 27 80 46 50 57
REMARK Flexibility Score: inf
ROOT
ATOM      1  C   UNL A   1      38.432  20.884  25.484  1.00  0.00     0.023 C 
ENDROOT
BRANCH   1   2
ATOM      2  C   UNL A   1      37.309  21.741  24.885  1.00  0.00     0.023 C 
BRANCH   2   3
ATOM      3  C   UNL A   1      35.888  21.204  25.075  1.00  0.00     0.116 C 
BRANCH   3   4
ATOM      4  N   UNL A   1      35.366  21.488  26.401  1.00  0.00    -0.356 N 
ATOM      5  C   UNL A   1      34.085  21.505  26.875  1.00  0.00     0.228 C 
ATOM      6  O   UNL A   1      33.926  21.807  28.061  1.00  0.00    -0.274 OA
ATOM      7  H   UNL A   1      36.052  21.708  27.072  1.00  0.00     0.163 HD
BRANCH   5   8
ATOM      8  C   UNL A   1      32.874  21.204  25.989  1.00  0.00     0.118 C 
ATOM      9  N   UNL A   1      33.149  17.627  24.905  1.00  0.00    -0.287 N 
ATOM     10  C   UNL A   1      33.196  18.581  25.926  1.00  0.00     0.100 A 
ATOM     11  C   UNL A   1      32.812  18.294  23.721  1.00  0.00     0.057 A 
ATOM     12  C   UNL A   1      32.924  19.826  25.401  1.00  0.00    -0.008 A 
ATOM     13  C   UNL A   1      32.619  19.627  24.049  1.00  0.00     0.015 A 
ATOM     14  C   UNL A   1      32.603  17.859  22.401  1.00  0.00     0.027 A 
ATOM     15  C   UNL A   1      32.201  20.556  23.098  1.00  0.00     0.027 A 
ATOM     16  C   UNL A   1      32.169  18.801  21.451  1.00  0.00     0.003 A 
ATOM     17  C   UNL A   1      32.688  22.321  24.928  1.00  0.00     0.099 C 
ATOM     18  C   UNL A   1      31.956  20.139  21.793  1.00  0.00     0.012 A 
ATOM     19  C   UNL A   1      32.049  21.945  23.585  1.00  0.00     0.164 C 
ATOM     20  O   UNL A   1      31.495  22.780  22.874  1.00  0.00    -0.294 OA
BRANCH   9  21
ATOM     21  C   UNL A   1      33.365  16.238  25.025  1.00  0.00     0.227 C 
ATOM     22  C   UNL A   1      32.242  15.465  25.643  1.00  0.00     0.115 C 
ATOM     23  O   UNL A   1      34.378  15.734  24.549  1.00  0.00    -0.274 OA
ENDBRANCH   9  21
ENDBRANCH   5   8
ENDBRANCH   3   4
ENDBRANCH   2   3
ENDBRANCH   1   2
BRANCH   1  24
ATOM     24  C   UNL A   1      39.455  21.672  26.289  1.00  0.00     0.116 C 
BRANCH  24  25
ATOM     25  N   UNL A   1      40.805  21.138  26.144  1.00  0.00    -0.352 N 
ATOM     26  C   UNL A   1      41.992  21.838  26.119  1.00  0.00     0.251 C 
ATOM     27  H   UNL A   1      40.876  20.161  26.052  1.00  0.00     0.163 HD
ATOM     28  O   UNL A   1      42.995  21.339  25.620  1.00  0.00    -0.269 OA
BRANCH  26  29
ATOM     29  C   UNL A   1      42.042  23.186  26.711  1.00  0.00     0.039 A 
ATOM     30  C   UNL A   1      41.719  24.314  25.949  1.00  0.00     0.014 A 
ATOM     31  C   UNL A   1      42.447  23.314  28.040  1.00  0.00     0.014 A 
ATOM     32  C   UNL A   1      41.749  25.568  26.553  1.00  0.00     0.010 A 
ATOM     33  C   UNL A   1      42.379  24.537  28.664  1.00  0.00     0.010 A 
ATOM     34  C   UNL A   1      42.075  25.669  27.912  1.00  0.00    -0.014 A 
BRANCH  34  35
ATOM     35  C   UNL A   1      42.006  26.951  28.602  1.00  0.00     0.031 A 
ATOM     36  C   UNL A   1      43.168  27.853  28.366  1.00  0.00     0.074 A 
ATOM     37  C   UNL A   1      40.873  27.389  29.190  1.00  0.00     0.049 A 
ATOM     38  N   UNL A   1      44.035  28.277  29.224  1.00  0.00    -0.248 NA
ATOM     39  C   UNL A   1      43.468  28.242  26.976  1.00  0.00     0.031 C 
ATOM     40  C   UNL A   1      39.552  26.749  29.206  1.00  0.00     0.029 A 
ATOM     41  N   UNL A   1      40.632  28.582  29.793  1.00  0.00    -0.354 N 
ATOM     42  C   UNL A   1      44.874  29.143  28.529  1.00  0.00     0.074 A 
ATOM     43  C   UNL A   1      44.585  28.953  27.129  1.00  0.00     0.031 C 
ATOM     44  C   UNL A   1      38.616  27.655  29.570  1.00  0.00     0.029 A 
ATOM     45  C   UNL A   1      39.284  28.880  29.968  1.00  0.00     0.049 A 
ATOM     46  H   UNL A   1      41.353  29.187  30.085  1.00  0.00     0.167 HD
ATOM     47  C   UNL A   1      45.586  30.124  29.152  1.00  0.00     0.031 A 
ATOM     48  C   UNL A   1      38.764  30.068  30.373  1.00  0.00     0.031 A 
ATOM     49  C   UNL A   1      45.609  29.952  30.579  1.00  0.00     0.049 A 
ATOM     50  C   UNL A   1      39.864  30.801  31.050  1.00  0.00     0.074 A 
ATOM     51  C   UNL A   1      46.076  28.970  31.429  1.00  0.00     0.029 A 
ATOM     52  N   UNL A   1      44.714  30.696  31.311  1.00  0.00    -0.354 N 
ATOM     53  N   UNL A   1      40.424  30.395  32.157  1.00  0.00    -0.248 NA
ATOM     54  C   UNL A   1      40.648  31.736  30.261  1.00  0.00     0.031 C 
ATOM     55  C   UNL A   1      45.086  28.872  32.450  1.00  0.00     0.029 A 
ATOM     56  C   UNL A   1      44.113  29.845  32.204  1.00  0.00     0.049 A 
ATOM     57  H   UNL A   1      44.537  31.660  31.214  1.00  0.00     0.167 HD
ATOM     58  C   UNL A   1      41.772  30.681  31.999  1.00  0.00     0.074 A 
ATOM     59  C   UNL A   1      41.836  31.587  30.854  1.00  0.00     0.031 C 
ATOM     60  C   UNL A   1      42.733  29.945  32.633  1.00  0.00     0.031 A 
BRANCH  47  61
ATOM     61  C   UNL A   1      45.932  31.437  28.501  1.00  0.00    -0.014 A 
ATOM     62  C   UNL A   1      44.943  32.431  28.367  1.00  0.00     0.010 A 
ATOM     63  C   UNL A   1      47.130  31.618  27.777  1.00  0.00     0.010 A 
ATOM     64  C   UNL A   1      45.134  33.532  27.519  1.00  0.00     0.020 A 
ATOM     65  C   UNL A   1      47.346  32.731  26.965  1.00  0.00     0.020 A 
ATOM     66  C   UNL A   1      46.334  33.671  26.820  1.00  0.00     0.054 A 
BRANCH  66  67
ATOM     67  S   UNL A   1      46.526  35.032  25.643  1.00  0.00     0.124 S 
ATOM     68  O   UNL A   1      45.689  34.596  24.531  1.00  0.00    -0.237 OA
ATOM     69  O   UNL A   1      46.025  36.170  26.409  1.00  0.00    -0.237 OA
ATOM     70  O   UNL A   1      47.963  35.052  25.373  1.00  0.00    -0.744 OA
ENDBRANCH  66  67
ENDBRANCH  47  61
BRANCH  48  71
ATOM     71  C   UNL A   1      37.495  30.726  29.961  1.00  0.00    -0.014 A 
ATOM     72  C   UNL A   1      36.537  31.110  30.919  1.00  0.00     0.010 A 
ATOM     73  C   UNL A   1      37.349  31.239  28.655  1.00  0.00     0.010 A 
ATOM     74  C   UNL A   1      35.516  32.026  30.604  1.00  0.00     0.020 A 
ATOM     75  C   UNL A   1      36.331  32.147  28.331  1.00  0.00     0.020 A 
ATOM     76  C   UNL A   1      35.439  32.562  29.316  1.00  0.00     0.054 A 
BRANCH  76  77
ATOM     77  S   UNL A   1      34.224  33.869  28.962  1.00  0.00     0.124 S 
ATOM     78  O   UNL A   1      33.333  33.222  28.002  1.00  0.00    -0.237 OA
ATOM     79  O   UNL A   1      33.654  34.128  30.280  1.00  0.00    -0.237 OA
ATOM     80  O   UNL A   1      35.037  34.954  28.415  1.00  0.00    -0.744 OA
ENDBRANCH  76  77
ENDBRANCH  48  71
BRANCH  60  81
ATOM     81  C   UNL A   1      42.309  28.976  33.713  1.00  0.00    -0.014 A 
ATOM     82  C   UNL A   1      41.979  27.628  33.468  1.00  0.00     0.010 A 
ATOM     83  C   UNL A   1      42.454  29.401  35.045  1.00  0.00     0.010 A 
ATOM     84  C   UNL A   1      41.806  26.729  34.533  1.00  0.00     0.020 A 
ATOM     85  C   UNL A   1      42.298  28.508  36.107  1.00  0.00     0.020 A 
ATOM     86  C   UNL A   1      41.980  27.174  35.848  1.00  0.00     0.054 A 
BRANCH  86  87
ATOM     87  S   UNL A   1      41.835  25.996  37.222  1.00  0.00     0.124 S 
ATOM     88  O   UNL A   1      40.462  26.198  37.676  1.00  0.00    -0.237 OA
ATOM     89  O   UNL A   1      42.100  24.714  36.572  1.00  0.00    -0.237 OA
ATOM     90  O   UNL A   1      42.864  26.429  38.166  1.00  0.00    -0.744 OA
ENDBRANCH  86  87
ENDBRANCH  60  81
ENDBRANCH  34  35
ENDBRANCH  26  29
ENDBRANCH  24  25
ENDBRANCH   1  24
TORSDOF 15
ENDMDL
MODEL 3
REMARK VINA RESULT:     -12.1      3.226      7.870
REMARK SMILES CC(=O)n1cc2c3c(cccc31)C(=O)C[C@@H]2C(=O)NCCCCNC(=O)c1ccc(-c2c3nc(c(-c4ccc(S(=O)(=O)[O-])cc4)c4ccc([nH]4)c(-c4ccc(S(=O)(=O)[O-])cc4)c4nc(c(-c5ccc(S(=O)(=O)[O-])cc5)c5ccc2[nH]5)C=C4)C=C3)cc1
REMARK SMILES IDX 22 1 21 2 20 3 19 4 17 5 18 6 16 8 4 9 5 10 12 11 6 12 7 13
REMARK SMILES IDX 11 14 8 15 10 16 15 17 9 18 13 19 14 20 2 21 1 22 3 23 23 24
REMARK SMILES IDX 24 25 25 26 26 28 27 29 28 30 86 31 29 32 85 33 30 34 31 35
REMARK SMILES IDX 32 36 79 37 33 38 84 39 78 40 80 41 34 42 83 43 77 44 76 45
REMARK SMILES IDX 35 47 65 48 46 49 64 50 47 51 50 52 63 53 81 54 48 55 49 56
REMARK SMILES IDX 62 58 82 59 51 60 36 61 37 62 45 63 38 64 44 65 39 66 40 67
REMARK SMILES IDX 41 68 42 69 43 70 66 71 67 72 75 73 68 74 74 75 69 76 70 77
REMARK SMILES IDX 71 78 72 79 73 80 52 81 53 82 61 83 54 84 60 85 55 86 56 87
REMARK SMILES IDX 57 88 58 89 59 90
REMARK H PARENT 19 7 24 27 80 46 50 57
REMARK Flexibility Score: inf
ROOT
ATOM      1  C   UNL A   1      37.553  19.580  24.832  1.00  0.00     0.023 C 
ENDROOT
BRANCH   1   2
ATOM      2  C   UNL A   1      36.283  20.413  25.046  1.00  0.00     0.023 C 
BRANCH   2   3
ATOM      3  C   UNL A   1      36.479  21.758  25.750  1.00  0.00     0.116 C 
BRANCH   3   4
ATOM      4  N   UNL A   1      35.271  22.210  26.420  1.00  0.00    -0.356 N 
ATOM      5  C   UNL A   1      34.356  23.161  26.069  1.00  0.00     0.228 C 
ATOM      6  O   UNL A   1      33.420  23.358  26.850  1.00  0.00    -0.274 OA
ATOM      7  H   UNL A   1      35.081  21.754  27.271  1.00  0.00     0.163 HD
BRANCH   5   8
ATOM      8  C   UNL A   1      34.477  23.990  24.789  1.00  0.00     0.118 C 
ATOM      9  N   UNL A   1      33.083  27.390  25.531  1.00  0.00    -0.287 N 
ATOM     10  C   UNL A   1      33.913  26.325  25.894  1.00  0.00     0.100 A 
ATOM     11  C   UNL A   1      32.513  27.075  24.291  1.00  0.00     0.057 A 
ATOM     12  C   UNL A   1      33.852  25.346  24.926  1.00  0.00    -0.008 A 
ATOM     13  C   UNL A   1      33.037  25.851  23.904  1.00  0.00     0.015 A 
ATOM     14  C   UNL A   1      31.632  27.761  23.439  1.00  0.00     0.027 A 
ATOM     15  C   UNL A   1      32.723  25.282  22.671  1.00  0.00     0.027 A 
ATOM     16  C   UNL A   1      31.330  27.186  22.190  1.00  0.00     0.003 A 
ATOM     17  C   UNL A   1      33.949  23.188  23.571  1.00  0.00     0.099 C 
ATOM     18  C   UNL A   1      31.878  25.962  21.799  1.00  0.00     0.012 A 
ATOM     19  C   UNL A   1      33.343  23.968  22.397  1.00  0.00     0.164 C 
ATOM     20  O   UNL A   1      33.286  23.494  21.265  1.00  0.00    -0.294 OA
BRANCH   9  21
ATOM     21  C   UNL A   1      32.868  28.586  26.247  1.00  0.00     0.227 C 
ATOM     22  C   UNL A   1      31.655  28.601  27.123  1.00  0.00     0.115 C 
ATOM     23  O   UNL A   1      33.703  29.485  26.198  1.00  0.00    -0.274 OA
ENDBRANCH   9  21
ENDBRANCH   5   8
ENDBRANCH   3   4
ENDBRANCH   2   3
ENDBRANCH   1   2
BRANCH   1  24
ATOM     24  C   UNL A   1      38.805  20.183  25.453  1.00  0.00     0.116 C 
BRANCH  24  25
ATOM     25  N   UNL A   1      39.852  19.189  25.666  1.00  0.00    -0.352 N 
ATOM     26  C   UNL A   1      41.177  19.410  25.974  1.00  0.00     0.251 C 
ATOM     27  H   UNL A   1      39.579  18.247  25.579  1.00  0.00     0.163 HD
ATOM     28  O   UNL A   1      42.017  18.545  25.754  1.00  0.00    -0.269 OA
BRANCH  26  29
ATOM     29  C   UNL A   1      41.567  20.695  26.582  1.00  0.00     0.039 A 
ATOM     30  C   UNL A   1      42.231  21.669  25.829  1.00  0.00     0.014 A 
ATOM     31  C   UNL A   1      41.285  20.905  27.931  1.00  0.00     0.014 A 
ATOM     32  C   UNL A   1      42.556  22.882  26.431  1.00  0.00     0.010 A 
ATOM     33  C   UNL A   1      41.513  22.136  28.498  1.00  0.00     0.010 A 
ATOM     34  C   UNL A   1      42.188  23.108  27.764  1.00  0.00    -0.014 A 
BRANCH  34  35
ATOM     35  C   UNL A   1      42.412  24.405  28.390  1.00  0.00     0.031 A 
ATOM     36  C   UNL A   1      41.360  25.424  28.113  1.00  0.00     0.074 A 
ATOM     37  C   UNL A   1      43.347  24.588  29.346  1.00  0.00     0.049 A 
ATOM     38  N   UNL A   1      41.481  26.541  27.476  1.00  0.00    -0.248 NA
ATOM     39  C   UNL A   1      39.973  25.107  28.500  1.00  0.00     0.031 C 
ATOM     40  C   UNL A   1      44.227  23.587  29.958  1.00  0.00     0.029 A 
ATOM     41  N   UNL A   1      43.615  25.704  30.073  1.00  0.00    -0.354 N 
ATOM     42  C   UNL A   1      40.238  27.163  27.548  1.00  0.00     0.074 A 
ATOM     43  C   UNL A   1      39.314  26.169  28.036  1.00  0.00     0.031 C 
ATOM     44  C   UNL A   1      44.746  24.082  31.105  1.00  0.00     0.029 A 
ATOM     45  C   UNL A   1      44.369  25.479  31.221  1.00  0.00     0.049 A 
ATOM     46  H   UNL A   1      43.303  26.600  29.808  1.00  0.00     0.167 HD
ATOM     47  C   UNL A   1      40.090  28.511  27.423  1.00  0.00     0.031 A 
ATOM     48  C   UNL A   1      44.624  26.375  32.209  1.00  0.00     0.031 A 
ATOM     49  C   UNL A   1      41.277  29.141  26.913  1.00  0.00     0.049 A 
ATOM     50  C   UNL A   1      44.390  27.722  31.629  1.00  0.00     0.074 A 
ATOM     51  C   UNL A   1      42.002  29.037  25.742  1.00  0.00     0.029 A 
ATOM     52  N   UNL A   1      42.118  29.725  27.831  1.00  0.00    -0.354 N 
ATOM     53  N   UNL A   1      45.108  28.222  30.661  1.00  0.00    -0.248 NA
ATOM     54  C   UNL A   1      43.079  28.324  31.809  1.00  0.00     0.031 C 
ATOM     55  C   UNL A   1      43.366  29.103  26.152  1.00  0.00     0.029 A 
ATOM     56  C   UNL A   1      43.393  29.314  27.534  1.00  0.00     0.049 A 
ATOM     57  H   UNL A   1      41.854  30.326  28.565  1.00  0.00     0.167 HD
ATOM     58  C   UNL A   1      44.200  28.895  29.856  1.00  0.00     0.074 A 
ATOM     59  C   UNL A   1      42.985  29.000  30.661  1.00  0.00     0.031 C 
ATOM     60  C   UNL A   1      44.424  29.060  28.519  1.00  0.00     0.031 A 
BRANCH  47  61
ATOM     61  C   UNL A   1      39.010  29.295  28.121  1.00  0.00    -0.014 A 
ATOM     62  C   UNL A   1      37.811  29.587  27.442  1.00  0.00     0.010 A 
ATOM     63  C   UNL A   1      39.250  29.982  29.330  1.00  0.00     0.010 A 
ATOM     64  C   UNL A   1      36.916  30.548  27.935  1.00  0.00     0.020 A 
ATOM     65  C   UNL A   1      38.345  30.908  29.850  1.00  0.00     0.020 A 
ATOM     66  C   UNL A   1      37.193  31.206  29.134  1.00  0.00     0.054 A 
BRANCH  66  67
ATOM     67  S   UNL A   1      36.090  32.523  29.703  1.00  0.00     0.124 S 
ATOM     68  O   UNL A   1      36.376  32.565  31.134  1.00  0.00    -0.237 OA
ATOM     69  O   UNL A   1      36.558  33.668  28.927  1.00  0.00    -0.237 OA
ATOM     70  O   UNL A   1      34.759  32.034  29.347  1.00  0.00    -0.744 OA
ENDBRANCH  66  67
ENDBRANCH  47  61
BRANCH  48  71
ATOM     71  C   UNL A   1      44.760  26.144  33.673  1.00  0.00    -0.014 A 
ATOM     72  C   UNL A   1      45.579  26.976  34.461  1.00  0.00     0.010 A 
ATOM     73  C   UNL A   1      43.865  25.287  34.346  1.00  0.00     0.010 A 
ATOM     74  C   UNL A   1      45.456  27.003  35.863  1.00  0.00     0.020 A 
ATOM     75  C   UNL A   1      43.741  25.303  35.742  1.00  0.00     0.020 A 
ATOM     76  C   UNL A   1      44.515  26.185  36.492  1.00  0.00     0.054 A 
BRANCH  76  77
ATOM     77  S   UNL A   1      44.245  26.346  38.284  1.00  0.00     0.124 S 
ATOM     78  O   UNL A   1      44.959  25.190  38.818  1.00  0.00    -0.237 OA
ATOM     79  O   UNL A   1      44.840  27.647  38.572  1.00  0.00    -0.237 OA
ATOM     80  O   UNL A   1      42.789  26.288  38.418  1.00  0.00    -0.744 OA
ENDBRANCH  76  77
ENDBRANCH  48  71
BRANCH  60  81
ATOM     81  C   UNL A   1      45.792  28.730  27.966  1.00  0.00    -0.014 A 
ATOM     82  C   UNL A   1      46.179  27.438  27.558  1.00  0.00     0.010 A 
ATOM     83  C   UNL A   1      46.637  29.812  27.662  1.00  0.00     0.010 A 
ATOM     84  C   UNL A   1      47.379  27.239  26.855  1.00  0.00     0.020 A 
ATOM     85  C   UNL A   1      47.824  29.622  26.952  1.00  0.00     0.020 A 
ATOM     86  C   UNL A   1      48.187  28.338  26.545  1.00  0.00     0.054 A 
BRANCH  86  87
ATOM     87  S   UNL A   1      49.699  28.093  25.569  1.00  0.00     0.124 S 
ATOM     88  O   UNL A   1      49.184  27.931  24.212  1.00  0.00    -0.237 OA
ATOM     89  O   UNL A   1      50.442  29.327  25.816  1.00  0.00    -0.237 OA
ATOM     90  O   UNL A   1      50.298  26.890  26.146  1.00  0.00    -0.744 OA
ENDBRANCH  86  87
ENDBRANCH  60  81
ENDBRANCH  34  35
ENDBRANCH  26  29
ENDBRANCH  24  25
ENDBRANCH   1  24
TORSDOF 15
ENDMDL
