MODEL 1
REMARK VINA RESULT:     -13.8      0.000      0.000
REMARK SMILES Cc1ccc(S(=O)(=O)n2cc(C(=O)C(=O)NCC(=O)N[C@H](Cc3c[nH]c4ccccc34)C(=O)NCCCCNC(=O)c3ccc(-c4c5nc(c(-c6ccc(S(=O)(=O)[O-])cc6)c6ccc([nH]6)c(-c6ccc(S(=O)(=O)[O-])cc6)c6nc(c(-c7ccc(S(=O)(=O)[O-])cc7)c7ccc4[nH]7)C=C6)C=C5)cc3)c3ccccc32)cc1
REMARK SMILES IDX 32 1 33 2 34 3 21 5 20 6 18 7 19 8 17 10 16 11 14 12 15 13
REMARK SMILES IDX 12 15 13 16 11 17 9 18 10 19 107 20 102 21 106 22 103 23
REMARK SMILES IDX 105 24 104 25 6 26 7 27 8 28 5 29 1 30 2 31 3 32 109 33 4 34
REMARK SMILES IDX 108 35 22 36 23 37 24 38 31 39 25 40 26 41 30 42 27 44 29 45
REMARK SMILES IDX 28 46 35 47 36 48 37 49 38 50 39 51 40 52 41 54 42 55 43 56
REMARK SMILES IDX 101 57 44 58 100 59 45 60 46 61 47 62 94 63 48 64 99 65
REMARK SMILES IDX 93 66 95 67 49 68 98 69 92 70 91 71 50 73 80 74 61 75 79 76
REMARK SMILES IDX 62 77 65 78 78 79 96 80 63 81 64 82 77 84 97 85 66 86 51 87
REMARK SMILES IDX 52 88 60 89 53 90 59 91 54 92 55 93 56 94 57 95 58 96 81 97
REMARK SMILES IDX 82 98 90 99 83 100 89 101 84 102 85 103 86 104 87 105 88 106
REMARK SMILES IDX 67 107 68 108 76 109 69 110 75 111 70 112 71 113 72 114
REMARK SMILES IDX 73 115 74 116
REMARK H PARENT 34 4 20 9 16 14 25 43 39 53 95 72 65 83
REMARK Flexibility Score: inf
ROOT
ATOM      1  C   UNL A   1      33.265  28.472  23.337  1.00  0.00     0.242 C 
ATOM      2  O   UNL A   1      34.348  28.443  22.737  1.00  0.00    -0.273 OA
ATOM      3  N   UNL A   1      33.109  29.493  24.213  1.00  0.00    -0.354 N 
ATOM      4  H   UNL A   1      33.898  30.079  24.263  1.00  0.00     0.163 HD
ENDROOT
BRANCH   1   5
ATOM      5  C   UNL A   1      32.225  27.371  23.055  1.00  0.00     0.175 C 
BRANCH   5   6
ATOM      6  N   UNL A   1      32.952  26.142  22.717  1.00  0.00    -0.342 N 
ATOM      7  C   UNL A   1      32.624  24.841  22.959  1.00  0.00     0.240 C 
ATOM      8  O   UNL A   1      33.455  23.992  22.620  1.00  0.00    -0.273 OA
ATOM      9  H   UNL A   1      33.806  26.277  22.245  1.00  0.00     0.164 HD
BRANCH   7  10
ATOM     10  C   UNL A   1      31.209  24.412  23.405  1.00  0.00     0.216 C 
BRANCH  10  11
ATOM     11  N   UNL A   1      30.590  25.078  24.548  1.00  0.00    -0.340 N 
ATOM     12  C   UNL A   1      30.439  24.608  25.843  1.00  0.00     0.292 C 
ATOM     13  O   UNL A   1      29.972  25.292  26.746  1.00  0.00    -0.265 OA
ATOM     14  H   UNL A   1      30.233  25.978  24.376  1.00  0.00     0.164 HD
BRANCH  12  15
ATOM     15  C   UNL A   1      30.870  23.181  26.165  1.00  0.00     0.252 C 
ATOM     16  O   UNL A   1      30.011  22.436  26.637  1.00  0.00    -0.283 OA
BRANCH  15  17
ATOM     17  C   UNL A   1      32.282  22.784  26.087  1.00  0.00     0.054 A 
ATOM     18  N   UNL A   1      34.532  22.615  26.236  1.00  0.00    -0.240 N 
ATOM     19  C   UNL A   1      33.440  23.421  26.551  1.00  0.00     0.117 A 
ATOM     20  C   UNL A   1      34.030  21.379  25.791  1.00  0.00     0.065 A 
ATOM     21  C   UNL A   1      32.721  21.622  25.386  1.00  0.00     0.012 A 
ATOM     22  C   UNL A   1      34.694  20.184  25.451  1.00  0.00     0.028 A 
ATOM     23  C   UNL A   1      32.121  20.735  24.469  1.00  0.00     0.011 A 
ATOM     24  C   UNL A   1      34.110  19.363  24.487  1.00  0.00     0.002 A 
ATOM     25  C   UNL A   1      32.856  19.655  23.971  1.00  0.00     0.001 A 
BRANCH  18  26
ATOM     26  S   UNL A   1      35.925  23.099  25.302  1.00  0.00     0.268 S 
ATOM     27  O   UNL A   1      35.699  24.520  25.082  1.00  0.00    -0.201 OA
ATOM     28  O   UNL A   1      35.899  22.159  24.187  1.00  0.00    -0.201 OA
BRANCH  26  29
ATOM     29  C   UNL A   1      37.605  22.981  25.800  1.00  0.00     0.088 A 
ATOM     30  C   UNL A   1      41.514  21.614  27.030  1.00  0.00     0.044 C 
ATOM     31  C   UNL A   1      40.184  22.139  26.572  1.00  0.00    -0.051 A 
ATOM     32  C   UNL A   1      39.359  21.264  25.880  1.00  0.00     0.005 A 
ATOM     33  C   UNL A   1      39.713  23.441  26.855  1.00  0.00     0.005 A 
ATOM     34  C   UNL A   1      38.102  21.688  25.494  1.00  0.00     0.022 A 
ATOM     35  C   UNL A   1      38.415  23.875  26.475  1.00  0.00     0.022 A 
ENDBRANCH  26  29
ENDBRANCH  18  26
ENDBRANCH  15  17
ENDBRANCH  12  15
ENDBRANCH  10  11
ENDBRANCH   7  10
ENDBRANCH   5   6
BRANCH   5  36
ATOM     36  C   UNL A   1      31.088  27.668  22.052  1.00  0.00     0.072 C 
BRANCH  36  37
ATOM     37  C   UNL A   1      29.742  28.147  22.534  1.00  0.00    -0.020 A 
ATOM     38  C   UNL A   1      28.767  27.470  23.241  1.00  0.00     0.087 A 
ATOM     39  C   UNL A   1      29.231  29.489  22.376  1.00  0.00     0.003 A 
ATOM     40  N   UNL A   1      27.882  28.383  23.750  1.00  0.00    -0.361 N 
ATOM     41  C   UNL A   1      28.130  29.621  23.224  1.00  0.00     0.046 A 
ATOM     42  C   UNL A   1      29.631  30.623  21.638  1.00  0.00     0.010 A 
ATOM     43  H   UNL A   1      27.171  28.178  24.400  1.00  0.00     0.166 HD
ATOM     44  C   UNL A   1      27.473  30.834  23.450  1.00  0.00     0.026 A 
ATOM     45  C   UNL A   1      28.934  31.831  21.792  1.00  0.00     0.001 A 
ATOM     46  C   UNL A   1      27.891  31.940  22.708  1.00  0.00     0.002 A 
ENDBRANCH  36  37
ENDBRANCH   5  36
ENDBRANCH   1   5
BRANCH   3  47
ATOM     47  C   UNL A   1      32.035  29.915  25.097  1.00  0.00     0.116 C 
BRANCH  47  48
ATOM     48  C   UNL A   1      31.950  29.127  26.402  1.00  0.00     0.023 C 
BRANCH  48  49
ATOM     49  C   UNL A   1      32.680  29.736  27.601  1.00  0.00     0.023 C 
BRANCH  49  50
ATOM     50  C   UNL A   1      33.926  30.534  27.245  1.00  0.00     0.116 C 
BRANCH  50  51
ATOM     51  N   UNL A   1      34.254  31.535  28.263  1.00  0.00    -0.352 N 
ATOM     52  C   UNL A   1      35.274  31.497  29.206  1.00  0.00     0.251 C 
ATOM     53  H   UNL A   1      33.680  32.334  28.282  1.00  0.00     0.163 HD
ATOM     54  O   UNL A   1      35.410  32.319  30.082  1.00  0.00    -0.269 OA
BRANCH  52  55
ATOM     55  C   UNL A   1      36.253  30.406  29.029  1.00  0.00     0.039 A 
ATOM     56  C   UNL A   1      36.362  29.489  30.080  1.00  0.00     0.014 A 
ATOM     57  C   UNL A   1      37.276  30.601  28.108  1.00  0.00     0.014 A 
ATOM     58  C   UNL A   1      37.600  28.919  30.348  1.00  0.00     0.010 A 
ATOM     59  C   UNL A   1      38.525  30.119  28.442  1.00  0.00     0.010 A 
ATOM     60  C   UNL A   1      38.696  29.332  29.595  1.00  0.00    -0.014 A 
BRANCH  60  61
ATOM     61  C   UNL A   1      40.079  29.053  29.960  1.00  0.00     0.031 A 
ATOM     62  C   UNL A   1      40.708  27.815  29.447  1.00  0.00     0.074 A 
ATOM     63  C   UNL A   1      40.805  29.950  30.669  1.00  0.00     0.049 A 
ATOM     64  N   UNL A   1      41.785  27.286  29.918  1.00  0.00    -0.248 NA
ATOM     65  C   UNL A   1      40.106  27.022  28.377  1.00  0.00     0.031 C 
ATOM     66  C   UNL A   1      42.258  29.966  30.825  1.00  0.00     0.029 A 
ATOM     67  N   UNL A   1      40.365  30.919  31.577  1.00  0.00    -0.354 N 
ATOM     68  C   UNL A   1      42.172  26.286  29.053  1.00  0.00     0.074 A 
ATOM     69  C   UNL A   1      41.053  26.106  28.162  1.00  0.00     0.031 C 
ATOM     70  C   UNL A   1      42.564  30.635  31.946  1.00  0.00     0.029 A 
ATOM     71  C   UNL A   1      41.314  30.943  32.616  1.00  0.00     0.049 A 
ATOM     72  H   UNL A   1      39.554  31.472  31.504  1.00  0.00     0.167 HD
ATOM     73  C   UNL A   1      43.449  25.814  29.109  1.00  0.00     0.031 A 
ATOM     74  C   UNL A   1      41.033  30.652  33.921  1.00  0.00     0.031 A 
ATOM     75  C   UNL A   1      44.150  26.334  30.281  1.00  0.00     0.049 A 
ATOM     76  C   UNL A   1      41.837  29.480  34.450  1.00  0.00     0.074 A 
ATOM     77  C   UNL A   1      45.054  27.365  30.470  1.00  0.00     0.029 A 
ATOM     78  N   UNL A   1      43.699  25.967  31.543  1.00  0.00    -0.354 N 
ATOM     79  N   UNL A   1      42.507  28.660  33.688  1.00  0.00    -0.248 NA
ATOM     80  C   UNL A   1      41.914  29.107  35.861  1.00  0.00     0.031 C 
ATOM     81  C   UNL A   1      45.056  27.692  31.853  1.00  0.00     0.029 A 
ATOM     82  C   UNL A   1      44.189  26.832  32.503  1.00  0.00     0.049 A 
ATOM     83  H   UNL A   1      43.113  25.197  31.728  1.00  0.00     0.167 HD
ATOM     84  C   UNL A   1      43.075  27.674  34.450  1.00  0.00     0.074 A 
ATOM     85  C   UNL A   1      42.684  28.004  35.809  1.00  0.00     0.031 C 
ATOM     86  C   UNL A   1      43.804  26.661  33.899  1.00  0.00     0.031 A 
BRANCH  73  87
ATOM     87  C   UNL A   1      44.137  25.093  27.971  1.00  0.00    -0.014 A 
ATOM     88  C   UNL A   1      43.907  25.516  26.644  1.00  0.00     0.010 A 
ATOM     89  C   UNL A   1      44.950  23.953  28.117  1.00  0.00     0.010 A 
ATOM     90  C   UNL A   1      44.388  24.798  25.536  1.00  0.00     0.020 A 
ATOM     91  C   UNL A   1      45.418  23.211  27.022  1.00  0.00     0.020 A 
ATOM     92  C   UNL A   1      45.123  23.632  25.733  1.00  0.00     0.054 A 
BRANCH  92  93
ATOM     93  S   UNL A   1      45.682  22.675  24.302  1.00  0.00     0.124 S 
ATOM     94  O   UNL A   1      44.461  22.550  23.511  1.00  0.00    -0.237 OA
ATOM     95  O   UNL A   1      46.717  23.535  23.734  1.00  0.00    -0.237 OA
ATOM     96  O   UNL A   1      46.167  21.426  24.887  1.00  0.00    -0.744 OA
ENDBRANCH  92  93
ENDBRANCH  73  87
BRANCH  74  97
ATOM     97  C   UNL A   1      39.654  31.016  34.347  1.00  0.00    -0.014 A 
ATOM     98  C   UNL A   1      39.507  32.221  35.067  1.00  0.00     0.010 A 
ATOM     99  C   UNL A   1      38.540  30.486  33.671  1.00  0.00     0.010 A 
ATOM    100  C   UNL A   1      38.344  32.982  34.944  1.00  0.00     0.020 A 
ATOM    101  C   UNL A   1      37.369  31.248  33.550  1.00  0.00     0.020 A 
ATOM    102  C   UNL A   1      37.313  32.523  34.125  1.00  0.00     0.054 A 
BRANCH 102 103
ATOM    103  S   UNL A   1      36.026  33.712  33.637  1.00  0.00     0.124 S 
ATOM    104  O   UNL A   1      36.507  34.180  32.342  1.00  0.00    -0.237 OA
ATOM    105  O   UNL A   1      34.836  32.861  33.599  1.00  0.00    -0.237 OA
ATOM    106  O   UNL A   1      36.053  34.694  34.715  1.00  0.00    -0.744 OA
ENDBRANCH 102 103
ENDBRANCH  74  97
BRANCH  86 107
ATOM    107  C   UNL A   1      44.283  25.425  34.619  1.00  0.00    -0.014 A 
ATOM    108  C   UNL A   1      43.507  24.270  34.800  1.00  0.00     0.010 A 
ATOM    109  C   UNL A   1      45.642  25.356  35.015  1.00  0.00     0.010 A 
ATOM    110  C   UNL A   1      44.045  23.120  35.397  1.00  0.00     0.020 A 
ATOM    111  C   UNL A   1      46.199  24.202  35.569  1.00  0.00     0.020 A 
ATOM    112  C   UNL A   1      45.387  23.095  35.781  1.00  0.00     0.054 A 
BRANCH 112 113
ATOM    113  S   UNL A   1      46.092  21.586  36.493  1.00  0.00     0.124 S 
ATOM    114  O   UNL A   1      45.653  21.678  37.883  1.00  0.00    -0.237 OA
ATOM    115  O   UNL A   1      45.463  20.526  35.707  1.00  0.00    -0.237 OA
ATOM    116  O   UNL A   1      47.528  21.743  36.276  1.00  0.00    -0.744 OA
ENDBRANCH 112 113
ENDBRANCH  86 107
ENDBRANCH  60  61
ENDBRANCH  52  55
ENDBRANCH  50  51
ENDBRANCH  49  50
ENDBRANCH  48  49
ENDBRANCH  47  48
ENDBRANCH   3  47
TORSDOF 23
ENDMDL
MODEL 2
REMARK VINA RESULT:     -12.8      1.726      2.359
REMARK SMILES Cc1ccc(S(=O)(=O)n2cc(C(=O)C(=O)NCC(=O)N[C@H](Cc3c[nH]c4ccccc34)C(=O)NCCCCNC(=O)c3ccc(-c4c5nc(c(-c6ccc(S(=O)(=O)[O-])cc6)c6ccc([nH]6)c(-c6ccc(S(=O)(=O)[O-])cc6)c6nc(c(-c7ccc(S(=O)(=O)[O-])cc7)c7ccc4[nH]7)C=C6)C=C5)cc3)c3ccccc32)cc1
REMARK SMILES IDX 32 1 33 2 34 3 21 5 20 6 18 7 19 8 17 10 16 11 14 12 15 13
REMARK SMILES IDX 12 15 13 16 11 17 9 18 10 19 107 20 102 21 106 22 103 23
REMARK SMILES IDX 105 24 104 25 6 26 7 27 8 28 5 29 1 30 2 31 3 32 109 33 4 34
REMARK SMILES IDX 108 35 22 36 23 37 24 38 31 39 25 40 26 41 30 42 27 44 29 45
REMARK SMILES IDX 28 46 35 47 36 48 37 49 38 50 39 51 40 52 41 54 42 55 43 56
REMARK SMILES IDX 101 57 44 58 100 59 45 60 46 61 47 62 94 63 48 64 99 65
REMARK SMILES IDX 93 66 95 67 49 68 98 69 92 70 91 71 50 73 80 74 61 75 79 76
REMARK SMILES IDX 62 77 65 78 78 79 96 80 63 81 64 82 77 84 97 85 66 86 51 87
REMARK SMILES IDX 52 88 60 89 53 90 59 91 54 92 55 93 56 94 57 95 58 96 81 97
REMARK SMILES IDX 82 98 90 99 83 100 89 101 84 102 85 103 86 104 87 105 88 106
REMARK SMILES IDX 67 107 68 108 76 109 69 110 75 111 70 112 71 113 72 114
REMARK SMILES IDX 73 115 74 116
REMARK H PARENT 34 4 20 9 16 14 25 43 39 53 95 72 65 83
REMARK Flexibility Score: inf
ROOT
ATOM      1  C   UNL A   1      33.157  27.376  22.462  1.00  0.00     0.242 C 
ATOM      2  O   UNL A   1      33.661  26.739  21.527  1.00  0.00    -0.273 OA
ATOM      3  N   UNL A   1      34.025  28.087  23.220  1.00  0.00    -0.354 N 
ATOM      4  H   UNL A   1      34.959  27.991  22.924  1.00  0.00     0.163 HD
ENDROOT
BRANCH   1   5
ATOM      5  C   UNL A   1      31.635  27.295  22.687  1.00  0.00     0.175 C 
BRANCH   5   6
ATOM      6  N   UNL A   1      31.212  25.917  22.409  1.00  0.00    -0.342 N 
ATOM      7  C   UNL A   1      30.439  25.076  23.153  1.00  0.00     0.240 C 
ATOM      8  O   UNL A   1      30.286  23.932  22.710  1.00  0.00    -0.273 OA
ATOM      9  H   UNL A   1      31.535  25.544  21.557  1.00  0.00     0.164 HD
BRANCH   7  10
ATOM     10  C   UNL A   1      29.598  25.566  24.352  1.00  0.00     0.216 C 
BRANCH  10  11
ATOM     11  N   UNL A   1      30.278  26.113  25.523  1.00  0.00    -0.340 N 
ATOM     12  C   UNL A   1      30.852  25.432  26.585  1.00  0.00     0.292 C 
ATOM     13  O   UNL A   1      31.471  25.997  27.478  1.00  0.00    -0.265 OA
ATOM     14  H   UNL A   1      30.337  27.094  25.563  1.00  0.00     0.164 HD
BRANCH  12  15
ATOM     15  C   UNL A   1      30.711  23.914  26.651  1.00  0.00     0.252 C 
ATOM     16  O   UNL A   1      29.990  23.464  27.542  1.00  0.00    -0.283 OA
BRANCH  15  17
ATOM     17  C   UNL A   1      31.541  23.043  25.810  1.00  0.00     0.054 A 
ATOM     18  N   UNL A   1      32.470  21.337  24.652  1.00  0.00    -0.240 N 
ATOM     19  C   UNL A   1      31.436  21.677  25.522  1.00  0.00     0.117 A 
ATOM     20  C   UNL A   1      33.068  22.535  24.220  1.00  0.00     0.065 A 
ATOM     21  C   UNL A   1      32.735  23.492  25.173  1.00  0.00     0.012 A 
ATOM     22  C   UNL A   1      34.078  22.768  23.265  1.00  0.00     0.028 A 
ATOM     23  C   UNL A   1      33.550  24.638  25.294  1.00  0.00     0.011 A 
ATOM     24  C   UNL A   1      34.913  23.869  23.452  1.00  0.00     0.002 A 
ATOM     25  C   UNL A   1      34.678  24.772  24.479  1.00  0.00     0.001 A 
BRANCH  18  26
ATOM     26  S   UNL A   1      33.669  20.098  24.922  1.00  0.00     0.268 S 
ATOM     27  O   UNL A   1      33.571  19.275  23.727  1.00  0.00    -0.201 OA
ATOM     28  O   UNL A   1      33.285  19.568  26.226  1.00  0.00    -0.201 OA
BRANCH  26  29
ATOM     29  C   UNL A   1      35.391  20.349  25.158  1.00  0.00     0.088 A 
ATOM     30  C   UNL A   1      39.308  22.000  25.934  1.00  0.00     0.044 C 
ATOM     31  C   UNL A   1      37.967  21.369  25.688  1.00  0.00    -0.051 A 
ATOM     32  C   UNL A   1      36.856  22.011  26.218  1.00  0.00     0.005 A 
ATOM     33  C   UNL A   1      37.776  20.206  24.909  1.00  0.00     0.005 A 
ATOM     34  C   UNL A   1      35.599  21.497  25.965  1.00  0.00     0.022 A 
ATOM     35  C   UNL A   1      36.484  19.685  24.631  1.00  0.00     0.022 A 
ENDBRANCH  26  29
ENDBRANCH  18  26
ENDBRANCH  15  17
ENDBRANCH  12  15
ENDBRANCH  10  11
ENDBRANCH   7  10
ENDBRANCH   5   6
BRANCH   5  36
ATOM     36  C   UNL A   1      30.729  28.333  21.987  1.00  0.00     0.072 C 
BRANCH  36  37
ATOM     37  C   UNL A   1      30.151  29.494  22.759  1.00  0.00    -0.020 A 
ATOM     38  C   UNL A   1      30.338  29.855  24.079  1.00  0.00     0.087 A 
ATOM     39  C   UNL A   1      29.294  30.516  22.205  1.00  0.00     0.003 A 
ATOM     40  N   UNL A   1      29.904  31.143  24.245  1.00  0.00    -0.361 N 
ATOM     41  C   UNL A   1      29.245  31.565  23.123  1.00  0.00     0.046 A 
ATOM     42  C   UNL A   1      28.600  30.676  20.986  1.00  0.00     0.010 A 
ATOM     43  H   UNL A   1      30.045  31.687  25.055  1.00  0.00     0.166 HD
ATOM     44  C   UNL A   1      28.633  32.793  22.858  1.00  0.00     0.026 A 
ATOM     45  C   UNL A   1      27.912  31.872  20.734  1.00  0.00     0.001 A 
ATOM     46  C   UNL A   1      27.955  32.926  21.645  1.00  0.00     0.002 A 
ENDBRANCH  36  37
ENDBRANCH   5  36
ENDBRANCH   1   5
BRANCH   3  47
ATOM     47  C   UNL A   1      33.884  28.960  24.373  1.00  0.00     0.116 C 
BRANCH  47  48
ATOM     48  C   UNL A   1      33.478  28.242  25.659  1.00  0.00     0.023 C 
BRANCH  48  49
ATOM     49  C   UNL A   1      33.052  29.141  26.822  1.00  0.00     0.023 C 
BRANCH  49  50
ATOM     50  C   UNL A   1      33.431  30.606  26.661  1.00  0.00     0.116 C 
BRANCH  50  51
ATOM     51  N   UNL A   1      33.446  31.318  27.941  1.00  0.00    -0.352 N 
ATOM     52  C   UNL A   1      34.502  31.455  28.835  1.00  0.00     0.251 C 
ATOM     53  H   UNL A   1      32.603  31.755  28.201  1.00  0.00     0.163 HD
ATOM     54  O   UNL A   1      34.398  31.972  29.922  1.00  0.00    -0.269 OA
BRANCH  52  55
ATOM     55  C   UNL A   1      35.810  30.986  28.337  1.00  0.00     0.039 A 
ATOM     56  C   UNL A   1      36.126  29.645  28.583  1.00  0.00     0.014 A 
ATOM     57  C   UNL A   1      36.787  31.943  28.091  1.00  0.00     0.014 A 
ATOM     58  C   UNL A   1      37.452  29.298  28.808  1.00  0.00     0.010 A 
ATOM     59  C   UNL A   1      38.086  31.616  28.420  1.00  0.00     0.010 A 
ATOM     60  C   UNL A   1      38.405  30.313  28.839  1.00  0.00    -0.014 A 
BRANCH  60  61
ATOM     61  C   UNL A   1      39.757  30.136  29.356  1.00  0.00     0.031 A 
ATOM     62  C   UNL A   1      40.599  29.065  28.775  1.00  0.00     0.074 A 
ATOM     63  C   UNL A   1      40.267  30.992  30.273  1.00  0.00     0.049 A 
ATOM     64  N   UNL A   1      41.669  28.594  29.319  1.00  0.00    -0.248 NA
ATOM     65  C   UNL A   1      40.243  28.380  27.535  1.00  0.00     0.031 C 
ATOM     66  C   UNL A   1      41.675  31.144  30.633  1.00  0.00     0.029 A 
ATOM     67  N   UNL A   1      39.596  31.759  31.231  1.00  0.00    -0.354 N 
ATOM     68  C   UNL A   1      42.286  27.784  28.392  1.00  0.00     0.074 A 
ATOM     69  C   UNL A   1      41.319  27.617  27.336  1.00  0.00     0.031 C 
ATOM     70  C   UNL A   1      41.751  31.667  31.866  1.00  0.00     0.029 A 
ATOM     71  C   UNL A   1      40.397  31.732  32.388  1.00  0.00     0.049 A 
ATOM     72  H   UNL A   1      38.736  32.224  31.118  1.00  0.00     0.167 HD
ATOM     73  C   UNL A   1      43.596  27.452  28.565  1.00  0.00     0.031 A 
ATOM     74  C   UNL A   1      39.997  31.220  33.589  1.00  0.00     0.031 A 
ATOM     75  C   UNL A   1      44.073  27.865  29.883  1.00  0.00     0.049 A 
ATOM     76  C   UNL A   1      40.873  30.078  34.065  1.00  0.00     0.074 A 
ATOM     77  C   UNL A   1      44.806  28.950  30.333  1.00  0.00     0.029 A 
ATOM     78  N   UNL A   1      43.521  27.266  31.009  1.00  0.00    -0.354 N 
ATOM     79  N   UNL A   1      41.734  29.460  33.303  1.00  0.00    -0.248 NA
ATOM     80  C   UNL A   1      40.822  29.509  35.410  1.00  0.00     0.031 C 
ATOM     81  C   UNL A   1      44.594  29.064  31.734  1.00  0.00     0.029 A 
ATOM     82  C   UNL A   1      43.771  28.026  32.134  1.00  0.00     0.049 A 
ATOM     83  H   UNL A   1      43.021  26.417  31.004  1.00  0.00     0.167 HD
ATOM     84  C   UNL A   1      42.324  28.440  33.999  1.00  0.00     0.074 A 
ATOM     85  C   UNL A   1      41.729  28.517  35.321  1.00  0.00     0.031 C 
ATOM     86  C   UNL A   1      43.242  27.607  33.426  1.00  0.00     0.031 A 
BRANCH  73  87
ATOM     87  C   UNL A   1      44.508  26.990  27.449  1.00  0.00    -0.014 A 
ATOM     88  C   UNL A   1      45.423  25.943  27.692  1.00  0.00     0.010 A 
ATOM     89  C   UNL A   1      44.582  27.583  26.175  1.00  0.00     0.010 A 
ATOM     90  C   UNL A   1      46.401  25.572  26.754  1.00  0.00     0.020 A 
ATOM     91  C   UNL A   1      45.567  27.243  25.236  1.00  0.00     0.020 A 
ATOM     92  C   UNL A   1      46.482  26.243  25.536  1.00  0.00     0.054 A 
BRANCH  92  93
ATOM     93  S   UNL A   1      47.787  25.807  24.360  1.00  0.00     0.124 S 
ATOM     94  O   UNL A   1      48.973  25.756  25.210  1.00  0.00    -0.237 OA
ATOM     95  O   UNL A   1      47.325  24.521  23.842  1.00  0.00    -0.237 OA
ATOM     96  O   UNL A   1      47.767  26.906  23.395  1.00  0.00    -0.744 OA
ENDBRANCH  92  93
ENDBRANCH  73  87
BRANCH  74  97
ATOM     97  C   UNL A   1      38.540  31.362  33.860  1.00  0.00    -0.014 A 
ATOM     98  C   UNL A   1      38.157  32.370  34.771  1.00  0.00     0.010 A 
ATOM     99  C   UNL A   1      37.597  30.889  32.931  1.00  0.00     0.010 A 
ATOM    100  C   UNL A   1      36.939  33.033  34.621  1.00  0.00     0.020 A 
ATOM    101  C   UNL A   1      36.369  31.552  32.782  1.00  0.00     0.020 A 
ATOM    102  C   UNL A   1      36.088  32.668  33.579  1.00  0.00     0.054 A 
BRANCH 102 103
ATOM    103  S   UNL A   1      34.744  33.813  33.141  1.00  0.00     0.124 S 
ATOM    104  O   UNL A   1      35.193  34.346  31.860  1.00  0.00    -0.237 OA
ATOM    105  O   UNL A   1      33.593  32.912  33.083  1.00  0.00    -0.237 OA
ATOM    106  O   UNL A   1      34.737  34.759  34.252  1.00  0.00    -0.744 OA
ENDBRANCH 102 103
ENDBRANCH  74  97
BRANCH  86 107
ATOM    107  C   UNL A   1      43.783  26.338  34.036  1.00  0.00    -0.014 A 
ATOM    108  C   UNL A   1      43.050  25.503  34.893  1.00  0.00     0.010 A 
ATOM    109  C   UNL A   1      45.053  25.871  33.613  1.00  0.00     0.010 A 
ATOM    110  C   UNL A   1      43.581  24.287  35.351  1.00  0.00     0.020 A 
ATOM    111  C   UNL A   1      45.571  24.643  34.027  1.00  0.00     0.020 A 
ATOM    112  C   UNL A   1      44.840  23.867  34.918  1.00  0.00     0.054 A 
BRANCH 112 113
ATOM    113  S   UNL A   1      45.492  22.268  35.462  1.00  0.00     0.124 S 
ATOM    114  O   UNL A   1      44.620  21.333  34.756  1.00  0.00    -0.237 OA
ATOM    115  O   UNL A   1      46.878  22.303  34.999  1.00  0.00    -0.237 OA
ATOM    116  O   UNL A   1      45.327  22.306  36.913  1.00  0.00    -0.744 OA
ENDBRANCH 112 113
ENDBRANCH  86 107
ENDBRANCH  60  61
ENDBRANCH  52  55
ENDBRANCH  50  51
ENDBRANCH  49  50
ENDBRANCH  48  49
ENDBRANCH  47  48
ENDBRANCH   3  47
TORSDOF 23
ENDMDL
MODEL 3
REMARK VINA RESULT:     -12.8      1.638      2.223
REMARK SMILES Cc1ccc(S(=O)(=O)n2cc(C(=O)C(=O)NCC(=O)N[C@H](Cc3c[nH]c4ccccc34)C(=O)NCCCCNC(=O)c3ccc(-c4c5nc(c(-c6ccc(S(=O)(=O)[O-])cc6)c6ccc([nH]6)c(-c6ccc(S(=O)(=O)[O-])cc6)c6nc(c(-c7ccc(S(=O)(=O)[O-])cc7)c7ccc4[nH]7)C=C6)C=C5)cc3)c3ccccc32)cc1
REMARK SMILES IDX 32 1 33 2 34 3 21 5 20 6 18 7 19 8 17 10 16 11 14 12 15 13
REMARK SMILES IDX 12 15 13 16 11 17 9 18 10 19 107 20 102 21 106 22 103 23
REMARK SMILES IDX 105 24 104 25 6 26 7 27 8 28 5 29 1 30 2 31 3 32 109 33 4 34
REMARK SMILES IDX 108 35 22 36 23 37 24 38 31 39 25 40 26 41 30 42 27 44 29 45
REMARK SMILES IDX 28 46 35 47 36 48 37 49 38 50 39 51 40 52 41 54 42 55 43 56
REMARK SMILES IDX 101 57 44 58 100 59 45 60 46 61 47 62 94 63 48 64 99 65
REMARK SMILES IDX 93 66 95 67 49 68 98 69 92 70 91 71 50 73 80 74 61 75 79 76
REMARK SMILES IDX 62 77 65 78 78 79 96 80 63 81 64 82 77 84 97 85 66 86 51 87
REMARK SMILES IDX 52 88 60 89 53 90 59 91 54 92 55 93 56 94 57 95 58 96 81 97
REMARK SMILES IDX 82 98 90 99 83 100 89 101 84 102 85 103 86 104 87 105 88 106
REMARK SMILES IDX 67 107 68 108 76 109 69 110 75 111 70 112 71 113 72 114
REMARK SMILES IDX 73 115 74 116
REMARK H PARENT 34 4 20 9 16 14 25 43 39 53 95 72 65 83
REMARK Flexibility Score: inf
ROOT
ATOM      1  C   UNL A   1      33.103  27.433  22.785  1.00  0.00     0.242 C 
ATOM      2  O   UNL A   1      33.771  26.775  21.974  1.00  0.00    -0.273 OA
ATOM      3  N   UNL A   1      33.815  28.209  23.636  1.00  0.00    -0.354 N 
ATOM      4  H   UNL A   1      34.787  28.136  23.498  1.00  0.00     0.163 HD
ENDROOT
BRANCH   1   5
ATOM      5  C   UNL A   1      31.568  27.304  22.767  1.00  0.00     0.175 C 
BRANCH   5   6
ATOM      6  N   UNL A   1      31.238  25.913  22.434  1.00  0.00    -0.342 N 
ATOM      7  C   UNL A   1      30.512  24.998  23.137  1.00  0.00     0.240 C 
ATOM      8  O   UNL A   1      30.438  23.864  22.652  1.00  0.00    -0.273 OA
ATOM      9  H   UNL A   1      31.595  25.592  21.574  1.00  0.00     0.164 HD
BRANCH   7  10
ATOM     10  C   UNL A   1      29.626  25.390  24.341  1.00  0.00     0.216 C 
BRANCH  10  11
ATOM     11  N   UNL A   1      30.246  26.009  25.510  1.00  0.00    -0.340 N 
ATOM     12  C   UNL A   1      30.835  25.392  26.602  1.00  0.00     0.292 C 
ATOM     13  O   UNL A   1      31.399  26.017  27.492  1.00  0.00    -0.265 OA
ATOM     14  H   UNL A   1      30.245  26.992  25.523  1.00  0.00     0.164 HD
BRANCH  12  15
ATOM     15  C   UNL A   1      30.783  23.871  26.707  1.00  0.00     0.252 C 
ATOM     16  O   UNL A   1      30.114  23.402  27.629  1.00  0.00    -0.283 OA
BRANCH  15  17
ATOM     17  C   UNL A   1      31.639  23.027  25.863  1.00  0.00     0.054 A 
ATOM     18  N   UNL A   1      32.607  21.357  24.685  1.00  0.00    -0.240 N 
ATOM     19  C   UNL A   1      31.554  21.667  25.543  1.00  0.00     0.117 A 
ATOM     20  C   UNL A   1      33.200  22.571  24.291  1.00  0.00     0.065 A 
ATOM     21  C   UNL A   1      32.839  23.503  25.258  1.00  0.00     0.012 A 
ATOM     22  C   UNL A   1      34.224  22.835  23.361  1.00  0.00     0.028 A 
ATOM     23  C   UNL A   1      33.639  24.654  25.419  1.00  0.00     0.011 A 
ATOM     24  C   UNL A   1      35.044  23.941  23.587  1.00  0.00     0.002 A 
ATOM     25  C   UNL A   1      34.780  24.819  24.629  1.00  0.00     0.001 A 
BRANCH  18  26
ATOM     26  S   UNL A   1      33.816  20.126  24.951  1.00  0.00     0.268 S 
ATOM     27  O   UNL A   1      33.723  19.307  23.752  1.00  0.00    -0.201 OA
ATOM     28  O   UNL A   1      33.435  19.587  26.253  1.00  0.00    -0.201 OA
BRANCH  26  29
ATOM     29  C   UNL A   1      35.535  20.388  25.188  1.00  0.00     0.088 A 
ATOM     30  C   UNL A   1      39.443  22.068  25.947  1.00  0.00     0.044 C 
ATOM     31  C   UNL A   1      38.106  21.427  25.708  1.00  0.00    -0.051 A 
ATOM     32  C   UNL A   1      36.991  22.074  26.223  1.00  0.00     0.005 A 
ATOM     33  C   UNL A   1      37.922  20.249  24.950  1.00  0.00     0.005 A 
ATOM     34  C   UNL A   1      35.736  21.551  25.975  1.00  0.00     0.022 A 
ATOM     35  C   UNL A   1      36.633  19.719  24.677  1.00  0.00     0.022 A 
ENDBRANCH  26  29
ENDBRANCH  18  26
ENDBRANCH  15  17
ENDBRANCH  12  15
ENDBRANCH  10  11
ENDBRANCH   7  10
ENDBRANCH   5   6
BRANCH   5  36
ATOM     36  C   UNL A   1      30.752  28.312  21.926  1.00  0.00     0.072 C 
BRANCH  36  37
ATOM     37  C   UNL A   1      29.409  28.803  22.404  1.00  0.00    -0.020 A 
ATOM     38  C   UNL A   1      28.341  28.091  22.915  1.00  0.00     0.087 A 
ATOM     39  C   UNL A   1      29.002  30.188  22.463  1.00  0.00     0.003 A 
ATOM     40  N   UNL A   1      27.484  28.967  23.527  1.00  0.00    -0.361 N 
ATOM     41  C   UNL A   1      27.853  30.255  23.251  1.00  0.00     0.046 A 
ATOM     42  C   UNL A   1      29.532  31.399  21.969  1.00  0.00     0.010 A 
ATOM     43  H   UNL A   1      26.715  28.708  24.085  1.00  0.00     0.166 HD
ATOM     44  C   UNL A   1      27.265  31.457  23.655  1.00  0.00     0.026 A 
ATOM     45  C   UNL A   1      28.908  32.612  22.297  1.00  0.00     0.001 A 
ATOM     46  C   UNL A   1      27.809  32.640  23.153  1.00  0.00     0.002 A 
ENDBRANCH  36  37
ENDBRANCH   5  36
ENDBRANCH   1   5
BRANCH   3  47
ATOM     47  C   UNL A   1      33.463  29.126  24.707  1.00  0.00     0.116 C 
BRANCH  47  48
ATOM     48  C   UNL A   1      33.595  28.534  26.109  1.00  0.00     0.023 C 
BRANCH  48  49
ATOM     49  C   UNL A   1      33.536  29.533  27.266  1.00  0.00     0.023 C 
BRANCH  49  50
ATOM     50  C   UNL A   1      33.880  30.965  26.884  1.00  0.00     0.116 C 
BRANCH  50  51
ATOM     51  N   UNL A   1      34.236  31.780  28.048  1.00  0.00    -0.352 N 
ATOM     52  C   UNL A   1      35.150  31.486  29.053  1.00  0.00     0.251 C 
ATOM     53  H   UNL A   1      33.770  32.643  28.129  1.00  0.00     0.163 HD
ATOM     54  O   UNL A   1      35.308  32.169  30.038  1.00  0.00    -0.269 OA
BRANCH  52  55
ATOM     55  C   UNL A   1      35.994  30.300  28.807  1.00  0.00     0.039 A 
ATOM     56  C   UNL A   1      36.216  29.455  29.901  1.00  0.00     0.014 A 
ATOM     57  C   UNL A   1      36.849  30.332  27.712  1.00  0.00     0.014 A 
ATOM     58  C   UNL A   1      37.434  28.795  30.003  1.00  0.00     0.010 A 
ATOM     59  C   UNL A   1      38.096  29.762  27.869  1.00  0.00     0.010 A 
ATOM     60  C   UNL A   1      38.407  29.049  29.040  1.00  0.00    -0.014 A 
BRANCH  60  61
ATOM     61  C   UNL A   1      39.807  28.670  29.188  1.00  0.00     0.031 A 
ATOM     62  C   UNL A   1      40.218  27.313  28.765  1.00  0.00     0.074 A 
ATOM     63  C   UNL A   1      40.729  29.570  29.606  1.00  0.00     0.049 A 
ATOM     64  N   UNL A   1      41.320  26.737  29.109  1.00  0.00    -0.248 NA
ATOM     65  C   UNL A   1      39.356  26.453  27.957  1.00  0.00     0.031 C 
ATOM     66  C   UNL A   1      42.181  29.446  29.492  1.00  0.00     0.029 A 
ATOM     67  N   UNL A   1      40.557  30.695  30.419  1.00  0.00    -0.354 N 
ATOM     68  C   UNL A   1      41.445  25.592  28.353  1.00  0.00     0.074 A 
ATOM     69  C   UNL A   1      40.163  25.418  27.718  1.00  0.00     0.031 C 
ATOM     70  C   UNL A   1      42.755  30.222  30.423  1.00  0.00     0.029 A 
ATOM     71  C   UNL A   1      41.689  30.755  31.252  1.00  0.00     0.049 A 
ATOM     72  H   UNL A   1      39.796  31.320  30.409  1.00  0.00     0.167 HD
ATOM     73  C   UNL A   1      42.665  24.994  28.249  1.00  0.00     0.031 A 
ATOM     74  C   UNL A   1      41.647  30.676  32.616  1.00  0.00     0.031 A 
ATOM     75  C   UNL A   1      43.623  25.587  29.180  1.00  0.00     0.049 A 
ATOM     76  C   UNL A   1      42.438  29.505  33.164  1.00  0.00     0.074 A 
ATOM     77  C   UNL A   1      44.628  26.528  29.040  1.00  0.00     0.029 A 
ATOM     78  N   UNL A   1      43.399  25.446  30.544  1.00  0.00    -0.354 N 
ATOM     79  N   UNL A   1      42.877  28.520  32.428  1.00  0.00    -0.248 NA
ATOM     80  C   UNL A   1      42.759  29.320  34.578  1.00  0.00     0.031 C 
ATOM     81  C   UNL A   1      44.928  27.037  30.333  1.00  0.00     0.029 A 
ATOM     82  C   UNL A   1      44.136  26.374  31.254  1.00  0.00     0.049 A 
ATOM     83  H   UNL A   1      42.799  24.778  30.948  1.00  0.00     0.167 HD
ATOM     84  C   UNL A   1      43.498  27.590  33.218  1.00  0.00     0.074 A 
ATOM     85  C   UNL A   1      43.410  28.142  34.558  1.00  0.00     0.031 C 
ATOM     86  C   UNL A   1      44.019  26.437  32.705  1.00  0.00     0.031 A 
BRANCH  73  87
ATOM     87  C   UNL A   1      43.056  24.054  27.128  1.00  0.00    -0.014 A 
ATOM     88  C   UNL A   1      43.270  22.689  27.414  1.00  0.00     0.010 A 
ATOM     89  C   UNL A   1      43.309  24.448  25.801  1.00  0.00     0.010 A 
ATOM     90  C   UNL A   1      43.783  21.796  26.457  1.00  0.00     0.020 A 
ATOM     91  C   UNL A   1      43.845  23.577  24.841  1.00  0.00     0.020 A 
ATOM     92  C   UNL A   1      44.091  22.253  25.179  1.00  0.00     0.054 A 
BRANCH  92  93
ATOM     93  S   UNL A   1      44.815  21.115  23.972  1.00  0.00     0.124 S 
ATOM     94  O   UNL A   1      44.466  21.741  22.700  1.00  0.00    -0.237 OA
ATOM     95  O   UNL A   1      46.232  21.146  24.323  1.00  0.00    -0.237 OA
ATOM     96  O   UNL A   1      44.138  19.847  24.241  1.00  0.00    -0.744 OA
ENDBRANCH  92  93
ENDBRANCH  73  87
BRANCH  74  97
ATOM     97  C   UNL A   1      40.412  31.245  33.223  1.00  0.00    -0.014 A 
ATOM     98  C   UNL A   1      39.429  30.324  33.646  1.00  0.00     0.010 A 
ATOM     99  C   UNL A   1      40.428  32.533  33.788  1.00  0.00     0.010 A 
ATOM    100  C   UNL A   1      38.620  30.609  34.747  1.00  0.00     0.020 A 
ATOM    101  C   UNL A   1      39.613  32.821  34.893  1.00  0.00     0.020 A 
ATOM    102  C   UNL A   1      38.773  31.827  35.408  1.00  0.00     0.054 A 
BRANCH 102 103
ATOM    103  S   UNL A   1      38.043  31.989  37.066  1.00  0.00     0.124 S 
ATOM    104  O   UNL A   1      37.027  33.014  36.862  1.00  0.00    -0.237 OA
ATOM    105  O   UNL A   1      37.537  30.636  37.301  1.00  0.00    -0.237 OA
ATOM    106  O   UNL A   1      39.179  32.379  37.894  1.00  0.00    -0.744 OA
ENDBRANCH 102 103
ENDBRANCH  74  97
BRANCH  86 107
ATOM    107  C   UNL A   1      44.526  25.265  33.509  1.00  0.00    -0.014 A 
ATOM    108  C   UNL A   1      43.745  24.151  33.852  1.00  0.00     0.010 A 
ATOM    109  C   UNL A   1      45.908  25.202  33.817  1.00  0.00     0.010 A 
ATOM    110  C   UNL A   1      44.304  23.051  34.521  1.00  0.00     0.020 A 
ATOM    111  C   UNL A   1      46.482  24.093  34.442  1.00  0.00     0.020 A 
ATOM    112  C   UNL A   1      45.668  23.031  34.814  1.00  0.00     0.054 A 
BRANCH 112 113
ATOM    113  S   UNL A   1      46.395  21.581  35.620  1.00  0.00     0.124 S 
ATOM    114  O   UNL A   1      46.017  21.794  37.015  1.00  0.00    -0.237 OA
ATOM    115  O   UNL A   1      45.727  20.465  34.954  1.00  0.00    -0.237 OA
ATOM    116  O   UNL A   1      47.821  21.706  35.330  1.00  0.00    -0.744 OA
ENDBRANCH 112 113
ENDBRANCH  86 107
ENDBRANCH  60  61
ENDBRANCH  52  55
ENDBRANCH  50  51
ENDBRANCH  49  50
ENDBRANCH  48  49
ENDBRANCH  47  48
ENDBRANCH   3  47
TORSDOF 23
ENDMDL
