MODEL 1
REMARK VINA RESULT:     -12.6      0.000      0.000
REMARK SMILES Cc1cc(NC(=O)[C@H]2[C@@H](C(=O)NCCCCNC(=O)c3ccc(-c4c5nc(c(-c6ccc(S(=O)(=O)[O-])cc6)c6ccc([nH]6)c(-c6ccc(S(=O)(=O)[O-])cc6)c6nc(c(-c7ccc(S(=O)(=O)[O-])cc7)c7ccc4[nH]7)C=C6)C=C5)cc3)C2(C)C)n(-c2ccc(F)cc2)n1
REMARK SMILES IDX 14 1 13 2 12 3 10 4 11 5 9 7 8 8 80 9 81 10 82 11 6 12 5 13
REMARK SMILES IDX 7 15 4 16 1 17 2 18 3 19 91 20 83 21 84 22 85 23 90 24 86 25
REMARK SMILES IDX 89 26 87 27 88 28 15 29 16 30 17 31 18 32 19 34 20 35 21 36
REMARK SMILES IDX 79 37 22 38 78 39 23 40 24 41 25 42 72 43 26 44 77 45 71 46
REMARK SMILES IDX 73 47 27 48 76 49 70 50 69 51 28 53 58 54 39 55 57 56 40 57
REMARK SMILES IDX 43 58 56 59 74 60 41 61 42 62 55 64 75 65 44 66 29 67 30 68
REMARK SMILES IDX 38 69 31 70 37 71 32 72 33 73 34 74 35 75 36 76 59 77 60 78
REMARK SMILES IDX 68 79 61 80 67 81 62 82 63 83 64 84 65 85 66 86 45 87 46 88
REMARK SMILES IDX 54 89 47 90 53 91 48 92 49 93 50 94 51 95 52 96
REMARK H PARENT 12 6 5 14 17 33 73 52 43 63
REMARK Flexibility Score: inf
ROOT
ATOM      1  C   UNL A   1      31.774  29.499  26.975  1.00  0.00     0.023 C 
ENDROOT
BRANCH   1   2
ATOM      2  C   UNL A   1      33.016  28.590  27.068  1.00  0.00     0.116 C 
BRANCH   2   3
ATOM      3  N   UNL A   1      33.496  27.847  25.911  1.00  0.00    -0.356 N 
ATOM      4  C   UNL A   1      32.915  27.333  24.750  1.00  0.00     0.224 C 
ATOM      5  O   UNL A   1      33.683  26.747  23.991  1.00  0.00    -0.275 OA
ATOM      6  H   UNL A   1      34.463  27.663  25.959  1.00  0.00     0.163 HD
BRANCH   4   7
ATOM      7  C   UNL A   1      31.415  27.335  24.326  1.00  0.00     0.098 C 
ATOM      8  C   UNL A   1      30.957  26.543  23.222  1.00  0.00     0.098 C 
ATOM      9  C   UNL A   1      30.699  28.351  23.079  1.00  0.00    -0.011 C 
ATOM     10  C   UNL A   1      32.158  29.380  23.173  1.00  0.00     0.013 C 
ATOM     11  C   UNL A   1      28.778  29.165  22.480  1.00  0.00     0.013 C 
BRANCH   8  12
ATOM     12  C   UNL A   1      31.619  25.587  22.321  1.00  0.00     0.230 C 
ATOM     13  N   UNL A   1      32.307  24.381  22.673  1.00  0.00    -0.310 N 
ATOM     14  H   UNL A   1      32.997  24.092  22.033  1.00  0.00     0.171 HD
ATOM     15  O   UNL A   1      31.732  25.860  21.136  1.00  0.00    -0.274 OA
BRANCH  13  16
ATOM     16  C   UNL A   1      32.148  23.559  23.779  1.00  0.00     0.136 A 
ATOM     17  C   UNL A   1      30.278  22.971  26.868  1.00  0.00     0.069 C 
ATOM     18  C   UNL A   1      31.174  22.979  25.683  1.00  0.00     0.062 A 
ATOM     19  C   UNL A   1      30.907  23.457  24.381  1.00  0.00     0.072 A 
ATOM     20  N   UNL A   1      32.452  22.617  25.816  1.00  0.00    -0.171 NA
ATOM     21  N   UNL A   1      33.028  22.910  24.628  1.00  0.00    -0.217 N 
BRANCH  21  22
ATOM     22  C   UNL A   1      34.421  22.824  24.503  1.00  0.00     0.067 A 
ATOM     23  C   UNL A   1      35.045  21.144  24.421  1.00  0.00     0.031 A 
ATOM     24  C   UNL A   1      35.460  24.166  25.110  1.00  0.00     0.031 A 
ATOM     25  C   UNL A   1      36.679  20.754  25.162  1.00  0.00     0.041 A 
ATOM     26  C   UNL A   1      37.083  23.775  25.828  1.00  0.00     0.041 A 
ATOM     27  C   UNL A   1      37.642  22.059  25.923  1.00  0.00     0.123 A 
ATOM     28  F   UNL A   1      38.860  21.792  26.407  1.00  0.00    -0.207 F 
ENDBRANCH  21  22
ENDBRANCH  13  16
ENDBRANCH   8  12
ENDBRANCH   4   7
ENDBRANCH   2   3
ENDBRANCH   1   2
BRANCH   1  29
ATOM     29  C   UNL A   1      31.916  30.935  26.512  1.00  0.00     0.023 C 
BRANCH  29  30
ATOM     30  C   UNL A   1      32.842  31.766  27.376  1.00  0.00     0.116 C 
BRANCH  30  31
ATOM     31  N   UNL A   1      32.484  33.192  27.422  1.00  0.00    -0.352 N 
ATOM     32  C   UNL A   1      32.983  34.143  28.304  1.00  0.00     0.251 C 
ATOM     33  H   UNL A   1      31.824  33.504  26.762  1.00  0.00     0.163 HD
ATOM     34  O   UNL A   1      32.396  35.197  28.504  1.00  0.00    -0.269 OA
BRANCH  32  35
ATOM     35  C   UNL A   1      34.280  33.853  28.936  1.00  0.00     0.039 A 
ATOM     36  C   UNL A   1      34.422  33.395  30.251  1.00  0.00     0.014 A 
ATOM     37  C   UNL A   1      35.371  33.937  28.079  1.00  0.00     0.014 A 
ATOM     38  C   UNL A   1      35.678  32.953  30.666  1.00  0.00     0.010 A 
ATOM     39  C   UNL A   1      36.517  33.282  28.409  1.00  0.00     0.010 A 
ATOM     40  C   UNL A   1      36.716  32.887  29.726  1.00  0.00    -0.014 A 
BRANCH  40  41
ATOM     41  C   UNL A   1      38.005  32.257  29.984  1.00  0.00     0.031 A 
ATOM     42  C   UNL A   1      38.060  30.839  29.532  1.00  0.00     0.074 A 
ATOM     43  C   UNL A   1      39.085  33.028  30.275  1.00  0.00     0.049 A 
ATOM     44  N   UNL A   1      38.200  29.790  30.272  1.00  0.00    -0.248 NA
ATOM     45  C   UNL A   1      37.714  30.519  28.129  1.00  0.00     0.031 C 
ATOM     46  C   UNL A   1      39.127  34.490  30.446  1.00  0.00     0.029 A 
ATOM     47  N   UNL A   1      40.404  32.710  30.333  1.00  0.00    -0.354 N 
ATOM     48  C   UNL A   1      38.257  28.715  29.389  1.00  0.00     0.074 A 
ATOM     49  C   UNL A   1      37.694  29.184  28.153  1.00  0.00     0.031 C 
ATOM     50  C   UNL A   1      40.397  34.933  30.313  1.00  0.00     0.029 A 
ATOM     51  C   UNL A   1      41.281  33.789  30.186  1.00  0.00     0.049 A 
ATOM     52  H   UNL A   1      40.718  31.787  30.468  1.00  0.00     0.167 HD
ATOM     53  C   UNL A   1      39.067  27.647  29.639  1.00  0.00     0.031 A 
ATOM     54  C   UNL A   1      42.622  33.745  29.936  1.00  0.00     0.031 A 
ATOM     55  C   UNL A   1      39.546  27.670  30.999  1.00  0.00     0.049 A 
ATOM     56  C   UNL A   1      43.070  32.373  30.289  1.00  0.00     0.074 A 
ATOM     57  C   UNL A   1      38.935  27.687  32.237  1.00  0.00     0.029 A 
ATOM     58  N   UNL A   1      40.825  28.143  31.190  1.00  0.00    -0.354 N 
ATOM     59  N   UNL A   1      43.037  31.919  31.512  1.00  0.00    -0.248 NA
ATOM     60  C   UNL A   1      43.015  31.358  29.245  1.00  0.00     0.031 C 
ATOM     61  C   UNL A   1      39.695  28.619  33.001  1.00  0.00     0.029 A 
ATOM     62  C   UNL A   1      40.798  29.021  32.243  1.00  0.00     0.049 A 
ATOM     63  H   UNL A   1      41.619  27.894  30.664  1.00  0.00     0.167 HD
ATOM     64  C   UNL A   1      42.488  30.650  31.398  1.00  0.00     0.074 A 
ATOM     65  C   UNL A   1      42.565  30.328  29.969  1.00  0.00     0.031 C 
ATOM     66  C   UNL A   1      41.727  30.119  32.402  1.00  0.00     0.031 A 
BRANCH  53  67
ATOM     67  C   UNL A   1      39.783  26.860  28.566  1.00  0.00    -0.014 A 
ATOM     68  C   UNL A   1      39.479  25.491  28.425  1.00  0.00     0.010 A 
ATOM     69  C   UNL A   1      40.928  27.332  27.892  1.00  0.00     0.010 A 
ATOM     70  C   UNL A   1      40.318  24.628  27.709  1.00  0.00     0.020 A 
ATOM     71  C   UNL A   1      41.749  26.489  27.141  1.00  0.00     0.020 A 
ATOM     72  C   UNL A   1      41.455  25.133  27.080  1.00  0.00     0.054 A 
BRANCH  72  73
ATOM     73  S   UNL A   1      42.575  23.998  26.228  1.00  0.00     0.124 S 
ATOM     74  O   UNL A   1      41.749  22.803  26.098  1.00  0.00    -0.237 OA
ATOM     75  O   UNL A   1      42.853  24.719  24.989  1.00  0.00    -0.237 OA
ATOM     76  O   UNL A   1      43.706  23.884  27.146  1.00  0.00    -0.744 OA
ENDBRANCH  72  73
ENDBRANCH  53  67
BRANCH  54  77
ATOM     77  C   UNL A   1      43.436  34.668  29.086  1.00  0.00    -0.014 A 
ATOM     78  C   UNL A   1      43.064  34.998  27.764  1.00  0.00     0.010 A 
ATOM     79  C   UNL A   1      44.440  35.461  29.680  1.00  0.00     0.010 A 
ATOM     80  C   UNL A   1      43.612  36.122  27.104  1.00  0.00     0.020 A 
ATOM     81  C   UNL A   1      44.992  36.574  29.031  1.00  0.00     0.020 A 
ATOM     82  C   UNL A   1      44.553  36.922  27.758  1.00  0.00     0.054 A 
BRANCH  82  83
ATOM     83  S   UNL A   1      45.097  38.495  27.017  1.00  0.00     0.124 S 
ATOM     84  O   UNL A   1      43.852  39.038  26.483  1.00  0.00    -0.237 OA
ATOM     85  O   UNL A   1      45.663  39.206  28.159  1.00  0.00    -0.237 OA
ATOM     86  O   UNL A   1      46.070  38.078  26.007  1.00  0.00    -0.744 OA
ENDBRANCH  82  83
ENDBRANCH  54  77
BRANCH  66  87
ATOM     87  C   UNL A   1      41.681  30.834  33.736  1.00  0.00    -0.014 A 
ATOM     88  C   UNL A   1      40.953  32.018  33.986  1.00  0.00     0.010 A 
ATOM     89  C   UNL A   1      42.267  30.170  34.826  1.00  0.00     0.010 A 
ATOM     90  C   UNL A   1      40.848  32.533  35.290  1.00  0.00     0.020 A 
ATOM     91  C   UNL A   1      42.149  30.666  36.125  1.00  0.00     0.020 A 
ATOM     92  C   UNL A   1      41.453  31.852  36.350  1.00  0.00     0.054 A 
BRANCH  92  93
ATOM     93  S   UNL A   1      41.311  32.505  38.037  1.00  0.00     0.124 S 
ATOM     94  O   UNL A   1      39.893  32.315  38.331  1.00  0.00    -0.237 OA
ATOM     95  O   UNL A   1      42.229  31.657  38.793  1.00  0.00    -0.237 OA
ATOM     96  O   UNL A   1      41.733  33.900  37.908  1.00  0.00    -0.744 OA
ENDBRANCH  92  93
ENDBRANCH  66  87
ENDBRANCH  40  41
ENDBRANCH  32  35
ENDBRANCH  30  31
ENDBRANCH  29  30
ENDBRANCH   1  29
TORSDOF 17
ENDMDL
MODEL 2
REMARK VINA RESULT:     -12.5      1.291      2.055
REMARK SMILES Cc1cc(NC(=O)[C@H]2[C@@H](C(=O)NCCCCNC(=O)c3ccc(-c4c5nc(c(-c6ccc(S(=O)(=O)[O-])cc6)c6ccc([nH]6)c(-c6ccc(S(=O)(=O)[O-])cc6)c6nc(c(-c7ccc(S(=O)(=O)[O-])cc7)c7ccc4[nH]7)C=C6)C=C5)cc3)C2(C)C)n(-c2ccc(F)cc2)n1
REMARK SMILES IDX 14 1 13 2 12 3 10 4 11 5 9 7 8 8 80 9 81 10 82 11 6 12 5 13
REMARK SMILES IDX 7 15 4 16 1 17 2 18 3 19 91 20 83 21 84 22 85 23 90 24 86 25
REMARK SMILES IDX 89 26 87 27 88 28 15 29 16 30 17 31 18 32 19 34 20 35 21 36
REMARK SMILES IDX 79 37 22 38 78 39 23 40 24 41 25 42 72 43 26 44 77 45 71 46
REMARK SMILES IDX 73 47 27 48 76 49 70 50 69 51 28 53 58 54 39 55 57 56 40 57
REMARK SMILES IDX 43 58 56 59 74 60 41 61 42 62 55 64 75 65 44 66 29 67 30 68
REMARK SMILES IDX 38 69 31 70 37 71 32 72 33 73 34 74 35 75 36 76 59 77 60 78
REMARK SMILES IDX 68 79 61 80 67 81 62 82 63 83 64 84 65 85 66 86 45 87 46 88
REMARK SMILES IDX 54 89 47 90 53 91 48 92 49 93 50 94 51 95 52 96
REMARK H PARENT 12 6 5 14 17 33 73 52 43 63
REMARK Flexibility Score: inf
ROOT
ATOM      1  C   UNL A   1      32.170  29.948  26.443  1.00  0.00     0.023 C 
ENDROOT
BRANCH   1   2
ATOM      2  C   UNL A   1      32.986  29.620  25.177  1.00  0.00     0.116 C 
BRANCH   2   3
ATOM      3  N   UNL A   1      32.402  28.865  24.077  1.00  0.00    -0.356 N 
ATOM      4  C   UNL A   1      32.659  27.632  23.473  1.00  0.00     0.224 C 
ATOM      5  O   UNL A   1      31.917  27.339  22.538  1.00  0.00    -0.275 OA
ATOM      6  H   UNL A   1      31.645  29.337  23.658  1.00  0.00     0.163 HD
BRANCH   4   7
ATOM      7  C   UNL A   1      33.802  26.617  23.773  1.00  0.00     0.098 C 
ATOM      8  C   UNL A   1      33.836  25.331  23.140  1.00  0.00     0.098 C 
ATOM      9  C   UNL A   1      33.744  25.326  24.969  1.00  0.00    -0.011 C 
ATOM     10  C   UNL A   1      32.345  26.160  25.706  1.00  0.00     0.013 C 
ATOM     11  C   UNL A   1      35.069  24.079  26.154  1.00  0.00     0.013 C 
BRANCH   8  12
ATOM     12  C   UNL A   1      32.989  24.681  22.128  1.00  0.00     0.230 C 
ATOM     13  N   UNL A   1      32.251  23.459  22.253  1.00  0.00    -0.310 N 
ATOM     14  H   UNL A   1      32.079  22.986  21.407  1.00  0.00     0.171 HD
ATOM     15  O   UNL A   1      32.970  25.123  20.990  1.00  0.00    -0.274 OA
BRANCH  13  16
ATOM     16  C   UNL A   1      31.743  22.842  23.387  1.00  0.00     0.136 A 
ATOM     17  C   UNL A   1      30.396  23.332  26.752  1.00  0.00     0.069 C 
ATOM     18  C   UNL A   1      30.902  22.864  25.436  1.00  0.00     0.062 A 
ATOM     19  C   UNL A   1      30.841  23.520  24.187  1.00  0.00     0.072 A 
ATOM     20  N   UNL A   1      31.625  21.745  25.364  1.00  0.00    -0.171 NA
ATOM     21  N   UNL A   1      32.081  21.700  24.091  1.00  0.00    -0.217 N 
BRANCH  21  22
ATOM     22  C   UNL A   1      33.036  20.736  23.741  1.00  0.00     0.067 A 
ATOM     23  C   UNL A   1      32.338  19.217  23.090  1.00  0.00     0.031 A 
ATOM     24  C   UNL A   1      34.650  20.741  24.542  1.00  0.00     0.031 A 
ATOM     25  C   UNL A   1      33.177  17.621  23.436  1.00  0.00     0.041 A 
ATOM     26  C   UNL A   1      35.483  19.159  24.868  1.00  0.00     0.041 A 
ATOM     27  C   UNL A   1      34.696  17.605  24.385  1.00  0.00     0.123 A 
ATOM     28  F   UNL A   1      35.345  16.452  24.585  1.00  0.00    -0.207 F 
ENDBRANCH  21  22
ENDBRANCH  13  16
ENDBRANCH   8  12
ENDBRANCH   4   7
ENDBRANCH   2   3
ENDBRANCH   1   2
BRANCH   1  29
ATOM     29  C   UNL A   1      31.785  31.382  26.750  1.00  0.00     0.023 C 
BRANCH  29  30
ATOM     30  C   UNL A   1      32.871  32.167  27.455  1.00  0.00     0.116 C 
BRANCH  30  31
ATOM     31  N   UNL A   1      32.589  33.607  27.552  1.00  0.00    -0.352 N 
ATOM     32  C   UNL A   1      33.116  34.493  28.484  1.00  0.00     0.251 C 
ATOM     33  H   UNL A   1      31.964  33.981  26.890  1.00  0.00     0.163 HD
ATOM     34  O   UNL A   1      32.582  35.569  28.714  1.00  0.00    -0.269 OA
BRANCH  32  35
ATOM     35  C   UNL A   1      34.379  34.107  29.133  1.00  0.00     0.039 A 
ATOM     36  C   UNL A   1      34.461  33.573  30.424  1.00  0.00     0.014 A 
ATOM     37  C   UNL A   1      35.497  34.187  28.312  1.00  0.00     0.014 A 
ATOM     38  C   UNL A   1      35.682  33.049  30.847  1.00  0.00     0.010 A 
ATOM     39  C   UNL A   1      36.602  33.461  28.636  1.00  0.00     0.010 A 
ATOM     40  C   UNL A   1      36.744  32.986  29.933  1.00  0.00    -0.014 A 
BRANCH  40  41
ATOM     41  C   UNL A   1      37.995  32.282  30.190  1.00  0.00     0.031 A 
ATOM     42  C   UNL A   1      37.995  30.888  29.665  1.00  0.00     0.074 A 
ATOM     43  C   UNL A   1      39.100  32.983  30.548  1.00  0.00     0.049 A 
ATOM     44  N   UNL A   1      38.066  29.797  30.351  1.00  0.00    -0.248 NA
ATOM     45  C   UNL A   1      37.675  30.658  28.238  1.00  0.00     0.031 C 
ATOM     46  C   UNL A   1      39.206  34.431  30.797  1.00  0.00     0.029 A 
ATOM     47  N   UNL A   1      40.401  32.600  30.623  1.00  0.00    -0.354 N 
ATOM     48  C   UNL A   1      38.097  28.768  29.415  1.00  0.00     0.074 A 
ATOM     49  C   UNL A   1      37.591  29.326  28.191  1.00  0.00     0.031 C 
ATOM     50  C   UNL A   1      40.499  34.819  30.720  1.00  0.00     0.029 A 
ATOM     51  C   UNL A   1      41.332  33.642  30.556  1.00  0.00     0.049 A 
ATOM     52  H   UNL A   1      40.668  31.658  30.717  1.00  0.00     0.167 HD
ATOM     53  C   UNL A   1      38.849  27.650  29.628  1.00  0.00     0.031 A 
ATOM     54  C   UNL A   1      42.675  33.547  30.338  1.00  0.00     0.031 A 
ATOM     55  C   UNL A   1      39.291  27.579  30.998  1.00  0.00     0.049 A 
ATOM     56  C   UNL A   1      43.049  32.138  30.628  1.00  0.00     0.074 A 
ATOM     57  C   UNL A   1      38.648  27.562  32.220  1.00  0.00     0.029 A 
ATOM     58  N   UNL A   1      40.585  27.980  31.247  1.00  0.00    -0.354 N 
ATOM     59  N   UNL A   1      42.961  31.624  31.824  1.00  0.00    -0.248 NA
ATOM     60  C   UNL A   1      42.976  31.183  29.531  1.00  0.00     0.031 C 
ATOM     61  C   UNL A   1      39.429  28.415  33.052  1.00  0.00     0.029 A 
ATOM     62  C   UNL A   1      40.569  28.803  32.344  1.00  0.00     0.049 A 
ATOM     63  H   UNL A   1      41.381  27.721  30.729  1.00  0.00     0.167 HD
ATOM     64  C   UNL A   1      42.356  30.390  31.630  1.00  0.00     0.074 A 
ATOM     65  C   UNL A   1      42.458  30.139  30.188  1.00  0.00     0.031 C 
ATOM     66  C   UNL A   1      41.544  29.845  32.584  1.00  0.00     0.031 A 
BRANCH  53  67
ATOM     67  C   UNL A   1      39.557  26.886  28.533  1.00  0.00    -0.014 A 
ATOM     68  C   UNL A   1      39.466  25.480  28.531  1.00  0.00     0.010 A 
ATOM     69  C   UNL A   1      40.526  27.463  27.686  1.00  0.00     0.010 A 
ATOM     70  C   UNL A   1      40.347  24.693  27.780  1.00  0.00     0.020 A 
ATOM     71  C   UNL A   1      41.383  26.689  26.901  1.00  0.00     0.020 A 
ATOM     72  C   UNL A   1      41.308  25.305  26.977  1.00  0.00     0.054 A 
BRANCH  72  73
ATOM     73  S   UNL A   1      42.494  24.281  26.075  1.00  0.00     0.124 S 
ATOM     74  O   UNL A   1      42.730  25.079  24.878  1.00  0.00    -0.237 OA
ATOM     75  O   UNL A   1      43.606  24.202  27.018  1.00  0.00    -0.237 OA
ATOM     76  O   UNL A   1      41.770  23.029  25.865  1.00  0.00    -0.744 OA
ENDBRANCH  72  73
ENDBRANCH  53  67
BRANCH  54  77
ATOM     77  C   UNL A   1      43.555  34.472  29.558  1.00  0.00    -0.014 A 
ATOM     78  C   UNL A   1      43.508  34.546  28.148  1.00  0.00     0.010 A 
ATOM     79  C   UNL A   1      44.247  35.504  30.225  1.00  0.00     0.010 A 
ATOM     80  C   UNL A   1      44.056  35.646  27.451  1.00  0.00     0.020 A 
ATOM     81  C   UNL A   1      44.798  36.596  29.541  1.00  0.00     0.020 A 
ATOM     82  C   UNL A   1      44.673  36.682  28.158  1.00  0.00     0.054 A 
BRANCH  82  83
ATOM     83  S   UNL A   1      45.177  38.209  27.302  1.00  0.00     0.124 S 
ATOM     84  O   UNL A   1      43.927  38.656  26.695  1.00  0.00    -0.237 OA
ATOM     85  O   UNL A   1      45.686  39.033  28.393  1.00  0.00    -0.237 OA
ATOM     86  O   UNL A   1      46.192  37.747  26.354  1.00  0.00    -0.744 OA
ENDBRANCH  82  83
ENDBRANCH  54  77
BRANCH  66  87
ATOM     87  C   UNL A   1      41.494  30.492  33.953  1.00  0.00    -0.014 A 
ATOM     88  C   UNL A   1      42.385  30.199  35.009  1.00  0.00     0.010 A 
ATOM     89  C   UNL A   1      40.609  31.570  34.108  1.00  0.00     0.010 A 
ATOM     90  C   UNL A   1      42.360  30.951  36.197  1.00  0.00     0.020 A 
ATOM     91  C   UNL A   1      40.593  32.333  35.276  1.00  0.00     0.020 A 
ATOM     92  C   UNL A   1      41.457  32.012  36.321  1.00  0.00     0.054 A 
BRANCH  92  93
ATOM     93  S   UNL A   1      41.428  32.993  37.847  1.00  0.00     0.124 S 
ATOM     94  O   UNL A   1      41.712  31.993  38.872  1.00  0.00    -0.237 OA
ATOM     95  O   UNL A   1      42.484  33.978  37.620  1.00  0.00    -0.237 OA
ATOM     96  O   UNL A   1      40.074  33.546  37.880  1.00  0.00    -0.744 OA
ENDBRANCH  92  93
ENDBRANCH  66  87
ENDBRANCH  40  41
ENDBRANCH  32  35
ENDBRANCH  30  31
ENDBRANCH  29  30
ENDBRANCH   1  29
TORSDOF 17
ENDMDL
MODEL 3
REMARK VINA RESULT:     -12.1      3.335      8.560
REMARK SMILES Cc1cc(NC(=O)[C@H]2[C@@H](C(=O)NCCCCNC(=O)c3ccc(-c4c5nc(c(-c6ccc(S(=O)(=O)[O-])cc6)c6ccc([nH]6)c(-c6ccc(S(=O)(=O)[O-])cc6)c6nc(c(-c7ccc(S(=O)(=O)[O-])cc7)c7ccc4[nH]7)C=C6)C=C5)cc3)C2(C)C)n(-c2ccc(F)cc2)n1
REMARK SMILES IDX 14 1 13 2 12 3 10 4 11 5 9 7 8 8 80 9 81 10 82 11 6 12 5 13
REMARK SMILES IDX 7 15 4 16 1 17 2 18 3 19 91 20 83 21 84 22 85 23 90 24 86 25
REMARK SMILES IDX 89 26 87 27 88 28 15 29 16 30 17 31 18 32 19 34 20 35 21 36
REMARK SMILES IDX 79 37 22 38 78 39 23 40 24 41 25 42 72 43 26 44 77 45 71 46
REMARK SMILES IDX 73 47 27 48 76 49 70 50 69 51 28 53 58 54 39 55 57 56 40 57
REMARK SMILES IDX 43 58 56 59 74 60 41 61 42 62 55 64 75 65 44 66 29 67 30 68
REMARK SMILES IDX 38 69 31 70 37 71 32 72 33 73 34 74 35 75 36 76 59 77 60 78
REMARK SMILES IDX 68 79 61 80 67 81 62 82 63 83 64 84 65 85 66 86 45 87 46 88
REMARK SMILES IDX 54 89 47 90 53 91 48 92 49 93 50 94 51 95 52 96
REMARK H PARENT 12 6 5 14 17 33 73 52 43 63
REMARK Flexibility Score: inf
ROOT
ATOM      1  C   UNL A   1      38.424  22.095  25.757  1.00  0.00     0.023 C 
ENDROOT
BRANCH   1   2
ATOM      2  C   UNL A   1      37.402  22.619  24.728  1.00  0.00     0.116 C 
BRANCH   2   3
ATOM      3  N   UNL A   1      36.425  23.638  25.086  1.00  0.00    -0.356 N 
ATOM      4  C   UNL A   1      35.031  23.719  25.086  1.00  0.00     0.224 C 
ATOM      5  O   UNL A   1      34.566  24.789  25.474  1.00  0.00    -0.275 OA
ATOM      6  H   UNL A   1      36.849  24.469  25.405  1.00  0.00     0.163 HD
BRANCH   4   7
ATOM      7  C   UNL A   1      33.992  22.670  24.589  1.00  0.00     0.098 C 
ATOM      8  C   UNL A   1      32.592  22.833  24.850  1.00  0.00     0.098 C 
ATOM      9  C   UNL A   1      33.366  21.318  25.526  1.00  0.00    -0.011 C 
ATOM     10  C   UNL A   1      34.736  21.548  26.651  1.00  0.00     0.013 C 
ATOM     11  C   UNL A   1      32.446  19.371  25.249  1.00  0.00     0.013 C 
BRANCH   8  12
ATOM     12  C   UNL A   1      31.802  23.889  25.502  1.00  0.00     0.230 C 
ATOM     13  N   UNL A   1      31.404  25.153  24.956  1.00  0.00    -0.310 N 
ATOM     14  H   UNL A   1      31.242  25.862  25.619  1.00  0.00     0.171 HD
ATOM     15  O   UNL A   1      31.528  23.786  26.688  1.00  0.00    -0.274 OA
BRANCH  13  16
ATOM     16  C   UNL A   1      31.212  25.527  23.634  1.00  0.00     0.136 A 
ATOM     17  C   UNL A   1      32.700  25.718  20.297  1.00  0.00     0.069 C 
ATOM     18  C   UNL A   1      31.873  25.752  21.532  1.00  0.00     0.062 A 
ATOM     19  C   UNL A   1      31.898  24.866  22.631  1.00  0.00     0.072 A 
ATOM     20  N   UNL A   1      31.064  26.789  21.759  1.00  0.00    -0.171 NA
ATOM     21  N   UNL A   1      30.609  26.611  23.021  1.00  0.00    -0.217 N 
BRANCH  21  22
ATOM     22  C   UNL A   1      29.880  27.638  23.636  1.00  0.00     0.067 A 
ATOM     23  C   UNL A   1      28.103  27.484  23.451  1.00  0.00     0.031 A 
ATOM     24  C   UNL A   1      30.645  29.249  23.895  1.00  0.00     0.031 A 
ATOM     25  C   UNL A   1      27.078  29.000  23.311  1.00  0.00     0.041 A 
ATOM     26  C   UNL A   1      29.622  30.746  23.770  1.00  0.00     0.041 A 
ATOM     27  C   UNL A   1      27.859  30.609  23.395  1.00  0.00     0.123 A 
ATOM     28  F   UNL A   1      27.110  31.717  23.357  1.00  0.00    -0.207 F 
ENDBRANCH  21  22
ENDBRANCH  13  16
ENDBRANCH   8  12
ENDBRANCH   4   7
ENDBRANCH   2   3
ENDBRANCH   1   2
BRANCH   1  29
ATOM     29  C   UNL A   1      39.281  23.069  26.542  1.00  0.00     0.023 C 
BRANCH  29  30
ATOM     30  C   UNL A   1      40.478  22.426  27.210  1.00  0.00     0.116 C 
BRANCH  30  31
ATOM     31  N   UNL A   1      41.571  22.104  26.279  1.00  0.00    -0.352 N 
ATOM     32  C   UNL A   1      42.376  23.011  25.602  1.00  0.00     0.251 C 
ATOM     33  H   UNL A   1      41.749  21.149  26.121  1.00  0.00     0.163 HD
ATOM     34  O   UNL A   1      43.010  22.683  24.608  1.00  0.00    -0.269 OA
BRANCH  32  35
ATOM     35  C   UNL A   1      42.482  24.364  26.169  1.00  0.00     0.039 A 
ATOM     36  C   UNL A   1      41.753  25.464  25.705  1.00  0.00     0.014 A 
ATOM     37  C   UNL A   1      43.273  24.451  27.308  1.00  0.00     0.014 A 
ATOM     38  C   UNL A   1      41.777  26.640  26.455  1.00  0.00     0.010 A 
ATOM     39  C   UNL A   1      43.095  25.504  28.152  1.00  0.00     0.010 A 
ATOM     40  C   UNL A   1      42.443  26.640  27.690  1.00  0.00    -0.014 A 
BRANCH  40  41
ATOM     41  C   UNL A   1      42.369  27.733  28.651  1.00  0.00     0.031 A 
ATOM     42  C   UNL A   1      43.489  28.705  28.515  1.00  0.00     0.074 A 
ATOM     43  C   UNL A   1      41.209  27.964  29.318  1.00  0.00     0.049 A 
ATOM     44  N   UNL A   1      44.415  28.953  29.379  1.00  0.00    -0.248 NA
ATOM     45  C   UNL A   1      43.740  29.329  27.197  1.00  0.00     0.031 C 
ATOM     46  C   UNL A   1      39.963  27.180  29.257  1.00  0.00     0.029 A 
ATOM     47  N   UNL A   1      40.824  29.023  30.077  1.00  0.00    -0.354 N 
ATOM     48  C   UNL A   1      45.181  29.973  28.823  1.00  0.00     0.074 A 
ATOM     49  C   UNL A   1      44.893  29.967  27.415  1.00  0.00     0.031 C 
ATOM     50  C   UNL A   1      38.928  27.923  29.709  1.00  0.00     0.029 A 
ATOM     51  C   UNL A   1      39.443  29.179  30.222  1.00  0.00     0.049 A 
ATOM     52  H   UNL A   1      41.472  29.636  30.493  1.00  0.00     0.167 HD
ATOM     53  C   UNL A   1      45.720  30.950  29.607  1.00  0.00     0.031 A 
ATOM     54  C   UNL A   1      38.771  30.273  30.685  1.00  0.00     0.031 A 
ATOM     55  C   UNL A   1      45.648  30.591  31.002  1.00  0.00     0.049 A 
ATOM     56  C   UNL A   1      39.766  31.094  31.424  1.00  0.00     0.074 A 
ATOM     57  C   UNL A   1      46.112  29.526  31.749  1.00  0.00     0.029 A 
ATOM     58  N   UNL A   1      44.628  31.160  31.730  1.00  0.00    -0.354 N 
ATOM     59  N   UNL A   1      40.339  30.679  32.520  1.00  0.00    -0.248 NA
ATOM     60  C   UNL A   1      40.514  32.087  30.666  1.00  0.00     0.031 C 
ATOM     61  C   UNL A   1      45.041  29.212  32.634  1.00  0.00     0.029 A 
ATOM     62  C   UNL A   1      44.038  30.173  32.476  1.00  0.00     0.049 A 
ATOM     63  H   UNL A   1      44.368  32.110  31.718  1.00  0.00     0.167 HD
ATOM     64  C   UNL A   1      41.682  30.981  32.347  1.00  0.00     0.074 A 
ATOM     65  C   UNL A   1      41.720  31.916  31.218  1.00  0.00     0.031 C 
ATOM     66  C   UNL A   1      42.657  30.201  32.905  1.00  0.00     0.031 A 
BRANCH  53  67
ATOM     67  C   UNL A   1      45.883  32.389  29.174  1.00  0.00    -0.014 A 
ATOM     68  C   UNL A   1      44.765  33.244  29.257  1.00  0.00     0.010 A 
ATOM     69  C   UNL A   1      46.989  32.856  28.434  1.00  0.00     0.010 A 
ATOM     70  C   UNL A   1      44.730  34.465  28.575  1.00  0.00     0.020 A 
ATOM     71  C   UNL A   1      46.981  34.091  27.784  1.00  0.00     0.020 A 
ATOM     72  C   UNL A   1      45.837  34.875  27.833  1.00  0.00     0.054 A 
BRANCH  72  73
ATOM     73  S   UNL A   1      45.750  36.415  26.889  1.00  0.00     0.124 S 
ATOM     74  O   UNL A   1      46.629  36.126  25.762  1.00  0.00    -0.237 OA
ATOM     75  O   UNL A   1      44.325  36.503  26.581  1.00  0.00    -0.237 OA
ATOM     76  O   UNL A   1      46.242  37.419  27.830  1.00  0.00    -0.744 OA
ENDBRANCH  72  73
ENDBRANCH  53  67
BRANCH  54  77
ATOM     77  C   UNL A   1      37.456  30.817  30.224  1.00  0.00    -0.014 A 
ATOM     78  C   UNL A   1      36.487  31.307  31.128  1.00  0.00     0.010 A 
ATOM     79  C   UNL A   1      37.267  31.125  28.861  1.00  0.00     0.010 A 
ATOM     80  C   UNL A   1      35.428  32.136  30.692  1.00  0.00     0.020 A 
ATOM     81  C   UNL A   1      36.217  31.942  28.420  1.00  0.00     0.020 A 
ATOM     82  C   UNL A   1      35.319  32.473  29.340  1.00  0.00     0.054 A 
BRANCH  82  83
ATOM     83  S   UNL A   1      34.106  33.719  28.796  1.00  0.00     0.124 S 
ATOM     84  O   UNL A   1      33.544  34.183  30.061  1.00  0.00    -0.237 OA
ATOM     85  O   UNL A   1      34.935  34.680  28.077  1.00  0.00    -0.237 OA
ATOM     86  O   UNL A   1      33.184  32.952  27.957  1.00  0.00    -0.744 OA
ENDBRANCH  82  83
ENDBRANCH  54  77
BRANCH  66  87
ATOM     87  C   UNL A   1      42.254  29.140  33.907  1.00  0.00    -0.014 A 
ATOM     88  C   UNL A   1      41.763  27.861  33.566  1.00  0.00     0.010 A 
ATOM     89  C   UNL A   1      42.558  29.399  35.253  1.00  0.00     0.010 A 
ATOM     90  C   UNL A   1      41.553  26.885  34.556  1.00  0.00     0.020 A 
ATOM     91  C   UNL A   1      42.370  28.429  36.238  1.00  0.00     0.020 A 
ATOM     92  C   UNL A   1      41.855  27.181  35.889  1.00  0.00     0.054 A 
BRANCH  92  93
ATOM     93  S   UNL A   1      41.597  25.923  37.170  1.00  0.00     0.124 S 
ATOM     94  O   UNL A   1      41.777  24.677  36.431  1.00  0.00    -0.237 OA
ATOM     95  O   UNL A   1      42.642  26.232  38.144  1.00  0.00    -0.237 OA
ATOM     96  O   UNL A   1      40.234  26.175  37.637  1.00  0.00    -0.744 OA
ENDBRANCH  92  93
ENDBRANCH  66  87
ENDBRANCH  40  41
ENDBRANCH  32  35
ENDBRANCH  30  31
ENDBRANCH  29  30
ENDBRANCH   1  29
TORSDOF 17
ENDMDL
