MODEL 1
REMARK VINA RESULT:     -12.0      0.000      0.000
REMARK SMILES CC[C@@H](C)c1ccccc1NC(=O)[C@@H]1[C@@H](C(=O)NCCCCNC(=O)c2ccc(-c3c4nc(c(-c5ccc(S(=O)(=O)[O-])cc5)c5ccc([nH]5)c(-c5ccc(S(=O)(=O)[O-])cc5)c5nc(c(-c6ccc(S(=O)(=O)[O-])cc6)c6ccc3[nH]6)C=C5)C=C4)cc2)[C@@H]2C=C[C@H]1C2
REMARK SMILES IDX 20 1 19 2 18 3 16 4 17 5 15 7 14 8 89 9 86 10 88 11 90 12
REMARK SMILES IDX 87 13 12 14 11 15 13 17 10 18 5 19 6 20 7 21 9 22 8 23 3 24
REMARK SMILES IDX 4 25 2 26 1 27 21 28 22 29 23 30 24 31 25 33 26 34 27 35
REMARK SMILES IDX 85 36 28 37 84 38 29 39 30 40 31 41 78 42 32 43 83 44 77 45
REMARK SMILES IDX 79 46 33 47 82 48 76 49 75 50 34 52 64 53 45 54 63 55 46 56
REMARK SMILES IDX 49 57 62 58 80 59 47 60 48 61 61 63 81 64 50 65 35 66 36 67
REMARK SMILES IDX 44 68 37 69 43 70 38 71 39 72 40 73 41 74 42 75 65 76 66 77
REMARK SMILES IDX 74 78 67 79 73 80 68 81 69 82 70 83 71 84 72 85 51 86 52 87
REMARK SMILES IDX 60 88 53 89 59 90 54 91 55 92 56 93 57 94 58 95
REMARK H PARENT 18 6 11 16 23 32 79 51 49 62
REMARK Flexibility Score: inf
ROOT
ATOM      1  C   UNL A   1      40.799  21.663  27.764  1.00  0.00     0.023 C 
ENDROOT
BRANCH   1   2
ATOM      2  C   UNL A   1      39.871  22.107  26.642  1.00  0.00     0.116 C 
BRANCH   2   3
ATOM      3  N   UNL A   1      39.250  21.063  25.858  1.00  0.00    -0.356 N 
ATOM      4  C   UNL A   1      37.976  20.977  25.368  1.00  0.00     0.224 C 
ATOM      5  O   UNL A   1      37.719  19.971  24.696  1.00  0.00    -0.275 OA
ATOM      6  H   UNL A   1      39.833  20.299  25.645  1.00  0.00     0.163 HD
BRANCH   4   7
ATOM      7  C   UNL A   1      36.866  22.010  25.675  1.00  0.00     0.098 C 
ATOM      8  C   UNL A   1      35.492  21.520  25.012  1.00  0.00     0.099 C 
ATOM      9  C   UNL A   1      35.167  22.711  24.059  1.00  0.00     0.025 C 
ATOM     10  C   UNL A   1      37.020  23.412  25.035  1.00  0.00     0.025 C 
ATOM     11  C   UNL A   1      34.794  23.903  24.909  1.00  0.00    -0.027 C 
ATOM     12  C   UNL A   1      36.552  23.145  23.609  1.00  0.00     0.017 C 
ATOM     13  C   UNL A   1      35.910  24.307  25.519  1.00  0.00    -0.027 C 
BRANCH   8  14
ATOM     14  C   UNL A   1      34.316  21.253  25.981  1.00  0.00     0.228 C 
ATOM     15  N   UNL A   1      33.093  20.857  25.449  1.00  0.00    -0.326 N 
ATOM     16  H   UNL A   1      32.317  20.867  26.055  1.00  0.00     0.169 HD
ATOM     17  O   UNL A   1      34.401  21.453  27.193  1.00  0.00    -0.274 OA
BRANCH  15  18
ATOM     18  C   UNL A   1      32.863  20.445  24.122  1.00  0.00     0.044 A 
ATOM     19  C   UNL A   1      32.921  19.088  23.738  1.00  0.00    -0.022 A 
ATOM     20  C   UNL A   1      32.324  18.745  22.505  1.00  0.00     0.006 A 
ATOM     21  C   UNL A   1      31.778  19.712  21.656  1.00  0.00     0.000 A 
ATOM     22  C   UNL A   1      32.427  21.418  23.208  1.00  0.00     0.026 A 
ATOM     23  C   UNL A   1      31.875  21.055  21.985  1.00  0.00     0.002 A 
BRANCH  19  24
ATOM     24  C   UNL A   1      33.556  17.977  24.577  1.00  0.00     0.018 C 
ATOM     25  C   UNL A   1      34.329  17.036  23.637  1.00  0.00     0.013 C 
BRANCH  24  26
ATOM     26  C   UNL A   1      32.527  17.186  25.421  1.00  0.00     0.005 C 
ATOM     27  C   UNL A   1      32.961  15.760  25.744  1.00  0.00     0.004 C 
ENDBRANCH  24  26
ENDBRANCH  19  24
ENDBRANCH  15  18
ENDBRANCH   8  14
ENDBRANCH   4   7
ENDBRANCH   2   3
ENDBRANCH   1   2
BRANCH   1  28
ATOM     28  C   UNL A   1      42.219  22.227  27.741  1.00  0.00     0.023 C 
BRANCH  28  29
ATOM     29  C   UNL A   1      42.363  23.749  27.756  1.00  0.00     0.116 C 
BRANCH  29  30
ATOM     30  N   UNL A   1      42.103  24.389  26.472  1.00  0.00    -0.352 N 
ATOM     31  C   UNL A   1      41.567  25.621  26.176  1.00  0.00     0.251 C 
ATOM     32  H   UNL A   1      42.354  23.850  25.687  1.00  0.00     0.163 HD
ATOM     33  O   UNL A   1      41.367  25.928  25.002  1.00  0.00    -0.269 OA
BRANCH  31  34
ATOM     34  C   UNL A   1      41.185  26.560  27.254  1.00  0.00     0.039 A 
ATOM     35  C   UNL A   1      40.207  26.170  28.175  1.00  0.00     0.014 A 
ATOM     36  C   UNL A   1      41.789  27.812  27.374  1.00  0.00     0.014 A 
ATOM     37  C   UNL A   1      39.918  26.987  29.272  1.00  0.00     0.010 A 
ATOM     38  C   UNL A   1      41.563  28.585  28.511  1.00  0.00     0.010 A 
ATOM     39  C   UNL A   1      40.635  28.176  29.481  1.00  0.00    -0.014 A 
BRANCH  39  40
ATOM     40  C   UNL A   1      40.457  28.986  30.718  1.00  0.00     0.031 A 
ATOM     41  C   UNL A   1      39.408  30.064  30.778  1.00  0.00     0.074 A 
ATOM     42  C   UNL A   1      41.294  28.804  31.761  1.00  0.00     0.049 A 
ATOM     43  N   UNL A   1      39.164  30.924  31.733  1.00  0.00    -0.248 NA
ATOM     44  C   UNL A   1      38.538  30.214  29.600  1.00  0.00     0.031 C 
ATOM     45  C   UNL A   1      42.383  27.826  31.817  1.00  0.00     0.029 A 
ATOM     46  N   UNL A   1      41.367  29.446  32.973  1.00  0.00    -0.354 N 
ATOM     47  C   UNL A   1      38.129  31.727  31.267  1.00  0.00     0.074 A 
ATOM     48  C   UNL A   1      37.824  31.282  29.923  1.00  0.00     0.031 C 
ATOM     49  C   UNL A   1      42.995  27.913  33.009  1.00  0.00     0.029 A 
ATOM     50  C   UNL A   1      42.376  28.981  33.786  1.00  0.00     0.049 A 
ATOM     51  H   UNL A   1      40.755  30.170  33.237  1.00  0.00     0.167 HD
ATOM     52  C   UNL A   1      37.477  32.730  31.903  1.00  0.00     0.031 A 
ATOM     53  C   UNL A   1      42.766  29.373  35.015  1.00  0.00     0.031 A 
ATOM     54  C   UNL A   1      37.768  33.161  33.244  1.00  0.00     0.049 A 
ATOM     55  C   UNL A   1      42.029  30.492  35.699  1.00  0.00     0.074 A 
ATOM     56  C   UNL A   1      37.125  34.130  33.994  1.00  0.00     0.029 A 
ATOM     57  N   UNL A   1      38.784  32.651  34.037  1.00  0.00    -0.354 N 
ATOM     58  N   UNL A   1      41.011  31.196  35.262  1.00  0.00    -0.248 NA
ATOM     59  C   UNL A   1      42.484  30.861  37.047  1.00  0.00     0.031 C 
ATOM     60  C   UNL A   1      37.782  34.239  35.224  1.00  0.00     0.029 A 
ATOM     61  C   UNL A   1      38.798  33.298  35.261  1.00  0.00     0.049 A 
ATOM     62  H   UNL A   1      39.404  31.934  33.771  1.00  0.00     0.167 HD
ATOM     63  C   UNL A   1      40.688  32.071  36.293  1.00  0.00     0.074 A 
ATOM     64  C   UNL A   1      41.607  31.799  37.379  1.00  0.00     0.031 C 
ATOM     65  C   UNL A   1      39.716  33.015  36.336  1.00  0.00     0.031 A 
BRANCH  52  66
ATOM     66  C   UNL A   1      36.376  33.431  31.150  1.00  0.00    -0.014 A 
ATOM     67  C   UNL A   1      35.128  33.676  31.753  1.00  0.00     0.010 A 
ATOM     68  C   UNL A   1      36.606  33.893  29.841  1.00  0.00     0.010 A 
ATOM     69  C   UNL A   1      34.117  34.331  31.046  1.00  0.00     0.020 A 
ATOM     70  C   UNL A   1      35.606  34.575  29.141  1.00  0.00     0.020 A 
ATOM     71  C   UNL A   1      34.362  34.774  29.743  1.00  0.00     0.054 A 
BRANCH  71  72
ATOM     72  S   UNL A   1      33.038  35.642  28.858  1.00  0.00     0.124 S 
ATOM     73  O   UNL A   1      32.505  34.585  28.002  1.00  0.00    -0.237 OA
ATOM     74  O   UNL A   1      32.158  36.075  29.942  1.00  0.00    -0.237 OA
ATOM     75  O   UNL A   1      33.734  36.717  28.158  1.00  0.00    -0.744 OA
ENDBRANCH  71  72
ENDBRANCH  52  66
BRANCH  53  76
ATOM     76  C   UNL A   1      43.907  28.692  35.689  1.00  0.00    -0.014 A 
ATOM     77  C   UNL A   1      43.681  27.597  36.541  1.00  0.00     0.010 A 
ATOM     78  C   UNL A   1      45.226  29.135  35.481  1.00  0.00     0.010 A 
ATOM     79  C   UNL A   1      44.748  26.972  37.191  1.00  0.00     0.020 A 
ATOM     80  C   UNL A   1      46.299  28.492  36.107  1.00  0.00     0.020 A 
ATOM     81  C   UNL A   1      46.052  27.423  36.969  1.00  0.00     0.054 A 
BRANCH  81  82
ATOM     82  S   UNL A   1      47.427  26.568  37.788  1.00  0.00     0.124 S 
ATOM     83  O   UNL A   1      48.037  27.645  38.561  1.00  0.00    -0.237 OA
ATOM     84  O   UNL A   1      46.740  25.540  38.567  1.00  0.00    -0.237 OA
ATOM     85  O   UNL A   1      48.226  26.063  36.675  1.00  0.00    -0.744 OA
ENDBRANCH  81  82
ENDBRANCH  53  76
BRANCH  65  86
ATOM     86  C   UNL A   1      39.566  33.800  37.611  1.00  0.00    -0.014 A 
ATOM     87  C   UNL A   1      38.774  33.324  38.672  1.00  0.00     0.010 A 
ATOM     88  C   UNL A   1      40.274  35.005  37.770  1.00  0.00     0.010 A 
ATOM     89  C   UNL A   1      38.672  34.057  39.859  1.00  0.00     0.020 A 
ATOM     90  C   UNL A   1      40.196  35.725  38.965  1.00  0.00     0.020 A 
ATOM     91  C   UNL A   1      39.383  35.253  39.998  1.00  0.00     0.054 A 
BRANCH  91  92
ATOM     92  S   UNL A   1      39.271  36.160  41.564  1.00  0.00     0.124 S 
ATOM     93  O   UNL A   1      40.474  35.713  42.261  1.00  0.00    -0.237 OA
ATOM     94  O   UNL A   1      39.279  37.555  41.128  1.00  0.00    -0.237 OA
ATOM     95  O   UNL A   1      38.009  35.702  42.140  1.00  0.00    -0.744 OA
ENDBRANCH  91  92
ENDBRANCH  65  86
ENDBRANCH  39  40
ENDBRANCH  31  34
ENDBRANCH  29  30
ENDBRANCH  28  29
ENDBRANCH   1  28
TORSDOF 18
ENDMDL
MODEL 2
REMARK VINA RESULT:     -11.9      6.100      9.082
REMARK SMILES CC[C@@H](C)c1ccccc1NC(=O)[C@@H]1[C@@H](C(=O)NCCCCNC(=O)c2ccc(-c3c4nc(c(-c5ccc(S(=O)(=O)[O-])cc5)c5ccc([nH]5)c(-c5ccc(S(=O)(=O)[O-])cc5)c5nc(c(-c6ccc(S(=O)(=O)[O-])cc6)c6ccc3[nH]6)C=C5)C=C4)cc2)[C@@H]2C=C[C@H]1C2
REMARK SMILES IDX 20 1 19 2 18 3 16 4 17 5 15 7 14 8 89 9 86 10 88 11 90 12
REMARK SMILES IDX 87 13 12 14 11 15 13 17 10 18 5 19 6 20 7 21 9 22 8 23 3 24
REMARK SMILES IDX 4 25 2 26 1 27 21 28 22 29 23 30 24 31 25 33 26 34 27 35
REMARK SMILES IDX 85 36 28 37 84 38 29 39 30 40 31 41 78 42 32 43 83 44 77 45
REMARK SMILES IDX 79 46 33 47 82 48 76 49 75 50 34 52 64 53 45 54 63 55 46 56
REMARK SMILES IDX 49 57 62 58 80 59 47 60 48 61 61 63 81 64 50 65 35 66 36 67
REMARK SMILES IDX 44 68 37 69 43 70 38 71 39 72 40 73 41 74 42 75 65 76 66 77
REMARK SMILES IDX 74 78 67 79 73 80 68 81 69 82 70 83 71 84 72 85 51 86 52 87
REMARK SMILES IDX 60 88 53 89 59 90 54 91 55 92 56 93 57 94 58 95
REMARK H PARENT 18 6 11 16 23 32 79 51 49 62
REMARK Flexibility Score: inf
ROOT
ATOM      1  C   UNL A   1      37.305  20.679  25.001  1.00  0.00     0.023 C 
ENDROOT
BRANCH   1   2
ATOM      2  C   UNL A   1      37.278  22.138  25.437  1.00  0.00     0.116 C 
BRANCH   2   3
ATOM      3  N   UNL A   1      36.278  22.508  26.413  1.00  0.00    -0.356 N 
ATOM      4  C   UNL A   1      34.940  22.741  26.250  1.00  0.00     0.224 C 
ATOM      5  O   UNL A   1      34.307  23.018  27.276  1.00  0.00    -0.275 OA
ATOM      6  H   UNL A   1      36.611  22.609  27.334  1.00  0.00     0.163 HD
BRANCH   4   7
ATOM      7  C   UNL A   1      34.229  22.746  24.876  1.00  0.00     0.098 C 
ATOM      8  C   UNL A   1      33.400  24.106  24.715  1.00  0.00     0.099 C 
ATOM      9  C   UNL A   1      31.951  23.563  24.517  1.00  0.00     0.025 C 
ATOM     10  C   UNL A   1      33.114  21.691  24.662  1.00  0.00     0.025 C 
ATOM     11  C   UNL A   1      31.883  22.896  23.164  1.00  0.00    -0.027 C 
ATOM     12  C   UNL A   1      31.948  22.332  25.407  1.00  0.00     0.017 C 
ATOM     13  C   UNL A   1      32.609  21.779  23.246  1.00  0.00    -0.027 C 
BRANCH   8  14
ATOM     14  C   UNL A   1      33.808  25.029  23.543  1.00  0.00     0.228 C 
ATOM     15  N   UNL A   1      33.410  26.362  23.575  1.00  0.00    -0.326 N 
ATOM     16  H   UNL A   1      33.521  26.882  22.747  1.00  0.00     0.169 HD
ATOM     17  O   UNL A   1      34.401  24.609  22.548  1.00  0.00    -0.274 OA
BRANCH  15  18
ATOM     18  C   UNL A   1      32.862  27.034  24.685  1.00  0.00     0.044 A 
ATOM     19  C   UNL A   1      31.469  27.132  24.887  1.00  0.00    -0.022 A 
ATOM     20  C   UNL A   1      31.033  27.486  26.183  1.00  0.00     0.006 A 
ATOM     21  C   UNL A   1      31.934  27.812  27.201  1.00  0.00     0.000 A 
ATOM     22  C   UNL A   1      33.751  27.484  25.674  1.00  0.00     0.026 A 
ATOM     23  C   UNL A   1      33.293  27.859  26.931  1.00  0.00     0.002 A 
BRANCH  19  24
ATOM     24  C   UNL A   1      30.416  26.856  23.812  1.00  0.00     0.018 C 
ATOM     25  C   UNL A   1      30.024  28.191  23.156  1.00  0.00     0.013 C 
BRANCH  24  26
ATOM     26  C   UNL A   1      29.164  26.124  24.357  1.00  0.00     0.005 C 
ATOM     27  C   UNL A   1      27.845  26.707  23.862  1.00  0.00     0.004 C 
ENDBRANCH  24  26
ENDBRANCH  19  24
ENDBRANCH  15  18
ENDBRANCH   8  14
ENDBRANCH   4   7
ENDBRANCH   2   3
ENDBRANCH   1   2
BRANCH   1  28
ATOM     28  C   UNL A   1      38.678  20.012  24.932  1.00  0.00     0.023 C 
BRANCH  28  29
ATOM     29  C   UNL A   1      39.470  19.915  26.236  1.00  0.00     0.116 C 
BRANCH  29  30
ATOM     30  N   UNL A   1      40.722  19.176  26.123  1.00  0.00    -0.352 N 
ATOM     31  C   UNL A   1      42.027  19.603  26.211  1.00  0.00     0.251 C 
ATOM     32  H   UNL A   1      40.616  18.211  25.957  1.00  0.00     0.163 HD
ATOM     33  O   UNL A   1      42.940  18.806  26.006  1.00  0.00    -0.269 OA
BRANCH  31  34
ATOM     34  C   UNL A   1      42.343  21.019  26.503  1.00  0.00     0.039 A 
ATOM     35  C   UNL A   1      42.573  21.401  27.828  1.00  0.00     0.014 A 
ATOM     36  C   UNL A   1      42.427  21.969  25.483  1.00  0.00     0.014 A 
ATOM     37  C   UNL A   1      42.992  22.704  28.115  1.00  0.00     0.010 A 
ATOM     38  C   UNL A   1      42.926  23.240  25.760  1.00  0.00     0.010 A 
ATOM     39  C   UNL A   1      43.228  23.619  27.076  1.00  0.00    -0.014 A 
BRANCH  39  40
ATOM     40  C   UNL A   1      43.820  24.960  27.340  1.00  0.00     0.031 A 
ATOM     41  C   UNL A   1      42.950  26.101  27.795  1.00  0.00     0.074 A 
ATOM     42  C   UNL A   1      45.130  25.172  27.091  1.00  0.00     0.049 A 
ATOM     43  N   UNL A   1      43.271  27.355  27.990  1.00  0.00    -0.248 NA
ATOM     44  C   UNL A   1      41.529  25.801  28.036  1.00  0.00     0.031 C 
ATOM     45  C   UNL A   1      46.076  24.165  26.603  1.00  0.00     0.029 A 
ATOM     46  N   UNL A   1      45.890  26.310  27.204  1.00  0.00    -0.354 N 
ATOM     47  C   UNL A   1      42.092  27.995  28.357  1.00  0.00     0.074 A 
ATOM     48  C   UNL A   1      41.040  27.002  28.309  1.00  0.00     0.031 C 
ATOM     49  C   UNL A   1      47.292  24.722  26.486  1.00  0.00     0.029 A 
ATOM     50  C   UNL A   1      47.208  26.134  26.846  1.00  0.00     0.049 A 
ATOM     51  H   UNL A   1      45.529  27.171  27.513  1.00  0.00     0.167 HD
ATOM     52  C   UNL A   1      41.903  29.287  28.720  1.00  0.00     0.031 A 
ATOM     53  C   UNL A   1      48.232  27.008  26.802  1.00  0.00     0.031 A 
ATOM     54  C   UNL A   1      42.951  30.270  28.784  1.00  0.00     0.049 A 
ATOM     55  C   UNL A   1      47.996  28.438  27.206  1.00  0.00     0.074 A 
ATOM     56  C   UNL A   1      42.867  31.590  29.194  1.00  0.00     0.029 A 
ATOM     57  N   UNL A   1      44.272  30.045  28.430  1.00  0.00    -0.354 N 
ATOM     58  N   UNL A   1      46.885  29.007  27.609  1.00  0.00    -0.248 NA
ATOM     59  C   UNL A   1      49.155  29.341  27.159  1.00  0.00     0.031 C 
ATOM     60  C   UNL A   1      44.129  32.175  29.044  1.00  0.00     0.029 A 
ATOM     61  C   UNL A   1      45.010  31.205  28.595  1.00  0.00     0.049 A 
ATOM     62  H   UNL A   1      44.633  29.187  28.110  1.00  0.00     0.167 HD
ATOM     63  C   UNL A   1      47.218  30.327  27.892  1.00  0.00     0.074 A 
ATOM     64  C   UNL A   1      48.635  30.468  27.628  1.00  0.00     0.031 C 
ATOM     65  C   UNL A   1      46.421  31.332  28.332  1.00  0.00     0.031 A 
BRANCH  52  66
ATOM     66  C   UNL A   1      40.503  29.710  29.080  1.00  0.00    -0.014 A 
ATOM     67  C   UNL A   1      39.498  29.803  28.098  1.00  0.00     0.010 A 
ATOM     68  C   UNL A   1      40.173  29.975  30.422  1.00  0.00     0.010 A 
ATOM     69  C   UNL A   1      38.203  30.193  28.445  1.00  0.00     0.020 A 
ATOM     70  C   UNL A   1      38.870  30.337  30.777  1.00  0.00     0.020 A 
ATOM     71  C   UNL A   1      37.898  30.460  29.783  1.00  0.00     0.054 A 
BRANCH  71  72
ATOM     72  S   UNL A   1      36.202  30.942  30.207  1.00  0.00     0.124 S 
ATOM     73  O   UNL A   1      35.481  30.615  28.979  1.00  0.00    -0.237 OA
ATOM     74  O   UNL A   1      35.904  30.089  31.356  1.00  0.00    -0.237 OA
ATOM     75  O   UNL A   1      36.309  32.367  30.504  1.00  0.00    -0.744 OA
ENDBRANCH  71  72
ENDBRANCH  52  66
BRANCH  53  76
ATOM     76  C   UNL A   1      49.584  26.555  26.371  1.00  0.00    -0.014 A 
ATOM     77  C   UNL A   1      49.979  26.667  25.027  1.00  0.00     0.010 A 
ATOM     78  C   UNL A   1      50.485  26.009  27.305  1.00  0.00     0.010 A 
ATOM     79  C   UNL A   1      51.239  26.221  24.618  1.00  0.00     0.020 A 
ATOM     80  C   UNL A   1      51.757  25.589  26.904  1.00  0.00     0.020 A 
ATOM     81  C   UNL A   1      52.121  25.685  25.561  1.00  0.00     0.054 A 
BRANCH  81  82
ATOM     82  S   UNL A   1      53.769  25.154  25.015  1.00  0.00     0.124 S 
ATOM     83  O   UNL A   1      53.952  25.935  23.797  1.00  0.00    -0.237 OA
ATOM     84  O   UNL A   1      54.614  25.534  26.145  1.00  0.00    -0.237 OA
ATOM     85  O   UNL A   1      53.614  23.714  24.821  1.00  0.00    -0.744 OA
ENDBRANCH  81  82
ENDBRANCH  53  76
BRANCH  65  86
ATOM     86  C   UNL A   1      47.067  32.665  28.596  1.00  0.00    -0.014 A 
ATOM     87  C   UNL A   1      47.050  33.688  27.632  1.00  0.00     0.010 A 
ATOM     88  C   UNL A   1      47.650  32.916  29.852  1.00  0.00     0.010 A 
ATOM     89  C   UNL A   1      47.631  34.930  27.910  1.00  0.00     0.020 A 
ATOM     90  C   UNL A   1      48.207  34.164  30.143  1.00  0.00     0.020 A 
ATOM     91  C   UNL A   1      48.206  35.159  29.163  1.00  0.00     0.054 A 
BRANCH  91  92
ATOM     92  S   UNL A   1      48.912  36.792  29.516  1.00  0.00     0.124 S 
ATOM     93  O   UNL A   1      47.791  37.679  29.213  1.00  0.00    -0.237 OA
ATOM     94  O   UNL A   1      49.269  36.690  30.929  1.00  0.00    -0.237 OA
ATOM     95  O   UNL A   1      50.046  36.885  28.599  1.00  0.00    -0.744 OA
ENDBRANCH  91  92
ENDBRANCH  65  86
ENDBRANCH  39  40
ENDBRANCH  31  34
ENDBRANCH  29  30
ENDBRANCH  28  29
ENDBRANCH   1  28
TORSDOF 18
ENDMDL
MODEL 3
REMARK VINA RESULT:     -11.9      6.423     11.415
REMARK SMILES CC[C@@H](C)c1ccccc1NC(=O)[C@@H]1[C@@H](C(=O)NCCCCNC(=O)c2ccc(-c3c4nc(c(-c5ccc(S(=O)(=O)[O-])cc5)c5ccc([nH]5)c(-c5ccc(S(=O)(=O)[O-])cc5)c5nc(c(-c6ccc(S(=O)(=O)[O-])cc6)c6ccc3[nH]6)C=C5)C=C4)cc2)[C@@H]2C=C[C@H]1C2
REMARK SMILES IDX 20 1 19 2 18 3 16 4 17 5 15 7 14 8 89 9 86 10 88 11 90 12
REMARK SMILES IDX 87 13 12 14 11 15 13 17 10 18 5 19 6 20 7 21 9 22 8 23 3 24
REMARK SMILES IDX 4 25 2 26 1 27 21 28 22 29 23 30 24 31 25 33 26 34 27 35
REMARK SMILES IDX 85 36 28 37 84 38 29 39 30 40 31 41 78 42 32 43 83 44 77 45
REMARK SMILES IDX 79 46 33 47 82 48 76 49 75 50 34 52 64 53 45 54 63 55 46 56
REMARK SMILES IDX 49 57 62 58 80 59 47 60 48 61 61 63 81 64 50 65 35 66 36 67
REMARK SMILES IDX 44 68 37 69 43 70 38 71 39 72 40 73 41 74 42 75 65 76 66 77
REMARK SMILES IDX 74 78 67 79 73 80 68 81 69 82 70 83 71 84 72 85 51 86 52 87
REMARK SMILES IDX 60 88 53 89 59 90 54 91 55 92 56 93 57 94 58 95
REMARK H PARENT 18 6 11 16 23 32 79 51 49 62
REMARK Flexibility Score: inf
ROOT
ATOM      1  C   UNL A   1      32.722  29.945  26.845  1.00  0.00     0.023 C 
ENDROOT
BRANCH   1   2
ATOM      2  C   UNL A   1      31.566  29.007  26.528  1.00  0.00     0.116 C 
BRANCH   2   3
ATOM      3  N   UNL A   1      31.673  27.650  27.017  1.00  0.00    -0.356 N 
ATOM      4  C   UNL A   1      31.775  26.476  26.323  1.00  0.00     0.224 C 
ATOM      5  O   UNL A   1      31.883  25.450  27.005  1.00  0.00    -0.275 OA
ATOM      6  H   UNL A   1      31.672  27.559  27.997  1.00  0.00     0.163 HD
BRANCH   4   7
ATOM      7  C   UNL A   1      31.686  26.377  24.782  1.00  0.00     0.098 C 
ATOM      8  C   UNL A   1      32.700  25.251  24.265  1.00  0.00     0.099 C 
ATOM      9  C   UNL A   1      33.622  26.077  23.317  1.00  0.00     0.025 C 
ATOM     10  C   UNL A   1      32.171  27.607  23.974  1.00  0.00     0.025 C 
ATOM     11  C   UNL A   1      32.813  26.468  22.103  1.00  0.00    -0.027 C 
ATOM     12  C   UNL A   1      33.684  27.421  24.024  1.00  0.00     0.017 C 
ATOM     13  C   UNL A   1      31.919  27.372  22.508  1.00  0.00    -0.027 C 
BRANCH   8  14
ATOM     14  C   UNL A   1      32.075  24.050  23.518  1.00  0.00     0.228 C 
ATOM     15  N   UNL A   1      32.881  22.952  23.232  1.00  0.00    -0.326 N 
ATOM     16  H   UNL A   1      32.520  22.283  22.606  1.00  0.00     0.169 HD
ATOM     17  O   UNL A   1      30.917  24.063  23.099  1.00  0.00    -0.274 OA
BRANCH  15  18
ATOM     18  C   UNL A   1      34.166  22.711  23.756  1.00  0.00     0.044 A 
ATOM     19  C   UNL A   1      34.378  21.844  24.849  1.00  0.00    -0.022 A 
ATOM     20  C   UNL A   1      35.698  21.386  25.056  1.00  0.00     0.006 A 
ATOM     21  C   UNL A   1      36.766  21.836  24.274  1.00  0.00     0.000 A 
ATOM     22  C   UNL A   1      35.260  23.250  23.061  1.00  0.00     0.026 A 
ATOM     23  C   UNL A   1      36.554  22.807  23.309  1.00  0.00     0.002 A 
BRANCH  19  24
ATOM     24  C   UNL A   1      33.278  21.353  25.792  1.00  0.00     0.018 C 
ATOM     25  C   UNL A   1      33.688  21.686  27.237  1.00  0.00     0.013 C 
BRANCH  24  26
ATOM     26  C   UNL A   1      32.973  19.842  25.642  1.00  0.00     0.005 C 
ATOM     27  C   UNL A   1      32.650  19.417  24.214  1.00  0.00     0.004 C 
ENDBRANCH  24  26
ENDBRANCH  19  24
ENDBRANCH  15  18
ENDBRANCH   8  14
ENDBRANCH   4   7
ENDBRANCH   2   3
ENDBRANCH   1   2
BRANCH   1  28
ATOM     28  C   UNL A   1      34.040  29.289  27.255  1.00  0.00     0.023 C 
BRANCH  28  29
ATOM     29  C   UNL A   1      35.205  30.220  27.591  1.00  0.00     0.116 C 
BRANCH  29  30
ATOM     30  N   UNL A   1      35.258  30.633  28.988  1.00  0.00    -0.352 N 
ATOM     31  C   UNL A   1      36.253  30.490  29.929  1.00  0.00     0.251 C 
ATOM     32  H   UNL A   1      34.449  31.091  29.312  1.00  0.00     0.163 HD
ATOM     33  O   UNL A   1      36.048  30.853  31.086  1.00  0.00    -0.269 OA
BRANCH  31  34
ATOM     34  C   UNL A   1      37.545  29.862  29.575  1.00  0.00     0.039 A 
ATOM     35  C   UNL A   1      37.939  29.836  28.234  1.00  0.00     0.014 A 
ATOM     36  C   UNL A   1      38.376  29.313  30.553  1.00  0.00     0.014 A 
ATOM     37  C   UNL A   1      39.208  29.360  27.889  1.00  0.00     0.010 A 
ATOM     38  C   UNL A   1      39.671  28.918  30.220  1.00  0.00     0.010 A 
ATOM     39  C   UNL A   1      40.108  28.950  28.887  1.00  0.00    -0.014 A 
BRANCH  39  40
ATOM     40  C   UNL A   1      41.514  28.585  28.564  1.00  0.00     0.031 A 
ATOM     41  C   UNL A   1      42.590  29.637  28.544  1.00  0.00     0.074 A 
ATOM     42  C   UNL A   1      41.810  27.317  28.209  1.00  0.00     0.049 A 
ATOM     43  N   UNL A   1      43.849  29.523  28.203  1.00  0.00    -0.248 NA
ATOM     44  C   UNL A   1      42.195  31.002  28.932  1.00  0.00     0.031 C 
ATOM     45  C   UNL A   1      40.853  26.208  28.141  1.00  0.00     0.029 A 
ATOM     46  N   UNL A   1      42.999  26.747  27.825  1.00  0.00    -0.354 N 
ATOM     47  C   UNL A   1      44.389  30.800  28.316  1.00  0.00     0.074 A 
ATOM     48  C   UNL A   1      43.311  31.681  28.710  1.00  0.00     0.031 C 
ATOM     49  C   UNL A   1      41.498  25.091  27.769  1.00  0.00     0.029 A 
ATOM     50  C   UNL A   1      42.901  25.407  27.527  1.00  0.00     0.049 A 
ATOM     51  H   UNL A   1      43.844  27.249  27.770  1.00  0.00     0.167 HD
ATOM     52  C   UNL A   1      45.670  31.201  28.129  1.00  0.00     0.031 A 
ATOM     53  C   UNL A   1      43.832  24.531  27.099  1.00  0.00     0.031 A 
ATOM     54  C   UNL A   1      46.746  30.322  27.755  1.00  0.00     0.049 A 
ATOM     55  C   UNL A   1      45.246  25.001  26.895  1.00  0.00     0.074 A 
ATOM     56  C   UNL A   1      48.087  30.625  27.595  1.00  0.00     0.029 A 
ATOM     57  N   UNL A   1      46.606  28.970  27.481  1.00  0.00    -0.354 N 
ATOM     58  N   UNL A   1      45.748  26.200  27.068  1.00  0.00    -0.248 NA
ATOM     59  C   UNL A   1      46.222  23.996  26.449  1.00  0.00     0.031 C 
ATOM     60  C   UNL A   1      48.751  29.466  27.180  1.00  0.00     0.029 A 
ATOM     61  C   UNL A   1      47.833  28.429  27.136  1.00  0.00     0.049 A 
ATOM     62  H   UNL A   1      45.761  28.469  27.525  1.00  0.00     0.167 HD
ATOM     63  C   UNL A   1      47.103  26.087  26.779  1.00  0.00     0.074 A 
ATOM     64  C   UNL A   1      47.345  24.701  26.436  1.00  0.00     0.031 C 
ATOM     65  C   UNL A   1      48.062  27.046  26.799  1.00  0.00     0.031 A 
BRANCH  52  66
ATOM     66  C   UNL A   1      45.978  32.661  28.331  1.00  0.00    -0.014 A 
ATOM     67  C   UNL A   1      46.386  33.149  29.586  1.00  0.00     0.010 A 
ATOM     68  C   UNL A   1      45.905  33.550  27.242  1.00  0.00     0.010 A 
ATOM     69  C   UNL A   1      46.672  34.506  29.760  1.00  0.00     0.020 A 
ATOM     70  C   UNL A   1      46.220  34.903  27.405  1.00  0.00     0.020 A 
ATOM     71  C   UNL A   1      46.585  35.375  28.668  1.00  0.00     0.054 A 
BRANCH  71  72
ATOM     72  S   UNL A   1      46.986  37.125  28.918  1.00  0.00     0.124 S 
ATOM     73  O   UNL A   1      48.314  37.047  29.520  1.00  0.00    -0.237 OA
ATOM     74  O   UNL A   1      46.944  37.661  27.559  1.00  0.00    -0.237 OA
ATOM     75  O   UNL A   1      45.928  37.601  29.805  1.00  0.00    -0.744 OA
ENDBRANCH  71  72
ENDBRANCH  52  66
BRANCH  53  76
ATOM     76  C   UNL A   1      43.460  23.110  26.847  1.00  0.00    -0.014 A 
ATOM     77  C   UNL A   1      42.967  22.307  27.890  1.00  0.00     0.010 A 
ATOM     78  C   UNL A   1      43.596  22.554  25.562  1.00  0.00     0.010 A 
ATOM     79  C   UNL A   1      42.639  20.968  27.659  1.00  0.00     0.020 A 
ATOM     80  C   UNL A   1      43.241  21.223  25.321  1.00  0.00     0.020 A 
ATOM     81  C   UNL A   1      42.777  20.435  26.375  1.00  0.00     0.054 A 
BRANCH  81  82
ATOM     82  S   UNL A   1      42.303  18.706  26.088  1.00  0.00     0.124 S 
ATOM     83  O   UNL A   1      42.574  18.098  27.387  1.00  0.00    -0.237 OA
ATOM     84  O   UNL A   1      40.893  18.821  25.724  1.00  0.00    -0.237 OA
ATOM     85  O   UNL A   1      43.185  18.287  25.002  1.00  0.00    -0.744 OA
ENDBRANCH  81  82
ENDBRANCH  53  76
BRANCH  65  86
ATOM     86  C   UNL A   1      49.471  26.626  26.478  1.00  0.00    -0.014 A 
ATOM     87  C   UNL A   1      50.286  26.007  27.442  1.00  0.00     0.010 A 
ATOM     88  C   UNL A   1      49.965  26.803  25.172  1.00  0.00     0.010 A 
ATOM     89  C   UNL A   1      51.583  25.600  27.113  1.00  0.00     0.020 A 
ATOM     90  C   UNL A   1      51.250  26.372  24.833  1.00  0.00     0.020 A 
ATOM     91  C   UNL A   1      52.057  25.785  25.810  1.00  0.00     0.054 A 
BRANCH  91  92
ATOM     92  S   UNL A   1      53.725  25.206  25.396  1.00  0.00     0.124 S 
ATOM     93  O   UNL A   1      54.532  25.837  26.436  1.00  0.00    -0.237 OA
ATOM     94  O   UNL A   1      53.595  23.754  25.496  1.00  0.00    -0.237 OA
ATOM     95  O   UNL A   1      53.942  25.713  24.044  1.00  0.00    -0.744 OA
ENDBRANCH  91  92
ENDBRANCH  65  86
ENDBRANCH  39  40
ENDBRANCH  31  34
ENDBRANCH  29  30
ENDBRANCH  28  29
ENDBRANCH   1  28
TORSDOF 18
ENDMDL
