MODEL 1
REMARK VINA RESULT:     -12.7      0.000      0.000
REMARK SMILES Cc1ccc(NC(=O)C[C@H]2SC[C@H](C(=O)NCCCCNC(=O)c3ccc(-c4c5nc(c(-c6ccc(S(=O)(=O)[O-])cc6)c6ccc([nH]6)c(-c6ccc(S(=O)(=O)[O-])cc6)c6nc(c(-c7ccc(S(=O)(=O)[O-])cc7)c7ccc4[nH]7)C=C6)C=C5)cc3)NC2=O)cc1
REMARK SMILES IDX 18 1 17 2 16 3 14 4 15 5 13 7 10 8 11 9 85 10 12 11 84 12
REMARK SMILES IDX 86 13 9 15 7 16 6 17 8 19 5 20 1 21 2 22 3 23 88 24 4 25
REMARK SMILES IDX 87 26 19 27 20 28 21 29 22 30 23 32 24 33 25 34 83 35 26 36
REMARK SMILES IDX 82 37 27 38 28 39 29 40 76 41 30 42 81 43 75 44 77 45 31 46
REMARK SMILES IDX 80 47 74 48 73 49 32 51 62 52 43 53 61 54 44 55 47 56 60 57
REMARK SMILES IDX 78 58 45 59 46 60 59 62 79 63 48 64 33 65 34 66 42 67 35 68
REMARK SMILES IDX 41 69 36 70 37 71 38 72 39 73 40 74 63 75 64 76 72 77 65 78
REMARK SMILES IDX 71 79 66 80 67 81 68 82 69 83 70 84 49 85 50 86 58 87 51 88
REMARK SMILES IDX 57 89 52 90 53 91 54 92 55 93 56 94
REMARK H PARENT 16 6 84 14 6 18 21 31 77 50 47 61
REMARK Flexibility Score: inf
ROOT
ATOM      1  C   UNL A   1      32.469  30.107  26.614  1.00  0.00     0.023 C 
ENDROOT
BRANCH   1   2
ATOM      2  C   UNL A   1      32.778  29.956  25.119  1.00  0.00     0.116 C 
BRANCH   2   3
ATOM      3  N   UNL A   1      31.601  29.628  24.335  1.00  0.00    -0.354 N 
ATOM      4  C   UNL A   1      31.294  28.525  23.600  1.00  0.00     0.243 C 
ATOM      5  O   UNL A   1      30.216  28.532  22.994  1.00  0.00    -0.273 OA
ATOM      6  H   UNL A   1      30.905  30.323  24.333  1.00  0.00     0.163 HD
BRANCH   4   7
ATOM      7  C   UNL A   1      32.208  27.286  23.523  1.00  0.00     0.181 C 
ATOM      8  C   UNL A   1      32.799  24.333  23.159  1.00  0.00     0.145 C 
ATOM      9  S   UNL A   1      33.451  25.118  24.705  1.00  0.00    -0.145 SA
ATOM     10  C   UNL A   1      32.748  25.382  22.037  1.00  0.00     0.234 C 
ATOM     11  C   UNL A   1      32.230  26.474  24.813  1.00  0.00     0.105 C 
ATOM     12  N   UNL A   1      32.004  26.517  22.296  1.00  0.00    -0.343 N 
ATOM     13  O   UNL A   1      33.259  25.254  20.929  1.00  0.00    -0.274 OA
ATOM     14  H   UNL A   1      31.327  26.812  21.645  1.00  0.00     0.164 HD
BRANCH   8  15
ATOM     15  C   UNL A   1      33.516  22.994  22.909  1.00  0.00     0.124 C 
BRANCH  15  16
ATOM     16  C   UNL A   1      32.889  21.671  23.339  1.00  0.00     0.226 C 
ATOM     17  N   UNL A   1      33.491  20.798  24.202  1.00  0.00    -0.326 N 
ATOM     18  H   UNL A   1      33.041  19.930  24.322  1.00  0.00     0.169 HD
ATOM     19  O   UNL A   1      31.792  21.341  22.870  1.00  0.00    -0.275 OA
BRANCH  17  20
ATOM     20  C   UNL A   1      34.665  20.985  24.932  1.00  0.00     0.041 A 
ATOM     21  C   UNL A   1      38.397  22.670  25.954  1.00  0.00     0.044 C 
ATOM     22  C   UNL A   1      37.087  21.996  25.752  1.00  0.00    -0.051 A 
ATOM     23  C   UNL A   1      37.046  20.774  25.080  1.00  0.00     0.005 A 
ATOM     24  C   UNL A   1      35.910  22.584  26.216  1.00  0.00     0.005 A 
ATOM     25  C   UNL A   1      35.824  20.260  24.675  1.00  0.00     0.026 A 
ATOM     26  C   UNL A   1      34.686  22.062  25.821  1.00  0.00     0.026 A 
ENDBRANCH  17  20
ENDBRANCH  15  16
ENDBRANCH   8  15
ENDBRANCH   4   7
ENDBRANCH   2   3
ENDBRANCH   1   2
BRANCH   1  27
ATOM     27  C   UNL A   1      33.527  29.577  27.583  1.00  0.00     0.023 C 
BRANCH  27  28
ATOM     28  C   UNL A   1      34.957  29.619  27.057  1.00  0.00     0.116 C 
BRANCH  28  29
ATOM     29  N   UNL A   1      35.769  30.744  27.526  1.00  0.00    -0.352 N 
ATOM     30  C   UNL A   1      36.983  30.717  28.200  1.00  0.00     0.251 C 
ATOM     31  H   UNL A   1      35.405  31.639  27.337  1.00  0.00     0.163 HD
ATOM     32  O   UNL A   1      37.481  31.705  28.735  1.00  0.00    -0.269 OA
BRANCH  30  33
ATOM     33  C   UNL A   1      37.777  29.478  28.130  1.00  0.00     0.039 A 
ATOM     34  C   UNL A   1      37.812  28.683  29.285  1.00  0.00     0.014 A 
ATOM     35  C   UNL A   1      38.729  29.348  27.130  1.00  0.00     0.014 A 
ATOM     36  C   UNL A   1      38.957  27.959  29.556  1.00  0.00     0.010 A 
ATOM     37  C   UNL A   1      39.931  28.800  27.478  1.00  0.00     0.010 A 
ATOM     38  C   UNL A   1      40.042  28.149  28.705  1.00  0.00    -0.014 A 
BRANCH  38  39
ATOM     39  C   UNL A   1      41.351  27.610  28.968  1.00  0.00     0.031 A 
ATOM     40  C   UNL A   1      41.523  26.205  28.581  1.00  0.00     0.074 A 
ATOM     41  C   UNL A   1      42.292  28.421  29.491  1.00  0.00     0.049 A 
ATOM     42  N   UNL A   1      42.236  25.347  29.213  1.00  0.00    -0.248 NA
ATOM     43  C   UNL A   1      40.755  25.617  27.479  1.00  0.00     0.031 C 
ATOM     44  C   UNL A   1      43.699  28.134  29.718  1.00  0.00     0.029 A 
ATOM     45  N   UNL A   1      42.074  29.623  30.172  1.00  0.00    -0.354 N 
ATOM     46  C   UNL A   1      42.328  24.252  28.380  1.00  0.00     0.074 A 
ATOM     47  C   UNL A   1      41.240  24.377  27.448  1.00  0.00     0.031 C 
ATOM     48  C   UNL A   1      44.112  28.891  30.753  1.00  0.00     0.029 A 
ATOM     49  C   UNL A   1      42.935  29.587  31.268  1.00  0.00     0.049 A 
ATOM     50  H   UNL A   1      41.448  30.342  29.928  1.00  0.00     0.167 HD
ATOM     51  C   UNL A   1      43.467  23.509  28.396  1.00  0.00     0.031 A 
ATOM     52  C   UNL A   1      42.508  29.583  32.563  1.00  0.00     0.031 A 
ATOM     53  C   UNL A   1      44.379  24.029  29.416  1.00  0.00     0.049 A 
ATOM     54  C   UNL A   1      42.999  28.316  33.217  1.00  0.00     0.074 A 
ATOM     55  C   UNL A   1      45.476  24.870  29.333  1.00  0.00     0.029 A 
ATOM     56  N   UNL A   1      43.961  24.056  30.745  1.00  0.00    -0.354 N 
ATOM     57  N   UNL A   1      43.162  27.189  32.565  1.00  0.00    -0.248 NA
ATOM     58  C   UNL A   1      43.501  28.261  34.583  1.00  0.00     0.031 C 
ATOM     59  C   UNL A   1      45.652  25.480  30.607  1.00  0.00     0.029 A 
ATOM     60  C   UNL A   1      44.670  25.002  31.462  1.00  0.00     0.049 A 
ATOM     61  H   UNL A   1      43.259  23.479  31.122  1.00  0.00     0.167 HD
ATOM     62  C   UNL A   1      43.905  26.335  33.337  1.00  0.00     0.074 A 
ATOM     63  C   UNL A   1      44.048  27.032  34.608  1.00  0.00     0.031 C 
ATOM     64  C   UNL A   1      44.442  25.159  32.893  1.00  0.00     0.031 A 
BRANCH  51  65
ATOM     65  C   UNL A   1      43.871  22.597  27.257  1.00  0.00    -0.014 A 
ATOM     66  C   UNL A   1      43.026  21.530  26.892  1.00  0.00     0.010 A 
ATOM     67  C   UNL A   1      45.073  22.709  26.528  1.00  0.00     0.010 A 
ATOM     68  C   UNL A   1      43.382  20.603  25.899  1.00  0.00     0.020 A 
ATOM     69  C   UNL A   1      45.461  21.769  25.561  1.00  0.00     0.020 A 
ATOM     70  C   UNL A   1      44.605  20.723  25.245  1.00  0.00     0.054 A 
BRANCH  70  71
ATOM     71  S   UNL A   1      45.036  19.536  23.946  1.00  0.00     0.124 S 
ATOM     72  O   UNL A   1      44.269  18.354  24.331  1.00  0.00    -0.237 OA
ATOM     73  O   UNL A   1      44.580  20.220  22.739  1.00  0.00    -0.237 OA
ATOM     74  O   UNL A   1      46.486  19.397  24.069  1.00  0.00    -0.744 OA
ENDBRANCH  70  71
ENDBRANCH  51  65
BRANCH  52  75
ATOM     75  C   UNL A   1      41.291  30.401  32.873  1.00  0.00    -0.014 A 
ATOM     76  C   UNL A   1      40.076  29.703  33.043  1.00  0.00     0.010 A 
ATOM     77  C   UNL A   1      41.386  31.685  33.438  1.00  0.00     0.010 A 
ATOM     78  C   UNL A   1      39.084  30.169  33.918  1.00  0.00     0.020 A 
ATOM     79  C   UNL A   1      40.390  32.161  34.319  1.00  0.00     0.020 A 
ATOM     80  C   UNL A   1      39.273  31.370  34.597  1.00  0.00     0.054 A 
BRANCH  80  81
ATOM     81  S   UNL A   1      38.145  31.752  35.976  1.00  0.00     0.124 S 
ATOM     82  O   UNL A   1      37.900  30.437  36.556  1.00  0.00    -0.237 OA
ATOM     83  O   UNL A   1      38.951  32.658  36.792  1.00  0.00    -0.237 OA
ATOM     84  O   UNL A   1      37.005  32.389  35.329  1.00  0.00    -0.744 OA
ENDBRANCH  80  81
ENDBRANCH  52  75
BRANCH  64  85
ATOM     85  C   UNL A   1      44.899  24.028  33.783  1.00  0.00    -0.014 A 
ATOM     86  C   UNL A   1      44.060  22.992  34.213  1.00  0.00     0.010 A 
ATOM     87  C   UNL A   1      46.285  23.886  34.053  1.00  0.00     0.010 A 
ATOM     88  C   UNL A   1      44.566  21.895  34.916  1.00  0.00     0.020 A 
ATOM     89  C   UNL A   1      46.809  22.765  34.691  1.00  0.00     0.020 A 
ATOM     90  C   UNL A   1      45.938  21.784  35.142  1.00  0.00     0.054 A 
BRANCH  90  91
ATOM     91  S   UNL A   1      46.580  20.311  35.963  1.00  0.00     0.124 S 
ATOM     92  O   UNL A   1      46.441  19.304  34.914  1.00  0.00    -0.237 OA
ATOM     93  O   UNL A   1      47.952  20.695  36.287  1.00  0.00    -0.237 OA
ATOM     94  O   UNL A   1      45.698  20.146  37.115  1.00  0.00    -0.744 OA
ENDBRANCH  90  91
ENDBRANCH  64  85
ENDBRANCH  38  39
ENDBRANCH  30  33
ENDBRANCH  28  29
ENDBRANCH  27  28
ENDBRANCH   1  27
TORSDOF 17
ENDMDL
MODEL 2
REMARK VINA RESULT:     -12.7      1.643      2.105
REMARK SMILES Cc1ccc(NC(=O)C[C@H]2SC[C@H](C(=O)NCCCCNC(=O)c3ccc(-c4c5nc(c(-c6ccc(S(=O)(=O)[O-])cc6)c6ccc([nH]6)c(-c6ccc(S(=O)(=O)[O-])cc6)c6nc(c(-c7ccc(S(=O)(=O)[O-])cc7)c7ccc4[nH]7)C=C6)C=C5)cc3)NC2=O)cc1
REMARK SMILES IDX 18 1 17 2 16 3 14 4 15 5 13 7 10 8 11 9 85 10 12 11 84 12
REMARK SMILES IDX 86 13 9 15 7 16 6 17 8 19 5 20 1 21 2 22 3 23 88 24 4 25
REMARK SMILES IDX 87 26 19 27 20 28 21 29 22 30 23 32 24 33 25 34 83 35 26 36
REMARK SMILES IDX 82 37 27 38 28 39 29 40 76 41 30 42 81 43 75 44 77 45 31 46
REMARK SMILES IDX 80 47 74 48 73 49 32 51 62 52 43 53 61 54 44 55 47 56 60 57
REMARK SMILES IDX 78 58 45 59 46 60 59 62 79 63 48 64 33 65 34 66 42 67 35 68
REMARK SMILES IDX 41 69 36 70 37 71 38 72 39 73 40 74 63 75 64 76 72 77 65 78
REMARK SMILES IDX 71 79 66 80 67 81 68 82 69 83 70 84 49 85 50 86 58 87 51 88
REMARK SMILES IDX 57 89 52 90 53 91 54 92 55 93 56 94
REMARK H PARENT 16 6 84 14 6 18 21 31 77 50 47 61
REMARK Flexibility Score: inf
ROOT
ATOM      1  C   UNL A   1      32.507  29.802  26.222  1.00  0.00     0.023 C 
ENDROOT
BRANCH   1   2
ATOM      2  C   UNL A   1      32.955  29.139  24.913  1.00  0.00     0.116 C 
BRANCH   2   3
ATOM      3  N   UNL A   1      32.136  29.532  23.779  1.00  0.00    -0.354 N 
ATOM      4  C   UNL A   1      31.267  28.819  23.014  1.00  0.00     0.243 C 
ATOM      5  O   UNL A   1      30.726  29.412  22.073  1.00  0.00    -0.273 OA
ATOM      6  H   UNL A   1      32.227  30.476  23.518  1.00  0.00     0.163 HD
BRANCH   4   7
ATOM      7  C   UNL A   1      30.920  27.342  23.290  1.00  0.00     0.181 C 
ATOM      8  C   UNL A   1      31.156  24.699  24.759  1.00  0.00     0.145 C 
ATOM      9  S   UNL A   1      31.372  24.640  22.920  1.00  0.00    -0.145 SA
ATOM     10  C   UNL A   1      30.199  25.845  25.123  1.00  0.00     0.234 C 
ATOM     11  C   UNL A   1      31.929  26.366  22.694  1.00  0.00     0.105 C 
ATOM     12  N   UNL A   1      30.561  27.105  24.688  1.00  0.00    -0.343 N 
ATOM     13  O   UNL A   1      29.190  25.729  25.813  1.00  0.00    -0.274 OA
ATOM     14  H   UNL A   1      30.577  27.853  25.326  1.00  0.00     0.164 HD
BRANCH   8  15
ATOM     15  C   UNL A   1      30.879  23.284  25.299  1.00  0.00     0.124 C 
BRANCH  15  16
ATOM     16  C   UNL A   1      31.245  22.900  26.730  1.00  0.00     0.226 C 
ATOM     17  N   UNL A   1      32.451  22.360  27.081  1.00  0.00    -0.326 N 
ATOM     18  H   UNL A   1      32.533  22.055  28.013  1.00  0.00     0.169 HD
ATOM     19  O   UNL A   1      30.408  23.053  27.629  1.00  0.00    -0.275 OA
BRANCH  17  20
ATOM     20  C   UNL A   1      33.579  22.187  26.278  1.00  0.00     0.041 A 
ATOM     21  C   UNL A   1      37.252  20.537  25.013  1.00  0.00     0.044 C 
ATOM     22  C   UNL A   1      35.953  21.200  25.302  1.00  0.00    -0.051 A 
ATOM     23  C   UNL A   1      35.945  22.416  25.985  1.00  0.00     0.005 A 
ATOM     24  C   UNL A   1      34.753  20.608  24.905  1.00  0.00     0.005 A 
ATOM     25  C   UNL A   1      34.747  22.918  26.469  1.00  0.00     0.026 A 
ATOM     26  C   UNL A   1      33.552  21.118  25.380  1.00  0.00     0.026 A 
ENDBRANCH  17  20
ENDBRANCH  15  16
ENDBRANCH   8  15
ENDBRANCH   4   7
ENDBRANCH   2   3
ENDBRANCH   1   2
BRANCH   1  27
ATOM     27  C   UNL A   1      33.440  29.631  27.423  1.00  0.00     0.023 C 
BRANCH  27  28
ATOM     28  C   UNL A   1      34.920  29.533  27.077  1.00  0.00     0.116 C 
BRANCH  28  29
ATOM     29  N   UNL A   1      35.738  30.681  27.475  1.00  0.00    -0.352 N 
ATOM     30  C   UNL A   1      36.980  30.688  28.096  1.00  0.00     0.251 C 
ATOM     31  H   UNL A   1      35.357  31.565  27.275  1.00  0.00     0.163 HD
ATOM     32  O   UNL A   1      37.490  31.697  28.579  1.00  0.00    -0.269 OA
BRANCH  30  33
ATOM     33  C   UNL A   1      37.786  29.456  28.031  1.00  0.00     0.039 A 
ATOM     34  C   UNL A   1      37.818  28.658  29.184  1.00  0.00     0.014 A 
ATOM     35  C   UNL A   1      38.747  29.335  27.037  1.00  0.00     0.014 A 
ATOM     36  C   UNL A   1      38.966  27.943  29.462  1.00  0.00     0.010 A 
ATOM     37  C   UNL A   1      39.950  28.796  27.395  1.00  0.00     0.010 A 
ATOM     38  C   UNL A   1      40.057  28.144  28.621  1.00  0.00    -0.014 A 
BRANCH  38  39
ATOM     39  C   UNL A   1      41.367  27.615  28.893  1.00  0.00     0.031 A 
ATOM     40  C   UNL A   1      41.549  26.208  28.520  1.00  0.00     0.074 A 
ATOM     41  C   UNL A   1      42.302  28.437  29.412  1.00  0.00     0.049 A 
ATOM     42  N   UNL A   1      42.265  25.360  29.162  1.00  0.00    -0.248 NA
ATOM     43  C   UNL A   1      40.789  25.605  27.421  1.00  0.00     0.031 C 
ATOM     44  C   UNL A   1      43.710  28.160  29.647  1.00  0.00     0.029 A 
ATOM     45  N   UNL A   1      42.075  29.644  30.082  1.00  0.00    -0.354 N 
ATOM     46  C   UNL A   1      42.367  24.257  28.339  1.00  0.00     0.074 A 
ATOM     47  C   UNL A   1      41.281  24.367  27.403  1.00  0.00     0.031 C 
ATOM     48  C   UNL A   1      44.115  28.929  30.676  1.00  0.00     0.029 A 
ATOM     49  C   UNL A   1      42.932  29.623  31.181  1.00  0.00     0.049 A 
ATOM     50  H   UNL A   1      41.445  30.357  29.829  1.00  0.00     0.167 HD
ATOM     51  C   UNL A   1      43.510  23.522  28.367  1.00  0.00     0.031 A 
ATOM     52  C   UNL A   1      42.501  29.628  32.474  1.00  0.00     0.031 A 
ATOM     53  C   UNL A   1      44.415  24.057  29.385  1.00  0.00     0.049 A 
ATOM     54  C   UNL A   1      42.997  28.370  33.141  1.00  0.00     0.074 A 
ATOM     55  C   UNL A   1      45.508  24.903  29.298  1.00  0.00     0.029 A 
ATOM     56  N   UNL A   1      43.993  24.093  30.712  1.00  0.00    -0.354 N 
ATOM     57  N   UNL A   1      43.168  27.238  32.500  1.00  0.00    -0.248 NA
ATOM     58  C   UNL A   1      43.494  28.331  34.510  1.00  0.00     0.031 C 
ATOM     59  C   UNL A   1      45.676  25.526  30.567  1.00  0.00     0.029 A 
ATOM     60  C   UNL A   1      44.693  25.050  31.423  1.00  0.00     0.049 A 
ATOM     61  H   UNL A   1      43.292  23.516  31.092  1.00  0.00     0.167 HD
ATOM     62  C   UNL A   1      43.914  26.396  33.283  1.00  0.00     0.074 A 
ATOM     63  C   UNL A   1      44.048  27.105  34.548  1.00  0.00     0.031 C 
ATOM     64  C   UNL A   1      44.459  25.219  32.851  1.00  0.00     0.031 A 
BRANCH  51  65
ATOM     65  C   UNL A   1      43.923  22.602  27.237  1.00  0.00    -0.014 A 
ATOM     66  C   UNL A   1      43.014  21.634  26.765  1.00  0.00     0.010 A 
ATOM     67  C   UNL A   1      45.191  22.610  26.620  1.00  0.00     0.010 A 
ATOM     68  C   UNL A   1      43.366  20.701  25.777  1.00  0.00     0.020 A 
ATOM     69  C   UNL A   1      45.571  21.660  25.659  1.00  0.00     0.020 A 
ATOM     70  C   UNL A   1      44.649  20.713  25.236  1.00  0.00     0.054 A 
BRANCH  70  71
ATOM     71  S   UNL A   1      45.076  19.521  23.941  1.00  0.00     0.124 S 
ATOM     72  O   UNL A   1      46.533  19.618  23.890  1.00  0.00    -0.237 OA
ATOM     73  O   UNL A   1      44.545  18.273  24.482  1.00  0.00    -0.237 OA
ATOM     74  O   UNL A   1      44.382  20.028  22.758  1.00  0.00    -0.744 OA
ENDBRANCH  70  71
ENDBRANCH  51  65
BRANCH  52  75
ATOM     75  C   UNL A   1      41.278  30.442  32.772  1.00  0.00    -0.014 A 
ATOM     76  C   UNL A   1      41.480  31.786  33.151  1.00  0.00     0.010 A 
ATOM     77  C   UNL A   1      40.014  30.094  32.264  1.00  0.00     0.010 A 
ATOM     78  C   UNL A   1      40.543  32.782  32.833  1.00  0.00     0.020 A 
ATOM     79  C   UNL A   1      39.066  31.091  31.943  1.00  0.00     0.020 A 
ATOM     80  C   UNL A   1      39.364  32.435  32.178  1.00  0.00     0.054 A 
BRANCH  80  81
ATOM     81  S   UNL A   1      38.359  33.780  31.470  1.00  0.00     0.124 S 
ATOM     82  O   UNL A   1      39.181  34.233  30.354  1.00  0.00    -0.237 OA
ATOM     83  O   UNL A   1      37.128  33.084  31.103  1.00  0.00    -0.237 OA
ATOM     84  O   UNL A   1      38.206  34.718  32.575  1.00  0.00    -0.744 OA
ENDBRANCH  80  81
ENDBRANCH  52  75
BRANCH  64  85
ATOM     85  C   UNL A   1      44.919  24.099  33.754  1.00  0.00    -0.014 A 
ATOM     86  C   UNL A   1      44.143  22.971  34.048  1.00  0.00     0.010 A 
ATOM     87  C   UNL A   1      46.273  24.077  34.182  1.00  0.00     0.010 A 
ATOM     88  C   UNL A   1      44.671  21.898  34.771  1.00  0.00     0.020 A 
ATOM     89  C   UNL A   1      46.828  22.983  34.842  1.00  0.00     0.020 A 
ATOM     90  C   UNL A   1      46.012  21.906  35.155  1.00  0.00     0.054 A 
BRANCH  90  91
ATOM     91  S   UNL A   1      46.696  20.466  36.000  1.00  0.00     0.124 S 
ATOM     92  O   UNL A   1      47.888  20.195  35.200  1.00  0.00    -0.237 OA
ATOM     93  O   UNL A   1      46.946  20.972  37.348  1.00  0.00    -0.237 OA
ATOM     94  O   UNL A   1      45.633  19.471  35.902  1.00  0.00    -0.744 OA
ENDBRANCH  90  91
ENDBRANCH  64  85
ENDBRANCH  38  39
ENDBRANCH  30  33
ENDBRANCH  28  29
ENDBRANCH  27  28
ENDBRANCH   1  27
TORSDOF 17
ENDMDL
MODEL 3
REMARK VINA RESULT:     -12.4      4.710     11.544
REMARK SMILES Cc1ccc(NC(=O)C[C@H]2SC[C@H](C(=O)NCCCCNC(=O)c3ccc(-c4c5nc(c(-c6ccc(S(=O)(=O)[O-])cc6)c6ccc([nH]6)c(-c6ccc(S(=O)(=O)[O-])cc6)c6nc(c(-c7ccc(S(=O)(=O)[O-])cc7)c7ccc4[nH]7)C=C6)C=C5)cc3)NC2=O)cc1
REMARK SMILES IDX 18 1 17 2 16 3 14 4 15 5 13 7 10 8 11 9 85 10 12 11 84 12
REMARK SMILES IDX 86 13 9 15 7 16 6 17 8 19 5 20 1 21 2 22 3 23 88 24 4 25
REMARK SMILES IDX 87 26 19 27 20 28 21 29 22 30 23 32 24 33 25 34 83 35 26 36
REMARK SMILES IDX 82 37 27 38 28 39 29 40 76 41 30 42 81 43 75 44 77 45 31 46
REMARK SMILES IDX 80 47 74 48 73 49 32 51 62 52 43 53 61 54 44 55 47 56 60 57
REMARK SMILES IDX 78 58 45 59 46 60 59 62 79 63 48 64 33 65 34 66 42 67 35 68
REMARK SMILES IDX 41 69 36 70 37 71 38 72 39 73 40 74 63 75 64 76 72 77 65 78
REMARK SMILES IDX 71 79 66 80 67 81 68 82 69 83 70 84 49 85 50 86 58 87 51 88
REMARK SMILES IDX 57 89 52 90 53 91 54 92 55 93 56 94
REMARK H PARENT 16 6 84 14 6 18 21 31 77 50 47 61
REMARK Flexibility Score: inf
ROOT
ATOM      1  C   UNL A   1      37.219  21.572  26.047  1.00  0.00     0.023 C 
ENDROOT
BRANCH   1   2
ATOM      2  C   UNL A   1      36.827  20.902  24.724  1.00  0.00     0.116 C 
BRANCH   2   3
ATOM      3  N   UNL A   1      35.765  19.925  24.884  1.00  0.00    -0.354 N 
ATOM      4  C   UNL A   1      34.412  20.065  24.879  1.00  0.00     0.243 C 
ATOM      5  O   UNL A   1      33.738  19.048  25.080  1.00  0.00    -0.273 OA
ATOM      6  H   UNL A   1      36.077  19.002  25.022  1.00  0.00     0.163 HD
BRANCH   4   7
ATOM      7  C   UNL A   1      33.708  21.410  24.608  1.00  0.00     0.181 C 
ATOM      8  C   UNL A   1      33.580  24.424  24.296  1.00  0.00     0.145 C 
ATOM      9  S   UNL A   1      32.385  23.670  25.493  1.00  0.00    -0.145 SA
ATOM     10  C   UNL A   1      33.880  23.419  23.173  1.00  0.00     0.234 C 
ATOM     11  C   UNL A   1      33.356  22.171  25.881  1.00  0.00     0.105 C 
ATOM     12  N   UNL A   1      34.377  22.192  23.569  1.00  0.00    -0.343 N 
ATOM     13  O   UNL A   1      33.770  23.649  21.973  1.00  0.00    -0.274 OA
ATOM     14  H   UNL A   1      35.192  21.839  23.146  1.00  0.00     0.164 HD
BRANCH   8  15
ATOM     15  C   UNL A   1      33.127  25.850  23.932  1.00  0.00     0.124 C 
BRANCH  15  16
ATOM     16  C   UNL A   1      31.676  26.147  23.564  1.00  0.00     0.226 C 
ATOM     17  N   UNL A   1      30.902  27.058  24.227  1.00  0.00    -0.326 N 
ATOM     18  H   UNL A   1      29.952  27.087  23.970  1.00  0.00     0.169 HD
ATOM     19  O   UNL A   1      31.147  25.519  22.637  1.00  0.00    -0.275 OA
BRANCH  17  20
ATOM     20  C   UNL A   1      31.294  27.951  25.226  1.00  0.00     0.041 A 
ATOM     21  C   UNL A   1      33.928  30.234  27.604  1.00  0.00     0.044 C 
ATOM     22  C   UNL A   1      32.869  29.524  26.839  1.00  0.00    -0.051 A 
ATOM     23  C   UNL A   1      32.351  28.330  27.341  1.00  0.00     0.005 A 
ATOM     24  C   UNL A   1      32.407  30.037  25.627  1.00  0.00     0.005 A 
ATOM     25  C   UNL A   1      31.549  27.541  26.531  1.00  0.00     0.026 A 
ATOM     26  C   UNL A   1      31.594  29.253  24.821  1.00  0.00     0.026 A 
ENDBRANCH  17  20
ENDBRANCH  15  16
ENDBRANCH   8  15
ENDBRANCH   4   7
ENDBRANCH   2   3
ENDBRANCH   1   2
BRANCH   1  27
ATOM     27  C   UNL A   1      36.985  23.081  26.140  1.00  0.00     0.023 C 
BRANCH  27  28
ATOM     28  C   UNL A   1      38.245  23.933  26.048  1.00  0.00     0.116 C 
BRANCH  28  29
ATOM     29  N   UNL A   1      39.290  23.620  27.025  1.00  0.00    -0.352 N 
ATOM     30  C   UNL A   1      40.030  24.492  27.814  1.00  0.00     0.251 C 
ATOM     31  H   UNL A   1      39.496  22.665  27.138  1.00  0.00     0.163 HD
ATOM     32  O   UNL A   1      41.026  24.151  28.448  1.00  0.00    -0.269 OA
BRANCH  30  33
ATOM     33  C   UNL A   1      39.496  25.850  28.020  1.00  0.00     0.039 A 
ATOM     34  C   UNL A   1      39.964  26.851  27.156  1.00  0.00     0.014 A 
ATOM     35  C   UNL A   1      38.896  26.158  29.232  1.00  0.00     0.014 A 
ATOM     36  C   UNL A   1      40.080  28.140  27.640  1.00  0.00     0.010 A 
ATOM     37  C   UNL A   1      39.186  27.375  29.781  1.00  0.00     0.010 A 
ATOM     38  C   UNL A   1      39.813  28.336  28.991  1.00  0.00    -0.014 A 
BRANCH  38  39
ATOM     39  C   UNL A   1      40.070  29.578  29.671  1.00  0.00     0.031 A 
ATOM     40  C   UNL A   1      39.018  30.590  29.516  1.00  0.00     0.074 A 
ATOM     41  C   UNL A   1      41.196  29.694  30.404  1.00  0.00     0.049 A 
ATOM     42  N   UNL A   1      39.217  31.854  29.429  1.00  0.00    -0.248 NA
ATOM     43  C   UNL A   1      37.619  30.210  29.303  1.00  0.00     0.031 C 
ATOM     44  C   UNL A   1      41.596  30.794  31.267  1.00  0.00     0.029 A 
ATOM     45  N   UNL A   1      42.347  28.909  30.296  1.00  0.00    -0.354 N 
ATOM     46  C   UNL A   1      37.973  32.436  29.558  1.00  0.00     0.074 A 
ATOM     47  C   UNL A   1      37.022  31.400  29.258  1.00  0.00     0.031 C 
ATOM     48  C   UNL A   1      42.942  30.822  31.301  1.00  0.00     0.029 A 
ATOM     49  C   UNL A   1      43.414  29.805  30.364  1.00  0.00     0.049 A 
ATOM     50  H   UNL A   1      42.395  27.931  30.195  1.00  0.00     0.167 HD
ATOM     51  C   UNL A   1      37.876  33.649  30.166  1.00  0.00     0.031 A 
ATOM     52  C   UNL A   1      44.297  30.005  29.346  1.00  0.00     0.031 A 
ATOM     53  C   UNL A   1      39.214  34.135  30.510  1.00  0.00     0.049 A 
ATOM     54  C   UNL A   1      44.218  31.453  28.932  1.00  0.00     0.074 A 
ATOM     55  C   UNL A   1      39.929  34.111  31.696  1.00  0.00     0.029 A 
ATOM     56  N   UNL A   1      40.144  34.329  29.491  1.00  0.00    -0.354 N 
ATOM     57  N   UNL A   1      43.117  32.161  29.008  1.00  0.00    -0.248 NA
ATOM     58  C   UNL A   1      45.384  32.249  28.574  1.00  0.00     0.031 C 
ATOM     59  C   UNL A   1      41.313  34.194  31.368  1.00  0.00     0.029 A 
ATOM     60  C   UNL A   1      41.433  34.278  29.989  1.00  0.00     0.049 A 
ATOM     61  H   UNL A   1      39.915  34.483  28.547  1.00  0.00     0.167 HD
ATOM     62  C   UNL A   1      43.434  33.488  28.871  1.00  0.00     0.074 A 
ATOM     63  C   UNL A   1      44.855  33.486  28.551  1.00  0.00     0.031 C 
ATOM     64  C   UNL A   1      42.568  34.519  29.108  1.00  0.00     0.031 A 
BRANCH  51  65
ATOM     65  C   UNL A   1      36.585  34.170  30.763  1.00  0.00    -0.014 A 
ATOM     66  C   UNL A   1      35.455  34.326  29.937  1.00  0.00     0.010 A 
ATOM     67  C   UNL A   1      36.423  34.553  32.110  1.00  0.00     0.010 A 
ATOM     68  C   UNL A   1      34.255  34.879  30.412  1.00  0.00     0.020 A 
ATOM     69  C   UNL A   1      35.244  35.143  32.591  1.00  0.00     0.020 A 
ATOM     70  C   UNL A   1      34.160  35.294  31.737  1.00  0.00     0.054 A 
BRANCH  70  71
ATOM     71  S   UNL A   1      32.595  35.978  32.342  1.00  0.00     0.124 S 
ATOM     72  O   UNL A   1      31.880  34.785  32.788  1.00  0.00    -0.237 OA
ATOM     73  O   UNL A   1      33.041  36.880  33.400  1.00  0.00    -0.237 OA
ATOM     74  O   UNL A   1      32.026  36.636  31.167  1.00  0.00    -0.744 OA
ENDBRANCH  70  71
ENDBRANCH  51  65
BRANCH  52  75
ATOM     75  C   UNL A   1      44.668  28.804  28.530  1.00  0.00    -0.014 A 
ATOM     76  C   UNL A   1      44.321  28.826  27.162  1.00  0.00     0.010 A 
ATOM     77  C   UNL A   1      45.696  27.929  28.924  1.00  0.00     0.010 A 
ATOM     78  C   UNL A   1      45.106  28.174  26.200  1.00  0.00     0.020 A 
ATOM     79  C   UNL A   1      46.489  27.268  27.961  1.00  0.00     0.020 A 
ATOM     80  C   UNL A   1      46.223  27.444  26.601  1.00  0.00     0.054 A 
BRANCH  80  81
ATOM     81  S   UNL A   1      47.404  26.923  25.316  1.00  0.00     0.124 S 
ATOM     82  O   UNL A   1      48.237  25.961  26.025  1.00  0.00    -0.237 OA
ATOM     83  O   UNL A   1      46.522  26.360  24.296  1.00  0.00    -0.237 OA
ATOM     84  O   UNL A   1      48.056  28.165  24.918  1.00  0.00    -0.744 OA
ENDBRANCH  80  81
ENDBRANCH  52  75
BRANCH  64  85
ATOM     85  C   UNL A   1      42.741  35.927  28.590  1.00  0.00    -0.014 A 
ATOM     86  C   UNL A   1      42.270  36.358  27.343  1.00  0.00     0.010 A 
ATOM     87  C   UNL A   1      43.233  36.925  29.471  1.00  0.00     0.010 A 
ATOM     88  C   UNL A   1      42.328  37.704  26.974  1.00  0.00     0.020 A 
ATOM     89  C   UNL A   1      43.231  38.278  29.140  1.00  0.00     0.020 A 
ATOM     90  C   UNL A   1      42.799  38.657  27.877  1.00  0.00     0.054 A 
BRANCH  90  91
ATOM     91  S   UNL A   1      42.772  40.401  27.415  1.00  0.00     0.124 S 
ATOM     92  O   UNL A   1      43.490  40.380  26.143  1.00  0.00    -0.237 OA
ATOM     93  O   UNL A   1      41.341  40.687  27.323  1.00  0.00    -0.237 OA
ATOM     94  O   UNL A   1      43.462  41.061  28.518  1.00  0.00    -0.744 OA
ENDBRANCH  90  91
ENDBRANCH  64  85
ENDBRANCH  38  39
ENDBRANCH  30  33
ENDBRANCH  28  29
ENDBRANCH  27  28
ENDBRANCH   1  27
TORSDOF 17
ENDMDL
