MODEL 1
REMARK VINA RESULT:     -10.3      0.000      0.000
REMARK SMILES C[C@@H]1C[C@@H](C)CN(S(=O)(=O)N2CC[C@H](C(=O)NCCCCNC(=O)c3ccc(-c4c5nc(c(-c6ccc(S(=O)(=O)[O-])cc6)c6ccc([nH]6)c(-c6ccc(S(=O)(=O)[O-])cc6)c6nc(c(-c7ccc(S(=O)(=O)[O-])cc7)c7ccc4[nH]7)C=C6)C=C5)cc3)[C@@H]2C)C1
REMARK SMILES IDX 20 1 19 2 18 3 17 4 15 5 16 6 14 8 11 9 12 10 85 11 13 12
REMARK SMILES IDX 86 13 8 14 9 15 10 16 7 17 1 18 2 19 3 20 87 21 4 22 6 23
REMARK SMILES IDX 5 24 21 25 22 26 23 27 24 29 25 30 26 31 84 32 27 33 83 34
REMARK SMILES IDX 28 35 29 36 30 37 77 38 31 39 82 40 76 41 78 42 32 43 81 44
REMARK SMILES IDX 75 45 74 46 33 48 63 49 44 50 62 51 45 52 48 53 61 54 79 55
REMARK SMILES IDX 46 56 47 57 60 59 80 60 49 61 34 62 35 63 43 64 36 65 42 66
REMARK SMILES IDX 37 67 38 68 39 69 40 70 41 71 64 72 65 73 73 74 66 75 72 76
REMARK SMILES IDX 67 77 68 78 69 79 70 80 71 81 50 82 51 83 59 84 52 85 58 86
REMARK SMILES IDX 53 87 54 88 55 89 56 90 57 91
REMARK H PARENT 17 7 22 28 78 47 48 58
REMARK Flexibility Score: inf
ROOT
ATOM      1  C   UNL A   1      33.389  33.951  28.366  1.00  0.00     0.023 C 
ENDROOT
BRANCH   1   2
ATOM      2  C   UNL A   1      34.012  35.339  28.225  1.00  0.00     0.023 C 
BRANCH   2   3
ATOM      3  C   UNL A   1      33.696  36.292  29.372  1.00  0.00     0.116 C 
BRANCH   3   4
ATOM      4  N   UNL A   1      32.877  35.666  30.397  1.00  0.00    -0.356 N 
ATOM      5  C   UNL A   1      33.183  35.303  31.675  1.00  0.00     0.224 C 
ATOM      6  O   UNL A   1      32.284  34.869  32.394  1.00  0.00    -0.275 OA
ATOM      7  H   UNL A   1      31.951  35.474  30.124  1.00  0.00     0.163 HD
BRANCH   5   8
ATOM      8  C   UNL A   1      34.602  35.451  32.173  1.00  0.00     0.098 C 
ATOM      9  N   UNL A   1      36.256  34.084  33.199  1.00  0.00    -0.185 NA
ATOM     10  C   UNL A   1      35.386  34.567  34.283  1.00  0.00     0.105 C 
ATOM     11  C   UNL A   1      35.514  34.233  31.926  1.00  0.00     0.083 C 
ATOM     12  C   UNL A   1      34.655  35.744  33.675  1.00  0.00     0.032 C 
ATOM     13  C   UNL A   1      34.846  32.909  31.570  1.00  0.00     0.026 C 
BRANCH   9  14
ATOM     14  S   UNL A   1      37.906  34.317  33.295  1.00  0.00     0.282 S 
ATOM     15  O   UNL A   1      38.188  35.220  34.385  1.00  0.00    -0.195 OA
ATOM     16  O   UNL A   1      38.373  34.604  31.955  1.00  0.00    -0.195 OA
BRANCH  14  17
ATOM     17  N   UNL A   1      38.526  32.774  33.735  1.00  0.00    -0.188 NA
ATOM     18  C   UNL A   1      40.920  31.308  35.213  1.00  0.00     0.009 C 
ATOM     19  C   UNL A   1      39.446  31.363  35.622  1.00  0.00     0.001 C 
ATOM     20  C   UNL A   1      38.665  30.159  35.071  1.00  0.00     0.009 C 
ATOM     21  C   UNL A   1      38.802  32.703  35.217  1.00  0.00     0.106 C 
ATOM     22  C   UNL A   1      38.417  30.313  33.572  1.00  0.00     0.001 C 
ATOM     23  C   UNL A   1      37.660  31.623  33.350  1.00  0.00     0.106 C 
ATOM     24  C   UNL A   1      37.638  29.134  32.995  1.00  0.00     0.009 C 
ENDBRANCH  14  17
ENDBRANCH   9  14
ENDBRANCH   5   8
ENDBRANCH   3   4
ENDBRANCH   2   3
ENDBRANCH   1   2
BRANCH   1  25
ATOM     25  C   UNL A   1      34.346  32.790  28.120  1.00  0.00     0.116 C 
BRANCH  25  26
ATOM     26  N   UNL A   1      33.658  31.549  27.799  1.00  0.00    -0.352 N 
ATOM     27  C   UNL A   1      34.181  30.280  27.711  1.00  0.00     0.251 C 
ATOM     28  H   UNL A   1      32.693  31.627  27.625  1.00  0.00     0.163 HD
ATOM     29  O   UNL A   1      33.493  29.360  27.282  1.00  0.00    -0.269 OA
BRANCH  27  30
ATOM     30  C   UNL A   1      35.587  30.046  28.105  1.00  0.00     0.039 A 
ATOM     31  C   UNL A   1      35.867  29.636  29.410  1.00  0.00     0.014 A 
ATOM     32  C   UNL A   1      36.621  30.198  27.177  1.00  0.00     0.014 A 
ATOM     33  C   UNL A   1      37.181  29.322  29.766  1.00  0.00     0.010 A 
ATOM     34  C   UNL A   1      37.911  29.802  27.509  1.00  0.00     0.010 A 
ATOM     35  C   UNL A   1      38.210  29.370  28.810  1.00  0.00    -0.014 A 
BRANCH  35  36
ATOM     36  C   UNL A   1      39.608  29.004  29.157  1.00  0.00     0.031 A 
ATOM     37  C   UNL A   1      40.498  30.009  29.843  1.00  0.00     0.074 A 
ATOM     38  C   UNL A   1      40.095  27.795  28.813  1.00  0.00     0.049 A 
ATOM     39  N   UNL A   1      41.759  29.905  30.173  1.00  0.00    -0.248 NA
ATOM     40  C   UNL A   1      39.897  31.311  30.182  1.00  0.00     0.031 C 
ATOM     41  C   UNL A   1      39.348  26.744  28.117  1.00  0.00     0.029 A 
ATOM     42  N   UNL A   1      41.339  27.244  29.001  1.00  0.00    -0.354 N 
ATOM     43  C   UNL A   1      42.103  31.125  30.743  1.00  0.00     0.074 A 
ATOM     44  C   UNL A   1      40.938  31.976  30.660  1.00  0.00     0.031 C 
ATOM     45  C   UNL A   1      40.138  25.667  27.967  1.00  0.00     0.029 A 
ATOM     46  C   UNL A   1      41.459  25.965  28.510  1.00  0.00     0.049 A 
ATOM     47  H   UNL A   1      42.078  27.721  29.444  1.00  0.00     0.167 HD
ATOM     48  C   UNL A   1      43.274  31.497  31.313  1.00  0.00     0.031 A 
ATOM     49  C   UNL A   1      42.515  25.126  28.494  1.00  0.00     0.031 A 
ATOM     50  C   UNL A   1      44.429  30.645  31.407  1.00  0.00     0.049 A 
ATOM     51  C   UNL A   1      43.816  25.578  29.105  1.00  0.00     0.074 A 
ATOM     52  C   UNL A   1      45.650  30.916  32.000  1.00  0.00     0.029 A 
ATOM     53  N   UNL A   1      44.508  29.358  30.899  1.00  0.00    -0.354 N 
ATOM     54  N   UNL A   1      44.102  26.717  29.689  1.00  0.00    -0.248 NA
ATOM     55  C   UNL A   1      44.932  24.622  29.069  1.00  0.00     0.031 C 
ATOM     56  C   UNL A   1      46.486  29.813  31.801  1.00  0.00     0.029 A 
ATOM     57  C   UNL A   1      45.763  28.828  31.148  1.00  0.00     0.049 A 
ATOM     58  H   UNL A   1      43.779  28.889  30.431  1.00  0.00     0.167 HD
ATOM     59  C   UNL A   1      45.419  26.597  30.125  1.00  0.00     0.074 A 
ATOM     60  C   UNL A   1      45.865  25.271  29.749  1.00  0.00     0.031 C 
ATOM     61  C   UNL A   1      46.188  27.501  30.780  1.00  0.00     0.031 A 
BRANCH  48  62
ATOM     62  C   UNL A   1      43.363  32.888  31.888  1.00  0.00    -0.014 A 
ATOM     63  C   UNL A   1      43.079  33.131  33.244  1.00  0.00     0.010 A 
ATOM     64  C   UNL A   1      43.790  33.955  31.076  1.00  0.00     0.010 A 
ATOM     65  C   UNL A   1      43.189  34.421  33.771  1.00  0.00     0.020 A 
ATOM     66  C   UNL A   1      43.932  35.241  31.607  1.00  0.00     0.020 A 
ATOM     67  C   UNL A   1      43.617  35.467  32.949  1.00  0.00     0.054 A 
BRANCH  67  68
ATOM     68  S   UNL A   1      43.792  37.120  33.674  1.00  0.00     0.124 S 
ATOM     69  O   UNL A   1      45.062  37.004  34.385  1.00  0.00    -0.237 OA
ATOM     70  O   UNL A   1      43.808  37.984  32.496  1.00  0.00    -0.237 OA
ATOM     71  O   UNL A   1      42.612  37.253  34.524  1.00  0.00    -0.744 OA
ENDBRANCH  67  68
ENDBRANCH  48  62
BRANCH  49  72
ATOM     72  C   UNL A   1      42.392  23.770  27.887  1.00  0.00    -0.014 A 
ATOM     73  C   UNL A   1      41.952  22.679  28.657  1.00  0.00     0.010 A 
ATOM     74  C   UNL A   1      42.742  23.557  26.541  1.00  0.00     0.010 A 
ATOM     75  C   UNL A   1      41.902  21.395  28.105  1.00  0.00     0.020 A 
ATOM     76  C   UNL A   1      42.660  22.281  25.976  1.00  0.00     0.020 A 
ATOM     77  C   UNL A   1      42.258  21.204  26.767  1.00  0.00     0.054 A 
BRANCH  77  78
ATOM     78  S   UNL A   1      42.168  19.533  26.068  1.00  0.00     0.124 S 
ATOM     79  O   UNL A   1      43.046  19.642  24.907  1.00  0.00    -0.237 OA
ATOM     80  O   UNL A   1      42.666  18.706  27.163  1.00  0.00    -0.237 OA
ATOM     81  O   UNL A   1      40.748  19.365  25.766  1.00  0.00    -0.744 OA
ENDBRANCH  77  78
ENDBRANCH  49  72
BRANCH  61  82
ATOM     82  C   UNL A   1      47.573  27.072  31.190  1.00  0.00    -0.014 A 
ATOM     83  C   UNL A   1      48.676  27.219  30.331  1.00  0.00     0.010 A 
ATOM     84  C   UNL A   1      47.777  26.556  32.484  1.00  0.00     0.010 A 
ATOM     85  C   UNL A   1      49.951  26.823  30.744  1.00  0.00     0.020 A 
ATOM     86  C   UNL A   1      49.056  26.191  32.913  1.00  0.00     0.020 A 
ATOM     87  C   UNL A   1      50.132  26.312  32.034  1.00  0.00     0.054 A 
BRANCH  87  88
ATOM     88  S   UNL A   1      51.803  25.840  32.559  1.00  0.00     0.124 S 
ATOM     89  O   UNL A   1      51.928  24.496  31.999  1.00  0.00    -0.237 OA
ATOM     90  O   UNL A   1      52.636  26.863  31.930  1.00  0.00    -0.237 OA
ATOM     91  O   UNL A   1      51.740  25.905  34.017  1.00  0.00    -0.744 OA
ENDBRANCH  87  88
ENDBRANCH  61  82
ENDBRANCH  35  36
ENDBRANCH  27  30
ENDBRANCH  25  26
ENDBRANCH   1  25
TORSDOF 16
ENDMDL
MODEL 2
REMARK VINA RESULT:     -10.1      3.876      6.979
REMARK SMILES C[C@@H]1C[C@@H](C)CN(S(=O)(=O)N2CC[C@H](C(=O)NCCCCNC(=O)c3ccc(-c4c5nc(c(-c6ccc(S(=O)(=O)[O-])cc6)c6ccc([nH]6)c(-c6ccc(S(=O)(=O)[O-])cc6)c6nc(c(-c7ccc(S(=O)(=O)[O-])cc7)c7ccc4[nH]7)C=C6)C=C5)cc3)[C@@H]2C)C1
REMARK SMILES IDX 20 1 19 2 18 3 17 4 15 5 16 6 14 8 11 9 12 10 85 11 13 12
REMARK SMILES IDX 86 13 8 14 9 15 10 16 7 17 1 18 2 19 3 20 87 21 4 22 6 23
REMARK SMILES IDX 5 24 21 25 22 26 23 27 24 29 25 30 26 31 84 32 27 33 83 34
REMARK SMILES IDX 28 35 29 36 30 37 77 38 31 39 82 40 76 41 78 42 32 43 81 44
REMARK SMILES IDX 75 45 74 46 33 48 63 49 44 50 62 51 45 52 48 53 61 54 79 55
REMARK SMILES IDX 46 56 47 57 60 59 80 60 49 61 34 62 35 63 43 64 36 65 42 66
REMARK SMILES IDX 37 67 38 68 39 69 40 70 41 71 64 72 65 73 73 74 66 75 72 76
REMARK SMILES IDX 67 77 68 78 69 79 70 80 71 81 50 82 51 83 59 84 52 85 58 86
REMARK SMILES IDX 53 87 54 88 55 89 56 90 57 91
REMARK H PARENT 17 7 22 28 78 47 48 58
REMARK Flexibility Score: inf
ROOT
ATOM      1  C   UNL A   1      33.868  28.565  25.776  1.00  0.00     0.023 C 
ENDROOT
BRANCH   1   2
ATOM      2  C   UNL A   1      32.940  29.496  24.997  1.00  0.00     0.023 C 
BRANCH   2   3
ATOM      3  C   UNL A   1      31.486  29.040  24.948  1.00  0.00     0.116 C 
BRANCH   3   4
ATOM      4  N   UNL A   1      31.027  28.813  23.588  1.00  0.00    -0.356 N 
ATOM      5  C   UNL A   1      31.099  27.701  22.803  1.00  0.00     0.224 C 
ATOM      6  O   UNL A   1      30.549  27.721  21.703  1.00  0.00    -0.275 OA
ATOM      7  H   UNL A   1      30.593  29.589  23.165  1.00  0.00     0.163 HD
BRANCH   5   8
ATOM      8  C   UNL A   1      31.837  26.482  23.305  1.00  0.00     0.098 C 
ATOM      9  N   UNL A   1      33.679  25.139  22.624  1.00  0.00    -0.185 NA
ATOM     10  C   UNL A   1      32.507  24.638  21.889  1.00  0.00     0.105 C 
ATOM     11  C   UNL A   1      33.365  26.507  23.095  1.00  0.00     0.083 C 
ATOM     12  C   UNL A   1      31.325  25.193  22.654  1.00  0.00     0.032 C 
ATOM     13  C   UNL A   1      33.927  27.526  22.109  1.00  0.00     0.026 C 
BRANCH   9  14
ATOM     14  S   UNL A   1      34.604  24.082  23.526  1.00  0.00     0.282 S 
ATOM     15  O   UNL A   1      35.081  24.766  24.704  1.00  0.00    -0.195 OA
ATOM     16  O   UNL A   1      35.529  23.442  22.614  1.00  0.00    -0.195 OA
BRANCH  14  17
ATOM     17  N   UNL A   1      33.487  22.882  24.048  1.00  0.00    -0.188 NA
ATOM     18  C   UNL A   1      32.442  19.941  23.478  1.00  0.00     0.009 C 
ATOM     19  C   UNL A   1      33.196  20.458  24.707  1.00  0.00     0.001 C 
ATOM     20  C   UNL A   1      32.226  20.899  25.814  1.00  0.00     0.009 C 
ATOM     21  C   UNL A   1      34.187  21.575  24.328  1.00  0.00     0.106 C 
ATOM     22  C   UNL A   1      31.571  22.233  25.462  1.00  0.00     0.001 C 
ATOM     23  C   UNL A   1      32.680  23.262  25.243  1.00  0.00     0.106 C 
ATOM     24  C   UNL A   1      30.605  22.702  26.546  1.00  0.00     0.009 C 
ENDBRANCH  14  17
ENDBRANCH   9  14
ENDBRANCH   5   8
ENDBRANCH   3   4
ENDBRANCH   2   3
ENDBRANCH   1   2
BRANCH   1  25
ATOM     25  C   UNL A   1      33.773  28.685  27.292  1.00  0.00     0.116 C 
BRANCH  25  26
ATOM     26  N   UNL A   1      33.669  30.063  27.747  1.00  0.00    -0.352 N 
ATOM     27  C   UNL A   1      34.603  30.814  28.421  1.00  0.00     0.251 C 
ATOM     28  H   UNL A   1      32.820  30.517  27.544  1.00  0.00     0.163 HD
ATOM     29  O   UNL A   1      34.301  31.916  28.865  1.00  0.00    -0.269 OA
BRANCH  27  30
ATOM     30  C   UNL A   1      35.961  30.265  28.632  1.00  0.00     0.039 A 
ATOM     31  C   UNL A   1      36.908  30.385  27.614  1.00  0.00     0.014 A 
ATOM     32  C   UNL A   1      36.303  29.664  29.846  1.00  0.00     0.014 A 
ATOM     33  C   UNL A   1      38.218  29.954  27.838  1.00  0.00     0.010 A 
ATOM     34  C   UNL A   1      37.626  29.317  30.096  1.00  0.00     0.010 A 
ATOM     35  C   UNL A   1      38.597  29.446  29.092  1.00  0.00    -0.014 A 
BRANCH  35  36
ATOM     36  C   UNL A   1      39.993  29.017  29.364  1.00  0.00     0.031 A 
ATOM     37  C   UNL A   1      40.958  29.974  30.017  1.00  0.00     0.074 A 
ATOM     38  C   UNL A   1      40.411  27.793  28.982  1.00  0.00     0.049 A 
ATOM     39  N   UNL A   1      42.229  29.812  30.281  1.00  0.00    -0.248 NA
ATOM     40  C   UNL A   1      40.431  31.295  30.400  1.00  0.00     0.031 C 
ATOM     41  C   UNL A   1      39.586  26.784  28.312  1.00  0.00     0.029 A 
ATOM     42  N   UNL A   1      41.638  27.188  29.101  1.00  0.00    -0.354 N 
ATOM     43  C   UNL A   1      42.652  31.008  30.848  1.00  0.00     0.074 A 
ATOM     44  C   UNL A   1      41.522  31.908  30.833  1.00  0.00     0.031 C 
ATOM     45  C   UNL A   1      40.320  25.677  28.110  1.00  0.00     0.029 A 
ATOM     46  C   UNL A   1      41.678  25.911  28.590  1.00  0.00     0.049 A 
ATOM     47  H   UNL A   1      42.417  27.627  29.512  1.00  0.00     0.167 HD
ATOM     48  C   UNL A   1      43.865  31.323  31.363  1.00  0.00     0.031 A 
ATOM     49  C   UNL A   1      42.695  25.029  28.511  1.00  0.00     0.031 A 
ATOM     50  C   UNL A   1      44.986  30.422  31.389  1.00  0.00     0.049 A 
ATOM     51  C   UNL A   1      44.043  25.417  29.062  1.00  0.00     0.074 A 
ATOM     52  C   UNL A   1      46.245  30.633  31.924  1.00  0.00     0.029 A 
ATOM     53  N   UNL A   1      44.984  29.139  30.863  1.00  0.00    -0.354 N 
ATOM     54  N   UNL A   1      44.406  26.535  29.644  1.00  0.00    -0.248 NA
ATOM     55  C   UNL A   1      45.114  24.415  28.958  1.00  0.00     0.031 C 
ATOM     56  C   UNL A   1      47.022  29.499  31.670  1.00  0.00     0.029 A 
ATOM     57  C   UNL A   1      46.226  28.554  31.042  1.00  0.00     0.049 A 
ATOM     58  H   UNL A   1      44.214  28.709  30.427  1.00  0.00     0.167 HD
ATOM     59  C   UNL A   1      45.737  26.353  30.012  1.00  0.00     0.074 A 
ATOM     60  C   UNL A   1      46.106  25.015  29.599  1.00  0.00     0.031 C 
ATOM     61  C   UNL A   1      46.575  27.215  30.638  1.00  0.00     0.031 A 
BRANCH  48  62
ATOM     62  C   UNL A   1      44.041  32.700  31.949  1.00  0.00    -0.014 A 
ATOM     63  C   UNL A   1      44.444  33.784  31.146  1.00  0.00     0.010 A 
ATOM     64  C   UNL A   1      43.747  32.927  33.306  1.00  0.00     0.010 A 
ATOM     65  C   UNL A   1      44.579  35.061  31.696  1.00  0.00     0.020 A 
ATOM     66  C   UNL A   1      43.851  34.210  33.852  1.00  0.00     0.020 A 
ATOM     67  C   UNL A   1      44.280  35.266  33.045  1.00  0.00     0.054 A 
BRANCH  67  68
ATOM     68  S   UNL A   1      44.424  36.944  33.718  1.00  0.00     0.124 S 
ATOM     69  O   UNL A   1      45.697  36.874  34.431  1.00  0.00    -0.237 OA
ATOM     70  O   UNL A   1      44.423  37.771  32.514  1.00  0.00    -0.237 OA
ATOM     71  O   UNL A   1      43.243  37.081  34.567  1.00  0.00    -0.744 OA
ENDBRANCH  67  68
ENDBRANCH  48  62
BRANCH  49  72
ATOM     72  C   UNL A   1      42.485  23.688  27.895  1.00  0.00    -0.014 A 
ATOM     73  C   UNL A   1      41.797  22.680  28.594  1.00  0.00     0.010 A 
ATOM     74  C   UNL A   1      42.997  23.402  26.616  1.00  0.00     0.010 A 
ATOM     75  C   UNL A   1      41.659  21.402  28.043  1.00  0.00     0.020 A 
ATOM     76  C   UNL A   1      42.830  22.136  26.047  1.00  0.00     0.020 A 
ATOM     77  C   UNL A   1      42.179  21.138  26.772  1.00  0.00     0.054 A 
BRANCH  77  78
ATOM     78  S   UNL A   1      41.972  19.478  26.070  1.00  0.00     0.124 S 
ATOM     79  O   UNL A   1      42.772  19.562  24.853  1.00  0.00    -0.237 OA
ATOM     80  O   UNL A   1      42.509  18.622  27.124  1.00  0.00    -0.237 OA
ATOM     81  O   UNL A   1      40.529  19.372  25.866  1.00  0.00    -0.744 OA
ENDBRANCH  77  78
ENDBRANCH  49  72
BRANCH  61  82
ATOM     82  C   UNL A   1      47.959  26.723  30.974  1.00  0.00    -0.014 A 
ATOM     83  C   UNL A   1      49.042  26.910  30.097  1.00  0.00     0.010 A 
ATOM     84  C   UNL A   1      48.185  26.103  32.217  1.00  0.00     0.010 A 
ATOM     85  C   UNL A   1      50.317  26.452  30.440  1.00  0.00     0.020 A 
ATOM     86  C   UNL A   1      49.465  25.675  32.580  1.00  0.00     0.020 A 
ATOM     87  C   UNL A   1      50.520  25.838  31.681  1.00  0.00     0.054 A 
BRANCH  87  88
ATOM     88  S   UNL A   1      52.191  25.287  32.119  1.00  0.00     0.124 S 
ATOM     89  O   UNL A   1      52.458  26.060  33.329  1.00  0.00    -0.237 OA
ATOM     90  O   UNL A   1      52.012  23.850  32.317  1.00  0.00    -0.237 OA
ATOM     91  O   UNL A   1      52.994  25.654  30.955  1.00  0.00    -0.744 OA
ENDBRANCH  87  88
ENDBRANCH  61  82
ENDBRANCH  35  36
ENDBRANCH  27  30
ENDBRANCH  25  26
ENDBRANCH   1  25
TORSDOF 16
ENDMDL
MODEL 3
REMARK VINA RESULT:     -10.0      4.606     10.799
REMARK SMILES C[C@@H]1C[C@@H](C)CN(S(=O)(=O)N2CC[C@H](C(=O)NCCCCNC(=O)c3ccc(-c4c5nc(c(-c6ccc(S(=O)(=O)[O-])cc6)c6ccc([nH]6)c(-c6ccc(S(=O)(=O)[O-])cc6)c6nc(c(-c7ccc(S(=O)(=O)[O-])cc7)c7ccc4[nH]7)C=C6)C=C5)cc3)[C@@H]2C)C1
REMARK SMILES IDX 20 1 19 2 18 3 17 4 15 5 16 6 14 8 11 9 12 10 85 11 13 12
REMARK SMILES IDX 86 13 8 14 9 15 10 16 7 17 1 18 2 19 3 20 87 21 4 22 6 23
REMARK SMILES IDX 5 24 21 25 22 26 23 27 24 29 25 30 26 31 84 32 27 33 83 34
REMARK SMILES IDX 28 35 29 36 30 37 77 38 31 39 82 40 76 41 78 42 32 43 81 44
REMARK SMILES IDX 75 45 74 46 33 48 63 49 44 50 62 51 45 52 48 53 61 54 79 55
REMARK SMILES IDX 46 56 47 57 60 59 80 60 49 61 34 62 35 63 43 64 36 65 42 66
REMARK SMILES IDX 37 67 38 68 39 69 40 70 41 71 64 72 65 73 73 74 66 75 72 76
REMARK SMILES IDX 67 77 68 78 69 79 70 80 71 81 50 82 51 83 59 84 52 85 58 86
REMARK SMILES IDX 53 87 54 88 55 89 56 90 57 91
REMARK H PARENT 17 7 22 28 78 47 48 58
REMARK Flexibility Score: inf
ROOT
ATOM      1  C   UNL A   1      34.354  29.585  27.329  1.00  0.00     0.023 C 
ENDROOT
BRANCH   1   2
ATOM      2  C   UNL A   1      33.313  30.642  26.965  1.00  0.00     0.023 C 
BRANCH   2   3
ATOM      3  C   UNL A   1      31.945  30.079  26.597  1.00  0.00     0.116 C 
BRANCH   3   4
ATOM      4  N   UNL A   1      31.731  30.052  25.159  1.00  0.00    -0.356 N 
ATOM      5  C   UNL A   1      31.279  29.053  24.350  1.00  0.00     0.224 C 
ATOM      6  O   UNL A   1      31.089  29.300  23.160  1.00  0.00    -0.275 OA
ATOM      7  H   UNL A   1      31.947  30.892  24.695  1.00  0.00     0.163 HD
BRANCH   5   8
ATOM      8  C   UNL A   1      31.015  27.684  24.933  1.00  0.00     0.098 C 
ATOM      9  N   UNL A   1      31.753  25.450  24.577  1.00  0.00    -0.185 NA
ATOM     10  C   UNL A   1      30.682  25.694  23.598  1.00  0.00     0.105 C 
ATOM     11  C   UNL A   1      32.250  26.766  25.038  1.00  0.00     0.083 C 
ATOM     12  C   UNL A   1      29.961  26.912  24.132  1.00  0.00     0.032 C 
ATOM     13  C   UNL A   1      33.488  27.152  24.235  1.00  0.00     0.026 C 
BRANCH   9  14
ATOM     14  S   UNL A   1      31.656  24.132  25.597  1.00  0.00     0.282 S 
ATOM     15  O   UNL A   1      30.624  23.244  25.118  1.00  0.00    -0.195 OA
ATOM     16  O   UNL A   1      31.625  24.645  26.951  1.00  0.00    -0.195 OA
BRANCH  14  17
ATOM     17  N   UNL A   1      33.162  23.327  25.390  1.00  0.00    -0.188 NA
ATOM     18  C   UNL A   1      36.284  23.786  25.064  1.00  0.00     0.009 C 
ATOM     19  C   UNL A   1      35.541  23.116  26.223  1.00  0.00     0.001 C 
ATOM     20  C   UNL A   1      35.450  21.595  26.027  1.00  0.00     0.009 C 
ATOM     21  C   UNL A   1      34.155  23.753  26.442  1.00  0.00     0.106 C 
ATOM     22  C   UNL A   1      34.418  21.246  24.957  1.00  0.00     0.001 C 
ATOM     23  C   UNL A   1      33.075  21.837  25.385  1.00  0.00     0.106 C 
ATOM     24  C   UNL A   1      34.301  19.739  24.743  1.00  0.00     0.009 C 
ENDBRANCH  14  17
ENDBRANCH   9  14
ENDBRANCH   5   8
ENDBRANCH   3   4
ENDBRANCH   2   3
ENDBRANCH   1   2
BRANCH   1  25
ATOM     25  C   UNL A   1      35.627  30.129  27.967  1.00  0.00     0.116 C 
BRANCH  25  26
ATOM     26  N   UNL A   1      35.568  30.149  29.420  1.00  0.00    -0.352 N 
ATOM     27  C   UNL A   1      36.527  29.750  30.321  1.00  0.00     0.251 C 
ATOM     28  H   UNL A   1      34.732  30.495  29.809  1.00  0.00     0.163 HD
ATOM     29  O   UNL A   1      36.261  29.692  31.516  1.00  0.00    -0.269 OA
BRANCH  27  30
ATOM     30  C   UNL A   1      37.867  29.362  29.829  1.00  0.00     0.039 A 
ATOM     31  C   UNL A   1      38.194  29.595  28.492  1.00  0.00     0.014 A 
ATOM     32  C   UNL A   1      38.807  28.801  30.697  1.00  0.00     0.014 A 
ATOM     33  C   UNL A   1      39.486  29.318  28.041  1.00  0.00     0.010 A 
ATOM     34  C   UNL A   1      40.116  28.609  30.268  1.00  0.00     0.010 A 
ATOM     35  C   UNL A   1      40.468  28.854  28.932  1.00  0.00    -0.014 A 
BRANCH  35  36
ATOM     36  C   UNL A   1      41.860  28.589  28.483  1.00  0.00     0.031 A 
ATOM     37  C   UNL A   1      42.256  27.200  28.049  1.00  0.00     0.074 A 
ATOM     38  C   UNL A   1      42.779  29.575  28.511  1.00  0.00     0.049 A 
ATOM     39  N   UNL A   1      43.430  26.754  27.683  1.00  0.00    -0.248 NA
ATOM     40  C   UNL A   1      41.199  26.173  28.050  1.00  0.00     0.031 C 
ATOM     41  C   UNL A   1      42.533  30.954  28.941  1.00  0.00     0.029 A 
ATOM     42  N   UNL A   1      44.110  29.569  28.173  1.00  0.00    -0.354 N 
ATOM     43  C   UNL A   1      43.255  25.399  27.423  1.00  0.00     0.074 A 
ATOM     44  C   UNL A   1      41.879  25.083  27.733  1.00  0.00     0.031 C 
ATOM     45  C   UNL A   1      43.664  31.666  28.808  1.00  0.00     0.029 A 
ATOM     46  C   UNL A   1      44.728  30.788  28.333  1.00  0.00     0.049 A 
ATOM     47  H   UNL A   1      44.579  28.767  27.848  1.00  0.00     0.167 HD
ATOM     48  C   UNL A   1      44.150  24.503  26.943  1.00  0.00     0.031 A 
ATOM     49  C   UNL A   1      46.008  31.156  28.125  1.00  0.00     0.031 A 
ATOM     50  C   UNL A   1      45.515  24.822  26.623  1.00  0.00     0.049 A 
ATOM     51  C   UNL A   1      46.991  30.131  27.621  1.00  0.00     0.074 A 
ATOM     52  C   UNL A   1      46.490  23.994  26.094  1.00  0.00     0.029 A 
ATOM     53  N   UNL A   1      46.100  26.067  26.798  1.00  0.00    -0.354 N 
ATOM     54  N   UNL A   1      46.790  28.867  27.330  1.00  0.00    -0.248 NA
ATOM     55  C   UNL A   1      48.371  30.588  27.403  1.00  0.00     0.031 C 
ATOM     56  C   UNL A   1      47.679  24.723  26.003  1.00  0.00     0.029 A 
ATOM     57  C   UNL A   1      47.427  26.025  26.406  1.00  0.00     0.049 A 
ATOM     58  H   UNL A   1      45.639  26.863  27.149  1.00  0.00     0.167 HD
ATOM     59  C   UNL A   1      48.010  28.391  26.855  1.00  0.00     0.074 A 
ATOM     60  C   UNL A   1      48.934  29.505  26.887  1.00  0.00     0.031 C 
ATOM     61  C   UNL A   1      48.333  27.145  26.430  1.00  0.00     0.031 A 
BRANCH  48  62
ATOM     62  C   UNL A   1      43.676  23.089  26.725  1.00  0.00    -0.014 A 
ATOM     63  C   UNL A   1      43.897  22.430  25.501  1.00  0.00     0.010 A 
ATOM     64  C   UNL A   1      43.054  22.389  27.776  1.00  0.00     0.010 A 
ATOM     65  C   UNL A   1      43.476  21.110  25.321  1.00  0.00     0.020 A 
ATOM     66  C   UNL A   1      42.660  21.057  27.609  1.00  0.00     0.020 A 
ATOM     67  C   UNL A   1      42.862  20.432  26.377  1.00  0.00     0.054 A 
BRANCH  67  68
ATOM     68  S   UNL A   1      42.366  18.706  26.125  1.00  0.00     0.124 S 
ATOM     69  O   UNL A   1      43.312  18.267  25.101  1.00  0.00    -0.237 OA
ATOM     70  O   UNL A   1      42.560  18.122  27.450  1.00  0.00    -0.237 OA
ATOM     71  O   UNL A   1      40.976  18.803  25.687  1.00  0.00    -0.744 OA
ENDBRANCH  67  68
ENDBRANCH  48  62
BRANCH  49  72
ATOM     72  C   UNL A   1      46.441  32.559  28.383  1.00  0.00    -0.014 A 
ATOM     73  C   UNL A   1      46.911  32.941  29.652  1.00  0.00     0.010 A 
ATOM     74  C   UNL A   1      46.360  33.529  27.367  1.00  0.00     0.010 A 
ATOM     75  C   UNL A   1      47.253  34.271  29.912  1.00  0.00     0.020 A 
ATOM     76  C   UNL A   1      46.734  34.853  27.613  1.00  0.00     0.020 A 
ATOM     77  C   UNL A   1      47.161  35.220  28.890  1.00  0.00     0.054 A 
BRANCH  77  78
ATOM     78  S   UNL A   1      47.627  36.937  29.245  1.00  0.00     0.124 S 
ATOM     79  O   UNL A   1      48.955  37.020  28.646  1.00  0.00    -0.237 OA
ATOM     80  O   UNL A   1      46.578  37.694  28.568  1.00  0.00    -0.237 OA
ATOM     81  O   UNL A   1      47.592  37.005  30.704  1.00  0.00    -0.744 OA
ENDBRANCH  77  78
ENDBRANCH  49  72
BRANCH  61  82
ATOM     82  C   UNL A   1      49.728  26.928  25.903  1.00  0.00    -0.014 A 
ATOM     83  C   UNL A   1      50.056  27.175  24.559  1.00  0.00     0.010 A 
ATOM     84  C   UNL A   1      50.740  26.514  26.790  1.00  0.00     0.010 A 
ATOM     85  C   UNL A   1      51.361  26.976  24.102  1.00  0.00     0.020 A 
ATOM     86  C   UNL A   1      52.054  26.347  26.345  1.00  0.00     0.020 A 
ATOM     87  C   UNL A   1      52.352  26.563  24.999  1.00  0.00     0.054 A 
BRANCH  87  88
ATOM     88  S   UNL A   1      54.046  26.347  24.389  1.00  0.00     0.124 S 
ATOM     89  O   UNL A   1      53.866  26.468  22.945  1.00  0.00    -0.237 OA
ATOM     90  O   UNL A   1      54.759  27.451  25.029  1.00  0.00    -0.237 OA
ATOM     91  O   UNL A   1      54.419  25.016  24.861  1.00  0.00    -0.744 OA
ENDBRANCH  87  88
ENDBRANCH  61  82
ENDBRANCH  35  36
ENDBRANCH  27  30
ENDBRANCH  25  26
ENDBRANCH   1  25
TORSDOF 16
ENDMDL
