MODEL 1
REMARK VINA RESULT:     -11.3      0.000      0.000
REMARK SMILES CC(=O)N[C@H](CSCC(=O)Nc1ccc2c(c1)N1CC[NH+]=C1S2)C(=O)NCCCCNC(=O)c1ccc(-c2c3nc(c(-c4ccc(S(=O)(=O)[O-])cc4)c4ccc([nH]4)c(-c4ccc(S(=O)(=O)[O-])cc4)c4nc(c(-c5ccc(S(=O)(=O)[O-])cc5)c5ccc2[nH]5)C=C4)C=C3)cc1
REMARK SMILES IDX 27 1 26 2 24 3 25 4 5 6 4 7 1 8 2 9 3 10 6 12 7 13 8 14 9 15
REMARK SMILES IDX 10 16 11 17 12 19 13 20 17 21 14 22 16 23 15 24 18 25 23 26
REMARK SMILES IDX 19 27 22 28 20 29 21 30 28 32 29 33 30 34 31 35 32 36 33 38
REMARK SMILES IDX 34 39 35 40 93 41 36 42 92 43 37 44 38 45 39 46 86 47 40 48
REMARK SMILES IDX 91 49 85 50 87 51 41 52 90 53 84 54 83 55 42 57 72 58 53 59
REMARK SMILES IDX 71 60 54 61 57 62 70 63 88 64 55 65 56 66 69 68 89 69 58 70
REMARK SMILES IDX 43 71 44 72 52 73 45 74 51 75 46 76 47 77 48 78 49 79 50 80
REMARK SMILES IDX 73 81 74 82 82 83 75 84 81 85 76 86 77 87 78 88 79 89 80 90
REMARK SMILES IDX 59 91 60 92 68 93 61 94 67 95 62 96 63 97 64 98 65 99 66 100
REMARK H PARENT 26 5 4 11 11 18 21 31 31 37 87 56 57 67
REMARK Flexibility Score: inf
ROOT
ATOM      1  C   UNL A   1      33.632  28.989  25.091  1.00  0.00     0.116 C 
ENDROOT
BRANCH   1   2
ATOM      2  N   UNL A   1      32.626  29.389  24.122  1.00  0.00    -0.354 N 
ATOM      3  C   UNL A   1      31.778  28.660  23.339  1.00  0.00     0.243 C 
ATOM      4  O   UNL A   1      30.965  29.277  22.644  1.00  0.00    -0.273 OA
ATOM      5  H   UNL A   1      32.541  30.364  24.009  1.00  0.00     0.163 HD
BRANCH   3   6
ATOM      6  C   UNL A   1      31.813  27.118  23.309  1.00  0.00     0.181 C 
BRANCH   6   7
ATOM      7  N   UNL A   1      32.190  26.693  21.953  1.00  0.00    -0.344 N 
ATOM      8  C   UNL A   1      33.570  24.745  22.588  1.00  0.00     0.114 C 
ATOM      9  C   UNL A   1      32.962  25.648  21.553  1.00  0.00     0.217 C 
ATOM     10  O   UNL A   1      33.124  25.453  20.351  1.00  0.00    -0.275 OA
ATOM     11  H   UNL A   1      31.829  27.249  21.226  1.00  0.00     0.164 HD
ENDBRANCH   6   7
BRANCH   6  12
ATOM     12  C   UNL A   1      30.504  26.480  23.791  1.00  0.00     0.105 C 
BRANCH  12  13
ATOM     13  S   UNL A   1      30.531  25.933  25.536  1.00  0.00    -0.149 SA
BRANCH  13  14
ATOM     14  C   UNL A   1      31.193  24.256  25.418  1.00  0.00     0.169 C 
BRANCH  14  15
ATOM     15  C   UNL A   1      30.927  23.345  26.606  1.00  0.00     0.234 C 
ATOM     16  O   UNL A   1      29.974  23.562  27.362  1.00  0.00    -0.274 OA
ATOM     17  N   UNL A   1      31.645  22.189  26.778  1.00  0.00    -0.325 N 
ATOM     18  H   UNL A   1      31.254  21.532  27.399  1.00  0.00     0.169 HD
BRANCH  17  19
ATOM     19  C   UNL A   1      32.858  21.822  26.188  1.00  0.00     0.045 A 
ATOM     20  C   UNL A   1      32.986  20.619  25.473  1.00  0.00     0.027 A 
ATOM     21  C   UNL A   1      33.931  22.712  26.278  1.00  0.00     0.079 A 
ATOM     22  C   UNL A   1      34.210  20.230  24.926  1.00  0.00     0.022 A 
ATOM     23  C   UNL A   1      35.160  22.316  25.777  1.00  0.00     0.144 A 
ATOM     24  C   UNL A   1      35.285  21.075  25.107  1.00  0.00     0.067 A 
ATOM     25  N   UNL A   1      36.356  22.966  25.897  1.00  0.00    -0.216 N 
ATOM     26  S   UNL A   1      36.992  20.806  24.607  1.00  0.00     0.002 SA
ATOM     27  C   UNL A   1      36.768  24.221  26.433  1.00  0.00     0.289 C 
ATOM     28  C   UNL A   1      37.434  22.298  25.403  1.00  0.00     0.316 C 
ATOM     29  C   UNL A   1      38.303  24.009  26.438  1.00  0.00     0.280 C 
ATOM     30  N   UNL A   1      38.615  22.812  25.573  1.00  0.00    -0.264 N 
ATOM     31  H   UNL A   1      39.484  22.503  25.228  1.00  0.00     0.305 HD
ENDBRANCH  17  19
ENDBRANCH  14  15
ENDBRANCH  13  14
ENDBRANCH  12  13
ENDBRANCH   6  12
ENDBRANCH   3   6
ENDBRANCH   1   2
BRANCH   1  32
ATOM     32  C   UNL A   1      33.101  28.852  26.520  1.00  0.00     0.023 C 
BRANCH  32  33
ATOM     33  C   UNL A   1      32.535  30.124  27.149  1.00  0.00     0.023 C 
BRANCH  33  34
ATOM     34  C   UNL A   1      33.539  31.242  27.384  1.00  0.00     0.116 C 
BRANCH  34  35
ATOM     35  N   UNL A   1      32.944  32.568  27.463  1.00  0.00    -0.352 N 
ATOM     36  C   UNL A   1      33.314  33.625  28.271  1.00  0.00     0.251 C 
ATOM     37  H   UNL A   1      32.179  32.733  26.865  1.00  0.00     0.163 HD
ATOM     38  O   UNL A   1      32.664  34.661  28.266  1.00  0.00    -0.269 OA
BRANCH  36  39
ATOM     39  C   UNL A   1      34.469  33.463  29.186  1.00  0.00     0.039 A 
ATOM     40  C   UNL A   1      35.698  34.053  28.891  1.00  0.00     0.014 A 
ATOM     41  C   UNL A   1      34.335  32.641  30.308  1.00  0.00     0.014 A 
ATOM     42  C   UNL A   1      36.832  33.660  29.593  1.00  0.00     0.010 A 
ATOM     43  C   UNL A   1      35.463  32.322  31.070  1.00  0.00     0.010 A 
ATOM     44  C   UNL A   1      36.732  32.774  30.679  1.00  0.00    -0.014 A 
BRANCH  44  45
ATOM     45  C   UNL A   1      37.975  32.311  31.352  1.00  0.00     0.031 A 
ATOM     46  C   UNL A   1      38.310  32.772  32.749  1.00  0.00     0.074 A 
ATOM     47  C   UNL A   1      38.756  31.397  30.741  1.00  0.00     0.049 A 
ATOM     48  N   UNL A   1      39.311  32.412  33.512  1.00  0.00    -0.248 NA
ATOM     49  C   UNL A   1      37.413  33.760  33.373  1.00  0.00     0.031 C 
ATOM     50  C   UNL A   1      38.519  30.853  29.402  1.00  0.00     0.029 A 
ATOM     51  N   UNL A   1      39.872  30.728  31.178  1.00  0.00    -0.354 N 
ATOM     52  C   UNL A   1      39.172  33.133  34.694  1.00  0.00     0.074 A 
ATOM     53  C   UNL A   1      38.010  33.979  34.537  1.00  0.00     0.031 C 
ATOM     54  C   UNL A   1      39.410  29.882  29.159  1.00  0.00     0.029 A 
ATOM     55  C   UNL A   1      40.325  29.778  30.292  1.00  0.00     0.049 A 
ATOM     56  H   UNL A   1      40.307  30.910  32.042  1.00  0.00     0.167 HD
ATOM     57  C   UNL A   1      39.932  33.083  35.812  1.00  0.00     0.031 A 
ATOM     58  C   UNL A   1      41.356  28.913  30.376  1.00  0.00     0.031 A 
ATOM     59  C   UNL A   1      41.076  32.225  35.973  1.00  0.00     0.049 A 
ATOM     60  C   UNL A   1      42.204  28.898  31.615  1.00  0.00     0.074 A 
ATOM     61  C   UNL A   1      41.913  32.111  37.071  1.00  0.00     0.029 A 
ATOM     62  N   UNL A   1      41.538  31.325  35.024  1.00  0.00    -0.354 N 
ATOM     63  N   UNL A   1      42.063  29.604  32.712  1.00  0.00    -0.248 NA
ATOM     64  C   UNL A   1      43.345  27.974  31.634  1.00  0.00     0.031 C 
ATOM     65  C   UNL A   1      42.908  31.180  36.767  1.00  0.00     0.029 A 
ATOM     66  C   UNL A   1      42.653  30.663  35.507  1.00  0.00     0.049 A 
ATOM     67  H   UNL A   1      41.132  31.179  34.140  1.00  0.00     0.167 HD
ATOM     68  C   UNL A   1      43.088  29.197  33.557  1.00  0.00     0.074 A 
ATOM     69  C   UNL A   1      43.832  28.172  32.853  1.00  0.00     0.031 C 
ATOM     70  C   UNL A   1      43.383  29.638  34.804  1.00  0.00     0.031 A 
BRANCH  57  71
ATOM     71  C   UNL A   1      39.564  33.974  36.971  1.00  0.00    -0.014 A 
ATOM     72  C   UNL A   1      40.096  35.275  37.049  1.00  0.00     0.010 A 
ATOM     73  C   UNL A   1      38.796  33.485  38.043  1.00  0.00     0.010 A 
ATOM     74  C   UNL A   1      39.896  36.058  38.189  1.00  0.00     0.020 A 
ATOM     75  C   UNL A   1      38.570  34.276  39.174  1.00  0.00     0.020 A 
ATOM     76  C   UNL A   1      39.143  35.549  39.249  1.00  0.00     0.054 A 
BRANCH  76  77
ATOM     77  S   UNL A   1      38.917  36.569  40.733  1.00  0.00     0.124 S 
ATOM     78  O   UNL A   1      37.946  35.792  41.496  1.00  0.00    -0.237 OA
ATOM     79  O   UNL A   1      40.265  36.622  41.294  1.00  0.00    -0.237 OA
ATOM     80  O   UNL A   1      38.424  37.838  40.201  1.00  0.00    -0.744 OA
ENDBRANCH  76  77
ENDBRANCH  57  71
BRANCH  58  81
ATOM     81  C   UNL A   1      41.605  27.972  29.248  1.00  0.00    -0.014 A 
ATOM     82  C   UNL A   1      40.907  26.753  29.172  1.00  0.00     0.010 A 
ATOM     83  C   UNL A   1      42.602  28.249  28.296  1.00  0.00     0.010 A 
ATOM     84  C   UNL A   1      41.240  25.802  28.205  1.00  0.00     0.020 A 
ATOM     85  C   UNL A   1      42.916  27.313  27.305  1.00  0.00     0.020 A 
ATOM     86  C   UNL A   1      42.255  26.083  27.287  1.00  0.00     0.054 A 
BRANCH  86  87
ATOM     87  S   UNL A   1      42.706  24.816  26.070  1.00  0.00     0.124 S 
ATOM     88  O   UNL A   1      41.664  23.815  26.283  1.00  0.00    -0.237 OA
ATOM     89  O   UNL A   1      42.630  25.544  24.806  1.00  0.00    -0.237 OA
ATOM     90  O   UNL A   1      44.051  24.417  26.476  1.00  0.00    -0.744 OA
ENDBRANCH  86  87
ENDBRANCH  58  81
BRANCH  70  91
ATOM     91  C   UNL A   1      44.553  29.019  35.522  1.00  0.00    -0.014 A 
ATOM     92  C   UNL A   1      44.329  27.985  36.448  1.00  0.00     0.010 A 
ATOM     93  C   UNL A   1      45.846  29.553  35.389  1.00  0.00     0.010 A 
ATOM     94  C   UNL A   1      45.368  27.518  37.257  1.00  0.00     0.020 A 
ATOM     95  C   UNL A   1      46.896  29.071  36.177  1.00  0.00     0.020 A 
ATOM     96  C   UNL A   1      46.643  28.075  37.125  1.00  0.00     0.054 A 
BRANCH  96  97
ATOM     97  S   UNL A   1      47.972  27.487  38.210  1.00  0.00     0.124 S 
ATOM     98  O   UNL A   1      47.254  27.201  39.449  1.00  0.00    -0.237 OA
ATOM     99  O   UNL A   1      48.481  26.319  37.494  1.00  0.00    -0.237 OA
ATOM    100  O   UNL A   1      48.893  28.621  38.267  1.00  0.00    -0.744 OA
ENDBRANCH  96  97
ENDBRANCH  70  91
ENDBRANCH  44  45
ENDBRANCH  36  39
ENDBRANCH  34  35
ENDBRANCH  33  34
ENDBRANCH  32  33
ENDBRANCH   1  32
TORSDOF 20
ENDMDL
MODEL 2
REMARK VINA RESULT:     -11.1      1.908      8.563
REMARK SMILES CC(=O)N[C@H](CSCC(=O)Nc1ccc2c(c1)N1CC[NH+]=C1S2)C(=O)NCCCCNC(=O)c1ccc(-c2c3nc(c(-c4ccc(S(=O)(=O)[O-])cc4)c4ccc([nH]4)c(-c4ccc(S(=O)(=O)[O-])cc4)c4nc(c(-c5ccc(S(=O)(=O)[O-])cc5)c5ccc2[nH]5)C=C4)C=C3)cc1
REMARK SMILES IDX 27 1 26 2 24 3 25 4 5 6 4 7 1 8 2 9 3 10 6 12 7 13 8 14 9 15
REMARK SMILES IDX 10 16 11 17 12 19 13 20 17 21 14 22 16 23 15 24 18 25 23 26
REMARK SMILES IDX 19 27 22 28 20 29 21 30 28 32 29 33 30 34 31 35 32 36 33 38
REMARK SMILES IDX 34 39 35 40 93 41 36 42 92 43 37 44 38 45 39 46 86 47 40 48
REMARK SMILES IDX 91 49 85 50 87 51 41 52 90 53 84 54 83 55 42 57 72 58 53 59
REMARK SMILES IDX 71 60 54 61 57 62 70 63 88 64 55 65 56 66 69 68 89 69 58 70
REMARK SMILES IDX 43 71 44 72 52 73 45 74 51 75 46 76 47 77 48 78 49 79 50 80
REMARK SMILES IDX 73 81 74 82 82 83 75 84 81 85 76 86 77 87 78 88 79 89 80 90
REMARK SMILES IDX 59 91 60 92 68 93 61 94 67 95 62 96 63 97 64 98 65 99 66 100
REMARK H PARENT 26 5 4 11 11 18 21 31 31 37 87 56 57 67
REMARK Flexibility Score: inf
ROOT
ATOM      1  C   UNL A   1      36.995  23.562  26.004  1.00  0.00     0.116 C 
ENDROOT
BRANCH   1   2
ATOM      2  N   UNL A   1      36.557  23.555  24.618  1.00  0.00    -0.354 N 
ATOM      3  C   UNL A   1      35.311  23.557  24.059  1.00  0.00     0.243 C 
ATOM      4  O   UNL A   1      35.235  23.621  22.828  1.00  0.00    -0.273 OA
ATOM      5  H   UNL A   1      37.293  23.548  23.964  1.00  0.00     0.163 HD
BRANCH   3   6
ATOM      6  C   UNL A   1      34.030  23.486  24.915  1.00  0.00     0.181 C 
BRANCH   6   7
ATOM      7  N   UNL A   1      33.489  22.122  24.820  1.00  0.00    -0.344 N 
ATOM      8  C   UNL A   1      33.928  21.429  27.149  1.00  0.00     0.114 C 
ATOM      9  C   UNL A   1      33.405  21.153  25.769  1.00  0.00     0.217 C 
ATOM     10  O   UNL A   1      32.878  20.081  25.480  1.00  0.00    -0.275 OA
ATOM     11  H   UNL A   1      33.135  21.874  23.936  1.00  0.00     0.164 HD
ENDBRANCH   6   7
BRANCH   6  12
ATOM     12  C   UNL A   1      33.002  24.562  24.544  1.00  0.00     0.105 C 
BRANCH  12  13
ATOM     13  S   UNL A   1      31.713  24.000  23.375  1.00  0.00    -0.149 SA
BRANCH  13  14
ATOM     14  C   UNL A   1      31.408  25.475  22.377  1.00  0.00     0.169 C 
BRANCH  14  15
ATOM     15  C   UNL A   1      32.630  26.119  21.740  1.00  0.00     0.234 C 
ATOM     16  O   UNL A   1      33.267  25.523  20.865  1.00  0.00    -0.274 OA
ATOM     17  N   UNL A   1      32.962  27.420  22.016  1.00  0.00    -0.325 N 
ATOM     18  H   UNL A   1      33.588  27.844  21.386  1.00  0.00     0.169 HD
BRANCH  17  19
ATOM     19  C   UNL A   1      32.527  28.223  23.075  1.00  0.00     0.045 A 
ATOM     20  C   UNL A   1      31.274  28.859  23.040  1.00  0.00     0.027 A 
ATOM     21  C   UNL A   1      33.349  28.335  24.198  1.00  0.00     0.079 A 
ATOM     22  C   UNL A   1      30.862  29.700  24.075  1.00  0.00     0.022 A 
ATOM     23  C   UNL A   1      32.968  29.200  25.210  1.00  0.00     0.144 A 
ATOM     24  C   UNL A   1      31.727  29.876  25.135  1.00  0.00     0.067 A 
ATOM     25  N   UNL A   1      33.693  29.563  26.311  1.00  0.00    -0.216 N 
ATOM     26  S   UNL A   1      31.520  30.960  26.555  1.00  0.00     0.002 SA
ATOM     27  C   UNL A   1      34.947  29.171  26.862  1.00  0.00     0.289 C 
ATOM     28  C   UNL A   1      33.124  30.521  27.094  1.00  0.00     0.316 C 
ATOM     29  C   UNL A   1      35.129  30.293  27.916  1.00  0.00     0.280 C 
ATOM     30  N   UNL A   1      33.801  30.985  28.100  1.00  0.00    -0.264 N 
ATOM     31  H   UNL A   1      33.522  31.621  28.798  1.00  0.00     0.305 HD
ENDBRANCH  17  19
ENDBRANCH  14  15
ENDBRANCH  13  14
ENDBRANCH  12  13
ENDBRANCH   6  12
ENDBRANCH   3   6
ENDBRANCH   1   2
BRANCH   1  32
ATOM     32  C   UNL A   1      38.465  23.943  26.192  1.00  0.00     0.023 C 
BRANCH  32  33
ATOM     33  C   UNL A   1      39.380  22.841  26.722  1.00  0.00     0.023 C 
BRANCH  33  34
ATOM     34  C   UNL A   1      40.831  23.241  26.940  1.00  0.00     0.116 C 
BRANCH  34  35
ATOM     35  N   UNL A   1      41.372  24.106  25.902  1.00  0.00    -0.352 N 
ATOM     36  C   UNL A   1      41.795  25.415  26.014  1.00  0.00     0.251 C 
ATOM     37  H   UNL A   1      41.446  23.706  25.005  1.00  0.00     0.163 HD
ATOM     38  O   UNL A   1      42.165  26.029  25.024  1.00  0.00    -0.269 OA
BRANCH  36  39
ATOM     39  C   UNL A   1      41.736  26.081  27.336  1.00  0.00     0.039 A 
ATOM     40  C   UNL A   1      40.525  26.203  28.018  1.00  0.00     0.014 A 
ATOM     41  C   UNL A   1      42.896  26.662  27.856  1.00  0.00     0.014 A 
ATOM     42  C   UNL A   1      40.433  27.070  29.100  1.00  0.00     0.010 A 
ATOM     43  C   UNL A   1      42.817  27.459  29.002  1.00  0.00     0.010 A 
ATOM     44  C   UNL A   1      41.573  27.725  29.594  1.00  0.00    -0.014 A 
BRANCH  44  45
ATOM     45  C   UNL A   1      41.422  28.709  30.699  1.00  0.00     0.031 A 
ATOM     46  C   UNL A   1      40.278  29.693  30.703  1.00  0.00     0.074 A 
ATOM     47  C   UNL A   1      42.263  28.654  31.752  1.00  0.00     0.049 A 
ATOM     48  N   UNL A   1      39.954  30.569  31.620  1.00  0.00    -0.248 NA
ATOM     49  C   UNL A   1      39.383  29.698  29.532  1.00  0.00     0.031 C 
ATOM     50  C   UNL A   1      43.390  27.726  31.877  1.00  0.00     0.029 A 
ATOM     51  N   UNL A   1      42.275  29.352  32.934  1.00  0.00    -0.354 N 
ATOM     52  C   UNL A   1      38.831  31.233  31.136  1.00  0.00     0.074 A 
ATOM     53  C   UNL A   1      38.548  30.686  29.828  1.00  0.00     0.031 C 
ATOM     54  C   UNL A   1      43.932  27.858  33.096  1.00  0.00     0.029 A 
ATOM     55  C   UNL A   1      43.241  28.923  33.815  1.00  0.00     0.049 A 
ATOM     56  H   UNL A   1      41.653  30.088  33.132  1.00  0.00     0.167 HD
ATOM     57  C   UNL A   1      38.094  32.199  31.733  1.00  0.00     0.031 A 
ATOM     58  C   UNL A   1      43.540  29.332  35.064  1.00  0.00     0.031 A 
ATOM     59  C   UNL A   1      38.367  32.728  33.044  1.00  0.00     0.049 A 
ATOM     60  C   UNL A   1      42.726  30.426  35.694  1.00  0.00     0.074 A 
ATOM     61  C   UNL A   1      37.677  33.713  33.729  1.00  0.00     0.029 A 
ATOM     62  N   UNL A   1      39.395  32.309  33.874  1.00  0.00    -0.354 N 
ATOM     63  N   UNL A   1      41.682  31.052  35.208  1.00  0.00    -0.248 NA
ATOM     64  C   UNL A   1      43.127  30.870  37.036  1.00  0.00     0.031 C 
ATOM     65  C   UNL A   1      38.317  33.926  34.951  1.00  0.00     0.029 A 
ATOM     66  C   UNL A   1      39.365  33.026  35.058  1.00  0.00     0.049 A 
ATOM     67  H   UNL A   1      40.048  31.606  33.655  1.00  0.00     0.167 HD
ATOM     68  C   UNL A   1      41.289  31.952  36.192  1.00  0.00     0.074 A 
ATOM     69  C   UNL A   1      42.198  31.779  37.306  1.00  0.00     0.031 C 
ATOM     70  C   UNL A   1      40.268  32.842  36.167  1.00  0.00     0.031 A 
BRANCH  57  71
ATOM     71  C   UNL A   1      36.909  32.760  30.991  1.00  0.00    -0.014 A 
ATOM     72  C   UNL A   1      37.106  33.457  29.784  1.00  0.00     0.010 A 
ATOM     73  C   UNL A   1      35.618  32.707  31.546  1.00  0.00     0.010 A 
ATOM     74  C   UNL A   1      36.043  34.119  29.163  1.00  0.00     0.020 A 
ATOM     75  C   UNL A   1      34.545  33.346  30.913  1.00  0.00     0.020 A 
ATOM     76  C   UNL A   1      34.771  34.068  29.738  1.00  0.00     0.054 A 
BRANCH  76  77
ATOM     77  S   UNL A   1      33.409  34.956  28.934  1.00  0.00     0.124 S 
ATOM     78  O   UNL A   1      34.059  36.189  28.500  1.00  0.00    -0.237 OA
ATOM     79  O   UNL A   1      33.015  34.040  27.866  1.00  0.00    -0.237 OA
ATOM     80  O   UNL A   1      32.425  35.111  30.003  1.00  0.00    -0.744 OA
ENDBRANCH  76  77
ENDBRANCH  57  71
BRANCH  58  81
ATOM     81  C   UNL A   1      44.650  28.662  35.799  1.00  0.00    -0.014 A 
ATOM     82  C   UNL A   1      45.977  29.102  35.638  1.00  0.00     0.010 A 
ATOM     83  C   UNL A   1      44.397  27.529  36.592  1.00  0.00     0.010 A 
ATOM     84  C   UNL A   1      47.036  28.389  36.204  1.00  0.00     0.020 A 
ATOM     85  C   UNL A   1      45.453  26.831  37.188  1.00  0.00     0.020 A 
ATOM     86  C   UNL A   1      46.767  27.248  36.963  1.00  0.00     0.054 A 
BRANCH  86  87
ATOM     87  S   UNL A   1      48.159  26.309  37.648  1.00  0.00     0.124 S 
ATOM     88  O   UNL A   1      48.602  25.543  36.487  1.00  0.00    -0.237 OA
ATOM     89  O   UNL A   1      49.069  27.362  38.093  1.00  0.00    -0.237 OA
ATOM     90  O   UNL A   1      47.548  25.526  38.720  1.00  0.00    -0.744 OA
ENDBRANCH  86  87
ENDBRANCH  58  81
BRANCH  70  91
ATOM     91  C   UNL A   1      40.043  33.705  37.380  1.00  0.00    -0.014 A 
ATOM     92  C   UNL A   1      39.264  33.216  38.444  1.00  0.00     0.010 A 
ATOM     93  C   UNL A   1      40.477  35.042  37.405  1.00  0.00     0.010 A 
ATOM     94  C   UNL A   1      38.891  34.056  39.496  1.00  0.00     0.020 A 
ATOM     95  C   UNL A   1      40.129  35.879  38.470  1.00  0.00     0.020 A 
ATOM     96  C   UNL A   1      39.316  35.388  39.494  1.00  0.00     0.054 A 
BRANCH  96  97
ATOM     97  S   UNL A   1      38.789  36.476  40.846  1.00  0.00     0.124 S 
ATOM     98  O   UNL A   1      38.283  37.640  40.125  1.00  0.00    -0.237 OA
ATOM     99  O   UNL A   1      37.779  35.673  41.532  1.00  0.00    -0.237 OA
ATOM    100  O   UNL A   1      40.018  36.696  41.605  1.00  0.00    -0.744 OA
ENDBRANCH  96  97
ENDBRANCH  70  91
ENDBRANCH  44  45
ENDBRANCH  36  39
ENDBRANCH  34  35
ENDBRANCH  33  34
ENDBRANCH  32  33
ENDBRANCH   1  32
TORSDOF 20
ENDMDL
MODEL 3
REMARK VINA RESULT:     -10.6      2.611      8.924
REMARK SMILES CC(=O)N[C@H](CSCC(=O)Nc1ccc2c(c1)N1CC[NH+]=C1S2)C(=O)NCCCCNC(=O)c1ccc(-c2c3nc(c(-c4ccc(S(=O)(=O)[O-])cc4)c4ccc([nH]4)c(-c4ccc(S(=O)(=O)[O-])cc4)c4nc(c(-c5ccc(S(=O)(=O)[O-])cc5)c5ccc2[nH]5)C=C4)C=C3)cc1
REMARK SMILES IDX 27 1 26 2 24 3 25 4 5 6 4 7 1 8 2 9 3 10 6 12 7 13 8 14 9 15
REMARK SMILES IDX 10 16 11 17 12 19 13 20 17 21 14 22 16 23 15 24 18 25 23 26
REMARK SMILES IDX 19 27 22 28 20 29 21 30 28 32 29 33 30 34 31 35 32 36 33 38
REMARK SMILES IDX 34 39 35 40 93 41 36 42 92 43 37 44 38 45 39 46 86 47 40 48
REMARK SMILES IDX 91 49 85 50 87 51 41 52 90 53 84 54 83 55 42 57 72 58 53 59
REMARK SMILES IDX 71 60 54 61 57 62 70 63 88 64 55 65 56 66 69 68 89 69 58 70
REMARK SMILES IDX 43 71 44 72 52 73 45 74 51 75 46 76 47 77 48 78 49 79 50 80
REMARK SMILES IDX 73 81 74 82 82 83 75 84 81 85 76 86 77 87 78 88 79 89 80 90
REMARK SMILES IDX 59 91 60 92 68 93 61 94 67 95 62 96 63 97 64 98 65 99 66 100
REMARK H PARENT 26 5 4 11 11 18 21 31 31 37 87 56 57 67
REMARK Flexibility Score: inf
ROOT
ATOM      1  C   UNL A   1      35.593  22.877  25.000  1.00  0.00     0.116 C 
ENDROOT
BRANCH   1   2
ATOM      2  N   UNL A   1      35.985  21.478  25.011  1.00  0.00    -0.354 N 
ATOM      3  C   UNL A   1      35.250  20.329  25.088  1.00  0.00     0.243 C 
ATOM      4  O   UNL A   1      35.854  19.256  25.005  1.00  0.00    -0.273 OA
ATOM      5  H   UNL A   1      36.957  21.331  24.951  1.00  0.00     0.163 HD
BRANCH   3   6
ATOM      6  C   UNL A   1      33.719  20.348  25.269  1.00  0.00     0.181 C 
BRANCH   6   7
ATOM      7  N   UNL A   1      33.103  19.883  24.017  1.00  0.00    -0.344 N 
ATOM      8  C   UNL A   1      32.653  17.556  24.713  1.00  0.00     0.114 C 
ATOM      9  C   UNL A   1      32.602  18.661  23.697  1.00  0.00     0.217 C 
ATOM     10  O   UNL A   1      32.095  18.496  22.589  1.00  0.00    -0.275 OA
ATOM     11  H   UNL A   1      33.044  20.559  23.304  1.00  0.00     0.164 HD
ENDBRANCH   6   7
BRANCH   6  12
ATOM     12  C   UNL A   1      33.186  21.712  25.724  1.00  0.00     0.105 C 
BRANCH  12  13
ATOM     13  S   UNL A   1      32.273  22.633  24.434  1.00  0.00    -0.149 SA
BRANCH  13  14
ATOM     14  C   UNL A   1      30.687  22.969  25.230  1.00  0.00     0.169 C 
BRANCH  14  15
ATOM     15  C   UNL A   1      30.750  23.632  26.597  1.00  0.00     0.234 C 
ATOM     16  O   UNL A   1      30.230  23.093  27.579  1.00  0.00    -0.274 OA
ATOM     17  N   UNL A   1      31.503  24.760  26.795  1.00  0.00    -0.325 N 
ATOM     18  H   UNL A   1      31.707  24.977  27.734  1.00  0.00     0.169 HD
BRANCH  17  19
ATOM     19  C   UNL A   1      32.020  25.641  25.840  1.00  0.00     0.045 A 
ATOM     20  C   UNL A   1      33.405  25.834  25.700  1.00  0.00     0.027 A 
ATOM     21  C   UNL A   1      31.123  26.287  24.986  1.00  0.00     0.079 A 
ATOM     22  C   UNL A   1      33.917  26.750  24.780  1.00  0.00     0.022 A 
ATOM     23  C   UNL A   1      31.618  27.229  24.101  1.00  0.00     0.144 A 
ATOM     24  C   UNL A   1      33.013  27.451  24.010  1.00  0.00     0.067 A 
ATOM     25  N   UNL A   1      30.903  28.070  23.294  1.00  0.00    -0.216 N 
ATOM     26  S   UNL A   1      33.361  28.753  22.818  1.00  0.00     0.002 SA
ATOM     27  C   UNL A   1      29.521  28.236  22.990  1.00  0.00     0.289 C 
ATOM     28  C   UNL A   1      31.642  28.979  22.600  1.00  0.00     0.316 C 
ATOM     29  C   UNL A   1      29.581  29.595  22.247  1.00  0.00     0.280 C 
ATOM     30  N   UNL A   1      31.021  29.874  21.892  1.00  0.00    -0.264 N 
ATOM     31  H   UNL A   1      31.391  30.555  21.284  1.00  0.00     0.305 HD
ENDBRANCH  17  19
ENDBRANCH  14  15
ENDBRANCH  13  14
ENDBRANCH  12  13
ENDBRANCH   6  12
ENDBRANCH   3   6
ENDBRANCH   1   2
BRANCH   1  32
ATOM     32  C   UNL A   1      36.429  23.766  25.923  1.00  0.00     0.023 C 
BRANCH  32  33
ATOM     33  C   UNL A   1      37.917  23.433  26.007  1.00  0.00     0.023 C 
BRANCH  33  34
ATOM     34  C   UNL A   1      38.773  24.435  26.767  1.00  0.00     0.116 C 
BRANCH  34  35
ATOM     35  N   UNL A   1      39.867  24.995  25.988  1.00  0.00    -0.352 N 
ATOM     36  C   UNL A   1      40.576  26.155  26.221  1.00  0.00     0.251 C 
ATOM     37  H   UNL A   1      40.135  24.480  25.192  1.00  0.00     0.163 HD
ATOM     38  O   UNL A   1      41.430  26.525  25.427  1.00  0.00    -0.269 OA
BRANCH  36  39
ATOM     39  C   UNL A   1      40.247  26.975  27.411  1.00  0.00     0.039 A 
ATOM     40  C   UNL A   1      40.660  28.305  27.495  1.00  0.00     0.014 A 
ATOM     41  C   UNL A   1      39.587  26.375  28.487  1.00  0.00     0.014 A 
ATOM     42  C   UNL A   1      40.599  28.965  28.717  1.00  0.00     0.010 A 
ATOM     43  C   UNL A   1      39.443  27.076  29.689  1.00  0.00     0.010 A 
ATOM     44  C   UNL A   1      40.009  28.352  29.835  1.00  0.00    -0.014 A 
BRANCH  44  45
ATOM     45  C   UNL A   1      40.037  29.054  31.146  1.00  0.00     0.031 A 
ATOM     46  C   UNL A   1      41.180  28.842  32.108  1.00  0.00     0.074 A 
ATOM     47  C   UNL A   1      39.079  29.960  31.430  1.00  0.00     0.049 A 
ATOM     48  N   UNL A   1      41.402  29.426  33.258  1.00  0.00    -0.248 NA
ATOM     49  C   UNL A   1      42.205  27.851  31.737  1.00  0.00     0.031 C 
ATOM     50  C   UNL A   1      37.939  30.274  30.566  1.00  0.00     0.029 A 
ATOM     51  N   UNL A   1      38.935  30.815  32.494  1.00  0.00    -0.354 N 
ATOM     52  C   UNL A   1      42.577  28.869  33.751  1.00  0.00     0.074 A 
ATOM     53  C   UNL A   1      43.007  27.875  32.794  1.00  0.00     0.031 C 
ATOM     54  C   UNL A   1      37.260  31.301  31.094  1.00  0.00     0.029 A 
ATOM     55  C   UNL A   1      37.870  31.677  32.365  1.00  0.00     0.049 A 
ATOM     56  H   UNL A   1      39.535  30.812  33.275  1.00  0.00     0.167 HD
ATOM     57  C   UNL A   1      43.246  29.171  34.889  1.00  0.00     0.031 A 
ATOM     58  C   UNL A   1      37.430  32.664  33.172  1.00  0.00     0.031 A 
ATOM     59  C   UNL A   1      42.827  30.176  35.830  1.00  0.00     0.049 A 
ATOM     60  C   UNL A   1      38.173  32.959  34.444  1.00  0.00     0.074 A 
ATOM     61  C   UNL A   1      43.439  30.547  37.015  1.00  0.00     0.029 A 
ATOM     62  N   UNL A   1      41.707  30.980  35.690  1.00  0.00    -0.354 N 
ATOM     63  N   UNL A   1      39.271  32.404  34.897  1.00  0.00    -0.248 NA
ATOM     64  C   UNL A   1      37.622  34.008  35.312  1.00  0.00     0.031 C 
ATOM     65  C   UNL A   1      42.663  31.539  37.616  1.00  0.00     0.029 A 
ATOM     66  C   UNL A   1      41.603  31.835  36.774  1.00  0.00     0.049 A 
ATOM     67  H   UNL A   1      41.079  30.949  34.933  1.00  0.00     0.167 HD
ATOM     68  C   UNL A   1      39.553  33.051  36.096  1.00  0.00     0.074 A 
ATOM     69  C   UNL A   1      38.519  34.047  36.289  1.00  0.00     0.031 C 
ATOM     70  C   UNL A   1      40.577  32.831  36.956  1.00  0.00     0.031 A 
BRANCH  57  71
ATOM     71  C   UNL A   1      44.514  28.417  35.197  1.00  0.00    -0.014 A 
ATOM     72  C   UNL A   1      45.741  28.869  34.676  1.00  0.00     0.010 A 
ATOM     73  C   UNL A   1      44.477  27.197  35.897  1.00  0.00     0.010 A 
ATOM     74  C   UNL A   1      46.900  28.101  34.817  1.00  0.00     0.020 A 
ATOM     75  C   UNL A   1      45.641  26.439  36.065  1.00  0.00     0.020 A 
ATOM     76  C   UNL A   1      46.840  26.885  35.502  1.00  0.00     0.054 A 
BRANCH  76  77
ATOM     77  S   UNL A   1      48.348  25.888  35.652  1.00  0.00     0.124 S 
ATOM     78  O   UNL A   1      48.802  26.216  36.999  1.00  0.00    -0.237 OA
ATOM     79  O   UNL A   1      47.853  24.526  35.466  1.00  0.00    -0.237 OA
ATOM     80  O   UNL A   1      49.194  26.385  34.568  1.00  0.00    -0.744 OA
ENDBRANCH  76  77
ENDBRANCH  57  71
BRANCH  58  81
ATOM     81  C   UNL A   1      36.238  33.457  32.761  1.00  0.00    -0.014 A 
ATOM     82  C   UNL A   1      36.314  34.860  32.674  1.00  0.00     0.010 A 
ATOM     83  C   UNL A   1      35.002  32.824  32.543  1.00  0.00     0.010 A 
ATOM     84  C   UNL A   1      35.166  35.620  32.437  1.00  0.00     0.020 A 
ATOM     85  C   UNL A   1      33.857  33.580  32.272  1.00  0.00     0.020 A 
ATOM     86  C   UNL A   1      33.941  34.974  32.252  1.00  0.00     0.054 A 
BRANCH  86  87
ATOM     87  S   UNL A   1      32.455  35.982  31.994  1.00  0.00     0.124 S 
ATOM     88  O   UNL A   1      32.389  36.046  30.537  1.00  0.00    -0.237 OA
ATOM     89  O   UNL A   1      31.412  35.185  32.636  1.00  0.00    -0.237 OA
ATOM     90  O   UNL A   1      32.775  37.240  32.664  1.00  0.00    -0.744 OA
ENDBRANCH  86  87
ENDBRANCH  58  81
BRANCH  70  91
ATOM     91  C   UNL A   1      40.664  33.684  38.193  1.00  0.00    -0.014 A 
ATOM     92  C   UNL A   1      39.935  33.319  39.340  1.00  0.00     0.010 A 
ATOM     93  C   UNL A   1      41.347  34.913  38.176  1.00  0.00     0.010 A 
ATOM     94  C   UNL A   1      39.855  34.182  40.435  1.00  0.00     0.020 A 
ATOM     95  C   UNL A   1      41.291  35.768  39.281  1.00  0.00     0.020 A 
ATOM     96  C   UNL A   1      40.524  35.409  40.391  1.00  0.00     0.054 A 
BRANCH  96  97
ATOM     97  S   UNL A   1      40.376  36.537  41.805  1.00  0.00     0.124 S 
ATOM     98  O   UNL A   1      38.932  36.721  41.902  1.00  0.00    -0.237 OA
ATOM     99  O   UNL A   1      40.988  35.774  42.891  1.00  0.00    -0.237 OA
ATOM    100  O   UNL A   1      41.131  37.714  41.382  1.00  0.00    -0.744 OA
ENDBRANCH  96  97
ENDBRANCH  70  91
ENDBRANCH  44  45
ENDBRANCH  36  39
ENDBRANCH  34  35
ENDBRANCH  33  34
ENDBRANCH  32  33
ENDBRANCH   1  32
TORSDOF 20
ENDMDL
