MODEL 1
REMARK VINA RESULT:     -10.9      0.000      0.000
REMARK SMILES CCOc1cccc(C(=O)Nc2ccc(Cl)c(C(=O)NCCCCNC(=O)c3ccc(-c4c5nc(c(-c6ccc(S(=O)(=O)[O-])cc6)c6ccc([nH]6)c(-c6ccc(S(=O)(=O)[O-])cc6)c6nc(c(-c7ccc(S(=O)(=O)[O-])cc7)c7ccc4[nH]7)C=C6)C=C5)cc3)c2)c1
REMARK SMILES IDX 22 1 21 2 20 3 18 4 19 5 17 7 12 8 13 9 88 10 14 11 15 12
REMARK SMILES IDX 16 13 11 14 9 15 10 16 8 18 4 19 5 20 89 21 6 22 7 23 3 24
REMARK SMILES IDX 2 25 1 26 23 27 24 28 25 29 26 30 27 32 28 33 29 34 87 35
REMARK SMILES IDX 30 36 86 37 31 38 32 39 33 40 80 41 34 42 85 43 79 44 81 45
REMARK SMILES IDX 35 46 84 47 78 48 77 49 36 51 66 52 47 53 65 54 48 55 51 56
REMARK SMILES IDX 64 57 82 58 49 59 50 60 63 62 83 63 52 64 37 65 38 66 46 67
REMARK SMILES IDX 39 68 45 69 40 70 41 71 42 72 43 73 44 74 67 75 68 76 76 77
REMARK SMILES IDX 69 78 75 79 70 80 71 81 72 82 73 83 74 84 53 85 54 86 62 87
REMARK SMILES IDX 55 88 61 89 56 90 57 91 58 92 59 93 60 94
REMARK H PARENT 20 6 11 17 25 31 81 50 51 61
REMARK Flexibility Score: inf
ROOT
ATOM      1  C   UNL A   1      32.159  27.569  26.715  1.00  0.00     0.023 C 
ENDROOT
BRANCH   1   2
ATOM      2  C   UNL A   1      31.011  26.781  26.086  1.00  0.00     0.116 C 
BRANCH   2   3
ATOM      3  N   UNL A   1      30.851  25.509  26.759  1.00  0.00    -0.352 N 
ATOM      4  C   UNL A   1      31.231  24.224  26.462  1.00  0.00     0.252 C 
ATOM      5  O   UNL A   1      30.731  23.353  27.174  1.00  0.00    -0.269 OA
ATOM      6  H   UNL A   1      30.367  25.582  27.612  1.00  0.00     0.163 HD
BRANCH   4   7
ATOM      7  C   UNL A   1      32.205  23.853  25.381  1.00  0.00     0.060 A 
ATOM      8  C   UNL A   1      32.889  23.828  23.028  1.00  0.00     0.042 A 
ATOM      9  C   UNL A   1      34.101  23.237  23.364  1.00  0.00     0.028 A 
ATOM     10  C   UNL A   1      31.917  24.023  24.016  1.00  0.00     0.041 A 
ATOM     11  C   UNL A   1      34.394  22.998  24.702  1.00  0.00     0.023 A 
ATOM     12  C   UNL A   1      33.477  23.337  25.711  1.00  0.00     0.053 A 
ATOM     13  Cl  UNL A   1      34.076  23.135  27.324  1.00  0.00    -0.083 Cl
BRANCH   8  14
ATOM     14  N   UNL A   1      32.715  24.236  21.700  1.00  0.00    -0.322 N 
ATOM     15  C   UNL A   1      32.369  25.461  21.156  1.00  0.00     0.255 C 
ATOM     16  O   UNL A   1      32.038  25.489  19.969  1.00  0.00    -0.269 OA
ATOM     17  H   UNL A   1      32.865  23.526  21.035  1.00  0.00     0.170 HD
BRANCH  15  18
ATOM     18  C   UNL A   1      32.484  26.759  21.895  1.00  0.00     0.043 A 
ATOM     19  C   UNL A   1      31.557  28.692  23.038  1.00  0.00     0.120 A 
ATOM     20  C   UNL A   1      32.832  29.246  23.146  1.00  0.00     0.046 A 
ATOM     21  C   UNL A   1      31.394  27.424  22.474  1.00  0.00     0.060 A 
ATOM     22  C   UNL A   1      33.941  28.541  22.688  1.00  0.00     0.005 A 
ATOM     23  C   UNL A   1      33.767  27.312  22.047  1.00  0.00     0.014 A 
BRANCH  19  24
ATOM     24  O   UNL A   1      30.516  29.542  23.290  1.00  0.00    -0.494 OA
BRANCH  24  25
ATOM     25  C   UNL A   1      29.581  29.767  22.237  1.00  0.00     0.226 C 
ATOM     26  C   UNL A   1      28.187  29.272  22.585  1.00  0.00     0.049 C 
ENDBRANCH  24  25
ENDBRANCH  19  24
ENDBRANCH  15  18
ENDBRANCH   8  14
ENDBRANCH   4   7
ENDBRANCH   2   3
ENDBRANCH   1   2
BRANCH   1  27
ATOM     27  C   UNL A   1      33.518  27.229  26.106  1.00  0.00     0.023 C 
BRANCH  27  28
ATOM     28  C   UNL A   1      34.544  28.352  26.215  1.00  0.00     0.116 C 
BRANCH  28  29
ATOM     29  N   UNL A   1      33.950  29.636  26.553  1.00  0.00    -0.352 N 
ATOM     30  C   UNL A   1      34.377  30.545  27.491  1.00  0.00     0.251 C 
ATOM     31  H   UNL A   1      33.142  29.885  26.048  1.00  0.00     0.163 HD
ATOM     32  O   UNL A   1      33.704  31.537  27.751  1.00  0.00    -0.269 OA
BRANCH  30  33
ATOM     33  C   UNL A   1      35.646  30.287  28.200  1.00  0.00     0.039 A 
ATOM     34  C   UNL A   1      35.616  29.609  29.419  1.00  0.00     0.014 A 
ATOM     35  C   UNL A   1      36.862  30.670  27.626  1.00  0.00     0.014 A 
ATOM     36  C   UNL A   1      36.817  29.271  30.043  1.00  0.00     0.010 A 
ATOM     37  C   UNL A   1      38.055  30.262  28.209  1.00  0.00     0.010 A 
ATOM     38  C   UNL A   1      38.046  29.570  29.429  1.00  0.00    -0.014 A 
BRANCH  38  39
ATOM     39  C   UNL A   1      39.333  29.201  30.068  1.00  0.00     0.031 A 
ATOM     40  C   UNL A   1      39.812  29.966  31.272  1.00  0.00     0.074 A 
ATOM     41  C   UNL A   1      40.088  28.215  29.543  1.00  0.00     0.049 A 
ATOM     42  N   UNL A   1      40.931  29.839  31.939  1.00  0.00    -0.248 NA
ATOM     43  C   UNL A   1      38.933  31.034  31.778  1.00  0.00     0.031 C 
ATOM     44  C   UNL A   1      39.754  27.431  28.351  1.00  0.00     0.029 A 
ATOM     45  N   UNL A   1      41.298  27.707  29.943  1.00  0.00    -0.354 N 
ATOM     46  C   UNL A   1      40.890  30.808  32.934  1.00  0.00     0.074 A 
ATOM     47  C   UNL A   1      39.670  31.560  32.744  1.00  0.00     0.031 C 
ATOM     48  C   UNL A   1      40.723  26.528  28.132  1.00  0.00     0.029 A 
ATOM     49  C   UNL A   1      41.763  26.689  29.144  1.00  0.00     0.049 A 
ATOM     50  H   UNL A   1      41.787  28.040  30.730  1.00  0.00     0.167 HD
ATOM     51  C   UNL A   1      41.769  31.032  33.938  1.00  0.00     0.031 A 
ATOM     52  C   UNL A   1      42.900  25.970  29.218  1.00  0.00     0.031 A 
ATOM     53  C   UNL A   1      42.976  30.276  34.134  1.00  0.00     0.049 A 
ATOM     54  C   UNL A   1      43.862  26.239  30.345  1.00  0.00     0.074 A 
ATOM     55  C   UNL A   1      43.926  30.410  35.132  1.00  0.00     0.029 A 
ATOM     56  N   UNL A   1      43.392  29.231  33.323  1.00  0.00    -0.354 N 
ATOM     57  N   UNL A   1      43.783  27.134  31.302  1.00  0.00    -0.248 NA
ATOM     58  C   UNL A   1      45.055  25.384  30.416  1.00  0.00     0.031 C 
ATOM     59  C   UNL A   1      44.933  29.469  34.904  1.00  0.00     0.029 A 
ATOM     60  C   UNL A   1      44.583  28.711  33.798  1.00  0.00     0.049 A 
ATOM     61  H   UNL A   1      42.912  28.908  32.527  1.00  0.00     0.167 HD
ATOM     62  C   UNL A   1      44.896  26.923  32.109  1.00  0.00     0.074 A 
ATOM     63  C   UNL A   1      45.623  25.809  31.536  1.00  0.00     0.031 C 
ATOM     64  C   UNL A   1      45.282  27.590  33.223  1.00  0.00     0.031 A 
BRANCH  51  65
ATOM     65  C   UNL A   1      41.440  32.130  34.916  1.00  0.00    -0.014 A 
ATOM     66  C   UNL A   1      41.862  33.452  34.678  1.00  0.00     0.010 A 
ATOM     67  C   UNL A   1      40.670  31.853  36.059  1.00  0.00     0.010 A 
ATOM     68  C   UNL A   1      41.550  34.468  35.584  1.00  0.00     0.020 A 
ATOM     69  C   UNL A   1      40.330  32.873  36.952  1.00  0.00     0.020 A 
ATOM     70  C   UNL A   1      40.786  34.172  36.715  1.00  0.00     0.054 A 
BRANCH  70  71
ATOM     71  S   UNL A   1      40.366  35.520  37.854  1.00  0.00     0.124 S 
ATOM     72  O   UNL A   1      41.589  35.637  38.645  1.00  0.00    -0.237 OA
ATOM     73  O   UNL A   1      40.096  36.632  36.947  1.00  0.00    -0.237 OA
ATOM     74  O   UNL A   1      39.202  35.014  38.578  1.00  0.00    -0.744 OA
ENDBRANCH  70  71
ENDBRANCH  51  65
BRANCH  52  75
ATOM     75  C   UNL A   1      43.191  24.917  28.205  1.00  0.00    -0.014 A 
ATOM     76  C   UNL A   1      42.775  23.590  28.407  1.00  0.00     0.010 A 
ATOM     77  C   UNL A   1      43.910  25.237  27.038  1.00  0.00     0.010 A 
ATOM     78  C   UNL A   1      43.110  22.593  27.485  1.00  0.00     0.020 A 
ATOM     79  C   UNL A   1      44.220  24.249  26.099  1.00  0.00     0.020 A 
ATOM     80  C   UNL A   1      43.836  22.929  26.339  1.00  0.00     0.054 A 
BRANCH  80  81
ATOM     81  S   UNL A   1      44.251  21.624  25.148  1.00  0.00     0.124 S 
ATOM     82  O   UNL A   1      43.210  20.635  25.407  1.00  0.00    -0.237 OA
ATOM     83  O   UNL A   1      44.158  22.322  23.868  1.00  0.00    -0.237 OA
ATOM     84  O   UNL A   1      45.603  21.227  25.536  1.00  0.00    -0.744 OA
ENDBRANCH  80  81
ENDBRANCH  52  75
BRANCH  64  85
ATOM     85  C   UNL A   1      46.512  27.095  33.936  1.00  0.00    -0.014 A 
ATOM     86  C   UNL A   1      47.790  27.601  33.637  1.00  0.00     0.010 A 
ATOM     87  C   UNL A   1      46.376  26.129  34.951  1.00  0.00     0.010 A 
ATOM     88  C   UNL A   1      48.915  27.118  34.312  1.00  0.00     0.020 A 
ATOM     89  C   UNL A   1      47.495  25.667  35.648  1.00  0.00     0.020 A 
ATOM     90  C   UNL A   1      48.760  26.152  35.311  1.00  0.00     0.054 A 
BRANCH  90  91
ATOM     91  S   UNL A   1      50.231  25.560  36.191  1.00  0.00     0.124 S 
ATOM     92  O   UNL A   1      49.981  24.123  36.266  1.00  0.00    -0.237 OA
ATOM     93  O   UNL A   1      51.319  25.964  35.305  1.00  0.00    -0.237 OA
ATOM     94  O   UNL A   1      50.179  26.269  37.468  1.00  0.00    -0.744 OA
ENDBRANCH  90  91
ENDBRANCH  64  85
ENDBRANCH  38  39
ENDBRANCH  30  33
ENDBRANCH  28  29
ENDBRANCH  27  28
ENDBRANCH   1  27
TORSDOF 18
ENDMDL
MODEL 2
REMARK VINA RESULT:     -10.8      2.761      4.799
REMARK SMILES CCOc1cccc(C(=O)Nc2ccc(Cl)c(C(=O)NCCCCNC(=O)c3ccc(-c4c5nc(c(-c6ccc(S(=O)(=O)[O-])cc6)c6ccc([nH]6)c(-c6ccc(S(=O)(=O)[O-])cc6)c6nc(c(-c7ccc(S(=O)(=O)[O-])cc7)c7ccc4[nH]7)C=C6)C=C5)cc3)c2)c1
REMARK SMILES IDX 22 1 21 2 20 3 18 4 19 5 17 7 12 8 13 9 88 10 14 11 15 12
REMARK SMILES IDX 16 13 11 14 9 15 10 16 8 18 4 19 5 20 89 21 6 22 7 23 3 24
REMARK SMILES IDX 2 25 1 26 23 27 24 28 25 29 26 30 27 32 28 33 29 34 87 35
REMARK SMILES IDX 30 36 86 37 31 38 32 39 33 40 80 41 34 42 85 43 79 44 81 45
REMARK SMILES IDX 35 46 84 47 78 48 77 49 36 51 66 52 47 53 65 54 48 55 51 56
REMARK SMILES IDX 64 57 82 58 49 59 50 60 63 62 83 63 52 64 37 65 38 66 46 67
REMARK SMILES IDX 39 68 45 69 40 70 41 71 42 72 43 73 44 74 67 75 68 76 76 77
REMARK SMILES IDX 69 78 75 79 70 80 71 81 72 82 73 83 74 84 53 85 54 86 62 87
REMARK SMILES IDX 55 88 61 89 56 90 57 91 58 92 59 93 60 94
REMARK H PARENT 20 6 11 17 25 31 81 50 51 61
REMARK Flexibility Score: inf
ROOT
ATOM      1  C   UNL A   1      31.788  30.646  26.821  1.00  0.00     0.023 C 
ENDROOT
BRANCH   1   2
ATOM      2  C   UNL A   1      33.063  29.845  26.562  1.00  0.00     0.116 C 
BRANCH   2   3
ATOM      3  N   UNL A   1      33.339  29.790  25.142  1.00  0.00    -0.352 N 
ATOM      4  C   UNL A   1      32.901  28.986  24.120  1.00  0.00     0.252 C 
ATOM      5  O   UNL A   1      33.521  29.097  23.064  1.00  0.00    -0.269 OA
ATOM      6  H   UNL A   1      33.978  30.477  24.847  1.00  0.00     0.163 HD
BRANCH   4   7
ATOM      7  C   UNL A   1      31.735  28.044  24.220  1.00  0.00     0.060 A 
ATOM      8  C   UNL A   1      30.566  26.188  25.313  1.00  0.00     0.042 A 
ATOM      9  C   UNL A   1      29.480  26.339  24.459  1.00  0.00     0.028 A 
ATOM     10  C   UNL A   1      31.717  26.958  25.113  1.00  0.00     0.041 A 
ATOM     11  C   UNL A   1      29.491  27.367  23.521  1.00  0.00     0.023 A 
ATOM     12  C   UNL A   1      30.587  28.240  23.423  1.00  0.00     0.053 A 
ATOM     13  Cl  UNL A   1      30.355  29.564  22.329  1.00  0.00    -0.083 Cl
BRANCH   8  14
ATOM     14  N   UNL A   1      30.435  25.278  26.370  1.00  0.00    -0.322 N 
ATOM     15  C   UNL A   1      30.840  23.962  26.502  1.00  0.00     0.255 C 
ATOM     16  O   UNL A   1      30.379  23.311  27.442  1.00  0.00    -0.269 OA
ATOM     17  H   UNL A   1      29.972  25.641  27.160  1.00  0.00     0.170 HD
BRANCH  15  18
ATOM     18  C   UNL A   1      31.887  23.327  25.640  1.00  0.00     0.043 A 
ATOM     19  C   UNL A   1      34.178  22.718  25.105  1.00  0.00     0.120 A 
ATOM     20  C   UNL A   1      33.764  22.221  23.870  1.00  0.00     0.046 A 
ATOM     21  C   UNL A   1      33.234  23.206  26.012  1.00  0.00     0.060 A 
ATOM     22  C   UNL A   1      32.412  22.218  23.537  1.00  0.00     0.005 A 
ATOM     23  C   UNL A   1      31.480  22.786  24.408  1.00  0.00     0.014 A 
BRANCH  19  24
ATOM     24  O   UNL A   1      35.525  22.901  25.251  1.00  0.00    -0.494 OA
BRANCH  24  25
ATOM     25  C   UNL A   1      36.300  21.778  25.666  1.00  0.00     0.226 C 
ATOM     26  C   UNL A   1      37.355  21.391  24.642  1.00  0.00     0.049 C 
ENDBRANCH  24  25
ENDBRANCH  19  24
ENDBRANCH  15  18
ENDBRANCH   8  14
ENDBRANCH   4   7
ENDBRANCH   2   3
ENDBRANCH   1   2
BRANCH   1  27
ATOM     27  C   UNL A   1      31.993  32.152  26.680  1.00  0.00     0.023 C 
BRANCH  27  28
ATOM     28  C   UNL A   1      33.019  32.731  27.647  1.00  0.00     0.116 C 
BRANCH  28  29
ATOM     29  N   UNL A   1      32.837  34.154  27.888  1.00  0.00    -0.352 N 
ATOM     30  C   UNL A   1      33.497  34.951  28.792  1.00  0.00     0.251 C 
ATOM     31  H   UNL A   1      32.156  34.602  27.335  1.00  0.00     0.163 HD
ATOM     32  O   UNL A   1      33.152  36.115  28.967  1.00  0.00    -0.269 OA
BRANCH  30  33
ATOM     33  C   UNL A   1      34.609  34.368  29.569  1.00  0.00     0.039 A 
ATOM     34  C   UNL A   1      34.321  33.637  30.721  1.00  0.00     0.014 A 
ATOM     35  C   UNL A   1      35.927  34.504  29.121  1.00  0.00     0.014 A 
ATOM     36  C   UNL A   1      35.357  32.997  31.403  1.00  0.00     0.010 A 
ATOM     37  C   UNL A   1      36.943  33.801  29.754  1.00  0.00     0.010 A 
ATOM     38  C   UNL A   1      36.672  33.051  30.908  1.00  0.00    -0.014 A 
BRANCH  38  39
ATOM     39  C   UNL A   1      37.784  32.361  31.607  1.00  0.00     0.031 A 
ATOM     40  C   UNL A   1      38.258  32.875  32.940  1.00  0.00     0.074 A 
ATOM     41  C   UNL A   1      38.394  31.307  31.029  1.00  0.00     0.049 A 
ATOM     42  N   UNL A   1      39.248  32.451  33.683  1.00  0.00    -0.248 NA
ATOM     43  C   UNL A   1      37.545  34.036  33.500  1.00  0.00     0.031 C 
ATOM     44  C   UNL A   1      38.056  30.743  29.718  1.00  0.00     0.029 A 
ATOM     45  N   UNL A   1      39.431  30.523  31.467  1.00  0.00    -0.354 N 
ATOM     46  C   UNL A   1      39.277  33.292  34.789  1.00  0.00     0.074 A 
ATOM     47  C   UNL A   1      38.252  34.293  34.589  1.00  0.00     0.031 C 
ATOM     48  C   UNL A   1      38.855  29.693  29.472  1.00  0.00     0.029 A 
ATOM     49  C   UNL A   1      39.783  29.527  30.587  1.00  0.00     0.049 A 
ATOM     50  H   UNL A   1      39.881  30.661  32.331  1.00  0.00     0.167 HD
ATOM     51  C   UNL A   1      40.062  33.222  35.890  1.00  0.00     0.031 A 
ATOM     52  C   UNL A   1      40.747  28.590  30.668  1.00  0.00     0.031 A 
ATOM     53  C   UNL A   1      41.073  32.220  36.093  1.00  0.00     0.049 A 
ATOM     54  C   UNL A   1      41.607  28.532  31.904  1.00  0.00     0.074 A 
ATOM     55  C   UNL A   1      41.910  32.049  37.182  1.00  0.00     0.029 A 
ATOM     56  N   UNL A   1      41.373  31.209  35.193  1.00  0.00    -0.354 N 
ATOM     57  N   UNL A   1      41.589  29.313  32.958  1.00  0.00    -0.248 NA
ATOM     58  C   UNL A   1      42.600  27.451  31.970  1.00  0.00     0.031 C 
ATOM     59  C   UNL A   1      42.740  30.954  36.925  1.00  0.00     0.029 A 
ATOM     60  C   UNL A   1      42.381  30.410  35.702  1.00  0.00     0.049 A 
ATOM     61  H   UNL A   1      40.935  31.080  34.321  1.00  0.00     0.167 HD
ATOM     62  C   UNL A   1      42.542  28.794  33.828  1.00  0.00     0.074 A 
ATOM     63  C   UNL A   1      43.105  27.625  33.183  1.00  0.00     0.031 C 
ATOM     64  C   UNL A   1      42.917  29.241  35.051  1.00  0.00     0.031 A 
BRANCH  51  65
ATOM     65  C   UNL A   1      39.837  34.248  36.968  1.00  0.00    -0.014 A 
ATOM     66  C   UNL A   1      40.449  35.514  36.894  1.00  0.00     0.010 A 
ATOM     67  C   UNL A   1      38.976  33.968  38.044  1.00  0.00     0.010 A 
ATOM     68  C   UNL A   1      40.234  36.465  37.893  1.00  0.00     0.020 A 
ATOM     69  C   UNL A   1      38.735  34.928  39.031  1.00  0.00     0.020 A 
ATOM     70  C   UNL A   1      39.378  36.166  38.956  1.00  0.00     0.054 A 
BRANCH  70  71
ATOM     71  S   UNL A   1      39.089  37.435  40.219  1.00  0.00     0.124 S 
ATOM     72  O   UNL A   1      38.153  38.328  39.539  1.00  0.00    -0.237 OA
ATOM     73  O   UNL A   1      38.529  36.664  41.325  1.00  0.00    -0.237 OA
ATOM     74  O   UNL A   1      40.417  37.994  40.461  1.00  0.00    -0.744 OA
ENDBRANCH  70  71
ENDBRANCH  51  65
BRANCH  52  75
ATOM     75  C   UNL A   1      40.948  27.619  29.556  1.00  0.00    -0.014 A 
ATOM     76  C   UNL A   1      40.041  26.564  29.350  1.00  0.00     0.010 A 
ATOM     77  C   UNL A   1      42.066  27.733  28.710  1.00  0.00     0.010 A 
ATOM     78  C   UNL A   1      40.272  25.617  28.347  1.00  0.00     0.020 A 
ATOM     79  C   UNL A   1      42.283  26.805  27.687  1.00  0.00     0.020 A 
ATOM     80  C   UNL A   1      41.395  25.741  27.525  1.00  0.00     0.054 A 
BRANCH  80  81
ATOM     81  S   UNL A   1      41.671  24.508  26.223  1.00  0.00     0.124 S 
ATOM     82  O   UNL A   1      40.585  23.563  26.466  1.00  0.00    -0.237 OA
ATOM     83  O   UNL A   1      41.555  25.305  25.003  1.00  0.00    -0.237 OA
ATOM     84  O   UNL A   1      43.014  24.007  26.507  1.00  0.00    -0.744 OA
ENDBRANCH  80  81
ENDBRANCH  52  75
BRANCH  64  85
ATOM     85  C   UNL A   1      43.941  28.431  35.801  1.00  0.00    -0.014 A 
ATOM     86  C   UNL A   1      43.568  27.359  36.630  1.00  0.00     0.010 A 
ATOM     87  C   UNL A   1      45.307  28.731  35.639  1.00  0.00     0.010 A 
ATOM     88  C   UNL A   1      44.541  26.627  37.317  1.00  0.00     0.020 A 
ATOM     89  C   UNL A   1      46.283  27.984  36.302  1.00  0.00     0.020 A 
ATOM     90  C   UNL A   1      45.892  26.947  37.151  1.00  0.00     0.054 A 
BRANCH  90  91
ATOM     91  S   UNL A   1      47.137  25.967  38.033  1.00  0.00     0.124 S 
ATOM     92  O   UNL A   1      46.663  24.603  37.811  1.00  0.00    -0.237 OA
ATOM     93  O   UNL A   1      48.374  26.323  37.342  1.00  0.00    -0.237 OA
ATOM     94  O   UNL A   1      47.040  26.444  39.411  1.00  0.00    -0.744 OA
ENDBRANCH  90  91
ENDBRANCH  64  85
ENDBRANCH  38  39
ENDBRANCH  30  33
ENDBRANCH  28  29
ENDBRANCH  27  28
ENDBRANCH   1  27
TORSDOF 18
ENDMDL
MODEL 3
REMARK VINA RESULT:     -10.7      2.404      3.042
REMARK SMILES CCOc1cccc(C(=O)Nc2ccc(Cl)c(C(=O)NCCCCNC(=O)c3ccc(-c4c5nc(c(-c6ccc(S(=O)(=O)[O-])cc6)c6ccc([nH]6)c(-c6ccc(S(=O)(=O)[O-])cc6)c6nc(c(-c7ccc(S(=O)(=O)[O-])cc7)c7ccc4[nH]7)C=C6)C=C5)cc3)c2)c1
REMARK SMILES IDX 22 1 21 2 20 3 18 4 19 5 17 7 12 8 13 9 88 10 14 11 15 12
REMARK SMILES IDX 16 13 11 14 9 15 10 16 8 18 4 19 5 20 89 21 6 22 7 23 3 24
REMARK SMILES IDX 2 25 1 26 23 27 24 28 25 29 26 30 27 32 28 33 29 34 87 35
REMARK SMILES IDX 30 36 86 37 31 38 32 39 33 40 80 41 34 42 85 43 79 44 81 45
REMARK SMILES IDX 35 46 84 47 78 48 77 49 36 51 66 52 47 53 65 54 48 55 51 56
REMARK SMILES IDX 64 57 82 58 49 59 50 60 63 62 83 63 52 64 37 65 38 66 46 67
REMARK SMILES IDX 39 68 45 69 40 70 41 71 42 72 43 73 44 74 67 75 68 76 76 77
REMARK SMILES IDX 69 78 75 79 70 80 71 81 72 82 73 83 74 84 53 85 54 86 62 87
REMARK SMILES IDX 55 88 61 89 56 90 57 91 58 92 59 93 60 94
REMARK H PARENT 20 6 11 17 25 31 81 50 51 61
REMARK Flexibility Score: inf
ROOT
ATOM      1  C   UNL A   1      33.518  25.829  25.805  1.00  0.00     0.023 C 
ENDROOT
BRANCH   1   2
ATOM      2  C   UNL A   1      33.280  24.581  26.655  1.00  0.00     0.116 C 
BRANCH   2   3
ATOM      3  N   UNL A   1      34.334  23.615  26.429  1.00  0.00    -0.352 N 
ATOM      4  C   UNL A   1      34.513  22.597  25.526  1.00  0.00     0.252 C 
ATOM      5  O   UNL A   1      35.448  21.837  25.771  1.00  0.00    -0.269 OA
ATOM      6  H   UNL A   1      35.085  23.709  27.059  1.00  0.00     0.163 HD
BRANCH   4   7
ATOM      7  C   UNL A   1      33.675  22.397  24.295  1.00  0.00     0.060 A 
ATOM      8  C   UNL A   1      33.016  23.038  22.023  1.00  0.00     0.042 A 
ATOM      9  C   UNL A   1      32.161  21.945  21.939  1.00  0.00     0.028 A 
ATOM     10  C   UNL A   1      33.671  23.313  23.228  1.00  0.00     0.041 A 
ATOM     11  C   UNL A   1      32.095  21.050  23.002  1.00  0.00     0.023 A 
ATOM     12  C   UNL A   1      32.872  21.245  24.156  1.00  0.00     0.053 A 
ATOM     13  Cl  UNL A   1      32.799  19.944  25.299  1.00  0.00    -0.083 Cl
BRANCH   8  14
ATOM     14  N   UNL A   1      33.207  23.800  20.863  1.00  0.00    -0.322 N 
ATOM     15  C   UNL A   1      32.852  25.100  20.552  1.00  0.00     0.255 C 
ATOM     16  O   UNL A   1      32.916  25.446  19.371  1.00  0.00    -0.269 OA
ATOM     17  H   UNL A   1      33.679  23.325  20.141  1.00  0.00     0.170 HD
BRANCH  15  18
ATOM     18  C   UNL A   1      32.505  26.133  21.581  1.00  0.00     0.043 A 
ATOM     19  C   UNL A   1      30.953  27.312  23.031  1.00  0.00     0.120 A 
ATOM     20  C   UNL A   1      31.965  28.195  23.405  1.00  0.00     0.046 A 
ATOM     21  C   UNL A   1      31.240  26.247  22.175  1.00  0.00     0.060 A 
ATOM     22  C   UNL A   1      33.258  28.021  22.921  1.00  0.00     0.005 A 
ATOM     23  C   UNL A   1      33.523  27.007  21.998  1.00  0.00     0.014 A 
BRANCH  19  24
ATOM     24  O   UNL A   1      29.681  27.693  23.357  1.00  0.00    -0.494 OA
BRANCH  24  25
ATOM     25  C   UNL A   1      29.063  28.687  22.544  1.00  0.00     0.226 C 
ATOM     26  C   UNL A   1      27.710  29.120  23.084  1.00  0.00     0.049 C 
ENDBRANCH  24  25
ENDBRANCH  19  24
ENDBRANCH  15  18
ENDBRANCH   8  14
ENDBRANCH   4   7
ENDBRANCH   2   3
ENDBRANCH   1   2
BRANCH   1  27
ATOM     27  C   UNL A   1      33.145  27.121  26.529  1.00  0.00     0.023 C 
BRANCH  27  28
ATOM     28  C   UNL A   1      34.257  28.163  26.550  1.00  0.00     0.116 C 
BRANCH  28  29
ATOM     29  N   UNL A   1      33.806  29.470  27.001  1.00  0.00    -0.352 N 
ATOM     30  C   UNL A   1      34.478  30.371  27.790  1.00  0.00     0.251 C 
ATOM     31  H   UNL A   1      32.907  29.743  26.704  1.00  0.00     0.163 HD
ATOM     32  O   UNL A   1      33.922  31.389  28.190  1.00  0.00    -0.269 OA
BRANCH  30  33
ATOM     33  C   UNL A   1      35.873  30.075  28.172  1.00  0.00     0.039 A 
ATOM     34  C   UNL A   1      36.137  29.588  29.452  1.00  0.00     0.014 A 
ATOM     35  C   UNL A   1      36.905  30.230  27.241  1.00  0.00     0.014 A 
ATOM     36  C   UNL A   1      37.438  29.208  29.785  1.00  0.00     0.010 A 
ATOM     37  C   UNL A   1      38.181  29.777  27.549  1.00  0.00     0.010 A 
ATOM     38  C   UNL A   1      38.464  29.273  28.827  1.00  0.00    -0.014 A 
BRANCH  38  39
ATOM     39  C   UNL A   1      39.850  28.856  29.156  1.00  0.00     0.031 A 
ATOM     40  C   UNL A   1      40.779  29.828  29.832  1.00  0.00     0.074 A 
ATOM     41  C   UNL A   1      40.284  27.628  28.809  1.00  0.00     0.049 A 
ATOM     42  N   UNL A   1      42.039  29.678  30.152  1.00  0.00    -0.248 NA
ATOM     43  C   UNL A   1      40.229  31.152  30.171  1.00  0.00     0.031 C 
ATOM     44  C   UNL A   1      39.493  26.613  28.107  1.00  0.00     0.029 A 
ATOM     45  N   UNL A   1      41.503  27.026  28.994  1.00  0.00    -0.354 N 
ATOM     46  C   UNL A   1      42.430  30.884  30.721  1.00  0.00     0.074 A 
ATOM     47  C   UNL A   1      41.296  31.778  30.642  1.00  0.00     0.031 C 
ATOM     48  C   UNL A   1      40.240  25.509  27.943  1.00  0.00     0.029 A 
ATOM     49  C   UNL A   1      41.570  25.746  28.496  1.00  0.00     0.049 A 
ATOM     50  H   UNL A   1      42.259  27.469  29.443  1.00  0.00     0.167 HD
ATOM     51  C   UNL A   1      43.613  31.211  31.290  1.00  0.00     0.031 A 
ATOM     52  C   UNL A   1      42.590  24.867  28.482  1.00  0.00     0.031 A 
ATOM     53  C   UNL A   1      44.736  30.317  31.379  1.00  0.00     0.049 A 
ATOM     54  C   UNL A   1      43.897  25.254  29.122  1.00  0.00     0.074 A 
ATOM     55  C   UNL A   1      45.975  30.544  31.954  1.00  0.00     0.029 A 
ATOM     56  N   UNL A   1      44.751  29.019  30.893  1.00  0.00    -0.354 N 
ATOM     57  N   UNL A   1      44.232  26.387  29.693  1.00  0.00    -0.248 NA
ATOM     58  C   UNL A   1      44.956  24.234  29.137  1.00  0.00     0.031 C 
ATOM     59  C   UNL A   1      46.750  29.394  31.784  1.00  0.00     0.029 A 
ATOM     60  C   UNL A   1      45.976  28.432  31.155  1.00  0.00     0.049 A 
ATOM     61  H   UNL A   1      44.002  28.580  30.430  1.00  0.00     0.167 HD
ATOM     62  C   UNL A   1      45.527  26.202  30.168  1.00  0.00     0.074 A 
ATOM     63  C   UNL A   1      45.906  24.845  29.830  1.00  0.00     0.031 C 
ATOM     64  C   UNL A   1      46.329  27.074  30.826  1.00  0.00     0.031 A 
BRANCH  51  65
ATOM     65  C   UNL A   1      43.741  32.590  31.882  1.00  0.00    -0.014 A 
ATOM     66  C   UNL A   1      43.453  32.817  33.241  1.00  0.00     0.010 A 
ATOM     67  C   UNL A   1      44.191  33.661  31.090  1.00  0.00     0.010 A 
ATOM     68  C   UNL A   1      43.578  34.096  33.787  1.00  0.00     0.020 A 
ATOM     69  C   UNL A   1      44.346  34.937  31.641  1.00  0.00     0.020 A 
ATOM     70  C   UNL A   1      44.024  35.148  32.984  1.00  0.00     0.054 A 
BRANCH  70  71
ATOM     71  S   UNL A   1      44.211  36.790  33.731  1.00  0.00     0.124 S 
ATOM     72  O   UNL A   1      42.824  37.243  33.814  1.00  0.00    -0.237 OA
ATOM     73  O   UNL A   1      44.850  36.489  35.009  1.00  0.00    -0.237 OA
ATOM     74  O   UNL A   1      45.045  37.514  32.775  1.00  0.00    -0.744 OA
ENDBRANCH  70  71
ENDBRANCH  51  65
BRANCH  52  75
ATOM     75  C   UNL A   1      42.419  23.526  27.854  1.00  0.00    -0.014 A 
ATOM     76  C   UNL A   1      41.829  22.467  28.566  1.00  0.00     0.010 A 
ATOM     77  C   UNL A   1      42.870  23.298  26.540  1.00  0.00     0.010 A 
ATOM     78  C   UNL A   1      41.733  21.195  27.995  1.00  0.00     0.020 A 
ATOM     79  C   UNL A   1      42.748  22.034  25.955  1.00  0.00     0.020 A 
ATOM     80  C   UNL A   1      42.199  20.985  26.694  1.00  0.00     0.054 A 
BRANCH  80  81
ATOM     81  S   UNL A   1      42.055  19.329  25.966  1.00  0.00     0.124 S 
ATOM     82  O   UNL A   1      42.555  18.481  27.043  1.00  0.00    -0.237 OA
ATOM     83  O   UNL A   1      40.623  19.226  25.693  1.00  0.00    -0.237 OA
ATOM     84  O   UNL A   1      42.904  19.404  24.780  1.00  0.00    -0.744 OA
ENDBRANCH  80  81
ENDBRANCH  52  75
BRANCH  64  85
ATOM     85  C   UNL A   1      47.673  26.572  31.280  1.00  0.00    -0.014 A 
ATOM     86  C   UNL A   1      47.861  26.032  32.564  1.00  0.00     0.010 A 
ATOM     87  C   UNL A   1      48.759  26.608  30.385  1.00  0.00     0.010 A 
ATOM     88  C   UNL A   1      49.122  25.576  32.960  1.00  0.00     0.020 A 
ATOM     89  C   UNL A   1      50.013  26.128  30.767  1.00  0.00     0.020 A 
ATOM     90  C   UNL A   1      50.190  25.630  32.060  1.00  0.00     0.054 A 
BRANCH  90  91
ATOM     91  S   UNL A   1      51.811  25.010  32.587  1.00  0.00     0.124 S 
ATOM     92  O   UNL A   1      51.829  25.375  34.002  1.00  0.00    -0.237 OA
ATOM     93  O   UNL A   1      51.714  23.580  32.307  1.00  0.00    -0.237 OA
ATOM     94  O   UNL A   1      52.753  25.742  31.743  1.00  0.00    -0.744 OA
ENDBRANCH  90  91
ENDBRANCH  64  85
ENDBRANCH  38  39
ENDBRANCH  30  33
ENDBRANCH  28  29
ENDBRANCH  27  28
ENDBRANCH   1  27
TORSDOF 18
ENDMDL
