MODEL 1
REMARK VINA RESULT:     -12.1      0.000      0.000
REMARK SMILES O=C(NCCCCNC(=O)[C@@H]1[C@@H](C(=O)Nc2ccc(F)c(F)c2)[C@H]2C=C[C@@H]1O2)c1ccc(-c2c3nc(c(-c4ccc(S(=O)(=O)[O-])cc4)c4ccc([nH]4)c(-c4ccc(S(=O)(=O)[O-])cc4)c4nc(c(-c5ccc(S(=O)(=O)[O-])cc5)c5ccc2[nH]5)C=C4)C=C3)cc1
REMARK SMILES IDX 5 1 4 2 3 3 1 4 2 5 29 7 30 8 88 9 31 10 87 11 32 12 33 13
REMARK SMILES IDX 34 14 81 15 35 16 86 17 80 18 82 19 36 20 85 21 79 22 78 23
REMARK SMILES IDX 37 25 67 26 48 27 66 28 49 29 52 30 65 31 83 32 50 33 51 34
REMARK SMILES IDX 64 36 84 37 53 38 38 39 39 40 47 41 40 42 46 43 41 44 42 45
REMARK SMILES IDX 43 46 44 47 45 48 68 49 69 50 77 51 70 52 76 53 71 54 72 55
REMARK SMILES IDX 73 56 74 57 75 58 54 59 55 60 63 61 56 62 62 63 57 64 58 65
REMARK SMILES IDX 59 66 60 67 61 68 6 69 7 70 8 71 9 72 10 74 11 75 12 76
REMARK SMILES IDX 27 77 24 78 26 79 28 80 25 81 13 82 14 83 15 84 16 86 17 87
REMARK SMILES IDX 23 88 18 89 21 90 19 91 22 92 20 93
REMARK H PARENT 3 6 82 24 52 35 8 73 15 85
REMARK Flexibility Score: inf
ROOT
ATOM      1  C   UNL A   1      32.680  27.887  25.966  1.00  0.00     0.023 C 
ENDROOT
BRANCH   1   2
ATOM      2  C   UNL A   1      33.568  28.365  27.105  1.00  0.00     0.116 C 
BRANCH   2   3
ATOM      3  N   UNL A   1      33.581  29.818  27.198  1.00  0.00    -0.352 N 
ATOM      4  O   UNL A   1      34.193  31.836  27.963  1.00  0.00    -0.269 OA
ATOM      5  C   UNL A   1      34.502  30.663  27.769  1.00  0.00     0.251 C 
ATOM      6  H   UNL A   1      32.807  30.266  26.786  1.00  0.00     0.163 HD
BRANCH   5   7
ATOM      7  C   UNL A   1      35.850  30.177  28.149  1.00  0.00     0.039 A 
ATOM      8  C   UNL A   1      36.915  30.234  27.251  1.00  0.00     0.014 A 
ATOM      9  C   UNL A   1      36.068  29.715  29.452  1.00  0.00     0.014 A 
ATOM     10  C   UNL A   1      38.152  29.703  27.600  1.00  0.00     0.010 A 
ATOM     11  C   UNL A   1      37.343  29.287  29.838  1.00  0.00     0.010 A 
ATOM     12  C   UNL A   1      38.393  29.262  28.908  1.00  0.00    -0.014 A 
BRANCH  12  13
ATOM     13  C   UNL A   1      39.772  28.874  29.304  1.00  0.00     0.031 A 
ATOM     14  C   UNL A   1      40.650  29.809  30.087  1.00  0.00     0.074 A 
ATOM     15  C   UNL A   1      40.225  27.654  28.949  1.00  0.00     0.049 A 
ATOM     16  N   UNL A   1      41.888  29.640  30.475  1.00  0.00    -0.248 NA
ATOM     17  C   UNL A   1      40.070  31.103  30.479  1.00  0.00     0.031 C 
ATOM     18  C   UNL A   1      39.460  26.660  28.186  1.00  0.00     0.029 A 
ATOM     19  N   UNL A   1      41.423  27.032  29.189  1.00  0.00    -0.354 N 
ATOM     20  C   UNL A   1      42.249  30.815  31.124  1.00  0.00     0.074 A 
ATOM     21  C   UNL A   1      41.101  31.695  31.065  1.00  0.00     0.031 C 
ATOM     22  C   UNL A   1      40.185  25.540  28.068  1.00  0.00     0.029 A 
ATOM     23  C   UNL A   1      41.495  25.761  28.666  1.00  0.00     0.049 A 
ATOM     24  H   UNL A   1      42.159  27.453  29.687  1.00  0.00     0.167 HD
ATOM     25  C   UNL A   1      43.430  31.128  31.711  1.00  0.00     0.031 A 
ATOM     26  C   UNL A   1      42.510  24.877  28.638  1.00  0.00     0.031 A 
ATOM     27  C   UNL A   1      44.564  30.241  31.760  1.00  0.00     0.049 A 
ATOM     28  C   UNL A   1      43.815  25.257  29.270  1.00  0.00     0.074 A 
ATOM     29  C   UNL A   1      45.800  30.454  32.348  1.00  0.00     0.029 A 
ATOM     30  N   UNL A   1      44.605  28.973  31.197  1.00  0.00    -0.354 N 
ATOM     31  N   UNL A   1      44.133  26.371  29.887  1.00  0.00    -0.248 NA
ATOM     32  C   UNL A   1      44.897  24.270  29.201  1.00  0.00     0.031 C 
ATOM     33  C   UNL A   1      46.603  29.337  32.093  1.00  0.00     0.029 A 
ATOM     34  C   UNL A   1      45.848  28.400  31.403  1.00  0.00     0.049 A 
ATOM     35  H   UNL A   1      43.858  28.543  30.720  1.00  0.00     0.167 HD
ATOM     36  C   UNL A   1      45.449  26.212  30.297  1.00  0.00     0.074 A 
ATOM     37  C   UNL A   1      45.862  24.889  29.870  1.00  0.00     0.031 C 
ATOM     38  C   UNL A   1      46.243  27.082  30.968  1.00  0.00     0.031 A 
BRANCH  25  39
ATOM     39  C   UNL A   1      43.567  32.507  32.307  1.00  0.00    -0.014 A 
ATOM     40  C   UNL A   1      43.987  33.606  31.534  1.00  0.00     0.010 A 
ATOM     41  C   UNL A   1      43.251  32.711  33.664  1.00  0.00     0.010 A 
ATOM     42  C   UNL A   1      44.141  34.866  32.119  1.00  0.00     0.020 A 
ATOM     43  C   UNL A   1      43.376  33.977  34.245  1.00  0.00     0.020 A 
ATOM     44  C   UNL A   1      43.842  35.042  33.474  1.00  0.00     0.054 A 
BRANCH  44  45
ATOM     45  S   UNL A   1      44.057  36.687  34.210  1.00  0.00     0.124 S 
ATOM     46  O   UNL A   1      44.617  37.444  33.093  1.00  0.00    -0.237 OA
ATOM     47  O   UNL A   1      42.695  37.049  34.591  1.00  0.00    -0.237 OA
ATOM     48  O   UNL A   1      44.972  36.453  35.324  1.00  0.00    -0.744 OA
ENDBRANCH  44  45
ENDBRANCH  25  39
BRANCH  26  49
ATOM     49  C   UNL A   1      42.316  23.564  27.965  1.00  0.00    -0.014 A 
ATOM     50  C   UNL A   1      42.852  23.327  26.688  1.00  0.00     0.010 A 
ATOM     51  C   UNL A   1      41.652  22.518  28.634  1.00  0.00     0.010 A 
ATOM     52  C   UNL A   1      42.730  22.068  26.094  1.00  0.00     0.020 A 
ATOM     53  C   UNL A   1      41.554  21.250  28.057  1.00  0.00     0.020 A 
ATOM     54  C   UNL A   1      42.089  21.035  26.786  1.00  0.00     0.054 A 
BRANCH  54  55
ATOM     55  S   UNL A   1      42.020  19.386  26.032  1.00  0.00     0.124 S 
ATOM     56  O   UNL A   1      42.876  19.551  24.861  1.00  0.00    -0.237 OA
ATOM     57  O   UNL A   1      42.552  18.532  27.090  1.00  0.00    -0.237 OA
ATOM     58  O   UNL A   1      40.598  19.199  25.748  1.00  0.00    -0.744 OA
ENDBRANCH  54  55
ENDBRANCH  26  49
BRANCH  38  59
ATOM     59  C   UNL A   1      47.629  26.617  31.320  1.00  0.00    -0.014 A 
ATOM     60  C   UNL A   1      47.895  25.971  32.540  1.00  0.00     0.010 A 
ATOM     61  C   UNL A   1      48.669  26.780  30.386  1.00  0.00     0.010 A 
ATOM     62  C   UNL A   1      49.184  25.517  32.830  1.00  0.00     0.020 A 
ATOM     63  C   UNL A   1      49.951  26.303  30.661  1.00  0.00     0.020 A 
ATOM     64  C   UNL A   1      50.204  25.685  31.887  1.00  0.00     0.054 A 
BRANCH  64  65
ATOM     65  S   UNL A   1      51.856  25.038  32.262  1.00  0.00     0.124 S 
ATOM     66  O   UNL A   1      51.657  23.598  32.128  1.00  0.00    -0.237 OA
ATOM     67  O   UNL A   1      52.685  25.656  31.231  1.00  0.00    -0.237 OA
ATOM     68  O   UNL A   1      52.112  25.507  33.623  1.00  0.00    -0.744 OA
ENDBRANCH  64  65
ENDBRANCH  38  59
ENDBRANCH  12  13
ENDBRANCH   5   7
ENDBRANCH   2   3
ENDBRANCH   1   2
BRANCH   1  69
ATOM     69  C   UNL A   1      31.349  27.292  26.431  1.00  0.00     0.023 C 
BRANCH  69  70
ATOM     70  C   UNL A   1      30.972  25.971  25.763  1.00  0.00     0.116 C 
BRANCH  70  71
ATOM     71  N   UNL A   1      31.051  24.830  26.665  1.00  0.00    -0.356 N 
ATOM     72  C   UNL A   1      31.879  23.747  26.690  1.00  0.00     0.227 C 
ATOM     73  H   UNL A   1      30.385  24.844  27.389  1.00  0.00     0.163 HD
ATOM     74  O   UNL A   1      31.750  22.955  27.623  1.00  0.00    -0.275 OA
BRANCH  72  75
ATOM     75  C   UNL A   1      32.870  23.520  25.575  1.00  0.00     0.127 C 
ATOM     76  C   UNL A   1      33.098  22.013  25.272  1.00  0.00     0.127 C 
ATOM     77  C   UNL A   1      34.289  23.946  26.028  1.00  0.00     0.155 C 
ATOM     78  C   UNL A   1      34.635  21.956  25.225  1.00  0.00     0.155 C 
ATOM     79  C   UNL A   1      35.117  24.147  24.795  1.00  0.00     0.004 C 
ATOM     80  O   UNL A   1      34.878  22.686  26.464  1.00  0.00    -0.365 OA
ATOM     81  C   UNL A   1      35.297  22.922  24.280  1.00  0.00     0.004 C 
BRANCH  76  82
ATOM     82  C   UNL A   1      32.440  21.536  24.008  1.00  0.00     0.231 C 
ATOM     83  O   UNL A   1      31.871  22.331  23.251  1.00  0.00    -0.274 OA
ATOM     84  N   UNL A   1      32.400  20.226  23.633  1.00  0.00    -0.326 N 
ATOM     85  H   UNL A   1      31.978  20.118  22.749  1.00  0.00     0.169 HD
BRANCH  84  86
ATOM     86  C   UNL A   1      32.801  18.984  24.168  1.00  0.00     0.044 A 
ATOM     87  C   UNL A   1      32.527  18.497  25.448  1.00  0.00     0.029 A 
ATOM     88  C   UNL A   1      33.475  18.133  23.276  1.00  0.00     0.068 A 
ATOM     89  C   UNL A   1      32.873  17.187  25.816  1.00  0.00     0.044 A 
ATOM     90  C   UNL A   1      33.814  16.830  23.642  1.00  0.00     0.160 A 
ATOM     91  C   UNL A   1      33.503  16.355  24.904  1.00  0.00     0.158 A 
ATOM     92  F   UNL A   1      34.409  16.034  22.746  1.00  0.00    -0.204 F 
ATOM     93  F   UNL A   1      33.781  15.091  25.245  1.00  0.00    -0.204 F 
ENDBRANCH  84  86
ENDBRANCH  76  82
ENDBRANCH  72  75
ENDBRANCH  70  71
ENDBRANCH  69  70
ENDBRANCH   1  69
TORSDOF 16
ENDMDL
MODEL 2
REMARK VINA RESULT:     -11.9      0.636      8.166
REMARK SMILES O=C(NCCCCNC(=O)[C@@H]1[C@@H](C(=O)Nc2ccc(F)c(F)c2)[C@H]2C=C[C@@H]1O2)c1ccc(-c2c3nc(c(-c4ccc(S(=O)(=O)[O-])cc4)c4ccc([nH]4)c(-c4ccc(S(=O)(=O)[O-])cc4)c4nc(c(-c5ccc(S(=O)(=O)[O-])cc5)c5ccc2[nH]5)C=C4)C=C3)cc1
REMARK SMILES IDX 5 1 4 2 3 3 1 4 2 5 29 7 30 8 88 9 31 10 87 11 32 12 33 13
REMARK SMILES IDX 34 14 81 15 35 16 86 17 80 18 82 19 36 20 85 21 79 22 78 23
REMARK SMILES IDX 37 25 67 26 48 27 66 28 49 29 52 30 65 31 83 32 50 33 51 34
REMARK SMILES IDX 64 36 84 37 53 38 38 39 39 40 47 41 40 42 46 43 41 44 42 45
REMARK SMILES IDX 43 46 44 47 45 48 68 49 69 50 77 51 70 52 76 53 71 54 72 55
REMARK SMILES IDX 73 56 74 57 75 58 54 59 55 60 63 61 56 62 62 63 57 64 58 65
REMARK SMILES IDX 59 66 60 67 61 68 6 69 7 70 8 71 9 72 10 74 11 75 12 76
REMARK SMILES IDX 27 77 24 78 26 79 28 80 25 81 13 82 14 83 15 84 16 86 17 87
REMARK SMILES IDX 23 88 18 89 21 90 19 91 22 92 20 93
REMARK H PARENT 3 6 82 24 52 35 8 73 15 85
REMARK Flexibility Score: inf
ROOT
ATOM      1  C   UNL A   1      32.675  27.671  25.971  1.00  0.00     0.023 C 
ENDROOT
BRANCH   1   2
ATOM      2  C   UNL A   1      33.673  28.115  27.031  1.00  0.00     0.116 C 
BRANCH   2   3
ATOM      3  N   UNL A   1      33.547  29.537  27.319  1.00  0.00    -0.352 N 
ATOM      4  O   UNL A   1      33.989  31.489  28.332  1.00  0.00    -0.269 OA
ATOM      5  C   UNL A   1      34.403  30.390  27.972  1.00  0.00     0.251 C 
ATOM      6  H   UNL A   1      32.715  29.953  26.994  1.00  0.00     0.163 HD
BRANCH   5   7
ATOM      7  C   UNL A   1      35.807  30.000  28.243  1.00  0.00     0.039 A 
ATOM      8  C   UNL A   1      36.801  30.173  27.281  1.00  0.00     0.014 A 
ATOM      9  C   UNL A   1      36.149  29.513  29.510  1.00  0.00     0.014 A 
ATOM     10  C   UNL A   1      38.096  29.731  27.526  1.00  0.00     0.010 A 
ATOM     11  C   UNL A   1      37.477  29.175  29.795  1.00  0.00     0.010 A 
ATOM     12  C   UNL A   1      38.460  29.265  28.797  1.00  0.00    -0.014 A 
BRANCH  12  13
ATOM     13  C   UNL A   1      39.888  28.975  29.086  1.00  0.00     0.031 A 
ATOM     14  C   UNL A   1      40.507  27.658  28.710  1.00  0.00     0.074 A 
ATOM     15  C   UNL A   1      40.628  29.924  29.695  1.00  0.00     0.049 A 
ATOM     16  N   UNL A   1      41.725  27.232  28.928  1.00  0.00    -0.248 NA
ATOM     17  C   UNL A   1      39.650  26.691  28.007  1.00  0.00     0.031 C 
ATOM     18  C   UNL A   1      40.134  31.243  30.108  1.00  0.00     0.029 A 
ATOM     19  N   UNL A   1      41.950  29.941  30.059  1.00  0.00    -0.354 N 
ATOM     20  C   UNL A   1      41.773  25.938  28.422  1.00  0.00     0.074 A 
ATOM     21  C   UNL A   1      40.455  25.644  27.900  1.00  0.00     0.031 C 
ATOM     22  C   UNL A   1      41.146  31.955  30.618  1.00  0.00     0.029 A 
ATOM     23  C   UNL A   1      42.340  31.121  30.651  1.00  0.00     0.049 A 
ATOM     24  H   UNL A   1      42.560  29.184  29.912  1.00  0.00     0.167 HD
ATOM     25  C   UNL A   1      42.819  25.076  28.402  1.00  0.00     0.031 A 
ATOM     26  C   UNL A   1      43.517  31.486  31.193  1.00  0.00     0.031 A 
ATOM     27  C   UNL A   1      44.124  25.384  28.928  1.00  0.00     0.049 A 
ATOM     28  C   UNL A   1      44.651  30.506  31.182  1.00  0.00     0.074 A 
ATOM     29  C   UNL A   1      45.259  24.589  28.939  1.00  0.00     0.029 A 
ATOM     30  N   UNL A   1      44.471  26.580  29.542  1.00  0.00    -0.354 N 
ATOM     31  N   UNL A   1      44.678  29.290  30.692  1.00  0.00    -0.248 NA
ATOM     32  C   UNL A   1      45.909  30.942  31.798  1.00  0.00     0.031 C 
ATOM     33  C   UNL A   1      46.273  25.284  29.605  1.00  0.00     0.029 A 
ATOM     34  C   UNL A   1      45.793  26.538  29.953  1.00  0.00     0.049 A 
ATOM     35  H   UNL A   1      43.866  27.346  29.667  1.00  0.00     0.167 HD
ATOM     36  C   UNL A   1      45.963  28.818  30.924  1.00  0.00     0.074 A 
ATOM     37  C   UNL A   1      46.686  29.888  31.585  1.00  0.00     0.031 C 
ATOM     38  C   UNL A   1      46.495  27.611  30.614  1.00  0.00     0.031 A 
BRANCH  25  39
ATOM     39  C   UNL A   1      42.578  23.701  27.830  1.00  0.00    -0.014 A 
ATOM     40  C   UNL A   1      41.927  22.698  28.572  1.00  0.00     0.010 A 
ATOM     41  C   UNL A   1      42.995  23.414  26.516  1.00  0.00     0.010 A 
ATOM     42  C   UNL A   1      41.748  21.421  28.032  1.00  0.00     0.020 A 
ATOM     43  C   UNL A   1      42.792  22.146  25.962  1.00  0.00     0.020 A 
ATOM     44  C   UNL A   1      42.190  21.150  26.733  1.00  0.00     0.054 A 
BRANCH  44  45
ATOM     45  S   UNL A   1      41.951  19.483  26.059  1.00  0.00     0.124 S 
ATOM     46  O   UNL A   1      42.426  18.645  27.157  1.00  0.00    -0.237 OA
ATOM     47  O   UNL A   1      40.512  19.437  25.814  1.00  0.00    -0.237 OA
ATOM     48  O   UNL A   1      42.785  19.470  24.859  1.00  0.00    -0.744 OA
ENDBRANCH  44  45
ENDBRANCH  25  39
BRANCH  26  49
ATOM     49  C   UNL A   1      43.651  32.836  31.804  1.00  0.00    -0.014 A 
ATOM     50  C   UNL A   1      43.442  33.025  33.180  1.00  0.00     0.010 A 
ATOM     51  C   UNL A   1      44.060  33.930  31.017  1.00  0.00     0.010 A 
ATOM     52  C   UNL A   1      43.643  34.281  33.759  1.00  0.00     0.020 A 
ATOM     53  C   UNL A   1      44.291  35.180  31.597  1.00  0.00     0.020 A 
ATOM     54  C   UNL A   1      44.074  35.349  32.965  1.00  0.00     0.054 A 
BRANCH  54  55
ATOM     55  S   UNL A   1      44.412  36.947  33.754  1.00  0.00     0.124 S 
ATOM     56  O   UNL A   1      43.213  37.146  34.563  1.00  0.00    -0.237 OA
ATOM     57  O   UNL A   1      45.640  36.679  34.498  1.00  0.00    -0.237 OA
ATOM     58  O   UNL A   1      44.565  37.861  32.624  1.00  0.00    -0.744 OA
ENDBRANCH  54  55
ENDBRANCH  26  49
BRANCH  38  59
ATOM     59  C   UNL A   1      47.945  27.393  30.951  1.00  0.00    -0.014 A 
ATOM     60  C   UNL A   1      48.955  27.582  29.992  1.00  0.00     0.010 A 
ATOM     61  C   UNL A   1      48.301  27.047  32.268  1.00  0.00     0.010 A 
ATOM     62  C   UNL A   1      50.297  27.405  30.339  1.00  0.00     0.020 A 
ATOM     63  C   UNL A   1      49.643  26.897  32.624  1.00  0.00     0.020 A 
ATOM     64  C   UNL A   1      50.632  27.066  31.654  1.00  0.00     0.054 A 
BRANCH  64  65
ATOM     65  S   UNL A   1      52.383  26.898  32.093  1.00  0.00     0.124 S 
ATOM     66  O   UNL A   1      52.841  28.284  32.058  1.00  0.00    -0.237 OA
ATOM     67  O   UNL A   1      52.325  26.290  33.420  1.00  0.00    -0.237 OA
ATOM     68  O   UNL A   1      52.923  26.037  31.043  1.00  0.00    -0.744 OA
ENDBRANCH  64  65
ENDBRANCH  38  59
ENDBRANCH  12  13
ENDBRANCH   5   7
ENDBRANCH   2   3
ENDBRANCH   1   2
BRANCH   1  69
ATOM     69  C   UNL A   1      31.333  27.210  26.544  1.00  0.00     0.023 C 
BRANCH  69  70
ATOM     70  C   UNL A   1      30.800  25.907  25.950  1.00  0.00     0.116 C 
BRANCH  70  71
ATOM     71  N   UNL A   1      30.989  24.759  26.826  1.00  0.00    -0.356 N 
ATOM     72  C   UNL A   1      31.883  23.730  26.796  1.00  0.00     0.227 C 
ATOM     73  H   UNL A   1      30.355  24.719  27.578  1.00  0.00     0.163 HD
ATOM     74  O   UNL A   1      31.843  22.916  27.719  1.00  0.00    -0.275 OA
BRANCH  72  75
ATOM     75  C   UNL A   1      32.838  23.584  25.637  1.00  0.00     0.127 C 
ATOM     76  C   UNL A   1      33.115  22.100  25.271  1.00  0.00     0.127 C 
ATOM     77  C   UNL A   1      34.255  24.054  26.051  1.00  0.00     0.155 C 
ATOM     78  C   UNL A   1      34.650  22.110  25.164  1.00  0.00     0.155 C 
ATOM     79  C   UNL A   1      35.025  24.332  24.795  1.00  0.00     0.004 C 
ATOM     80  O   UNL A   1      34.911  22.806  26.418  1.00  0.00    -0.365 OA
ATOM     81  C   UNL A   1      35.234  23.135  24.230  1.00  0.00     0.004 C 
BRANCH  76  82
ATOM     82  C   UNL A   1      32.428  21.640  24.016  1.00  0.00     0.231 C 
ATOM     83  O   UNL A   1      31.867  22.448  23.268  1.00  0.00    -0.274 OA
ATOM     84  N   UNL A   1      32.351  20.331  23.641  1.00  0.00    -0.326 N 
ATOM     85  H   UNL A   1      31.914  20.233  22.764  1.00  0.00     0.169 HD
BRANCH  84  86
ATOM     86  C   UNL A   1      32.730  19.080  24.171  1.00  0.00     0.044 A 
ATOM     87  C   UNL A   1      32.441  18.588  25.446  1.00  0.00     0.029 A 
ATOM     88  C   UNL A   1      33.396  18.224  23.276  1.00  0.00     0.068 A 
ATOM     89  C   UNL A   1      32.765  17.270  25.806  1.00  0.00     0.044 A 
ATOM     90  C   UNL A   1      33.713  16.914  23.636  1.00  0.00     0.160 A 
ATOM     91  C   UNL A   1      33.388  16.435  24.892  1.00  0.00     0.158 A 
ATOM     92  F   UNL A   1      34.301  16.115  22.737  1.00  0.00    -0.204 F 
ATOM     93  F   UNL A   1      33.644  15.165  25.227  1.00  0.00    -0.204 F 
ENDBRANCH  84  86
ENDBRANCH  76  82
ENDBRANCH  72  75
ENDBRANCH  70  71
ENDBRANCH  69  70
ENDBRANCH   1  69
TORSDOF 16
ENDMDL
MODEL 3
REMARK VINA RESULT:     -11.8      4.287     10.180
REMARK SMILES O=C(NCCCCNC(=O)[C@@H]1[C@@H](C(=O)Nc2ccc(F)c(F)c2)[C@H]2C=C[C@@H]1O2)c1ccc(-c2c3nc(c(-c4ccc(S(=O)(=O)[O-])cc4)c4ccc([nH]4)c(-c4ccc(S(=O)(=O)[O-])cc4)c4nc(c(-c5ccc(S(=O)(=O)[O-])cc5)c5ccc2[nH]5)C=C4)C=C3)cc1
REMARK SMILES IDX 5 1 4 2 3 3 1 4 2 5 29 7 30 8 88 9 31 10 87 11 32 12 33 13
REMARK SMILES IDX 34 14 81 15 35 16 86 17 80 18 82 19 36 20 85 21 79 22 78 23
REMARK SMILES IDX 37 25 67 26 48 27 66 28 49 29 52 30 65 31 83 32 50 33 51 34
REMARK SMILES IDX 64 36 84 37 53 38 38 39 39 40 47 41 40 42 46 43 41 44 42 45
REMARK SMILES IDX 43 46 44 47 45 48 68 49 69 50 77 51 70 52 76 53 71 54 72 55
REMARK SMILES IDX 73 56 74 57 75 58 54 59 55 60 63 61 56 62 62 63 57 64 58 65
REMARK SMILES IDX 59 66 60 67 61 68 6 69 7 70 8 71 9 72 10 74 11 75 12 76
REMARK SMILES IDX 27 77 24 78 26 79 28 80 25 81 13 82 14 83 15 84 16 86 17 87
REMARK SMILES IDX 23 88 18 89 21 90 19 91 22 92 20 93
REMARK H PARENT 3 6 82 24 52 35 8 73 15 85
REMARK Flexibility Score: inf
ROOT
ATOM      1  C   UNL A   1      35.268  23.340  24.753  1.00  0.00     0.023 C 
ENDROOT
BRANCH   1   2
ATOM      2  C   UNL A   1      36.692  23.851  24.916  1.00  0.00     0.116 C 
BRANCH   2   3
ATOM      3  N   UNL A   1      37.593  22.791  25.346  1.00  0.00    -0.352 N 
ATOM      4  O   UNL A   1      39.510  21.868  26.056  1.00  0.00    -0.269 OA
ATOM      5  C   UNL A   1      38.788  22.861  26.021  1.00  0.00     0.251 C 
ATOM      6  H   UNL A   1      37.298  21.880  25.118  1.00  0.00     0.163 HD
BRANCH   5   7
ATOM      7  C   UNL A   1      39.209  24.110  26.697  1.00  0.00     0.039 A 
ATOM      8  C   UNL A   1      38.914  24.336  28.042  1.00  0.00     0.014 A 
ATOM      9  C   UNL A   1      39.973  25.047  25.991  1.00  0.00     0.014 A 
ATOM     10  C   UNL A   1      39.250  25.546  28.638  1.00  0.00     0.010 A 
ATOM     11  C   UNL A   1      40.410  26.215  26.626  1.00  0.00     0.010 A 
ATOM     12  C   UNL A   1      40.037  26.482  27.952  1.00  0.00    -0.014 A 
BRANCH  12  13
ATOM     13  C   UNL A   1      40.538  27.681  28.673  1.00  0.00     0.031 A 
ATOM     14  C   UNL A   1      41.939  27.736  29.214  1.00  0.00     0.074 A 
ATOM     15  C   UNL A   1      39.706  28.731  28.832  1.00  0.00     0.049 A 
ATOM     16  N   UNL A   1      42.516  28.689  29.900  1.00  0.00    -0.248 NA
ATOM     17  C   UNL A   1      42.802  26.572  28.960  1.00  0.00     0.031 C 
ATOM     18  C   UNL A   1      38.321  28.790  28.350  1.00  0.00     0.029 A 
ATOM     19  N   UNL A   1      39.899  29.952  29.426  1.00  0.00    -0.354 N 
ATOM     20  C   UNL A   1      43.795  28.228  30.191  1.00  0.00     0.074 A 
ATOM     21  C   UNL A   1      43.903  26.903  29.619  1.00  0.00     0.031 C 
ATOM     22  C   UNL A   1      37.811  29.999  28.618  1.00  0.00     0.029 A 
ATOM     23  C   UNL A   1      38.794  30.770  29.368  1.00  0.00     0.049 A 
ATOM     24  H   UNL A   1      40.745  30.217  29.852  1.00  0.00     0.167 HD
ATOM     25  C   UNL A   1      44.784  28.854  30.877  1.00  0.00     0.031 A 
ATOM     26  C   UNL A   1      38.577  31.993  29.886  1.00  0.00     0.031 A 
ATOM     27  C   UNL A   1      44.659  30.172  31.443  1.00  0.00     0.049 A 
ATOM     28  C   UNL A   1      39.675  32.653  30.663  1.00  0.00     0.074 A 
ATOM     29  C   UNL A   1      45.607  30.905  32.138  1.00  0.00     0.029 A 
ATOM     30  N   UNL A   1      43.515  30.957  31.384  1.00  0.00    -0.354 N 
ATOM     31  N   UNL A   1      40.881  32.203  30.920  1.00  0.00    -0.248 NA
ATOM     32  C   UNL A   1      39.388  33.978  31.222  1.00  0.00     0.031 C 
ATOM     33  C   UNL A   1      45.019  32.108  32.544  1.00  0.00     0.029 A 
ATOM     34  C   UNL A   1      43.725  32.155  32.047  1.00  0.00     0.049 A 
ATOM     35  H   UNL A   1      42.677  30.700  30.936  1.00  0.00     0.167 HD
ATOM     36  C   UNL A   1      41.505  33.200  31.658  1.00  0.00     0.074 A 
ATOM     37  C   UNL A   1      40.548  34.281  31.792  1.00  0.00     0.031 C 
ATOM     38  C   UNL A   1      42.758  33.218  32.174  1.00  0.00     0.031 A 
BRANCH  25  39
ATOM     39  C   UNL A   1      46.071  28.096  31.091  1.00  0.00    -0.014 A 
ATOM     40  C   UNL A   1      47.134  28.176  30.173  1.00  0.00     0.010 A 
ATOM     41  C   UNL A   1      46.224  27.303  32.243  1.00  0.00     0.010 A 
ATOM     42  C   UNL A   1      48.303  27.436  30.376  1.00  0.00     0.020 A 
ATOM     43  C   UNL A   1      47.403  26.583  32.465  1.00  0.00     0.020 A 
ATOM     44  C   UNL A   1      48.426  26.636  31.517  1.00  0.00     0.054 A 
BRANCH  44  45
ATOM     45  S   UNL A   1      49.950  25.680  31.753  1.00  0.00     0.124 S 
ATOM     46  O   UNL A   1      50.220  25.207  30.397  1.00  0.00    -0.237 OA
ATOM     47  O   UNL A   1      50.882  26.681  32.263  1.00  0.00    -0.237 OA
ATOM     48  O   UNL A   1      49.566  24.644  32.709  1.00  0.00    -0.744 OA
ENDBRANCH  44  45
ENDBRANCH  25  39
BRANCH  26  49
ATOM     49  C   UNL A   1      37.252  32.643  29.692  1.00  0.00    -0.014 A 
ATOM     50  C   UNL A   1      36.369  32.805  30.773  1.00  0.00     0.010 A 
ATOM     51  C   UNL A   1      36.899  33.167  28.434  1.00  0.00     0.010 A 
ATOM     52  C   UNL A   1      35.158  33.483  30.599  1.00  0.00     0.020 A 
ATOM     53  C   UNL A   1      35.704  33.870  28.264  1.00  0.00     0.020 A 
ATOM     54  C   UNL A   1      34.838  34.018  29.348  1.00  0.00     0.054 A 
BRANCH  54  55
ATOM     55  S   UNL A   1      33.303  34.968  29.168  1.00  0.00     0.124 S 
ATOM     56  O   UNL A   1      32.749  34.910  30.517  1.00  0.00    -0.237 OA
ATOM     57  O   UNL A   1      33.789  36.277  28.740  1.00  0.00    -0.237 OA
ATOM     58  O   UNL A   1      32.558  34.227  28.152  1.00  0.00    -0.744 OA
ENDBRANCH  54  55
ENDBRANCH  26  49
BRANCH  38  59
ATOM     59  C   UNL A   1      43.184  34.465  32.900  1.00  0.00    -0.014 A 
ATOM     60  C   UNL A   1      43.660  35.590  32.205  1.00  0.00     0.010 A 
ATOM     61  C   UNL A   1      43.050  34.526  34.300  1.00  0.00     0.010 A 
ATOM     62  C   UNL A   1      44.017  36.748  32.900  1.00  0.00     0.020 A 
ATOM     63  C   UNL A   1      43.380  35.691  34.994  1.00  0.00     0.020 A 
ATOM     64  C   UNL A   1      43.873  36.792  34.290  1.00  0.00     0.054 A 
BRANCH  64  65
ATOM     65  S   UNL A   1      44.290  38.325  35.164  1.00  0.00     0.124 S 
ATOM     66  O   UNL A   1      43.749  38.072  36.497  1.00  0.00    -0.237 OA
ATOM     67  O   UNL A   1      45.747  38.360  35.073  1.00  0.00    -0.237 OA
ATOM     68  O   UNL A   1      43.598  39.360  34.398  1.00  0.00    -0.744 OA
ENDBRANCH  64  65
ENDBRANCH  38  59
ENDBRANCH  12  13
ENDBRANCH   5   7
ENDBRANCH   2   3
ENDBRANCH   1   2
BRANCH   1  69
ATOM     69  C   UNL A   1      34.667  23.621  23.374  1.00  0.00     0.023 C 
BRANCH  69  70
ATOM     70  C   UNL A   1      33.141  23.585  23.324  1.00  0.00     0.116 C 
BRANCH  70  71
ATOM     71  N   UNL A   1      32.591  24.253  22.152  1.00  0.00    -0.356 N 
ATOM     72  C   UNL A   1      32.270  25.557  21.915  1.00  0.00     0.227 C 
ATOM     73  H   UNL A   1      32.420  23.653  21.391  1.00  0.00     0.163 HD
ATOM     74  O   UNL A   1      31.869  25.848  20.788  1.00  0.00    -0.275 OA
BRANCH  72  75
ATOM     75  C   UNL A   1      32.357  26.577  23.025  1.00  0.00     0.127 C 
ATOM     76  C   UNL A   1      31.404  27.784  22.809  1.00  0.00     0.127 C 
ATOM     77  C   UNL A   1      33.736  27.283  22.992  1.00  0.00     0.155 C 
ATOM     78  C   UNL A   1      32.357  28.960  23.084  1.00  0.00     0.155 C 
ATOM     79  C   UNL A   1      33.955  27.912  24.335  1.00  0.00     0.004 C 
ATOM     80  O   UNL A   1      33.455  28.500  22.243  1.00  0.00    -0.365 OA
ATOM     81  C   UNL A   1      33.077  28.922  24.405  1.00  0.00     0.004 C 
BRANCH  76  82
ATOM     82  C   UNL A   1      30.191  27.772  23.695  1.00  0.00     0.231 C 
ATOM     83  O   UNL A   1      30.020  26.871  24.524  1.00  0.00    -0.274 OA
ATOM     84  N   UNL A   1      29.205  28.712  23.628  1.00  0.00    -0.326 N 
ATOM     85  H   UNL A   1      28.524  28.570  24.325  1.00  0.00     0.169 HD
BRANCH  84  86
ATOM     86  C   UNL A   1      28.899  29.834  22.830  1.00  0.00     0.044 A 
ATOM     87  C   UNL A   1      28.354  29.823  21.544  1.00  0.00     0.029 A 
ATOM     88  C   UNL A   1      29.096  31.082  23.445  1.00  0.00     0.068 A 
ATOM     89  C   UNL A   1      27.974  31.015  20.906  1.00  0.00     0.044 A 
ATOM     90  C   UNL A   1      28.714  32.265  22.810  1.00  0.00     0.160 A 
ATOM     91  C   UNL A   1      28.144  32.230  21.550  1.00  0.00     0.158 A 
ATOM     92  F   UNL A   1      28.872  33.430  23.451  1.00  0.00    -0.204 F 
ATOM     93  F   UNL A   1      27.731  33.356  20.956  1.00  0.00    -0.204 F 
ENDBRANCH  84  86
ENDBRANCH  76  82
ENDBRANCH  72  75
ENDBRANCH  70  71
ENDBRANCH  69  70
ENDBRANCH   1  69
TORSDOF 16
ENDMDL
