MODEL 1
REMARK VINA RESULT:     -12.7      0.000      0.000
REMARK SMILES O=C(NCCCCNC(=O)c1c(C2CC2)nn(-c2ccc(Cl)c(F)c2)c1Cl)c1ccc(-c2c3nc(c(-c4ccc(S(=O)(=O)[O-])cc4)c4ccc([nH]4)c(-c4ccc(S(=O)(=O)[O-])cc4)c4nc(c(-c5ccc(S(=O)(=O)[O-])cc5)c5ccc2[nH]5)C=C4)C=C3)cc1
REMARK SMILES IDX 4 1 3 2 1 3 2 4 28 6 29 7 87 8 30 9 86 10 31 11 32 12 33 13
REMARK SMILES IDX 80 14 34 15 85 16 79 17 81 18 35 19 84 20 78 21 77 22 36 24
REMARK SMILES IDX 66 25 47 26 65 27 48 28 51 29 64 30 82 31 49 32 50 33 63 35
REMARK SMILES IDX 83 36 52 37 37 38 38 39 46 40 39 41 45 42 40 43 41 44 42 45
REMARK SMILES IDX 43 46 44 47 67 48 68 49 76 50 69 51 75 52 70 53 71 54 72 55
REMARK SMILES IDX 73 56 74 57 53 58 54 59 62 60 55 61 61 62 56 63 57 64 58 65
REMARK SMILES IDX 59 66 60 67 5 68 6 69 7 70 8 71 9 72 10 74 11 75 12 76 26 77
REMARK SMILES IDX 16 78 17 79 27 80 13 81 14 82 15 83 18 84 19 85 25 86 20 87
REMARK SMILES IDX 23 88 21 89 24 90 22 91
REMARK H PARENT 3 5 81 23 51 34 8 73
REMARK Flexibility Score: inf
ROOT
ATOM      1  C   UNL A   1      36.916  22.087  25.350  1.00  0.00     0.116 C 
ENDROOT
BRANCH   1   2
ATOM      2  N   UNL A   1      38.234  21.499  25.478  1.00  0.00    -0.352 N 
ATOM      3  O   UNL A   1      40.292  21.005  26.089  1.00  0.00    -0.269 OA
ATOM      4  C   UNL A   1      39.396  21.854  26.110  1.00  0.00     0.251 C 
ATOM      5  H   UNL A   1      38.312  20.643  24.996  1.00  0.00     0.163 HD
BRANCH   4   6
ATOM      6  C   UNL A   1      39.662  23.163  26.777  1.00  0.00     0.039 A 
ATOM      7  C   UNL A   1      38.904  24.323  26.627  1.00  0.00     0.014 A 
ATOM      8  C   UNL A   1      40.794  23.219  27.615  1.00  0.00     0.014 A 
ATOM      9  C   UNL A   1      39.295  25.517  27.239  1.00  0.00     0.010 A 
ATOM     10  C   UNL A   1      41.175  24.403  28.248  1.00  0.00     0.010 A 
ATOM     11  C   UNL A   1      40.438  25.567  28.038  1.00  0.00    -0.014 A 
BRANCH  11  12
ATOM     12  C   UNL A   1      40.774  26.846  28.669  1.00  0.00     0.031 A 
ATOM     13  C   UNL A   1      41.959  27.583  28.135  1.00  0.00     0.074 A 
ATOM     14  C   UNL A   1      40.007  27.466  29.588  1.00  0.00     0.049 A 
ATOM     15  N   UNL A   1      43.023  27.972  28.763  1.00  0.00    -0.248 NA
ATOM     16  C   UNL A   1      41.950  27.919  26.704  1.00  0.00     0.031 C 
ATOM     17  C   UNL A   1      38.642  27.125  29.992  1.00  0.00     0.029 A 
ATOM     18  N   UNL A   1      40.261  28.624  30.270  1.00  0.00    -0.354 N 
ATOM     19  C   UNL A   1      43.754  28.738  27.854  1.00  0.00     0.074 A 
ATOM     20  C   UNL A   1      43.089  28.602  26.581  1.00  0.00     0.031 C 
ATOM     21  C   UNL A   1      38.110  28.171  30.663  1.00  0.00     0.029 A 
ATOM     22  C   UNL A   1      39.136  29.183  30.852  1.00  0.00     0.049 A 
ATOM     23  H   UNL A   1      41.159  29.022  30.340  1.00  0.00     0.167 HD
ATOM     24  C   UNL A   1      44.775  29.564  28.219  1.00  0.00     0.031 A 
ATOM     25  C   UNL A   1      39.026  30.422  31.389  1.00  0.00     0.031 A 
ATOM     26  C   UNL A   1      45.243  29.325  29.554  1.00  0.00     0.049 A 
ATOM     27  C   UNL A   1      40.383  30.924  31.708  1.00  0.00     0.074 A 
ATOM     28  C   UNL A   1      45.835  28.270  30.217  1.00  0.00     0.029 A 
ATOM     29  N   UNL A   1      44.880  30.227  30.522  1.00  0.00    -0.354 N 
ATOM     30  N   UNL A   1      41.151  30.426  32.635  1.00  0.00    -0.248 NA
ATOM     31  C   UNL A   1      41.040  31.831  30.779  1.00  0.00     0.031 C 
ATOM     32  C   UNL A   1      45.412  28.393  31.572  1.00  0.00     0.029 A 
ATOM     33  C   UNL A   1      44.580  29.511  31.652  1.00  0.00     0.049 A 
ATOM     34  H   UNL A   1      44.842  31.206  30.423  1.00  0.00     0.167 HD
ATOM     35  C   UNL A   1      42.444  30.646  32.190  1.00  0.00     0.074 A 
ATOM     36  C   UNL A   1      42.313  31.633  31.126  1.00  0.00     0.031 C 
ATOM     37  C   UNL A   1      43.465  29.807  32.530  1.00  0.00     0.031 A 
BRANCH  24  38
ATOM     38  C   UNL A   1      45.167  30.814  27.468  1.00  0.00    -0.014 A 
ATOM     39  C   UNL A   1      46.496  30.961  27.016  1.00  0.00     0.010 A 
ATOM     40  C   UNL A   1      44.349  31.962  27.438  1.00  0.00     0.010 A 
ATOM     41  C   UNL A   1      46.997  32.207  26.613  1.00  0.00     0.020 A 
ATOM     42  C   UNL A   1      44.827  33.200  26.996  1.00  0.00     0.020 A 
ATOM     43  C   UNL A   1      46.161  33.322  26.625  1.00  0.00     0.054 A 
BRANCH  43  44
ATOM     44  S   UNL A   1      46.849  34.952  26.230  1.00  0.00     0.124 S 
ATOM     45  O   UNL A   1      47.668  34.652  25.059  1.00  0.00    -0.237 OA
ATOM     46  O   UNL A   1      45.651  35.747  25.978  1.00  0.00    -0.237 OA
ATOM     47  O   UNL A   1      47.587  35.312  27.438  1.00  0.00    -0.744 OA
ENDBRANCH  43  44
ENDBRANCH  24  38
BRANCH  25  48
ATOM     48  C   UNL A   1      37.829  31.294  31.389  1.00  0.00    -0.014 A 
ATOM     49  C   UNL A   1      36.722  31.012  32.208  1.00  0.00     0.010 A 
ATOM     50  C   UNL A   1      37.878  32.556  30.761  1.00  0.00     0.010 A 
ATOM     51  C   UNL A   1      35.723  31.976  32.426  1.00  0.00     0.020 A 
ATOM     52  C   UNL A   1      36.881  33.515  30.962  1.00  0.00     0.020 A 
ATOM     53  C   UNL A   1      35.818  33.228  31.811  1.00  0.00     0.054 A 
BRANCH  53  54
ATOM     54  S   UNL A   1      34.613  34.522  32.224  1.00  0.00     0.124 S 
ATOM     55  O   UNL A   1      34.090  34.887  30.911  1.00  0.00    -0.237 OA
ATOM     56  O   UNL A   1      33.681  33.820  33.103  1.00  0.00    -0.237 OA
ATOM     57  O   UNL A   1      35.421  35.549  32.877  1.00  0.00    -0.744 OA
ENDBRANCH  53  54
ENDBRANCH  25  48
BRANCH  37  58
ATOM     58  C   UNL A   1      43.275  28.872  33.701  1.00  0.00    -0.014 A 
ATOM     59  C   UNL A   1      43.480  29.273  35.035  1.00  0.00     0.010 A 
ATOM     60  C   UNL A   1      42.699  27.612  33.459  1.00  0.00     0.010 A 
ATOM     61  C   UNL A   1      43.126  28.432  36.097  1.00  0.00     0.020 A 
ATOM     62  C   UNL A   1      42.326  26.776  34.516  1.00  0.00     0.020 A 
ATOM     63  C   UNL A   1      42.542  27.190  35.831  1.00  0.00     0.054 A 
BRANCH  63  64
ATOM     64  S   UNL A   1      41.981  26.160  37.217  1.00  0.00     0.124 S 
ATOM     65  O   UNL A   1      41.981  24.820  36.637  1.00  0.00    -0.237 OA
ATOM     66  O   UNL A   1      43.001  26.404  38.236  1.00  0.00    -0.237 OA
ATOM     67  O   UNL A   1      40.660  26.699  37.537  1.00  0.00    -0.744 OA
ENDBRANCH  63  64
ENDBRANCH  37  58
ENDBRANCH  11  12
ENDBRANCH   4   6
ENDBRANCH   1   2
BRANCH   1  68
ATOM     68  C   UNL A   1      36.546  22.526  23.931  1.00  0.00     0.023 C 
BRANCH  68  69
ATOM     69  C   UNL A   1      35.060  22.794  23.677  1.00  0.00     0.023 C 
BRANCH  69  70
ATOM     70  C   UNL A   1      34.641  24.259  23.637  1.00  0.00     0.116 C 
BRANCH  70  71
ATOM     71  N   UNL A   1      33.784  24.588  22.507  1.00  0.00    -0.352 N 
ATOM     72  C   UNL A   1      32.783  25.530  22.428  1.00  0.00     0.256 C 
ATOM     73  H   UNL A   1      33.941  24.065  21.688  1.00  0.00     0.163 HD
ATOM     74  O   UNL A   1      32.234  25.732  21.350  1.00  0.00    -0.269 OA
BRANCH  72  75
ATOM     75  C   UNL A   1      32.445  26.268  23.622  1.00  0.00     0.100 A 
ATOM     76  C   UNL A   1      31.593  25.960  24.711  1.00  0.00     0.080 A 
ATOM     77  C   UNL A   1      32.897  27.536  23.924  1.00  0.00     0.145 A 
ATOM     78  N   UNL A   1      31.690  26.862  25.697  1.00  0.00    -0.170 NA
ATOM     79  N   UNL A   1      32.505  27.828  25.210  1.00  0.00    -0.221 N 
ATOM     80  Cl  UNL A   1      33.933  28.556  23.019  1.00  0.00    -0.061 Cl
BRANCH  76  81
ATOM     81  C   UNL A   1      30.657  24.775  24.930  1.00  0.00     0.041 C 
ATOM     82  C   UNL A   1      31.149  23.346  24.913  1.00  0.00     0.011 C 
ATOM     83  C   UNL A   1      30.724  23.964  26.203  1.00  0.00     0.011 C 
ENDBRANCH  76  81
BRANCH  79  84
ATOM     84  C   UNL A   1      32.906  28.890  26.061  1.00  0.00     0.069 A 
ATOM     85  C   UNL A   1      34.106  28.755  26.780  1.00  0.00     0.030 A 
ATOM     86  C   UNL A   1      32.159  30.066  26.163  1.00  0.00     0.069 A 
ATOM     87  C   UNL A   1      34.595  29.828  27.531  1.00  0.00     0.026 A 
ATOM     88  C   UNL A   1      32.641  31.115  26.942  1.00  0.00     0.143 A 
ATOM     89  C   UNL A   1      33.861  31.012  27.608  1.00  0.00     0.076 A 
ATOM     90  F   UNL A   1      31.903  32.231  27.037  1.00  0.00    -0.205 F 
ATOM     91  Cl  UNL A   1      34.475  32.334  28.524  1.00  0.00    -0.081 Cl
ENDBRANCH  79  84
ENDBRANCH  72  75
ENDBRANCH  70  71
ENDBRANCH  69  70
ENDBRANCH  68  69
ENDBRANCH   1  68
TORSDOF 16
ENDMDL
MODEL 2
REMARK VINA RESULT:     -12.6      2.117      2.909
REMARK SMILES O=C(NCCCCNC(=O)c1c(C2CC2)nn(-c2ccc(Cl)c(F)c2)c1Cl)c1ccc(-c2c3nc(c(-c4ccc(S(=O)(=O)[O-])cc4)c4ccc([nH]4)c(-c4ccc(S(=O)(=O)[O-])cc4)c4nc(c(-c5ccc(S(=O)(=O)[O-])cc5)c5ccc2[nH]5)C=C4)C=C3)cc1
REMARK SMILES IDX 4 1 3 2 1 3 2 4 28 6 29 7 87 8 30 9 86 10 31 11 32 12 33 13
REMARK SMILES IDX 80 14 34 15 85 16 79 17 81 18 35 19 84 20 78 21 77 22 36 24
REMARK SMILES IDX 66 25 47 26 65 27 48 28 51 29 64 30 82 31 49 32 50 33 63 35
REMARK SMILES IDX 83 36 52 37 37 38 38 39 46 40 39 41 45 42 40 43 41 44 42 45
REMARK SMILES IDX 43 46 44 47 67 48 68 49 76 50 69 51 75 52 70 53 71 54 72 55
REMARK SMILES IDX 73 56 74 57 53 58 54 59 62 60 55 61 61 62 56 63 57 64 58 65
REMARK SMILES IDX 59 66 60 67 5 68 6 69 7 70 8 71 9 72 10 74 11 75 12 76 26 77
REMARK SMILES IDX 16 78 17 79 27 80 13 81 14 82 15 83 18 84 19 85 25 86 20 87
REMARK SMILES IDX 23 88 21 89 24 90 22 91
REMARK H PARENT 3 5 81 23 51 34 8 73
REMARK Flexibility Score: inf
ROOT
ATOM      1  C   UNL A   1      37.205  22.284  24.646  1.00  0.00     0.116 C 
ENDROOT
BRANCH   1   2
ATOM      2  N   UNL A   1      38.311  21.518  25.186  1.00  0.00    -0.352 N 
ATOM      3  O   UNL A   1      40.004  20.791  26.392  1.00  0.00    -0.269 OA
ATOM      4  C   UNL A   1      39.306  21.765  26.094  1.00  0.00     0.251 C 
ATOM      5  H   UNL A   1      38.356  20.608  24.813  1.00  0.00     0.163 HD
BRANCH   4   6
ATOM      6  C   UNL A   1      39.620  23.089  26.708  1.00  0.00     0.039 A 
ATOM      7  C   UNL A   1      38.893  24.264  26.528  1.00  0.00     0.014 A 
ATOM      8  C   UNL A   1      40.767  23.143  27.525  1.00  0.00     0.014 A 
ATOM      9  C   UNL A   1      39.326  25.468  27.089  1.00  0.00     0.010 A 
ATOM     10  C   UNL A   1      41.191  24.338  28.108  1.00  0.00     0.010 A 
ATOM     11  C   UNL A   1      40.484  25.514  27.868  1.00  0.00    -0.014 A 
BRANCH  11  12
ATOM     12  C   UNL A   1      40.866  26.805  28.446  1.00  0.00     0.031 A 
ATOM     13  C   UNL A   1      42.178  27.383  28.025  1.00  0.00     0.074 A 
ATOM     14  C   UNL A   1      40.057  27.568  29.207  1.00  0.00     0.049 A 
ATOM     15  N   UNL A   1      43.189  27.723  28.760  1.00  0.00    -0.248 NA
ATOM     16  C   UNL A   1      42.385  27.598  26.585  1.00  0.00     0.031 C 
ATOM     17  C   UNL A   1      38.624  27.388  29.448  1.00  0.00     0.029 A 
ATOM     18  N   UNL A   1      40.339  28.750  29.834  1.00  0.00    -0.354 N 
ATOM     19  C   UNL A   1      44.103  28.340  27.906  1.00  0.00     0.074 A 
ATOM     20  C   UNL A   1      43.594  28.160  26.568  1.00  0.00     0.031 C 
ATOM     21  C   UNL A   1      38.121  28.531  29.965  1.00  0.00     0.029 A 
ATOM     22  C   UNL A   1      39.213  29.457  30.219  1.00  0.00     0.049 A 
ATOM     23  H   UNL A   1      41.257  29.068  29.995  1.00  0.00     0.167 HD
ATOM     24  C   UNL A   1      45.148  29.097  28.344  1.00  0.00     0.031 A 
ATOM     25  C   UNL A   1      39.163  30.741  30.647  1.00  0.00     0.031 A 
ATOM     26  C   UNL A   1      45.417  28.927  29.744  1.00  0.00     0.049 A 
ATOM     27  C   UNL A   1      40.512  31.141  31.108  1.00  0.00     0.074 A 
ATOM     28  C   UNL A   1      45.809  27.882  30.553  1.00  0.00     0.029 A 
ATOM     29  N   UNL A   1      45.028  29.937  30.588  1.00  0.00    -0.354 N 
ATOM     30  N   UNL A   1      41.102  30.654  32.163  1.00  0.00    -0.248 NA
ATOM     31  C   UNL A   1      41.370  31.903  30.214  1.00  0.00     0.031 C 
ATOM     32  C   UNL A   1      45.234  28.155  31.828  1.00  0.00     0.029 A 
ATOM     33  C   UNL A   1      44.516  29.348  31.715  1.00  0.00     0.049 A 
ATOM     34  H   UNL A   1      45.103  30.904  30.416  1.00  0.00     0.167 HD
ATOM     35  C   UNL A   1      42.457  30.716  31.881  1.00  0.00     0.074 A 
ATOM     36  C   UNL A   1      42.563  31.618  30.741  1.00  0.00     0.031 C 
ATOM     37  C   UNL A   1      43.335  29.818  32.413  1.00  0.00     0.031 A 
BRANCH  24  38
ATOM     38  C   UNL A   1      45.757  30.238  27.566  1.00  0.00    -0.014 A 
ATOM     39  C   UNL A   1      47.162  30.325  27.452  1.00  0.00     0.010 A 
ATOM     40  C   UNL A   1      45.012  31.373  27.186  1.00  0.00     0.010 A 
ATOM     41  C   UNL A   1      47.789  31.508  27.035  1.00  0.00     0.020 A 
ATOM     42  C   UNL A   1      45.626  32.542  26.727  1.00  0.00     0.020 A 
ATOM     43  C   UNL A   1      47.014  32.615  26.695  1.00  0.00     0.054 A 
BRANCH  43  44
ATOM     44  S   UNL A   1      47.833  34.179  26.285  1.00  0.00     0.124 S 
ATOM     45  O   UNL A   1      47.608  34.959  27.499  1.00  0.00    -0.237 OA
ATOM     46  O   UNL A   1      49.212  33.761  26.049  1.00  0.00    -0.237 OA
ATOM     47  O   UNL A   1      47.116  34.640  25.099  1.00  0.00    -0.744 OA
ENDBRANCH  43  44
ENDBRANCH  24  38
BRANCH  25  48
ATOM     48  C   UNL A   1      38.070  31.716  30.425  1.00  0.00    -0.014 A 
ATOM     49  C   UNL A   1      38.166  32.704  29.429  1.00  0.00     0.010 A 
ATOM     50  C   UNL A   1      36.813  31.515  31.032  1.00  0.00     0.010 A 
ATOM     51  C   UNL A   1      37.034  33.432  29.024  1.00  0.00     0.020 A 
ATOM     52  C   UNL A   1      35.685  32.245  30.645  1.00  0.00     0.020 A 
ATOM     53  C   UNL A   1      35.798  33.186  29.627  1.00  0.00     0.054 A 
BRANCH  53  54
ATOM     54  S   UNL A   1      34.311  34.013  28.991  1.00  0.00     0.124 S 
ATOM     55  O   UNL A   1      33.694  32.963  28.187  1.00  0.00    -0.237 OA
ATOM     56  O   UNL A   1      33.599  34.373  30.215  1.00  0.00    -0.237 OA
ATOM     57  O   UNL A   1      34.843  35.143  28.233  1.00  0.00    -0.744 OA
ENDBRANCH  53  54
ENDBRANCH  25  48
BRANCH  37  58
ATOM     58  C   UNL A   1      42.904  29.006  33.611  1.00  0.00    -0.014 A 
ATOM     59  C   UNL A   1      42.110  27.848  33.501  1.00  0.00     0.010 A 
ATOM     60  C   UNL A   1      43.467  29.317  34.862  1.00  0.00     0.010 A 
ATOM     61  C   UNL A   1      41.880  27.029  34.613  1.00  0.00     0.020 A 
ATOM     62  C   UNL A   1      43.256  28.493  35.972  1.00  0.00     0.020 A 
ATOM     63  C   UNL A   1      42.462  27.352  35.842  1.00  0.00     0.054 A 
BRANCH  63  64
ATOM     64  S   UNL A   1      42.251  26.221  37.246  1.00  0.00     0.124 S 
ATOM     65  O   UNL A   1      40.851  26.424  37.608  1.00  0.00    -0.237 OA
ATOM     66  O   UNL A   1      42.567  24.918  36.664  1.00  0.00    -0.237 OA
ATOM     67  O   UNL A   1      43.222  26.701  38.228  1.00  0.00    -0.744 OA
ENDBRANCH  63  64
ENDBRANCH  37  58
ENDBRANCH  11  12
ENDBRANCH   4   6
ENDBRANCH   1   2
BRANCH   1  68
ATOM     68  C   UNL A   1      35.852  22.007  25.306  1.00  0.00     0.023 C 
BRANCH  68  69
ATOM     69  C   UNL A   1      35.407  23.013  26.371  1.00  0.00     0.023 C 
BRANCH  69  70
ATOM     70  C   UNL A   1      34.161  23.827  26.044  1.00  0.00     0.116 C 
BRANCH  70  71
ATOM     71  N   UNL A   1      33.022  23.517  26.897  1.00  0.00    -0.352 N 
ATOM     72  C   UNL A   1      31.682  23.724  26.658  1.00  0.00     0.256 C 
ATOM     73  H   UNL A   1      33.241  23.103  27.763  1.00  0.00     0.163 HD
ATOM     74  O   UNL A   1      30.858  23.300  27.462  1.00  0.00    -0.269 OA
BRANCH  72  75
ATOM     75  C   UNL A   1      31.303  24.407  25.445  1.00  0.00     0.100 A 
ATOM     76  C   UNL A   1      31.126  23.944  24.118  1.00  0.00     0.080 A 
ATOM     77  C   UNL A   1      31.066  25.762  25.340  1.00  0.00     0.145 A 
ATOM     78  N   UNL A   1      30.609  24.888  23.319  1.00  0.00    -0.170 NA
ATOM     79  N   UNL A   1      30.565  26.006  24.082  1.00  0.00    -0.221 N 
ATOM     80  Cl  UNL A   1      31.150  26.969  26.552  1.00  0.00    -0.061 Cl
BRANCH  76  81
ATOM     81  C   UNL A   1      31.385  22.569  23.507  1.00  0.00     0.041 C 
ATOM     82  C   UNL A   1      32.759  22.139  23.048  1.00  0.00     0.011 C 
ATOM     83  C   UNL A   1      32.163  21.522  24.268  1.00  0.00     0.011 C 
ENDBRANCH  76  81
BRANCH  79  84
ATOM     84  C   UNL A   1      29.954  27.176  23.561  1.00  0.00     0.069 A 
ATOM     85  C   UNL A   1      30.770  28.137  22.939  1.00  0.00     0.030 A 
ATOM     86  C   UNL A   1      28.571  27.366  23.617  1.00  0.00     0.069 A 
ATOM     87  C   UNL A   1      30.191  29.242  22.306  1.00  0.00     0.026 A 
ATOM     88  C   UNL A   1      28.010  28.487  23.012  1.00  0.00     0.143 A 
ATOM     89  C   UNL A   1      28.807  29.413  22.340  1.00  0.00     0.076 A 
ATOM     90  F   UNL A   1      26.682  28.657  23.089  1.00  0.00    -0.205 F 
ATOM     91  Cl  UNL A   1      28.100  30.768  21.547  1.00  0.00    -0.081 Cl
ENDBRANCH  79  84
ENDBRANCH  72  75
ENDBRANCH  70  71
ENDBRANCH  69  70
ENDBRANCH  68  69
ENDBRANCH   1  68
TORSDOF 16
ENDMDL
MODEL 3
REMARK VINA RESULT:     -12.5      3.126      9.390
REMARK SMILES O=C(NCCCCNC(=O)c1c(C2CC2)nn(-c2ccc(Cl)c(F)c2)c1Cl)c1ccc(-c2c3nc(c(-c4ccc(S(=O)(=O)[O-])cc4)c4ccc([nH]4)c(-c4ccc(S(=O)(=O)[O-])cc4)c4nc(c(-c5ccc(S(=O)(=O)[O-])cc5)c5ccc2[nH]5)C=C4)C=C3)cc1
REMARK SMILES IDX 4 1 3 2 1 3 2 4 28 6 29 7 87 8 30 9 86 10 31 11 32 12 33 13
REMARK SMILES IDX 80 14 34 15 85 16 79 17 81 18 35 19 84 20 78 21 77 22 36 24
REMARK SMILES IDX 66 25 47 26 65 27 48 28 51 29 64 30 82 31 49 32 50 33 63 35
REMARK SMILES IDX 83 36 52 37 37 38 38 39 46 40 39 41 45 42 40 43 41 44 42 45
REMARK SMILES IDX 43 46 44 47 67 48 68 49 76 50 69 51 75 52 70 53 71 54 72 55
REMARK SMILES IDX 73 56 74 57 53 58 54 59 62 60 55 61 61 62 56 63 57 64 58 65
REMARK SMILES IDX 59 66 60 67 5 68 6 69 7 70 8 71 9 72 10 74 11 75 12 76 26 77
REMARK SMILES IDX 16 78 17 79 27 80 13 81 14 82 15 83 18 84 19 85 25 86 20 87
REMARK SMILES IDX 23 88 21 89 24 90 22 91
REMARK H PARENT 3 5 81 23 51 34 8 73
REMARK Flexibility Score: inf
ROOT
ATOM      1  C   UNL A   1      32.810  29.531  26.611  1.00  0.00     0.116 C 
ENDROOT
BRANCH   1   2
ATOM      2  N   UNL A   1      32.958  30.837  27.219  1.00  0.00    -0.352 N 
ATOM      3  O   UNL A   1      33.749  32.709  28.068  1.00  0.00    -0.269 OA
ATOM      4  C   UNL A   1      34.004  31.543  27.753  1.00  0.00     0.251 C 
ATOM      5  H   UNL A   1      32.109  31.333  27.258  1.00  0.00     0.163 HD
BRANCH   4   6
ATOM      6  C   UNL A   1      35.378  31.014  28.003  1.00  0.00     0.039 A 
ATOM      7  C   UNL A   1      35.780  29.688  27.855  1.00  0.00     0.014 A 
ATOM      8  C   UNL A   1      36.336  31.949  28.443  1.00  0.00     0.014 A 
ATOM      9  C   UNL A   1      37.075  29.291  28.195  1.00  0.00     0.010 A 
ATOM     10  C   UNL A   1      37.639  31.562  28.761  1.00  0.00     0.010 A 
ATOM     11  C   UNL A   1      38.005  30.221  28.664  1.00  0.00    -0.014 A 
BRANCH  11  12
ATOM     12  C   UNL A   1      39.353  29.740  28.978  1.00  0.00     0.031 A 
ATOM     13  C   UNL A   1      39.701  29.571  30.422  1.00  0.00     0.074 A 
ATOM     14  C   UNL A   1      40.238  29.300  28.061  1.00  0.00     0.049 A 
ATOM     15  N   UNL A   1      40.668  30.115  31.092  1.00  0.00    -0.248 NA
ATOM     16  C   UNL A   1      38.845  28.682  31.219  1.00  0.00     0.031 C 
ATOM     17  C   UNL A   1      39.996  29.028  26.643  1.00  0.00     0.029 A 
ATOM     18  N   UNL A   1      41.528  28.888  28.248  1.00  0.00    -0.354 N 
ATOM     19  C   UNL A   1      40.646  29.524  32.356  1.00  0.00     0.074 A 
ATOM     20  C   UNL A   1      39.453  28.713  32.405  1.00  0.00     0.031 C 
ATOM     21  C   UNL A   1      41.018  28.288  26.159  1.00  0.00     0.029 A 
ATOM     22  C   UNL A   1      42.038  28.160  27.187  1.00  0.00     0.049 A 
ATOM     23  H   UNL A   1      42.044  29.091  29.062  1.00  0.00     0.167 HD
ATOM     24  C   UNL A   1      41.678  29.608  33.241  1.00  0.00     0.031 A 
ATOM     25  C   UNL A   1      43.183  27.436  27.170  1.00  0.00     0.031 A 
ATOM     26  C   UNL A   1      42.635  30.620  32.896  1.00  0.00     0.049 A 
ATOM     27  C   UNL A   1      44.060  27.910  28.266  1.00  0.00     0.074 A 
ATOM     28  C   UNL A   1      42.614  31.992  32.763  1.00  0.00     0.029 A 
ATOM     29  N   UNL A   1      43.830  30.204  32.364  1.00  0.00    -0.354 N 
ATOM     30  N   UNL A   1      44.625  29.083  28.300  1.00  0.00    -0.248 NA
ATOM     31  C   UNL A   1      44.093  27.169  29.518  1.00  0.00     0.031 C 
ATOM     32  C   UNL A   1      43.596  32.291  31.775  1.00  0.00     0.029 A 
ATOM     33  C   UNL A   1      44.151  31.079  31.358  1.00  0.00     0.049 A 
ATOM     34  H   UNL A   1      44.358  29.425  32.651  1.00  0.00     0.167 HD
ATOM     35  C   UNL A   1      44.743  29.389  29.645  1.00  0.00     0.074 A 
ATOM     36  C   UNL A   1      44.535  28.124  30.338  1.00  0.00     0.031 C 
ATOM     37  C   UNL A   1      44.719  30.680  30.085  1.00  0.00     0.031 A 
BRANCH  24  38
ATOM     38  C   UNL A   1      41.994  28.559  34.281  1.00  0.00    -0.014 A 
ATOM     39  C   UNL A   1      42.101  28.941  35.636  1.00  0.00     0.010 A 
ATOM     40  C   UNL A   1      42.461  27.274  33.937  1.00  0.00     0.010 A 
ATOM     41  C   UNL A   1      42.701  28.100  36.585  1.00  0.00     0.020 A 
ATOM     42  C   UNL A   1      43.021  26.412  34.885  1.00  0.00     0.020 A 
ATOM     43  C   UNL A   1      43.174  26.849  36.196  1.00  0.00     0.054 A 
BRANCH  43  44
ATOM     44  S   UNL A   1      44.066  25.824  37.396  1.00  0.00     0.124 S 
ATOM     45  O   UNL A   1      45.436  26.304  37.237  1.00  0.00    -0.237 OA
ATOM     46  O   UNL A   1      43.415  26.175  38.655  1.00  0.00    -0.237 OA
ATOM     47  O   UNL A   1      43.819  24.462  36.932  1.00  0.00    -0.744 OA
ENDBRANCH  43  44
ENDBRANCH  24  38
BRANCH  25  48
ATOM     48  C   UNL A   1      43.437  26.181  26.425  1.00  0.00    -0.014 A 
ATOM     49  C   UNL A   1      44.546  26.053  25.571  1.00  0.00     0.010 A 
ATOM     50  C   UNL A   1      42.720  25.012  26.752  1.00  0.00     0.010 A 
ATOM     51  C   UNL A   1      44.948  24.793  25.097  1.00  0.00     0.020 A 
ATOM     52  C   UNL A   1      43.105  23.756  26.273  1.00  0.00     0.020 A 
ATOM     53  C   UNL A   1      44.231  23.650  25.464  1.00  0.00     0.054 A 
BRANCH  53  54
ATOM     54  S   UNL A   1      44.849  22.012  24.982  1.00  0.00     0.124 S 
ATOM     55  O   UNL A   1      43.970  21.118  25.730  1.00  0.00    -0.237 OA
ATOM     56  O   UNL A   1      44.663  22.016  23.533  1.00  0.00    -0.237 OA
ATOM     57  O   UNL A   1      46.241  22.025  25.424  1.00  0.00    -0.744 OA
ENDBRANCH  53  54
ENDBRANCH  25  48
BRANCH  37  58
ATOM     58  C   UNL A   1      44.962  31.790  29.089  1.00  0.00    -0.014 A 
ATOM     59  C   UNL A   1      46.176  32.500  29.022  1.00  0.00     0.010 A 
ATOM     60  C   UNL A   1      44.007  31.995  28.077  1.00  0.00     0.010 A 
ATOM     61  C   UNL A   1      46.423  33.397  27.975  1.00  0.00     0.020 A 
ATOM     62  C   UNL A   1      44.256  32.875  27.019  1.00  0.00     0.020 A 
ATOM     63  C   UNL A   1      45.464  33.572  26.974  1.00  0.00     0.054 A 
BRANCH  63  64
ATOM     64  S   UNL A   1      45.845  34.649  25.563  1.00  0.00     0.124 S 
ATOM     65  O   UNL A   1      44.914  34.175  24.542  1.00  0.00    -0.237 OA
ATOM     66  O   UNL A   1      45.573  35.985  26.090  1.00  0.00    -0.237 OA
ATOM     67  O   UNL A   1      47.256  34.378  25.290  1.00  0.00    -0.744 OA
ENDBRANCH  63  64
ENDBRANCH  37  58
ENDBRANCH  11  12
ENDBRANCH   4   6
ENDBRANCH   1   2
BRANCH   1  68
ATOM     68  C   UNL A   1      31.803  28.611  27.308  1.00  0.00     0.023 C 
BRANCH  68  69
ATOM     69  C   UNL A   1      31.206  27.495  26.447  1.00  0.00     0.023 C 
BRANCH  69  70
ATOM     70  C   UNL A   1      31.914  26.147  26.514  1.00  0.00     0.116 C 
BRANCH  70  71
ATOM     71  N   UNL A   1      31.002  25.014  26.598  1.00  0.00    -0.352 N 
ATOM     72  C   UNL A   1      31.214  23.705  26.229  1.00  0.00     0.256 C 
ATOM     73  H   UNL A   1      30.112  25.212  26.971  1.00  0.00     0.163 HD
ATOM     74  O   UNL A   1      30.353  22.867  26.473  1.00  0.00    -0.269 OA
BRANCH  72  75
ATOM     75  C   UNL A   1      32.467  23.369  25.596  1.00  0.00     0.100 A 
ATOM     76  C   UNL A   1      32.901  23.472  24.252  1.00  0.00     0.080 A 
ATOM     77  C   UNL A   1      33.549  22.798  26.234  1.00  0.00     0.145 A 
ATOM     78  N   UNL A   1      34.207  23.198  24.121  1.00  0.00    -0.170 NA
ATOM     79  N   UNL A   1      34.604  22.792  25.351  1.00  0.00    -0.221 N 
ATOM     80  Cl  UNL A   1      33.715  22.339  27.875  1.00  0.00    -0.061 Cl
BRANCH  76  81
ATOM     81  C   UNL A   1      32.138  23.878  22.994  1.00  0.00     0.041 C 
ATOM     82  C   UNL A   1      31.604  25.278  22.792  1.00  0.00     0.011 C 
ATOM     83  C   UNL A   1      32.762  24.807  21.979  1.00  0.00     0.011 C 
ENDBRANCH  76  81
BRANCH  79  84
ATOM     84  C   UNL A   1      35.979  22.531  25.583  1.00  0.00     0.069 A 
ATOM     85  C   UNL A   1      36.465  21.235  25.341  1.00  0.00     0.030 A 
ATOM     86  C   UNL A   1      36.853  23.537  26.001  1.00  0.00     0.069 A 
ATOM     87  C   UNL A   1      37.835  20.972  25.440  1.00  0.00     0.026 A 
ATOM     88  C   UNL A   1      38.210  23.253  26.129  1.00  0.00     0.143 A 
ATOM     89  C   UNL A   1      38.709  21.986  25.830  1.00  0.00     0.076 A 
ATOM     90  F   UNL A   1      39.031  24.230  26.544  1.00  0.00    -0.205 F 
ATOM     91  Cl  UNL A   1      40.396  21.659  25.938  1.00  0.00    -0.081 Cl
ENDBRANCH  79  84
ENDBRANCH  72  75
ENDBRANCH  70  71
ENDBRANCH  69  70
ENDBRANCH  68  69
ENDBRANCH   1  68
TORSDOF 16
ENDMDL
