MODEL 1
REMARK VINA RESULT:     -12.7      0.000      0.000
REMARK SMILES C[C@H]1c2ccc(O)cc2OC(=O)[C@@H]1CC(=O)N[C@@H](CC1=c2ccccc2=NC1)C(=O)NCCCCNC(=O)c1ccc(-c2c3nc(c(-c4ccc(S(=O)(=O)[O-])cc4)c4ccc([nH]4)c(-c4ccc(S(=O)(=O)[O-])cc4)c4nc(c(-c5ccc(S(=O)(=O)[O-])cc5)c5ccc2[nH]5)C=C4)C=C3)cc1
REMARK SMILES IDX 33 1 32 2 31 3 29 4 30 5 18 7 17 8 15 9 16 10 14 12 13 13
REMARK SMILES IDX 1 14 2 15 3 16 4 17 9 18 11 19 5 20 8 21 10 22 12 23 6 24
REMARK SMILES IDX 7 25 19 27 20 28 21 29 28 30 22 31 26 32 27 33 23 34 25 35
REMARK SMILES IDX 24 36 34 37 35 38 36 39 37 40 38 42 39 43 40 44 98 45 41 46
REMARK SMILES IDX 97 47 42 48 43 49 44 50 91 51 45 52 96 53 90 54 92 55 46 56
REMARK SMILES IDX 95 57 89 58 88 59 47 61 77 62 58 63 76 64 59 65 62 66 75 67
REMARK SMILES IDX 93 68 60 69 61 70 74 72 94 73 63 74 48 75 49 76 57 77 50 78
REMARK SMILES IDX 56 79 51 80 52 81 53 82 54 83 55 84 78 85 79 86 87 87 80 88
REMARK SMILES IDX 86 89 81 90 82 91 83 92 84 93 85 94 64 95 65 96 73 97 66 98
REMARK SMILES IDX 72 99 67 100 68 101 69 102 70 103 71 104
REMARK H PARENT 31 6 17 11 7 26 36 41 92 60 62 71
REMARK Flexibility Score: inf
ROOT
ATOM      1  C   UNL A   1      31.744  28.324  27.212  1.00  0.00     0.023 C 
ENDROOT
BRANCH   1   2
ATOM      2  C   UNL A   1      31.815  27.204  26.186  1.00  0.00     0.116 C 
BRANCH   2   3
ATOM      3  N   UNL A   1      30.607  26.602  25.701  1.00  0.00    -0.354 N 
ATOM      4  C   UNL A   1      30.494  26.047  24.450  1.00  0.00     0.242 C 
ATOM      5  O   UNL A   1      29.811  25.021  24.350  1.00  0.00    -0.273 OA
ATOM      6  H   UNL A   1      29.821  26.586  26.294  1.00  0.00     0.163 HD
BRANCH   4   7
ATOM      7  C   UNL A   1      31.236  26.607  23.186  1.00  0.00     0.175 C 
BRANCH   7   8
ATOM      8  N   UNL A   1      31.943  25.660  22.317  1.00  0.00    -0.344 N 
ATOM      9  C   UNL A   1      33.173  25.090  22.471  1.00  0.00     0.221 C 
ATOM     10  O   UNL A   1      33.635  24.421  21.545  1.00  0.00    -0.275 OA
ATOM     11  H   UNL A   1      31.459  25.397  21.500  1.00  0.00     0.164 HD
BRANCH   9  12
ATOM     12  C   UNL A   1      33.964  25.267  23.756  1.00  0.00     0.116 C 
BRANCH  12  13
ATOM     13  C   UNL A   1      34.805  24.026  24.136  1.00  0.00     0.116 C 
ATOM     14  C   UNL A   1      34.937  21.478  24.249  1.00  0.00     0.014 C 
ATOM     15  C   UNL A   1      34.029  22.695  24.021  1.00  0.00     0.034 C 
ATOM     16  C   UNL A   1      32.903  22.706  25.023  1.00  0.00    -0.001 A 
ATOM     17  C   UNL A   1      31.695  22.044  24.792  1.00  0.00     0.011 A 
ATOM     18  C   UNL A   1      33.054  23.437  26.206  1.00  0.00     0.138 A 
ATOM     19  C   UNL A   1      35.283  24.107  25.565  1.00  0.00     0.315 C 
ATOM     20  C   UNL A   1      30.644  22.167  25.707  1.00  0.00     0.047 A 
ATOM     21  C   UNL A   1      32.012  23.588  27.112  1.00  0.00     0.093 A 
ATOM     22  O   UNL A   1      34.288  24.031  26.531  1.00  0.00    -0.426 OA
ATOM     23  O   UNL A   1      36.460  24.275  25.862  1.00  0.00    -0.251 OA
ATOM     24  C   UNL A   1      30.805  22.956  26.846  1.00  0.00     0.119 A 
BRANCH  24  25
ATOM     25  O   UNL A   1      29.788  23.128  27.737  1.00  0.00    -0.508 OA
ATOM     26  H   UNL A   1      29.525  22.419  28.289  1.00  0.00     0.293 HD
ENDBRANCH  24  25
ENDBRANCH  12  13
ENDBRANCH   9  12
ENDBRANCH   7   8
BRANCH   7  27
ATOM     27  C   UNL A   1      30.578  27.783  22.385  1.00  0.00     0.068 C 
BRANCH  27  28
ATOM     28  C   UNL A   1      29.535  28.686  23.016  1.00  0.00    -0.037 C 
ATOM     29  C   UNL A   1      29.551  30.026  22.912  1.00  0.00     0.001 A 
ATOM     30  C   UNL A   1      28.129  28.183  23.060  1.00  0.00     0.174 C 
ATOM     31  C   UNL A   1      29.680  30.995  23.998  1.00  0.00     0.010 A 
ATOM     32  C   UNL A   1      28.204  30.213  22.308  1.00  0.00     0.065 A 
ATOM     33  N   UNL A   1      27.352  29.248  22.393  1.00  0.00    -0.280 NA
ATOM     34  C   UNL A   1      29.115  32.210  23.821  1.00  0.00     0.001 A 
ATOM     35  C   UNL A   1      27.974  31.564  21.769  1.00  0.00     0.028 A 
ATOM     36  C   UNL A   1      28.459  32.539  22.557  1.00  0.00     0.002 A 
ENDBRANCH  27  28
ENDBRANCH   7  27
ENDBRANCH   4   7
ENDBRANCH   2   3
ENDBRANCH   1   2
BRANCH   1  37
ATOM     37  C   UNL A   1      32.170  29.726  26.750  1.00  0.00     0.023 C 
BRANCH  37  38
ATOM     38  C   UNL A   1      33.611  30.194  26.983  1.00  0.00     0.116 C 
BRANCH  38  39
ATOM     39  N   UNL A   1      33.815  31.145  28.074  1.00  0.00    -0.352 N 
ATOM     40  C   UNL A   1      34.880  31.308  28.937  1.00  0.00     0.251 C 
ATOM     41  H   UNL A   1      33.071  31.774  28.216  1.00  0.00     0.163 HD
ATOM     42  O   UNL A   1      34.900  32.191  29.789  1.00  0.00    -0.269 OA
BRANCH  40  43
ATOM     43  C   UNL A   1      35.993  30.345  28.856  1.00  0.00     0.039 A 
ATOM     44  C   UNL A   1      36.353  29.617  29.988  1.00  0.00     0.014 A 
ATOM     45  C   UNL A   1      36.788  30.332  27.710  1.00  0.00     0.014 A 
ATOM     46  C   UNL A   1      37.650  29.130  30.079  1.00  0.00     0.010 A 
ATOM     47  C   UNL A   1      38.050  29.739  27.769  1.00  0.00     0.010 A 
ATOM     48  C   UNL A   1      38.531  29.235  28.988  1.00  0.00    -0.014 A 
BRANCH  48  49
ATOM     49  C   UNL A   1      39.977  28.937  29.170  1.00  0.00     0.031 A 
ATOM     50  C   UNL A   1      40.538  27.604  28.728  1.00  0.00     0.074 A 
ATOM     51  C   UNL A   1      40.807  29.883  29.652  1.00  0.00     0.049 A 
ATOM     52  N   UNL A   1      41.751  27.132  28.874  1.00  0.00    -0.248 NA
ATOM     53  C   UNL A   1      39.625  26.679  28.032  1.00  0.00     0.031 C 
ATOM     54  C   UNL A   1      40.409  31.237  30.038  1.00  0.00     0.029 A 
ATOM     55  N   UNL A   1      42.163  29.860  29.871  1.00  0.00    -0.354 N 
ATOM     56  C   UNL A   1      41.733  25.852  28.330  1.00  0.00     0.074 A 
ATOM     57  C   UNL A   1      40.388  25.608  27.862  1.00  0.00     0.031 C 
ATOM     58  C   UNL A   1      41.499  31.931  30.388  1.00  0.00     0.029 A 
ATOM     59  C   UNL A   1      42.661  31.049  30.348  1.00  0.00     0.049 A 
ATOM     60  H   UNL A   1      42.723  29.068  29.703  1.00  0.00     0.167 HD
ATOM     61  C   UNL A   1      42.749  24.965  28.220  1.00  0.00     0.031 A 
ATOM     62  C   UNL A   1      43.903  31.389  30.743  1.00  0.00     0.031 A 
ATOM     63  C   UNL A   1      44.099  25.232  28.645  1.00  0.00     0.049 A 
ATOM     64  C   UNL A   1      44.997  30.364  30.692  1.00  0.00     0.074 A 
ATOM     65  C   UNL A   1      45.200  24.397  28.564  1.00  0.00     0.029 A 
ATOM     66  N   UNL A   1      44.535  26.418  29.213  1.00  0.00    -0.354 N 
ATOM     67  N   UNL A   1      44.949  29.139  30.226  1.00  0.00    -0.248 NA
ATOM     68  C   UNL A   1      46.305  30.751  31.240  1.00  0.00     0.031 C 
ATOM     69  C   UNL A   1      46.289  25.057  29.136  1.00  0.00     0.029 A 
ATOM     70  C   UNL A   1      45.882  26.326  29.515  1.00  0.00     0.049 A 
ATOM     71  H   UNL A   1      43.970  27.208  29.377  1.00  0.00     0.167 HD
ATOM     72  C   UNL A   1      46.217  28.609  30.422  1.00  0.00     0.074 A 
ATOM     73  C   UNL A   1      47.019  29.650  31.033  1.00  0.00     0.031 C 
ATOM     74  C   UNL A   1      46.670  27.367  30.128  1.00  0.00     0.031 A 
BRANCH  61  75
ATOM     75  C   UNL A   1      42.467  23.608  27.628  1.00  0.00    -0.014 A 
ATOM     76  C   UNL A   1      42.131  22.537  28.478  1.00  0.00     0.010 A 
ATOM     77  C   UNL A   1      42.658  23.357  26.257  1.00  0.00     0.010 A 
ATOM     78  C   UNL A   1      42.021  21.237  27.978  1.00  0.00     0.020 A 
ATOM     79  C   UNL A   1      42.523  22.060  25.748  1.00  0.00     0.020 A 
ATOM     80  C   UNL A   1      42.227  21.006  26.616  1.00  0.00     0.054 A 
BRANCH  80  81
ATOM     81  S   UNL A   1      42.100  19.310  25.985  1.00  0.00     0.124 S 
ATOM     82  O   UNL A   1      40.670  19.184  25.721  1.00  0.00    -0.237 OA
ATOM     83  O   UNL A   1      42.960  19.340  24.804  1.00  0.00    -0.237 OA
ATOM     84  O   UNL A   1      42.607  18.497  27.090  1.00  0.00    -0.744 OA
ENDBRANCH  80  81
ENDBRANCH  61  75
BRANCH  62  85
ATOM     85  C   UNL A   1      44.142  32.771  31.243  1.00  0.00    -0.014 A 
ATOM     86  C   UNL A   1      43.920  33.081  32.599  1.00  0.00     0.010 A 
ATOM     87  C   UNL A   1      44.478  33.803  30.351  1.00  0.00     0.010 A 
ATOM     88  C   UNL A   1      43.954  34.405  33.038  1.00  0.00     0.020 A 
ATOM     89  C   UNL A   1      44.543  35.127  30.795  1.00  0.00     0.020 A 
ATOM     90  C   UNL A   1      44.247  35.422  32.128  1.00  0.00     0.054 A 
BRANCH  90  91
ATOM     91  S   UNL A   1      44.214  37.143  32.703  1.00  0.00     0.124 S 
ATOM     92  O   UNL A   1      43.978  37.869  31.458  1.00  0.00    -0.237 OA
ATOM     93  O   UNL A   1      43.103  37.143  33.652  1.00  0.00    -0.237 OA
ATOM     94  O   UNL A   1      45.536  37.329  33.296  1.00  0.00    -0.744 OA
ENDBRANCH  90  91
ENDBRANCH  62  85
BRANCH  74  95
ATOM     95  C   UNL A   1      48.096  27.025  30.461  1.00  0.00    -0.014 A 
ATOM     96  C   UNL A   1      48.404  26.460  31.714  1.00  0.00     0.010 A 
ATOM     97  C   UNL A   1      49.141  27.430  29.613  1.00  0.00     0.010 A 
ATOM     98  C   UNL A   1      49.730  26.356  32.134  1.00  0.00     0.020 A 
ATOM     99  C   UNL A   1      50.471  27.304  30.021  1.00  0.00     0.020 A 
ATOM    100  C   UNL A   1      50.755  26.797  31.292  1.00  0.00     0.054 A 
BRANCH 100 101
ATOM    101  S   UNL A   1      52.466  26.730  31.889  1.00  0.00     0.124 S 
ATOM    102  O   UNL A   1      52.815  28.143  31.986  1.00  0.00    -0.237 OA
ATOM    103  O   UNL A   1      52.335  26.024  33.162  1.00  0.00    -0.237 OA
ATOM    104  O   UNL A   1      53.165  25.985  30.844  1.00  0.00    -0.744 OA
ENDBRANCH 100 101
ENDBRANCH  74  95
ENDBRANCH  48  49
ENDBRANCH  40  43
ENDBRANCH  38  39
ENDBRANCH  37  38
ENDBRANCH   1  37
TORSDOF 20
ENDMDL
MODEL 2
REMARK VINA RESULT:     -12.6      2.868      8.579
REMARK SMILES C[C@H]1c2ccc(O)cc2OC(=O)[C@@H]1CC(=O)N[C@@H](CC1=c2ccccc2=NC1)C(=O)NCCCCNC(=O)c1ccc(-c2c3nc(c(-c4ccc(S(=O)(=O)[O-])cc4)c4ccc([nH]4)c(-c4ccc(S(=O)(=O)[O-])cc4)c4nc(c(-c5ccc(S(=O)(=O)[O-])cc5)c5ccc2[nH]5)C=C4)C=C3)cc1
REMARK SMILES IDX 33 1 32 2 31 3 29 4 30 5 18 7 17 8 15 9 16 10 14 12 13 13
REMARK SMILES IDX 1 14 2 15 3 16 4 17 9 18 11 19 5 20 8 21 10 22 12 23 6 24
REMARK SMILES IDX 7 25 19 27 20 28 21 29 28 30 22 31 26 32 27 33 23 34 25 35
REMARK SMILES IDX 24 36 34 37 35 38 36 39 37 40 38 42 39 43 40 44 98 45 41 46
REMARK SMILES IDX 97 47 42 48 43 49 44 50 91 51 45 52 96 53 90 54 92 55 46 56
REMARK SMILES IDX 95 57 89 58 88 59 47 61 77 62 58 63 76 64 59 65 62 66 75 67
REMARK SMILES IDX 93 68 60 69 61 70 74 72 94 73 63 74 48 75 49 76 57 77 50 78
REMARK SMILES IDX 56 79 51 80 52 81 53 82 54 83 55 84 78 85 79 86 87 87 80 88
REMARK SMILES IDX 86 89 81 90 82 91 83 92 84 93 85 94 64 95 65 96 73 97 66 98
REMARK SMILES IDX 72 99 67 100 68 101 69 102 70 103 71 104
REMARK H PARENT 31 6 17 11 7 26 36 41 92 60 62 71
REMARK Flexibility Score: inf
ROOT
ATOM      1  C   UNL A   1      34.415  28.570  25.861  1.00  0.00     0.023 C 
ENDROOT
BRANCH   1   2
ATOM      2  C   UNL A   1      33.025  28.586  25.246  1.00  0.00     0.116 C 
BRANCH   2   3
ATOM      3  N   UNL A   1      31.874  28.751  26.087  1.00  0.00    -0.354 N 
ATOM      4  C   UNL A   1      31.207  27.697  26.662  1.00  0.00     0.242 C 
ATOM      5  O   UNL A   1      30.771  27.866  27.807  1.00  0.00    -0.273 OA
ATOM      6  H   UNL A   1      31.548  29.664  26.260  1.00  0.00     0.163 HD
BRANCH   4   7
ATOM      7  C   UNL A   1      31.040  26.300  25.970  1.00  0.00     0.175 C 
BRANCH   7   8
ATOM      8  N   UNL A   1      31.399  25.098  26.732  1.00  0.00    -0.344 N 
ATOM      9  C   UNL A   1      32.416  24.211  26.527  1.00  0.00     0.221 C 
ATOM     10  O   UNL A   1      32.455  23.188  27.212  1.00  0.00    -0.275 OA
ATOM     11  H   UNL A   1      30.821  24.901  27.504  1.00  0.00     0.164 HD
BRANCH   9  12
ATOM     12  C   UNL A   1      33.487  24.473  25.480  1.00  0.00     0.116 C 
BRANCH  12  13
ATOM     13  C   UNL A   1      33.102  23.972  24.069  1.00  0.00     0.116 C 
ATOM     14  C   UNL A   1      32.486  21.980  22.594  1.00  0.00     0.014 C 
ATOM     15  C   UNL A   1      33.024  22.433  23.958  1.00  0.00     0.034 C 
ATOM     16  C   UNL A   1      34.400  21.864  24.196  1.00  0.00    -0.001 A 
ATOM     17  C   UNL A   1      34.596  20.613  24.786  1.00  0.00     0.011 A 
ATOM     18  C   UNL A   1      35.519  22.629  23.854  1.00  0.00     0.138 A 
ATOM     19  C   UNL A   1      34.113  24.413  23.038  1.00  0.00     0.315 C 
ATOM     20  C   UNL A   1      35.891  20.172  25.077  1.00  0.00     0.047 A 
ATOM     21  C   UNL A   1      36.811  22.216  24.158  1.00  0.00     0.093 A 
ATOM     22  O   UNL A   1      35.374  23.846  23.163  1.00  0.00    -0.426 OA
ATOM     23  O   UNL A   1      33.861  25.249  22.178  1.00  0.00    -0.251 OA
ATOM     24  C   UNL A   1      36.984  20.987  24.781  1.00  0.00     0.119 A 
BRANCH  24  25
ATOM     25  O   UNL A   1      38.256  20.605  25.088  1.00  0.00    -0.508 OA
ATOM     26  H   UNL A   1      38.584  19.783  24.780  1.00  0.00     0.293 HD
ENDBRANCH  24  25
ENDBRANCH  12  13
ENDBRANCH   9  12
ENDBRANCH   7   8
BRANCH   7  27
ATOM     27  C   UNL A   1      29.810  26.067  25.026  1.00  0.00     0.068 C 
BRANCH  27  28
ATOM     28  C   UNL A   1      29.569  26.941  23.809  1.00  0.00    -0.037 C 
ATOM     29  C   UNL A   1      28.849  28.075  23.839  1.00  0.00     0.001 A 
ATOM     30  C   UNL A   1      30.678  27.051  22.815  1.00  0.00     0.174 C 
ATOM     31  C   UNL A   1      27.612  28.358  23.114  1.00  0.00     0.010 A 
ATOM     32  C   UNL A   1      29.889  29.005  23.320  1.00  0.00     0.065 A 
ATOM     33  N   UNL A   1      30.908  28.507  22.703  1.00  0.00    -0.280 NA
ATOM     34  C   UNL A   1      27.356  29.646  22.795  1.00  0.00     0.001 A 
ATOM     35  C   UNL A   1      29.555  30.428  23.488  1.00  0.00     0.028 A 
ATOM     36  C   UNL A   1      28.266  30.705  23.225  1.00  0.00     0.002 A 
ENDBRANCH  27  28
ENDBRANCH   7  27
ENDBRANCH   4   7
ENDBRANCH   2   3
ENDBRANCH   1   2
BRANCH   1  37
ATOM     37  C   UNL A   1      34.524  28.903  27.357  1.00  0.00     0.023 C 
BRANCH  37  38
ATOM     38  C   UNL A   1      35.562  29.927  27.830  1.00  0.00     0.116 C 
BRANCH  38  39
ATOM     39  N   UNL A   1      35.808  29.982  29.270  1.00  0.00    -0.352 N 
ATOM     40  C   UNL A   1      36.902  29.582  30.010  1.00  0.00     0.251 C 
ATOM     41  H   UNL A   1      35.073  30.369  29.798  1.00  0.00     0.163 HD
ATOM     42  O   UNL A   1      36.956  29.732  31.228  1.00  0.00    -0.269 OA
BRANCH  40  43
ATOM     43  C   UNL A   1      38.006  28.904  29.308  1.00  0.00     0.039 A 
ATOM     44  C   UNL A   1      38.749  27.932  29.976  1.00  0.00     0.014 A 
ATOM     45  C   UNL A   1      38.411  29.388  28.065  1.00  0.00     0.014 A 
ATOM     46  C   UNL A   1      40.044  27.676  29.547  1.00  0.00     0.010 A 
ATOM     47  C   UNL A   1      39.671  29.038  27.579  1.00  0.00     0.010 A 
ATOM     48  C   UNL A   1      40.539  28.269  28.372  1.00  0.00    -0.014 A 
BRANCH  48  49
ATOM     49  C   UNL A   1      41.989  28.187  28.052  1.00  0.00     0.031 A 
ATOM     50  C   UNL A   1      42.916  29.318  28.440  1.00  0.00     0.074 A 
ATOM     51  C   UNL A   1      42.496  27.073  27.489  1.00  0.00     0.049 A 
ATOM     52  N   UNL A   1      44.191  29.464  28.178  1.00  0.00    -0.248 NA
ATOM     53  C   UNL A   1      42.344  30.428  29.223  1.00  0.00     0.031 C 
ATOM     54  C   UNL A   1      41.725  25.879  27.141  1.00  0.00     0.029 A 
ATOM     55  N   UNL A   1      43.784  26.751  27.139  1.00  0.00    -0.354 N 
ATOM     56  C   UNL A   1      44.558  30.690  28.724  1.00  0.00     0.074 A 
ATOM     57  C   UNL A   1      43.372  31.260  29.321  1.00  0.00     0.031 C 
ATOM     58  C   UNL A   1      42.560  24.937  26.685  1.00  0.00     0.029 A 
ATOM     59  C   UNL A   1      43.910  25.487  26.614  1.00  0.00     0.049 A 
ATOM     60  H   UNL A   1      44.544  27.366  27.254  1.00  0.00     0.167 HD
ATOM     61  C   UNL A   1      45.775  31.280  28.737  1.00  0.00     0.031 A 
ATOM     62  C   UNL A   1      44.978  24.847  26.100  1.00  0.00     0.031 A 
ATOM     63  C   UNL A   1      46.963  30.685  28.182  1.00  0.00     0.049 A 
ATOM     64  C   UNL A   1      46.301  25.554  26.047  1.00  0.00     0.074 A 
ATOM     65  C   UNL A   1      48.246  31.204  28.159  1.00  0.00     0.029 A 
ATOM     66  N   UNL A   1      47.021  29.443  27.572  1.00  0.00    -0.354 N 
ATOM     67  N   UNL A   1      46.616  26.736  26.518  1.00  0.00    -0.248 NA
ATOM     68  C   UNL A   1      47.406  24.856  25.374  1.00  0.00     0.031 C 
ATOM     69  C   UNL A   1      49.067  30.301  27.482  1.00  0.00     0.029 A 
ATOM     70  C   UNL A   1      48.311  29.191  27.141  1.00  0.00     0.049 A 
ATOM     71  H   UNL A   1      46.257  28.830  27.462  1.00  0.00     0.167 HD
ATOM     72  C   UNL A   1      47.955  26.925  26.200  1.00  0.00     0.074 A 
ATOM     73  C   UNL A   1      48.398  25.729  25.513  1.00  0.00     0.031 C 
ATOM     74  C   UNL A   1      48.741  27.999  26.453  1.00  0.00     0.031 A 
BRANCH  61  75
ATOM     75  C   UNL A   1      45.912  32.647  29.357  1.00  0.00    -0.014 A 
ATOM     76  C   UNL A   1      45.817  33.790  28.541  1.00  0.00     0.010 A 
ATOM     77  C   UNL A   1      46.261  32.801  30.710  1.00  0.00     0.010 A 
ATOM     78  C   UNL A   1      46.096  35.059  29.055  1.00  0.00     0.020 A 
ATOM     79  C   UNL A   1      46.518  34.073  31.236  1.00  0.00     0.020 A 
ATOM     80  C   UNL A   1      46.455  35.191  30.399  1.00  0.00     0.054 A 
BRANCH  80  81
ATOM     81  S   UNL A   1      46.835  36.842  31.048  1.00  0.00     0.124 S 
ATOM     82  O   UNL A   1      47.071  37.608  29.828  1.00  0.00    -0.237 OA
ATOM     83  O   UNL A   1      45.620  37.187  31.784  1.00  0.00    -0.237 OA
ATOM     84  O   UNL A   1      48.013  36.616  31.884  1.00  0.00    -0.744 OA
ENDBRANCH  80  81
ENDBRANCH  61  75
BRANCH  62  85
ATOM     85  C   UNL A   1      44.802  23.466  25.575  1.00  0.00    -0.014 A 
ATOM     86  C   UNL A   1      44.971  22.358  26.428  1.00  0.00     0.010 A 
ATOM     87  C   UNL A   1      44.581  23.248  24.205  1.00  0.00     0.010 A 
ATOM     88  C   UNL A   1      44.999  21.062  25.910  1.00  0.00     0.020 A 
ATOM     89  C   UNL A   1      44.577  21.948  23.688  1.00  0.00     0.020 A 
ATOM     90  C   UNL A   1      44.821  20.867  24.539  1.00  0.00     0.054 A 
BRANCH  90  91
ATOM     91  S   UNL A   1      44.935  19.182  23.876  1.00  0.00     0.124 S 
ATOM     92  O   UNL A   1      44.013  18.457  24.747  1.00  0.00    -0.237 OA
ATOM     93  O   UNL A   1      44.493  19.351  22.494  1.00  0.00    -0.237 OA
ATOM     94  O   UNL A   1      46.347  18.847  24.039  1.00  0.00    -0.744 OA
ENDBRANCH  90  91
ENDBRANCH  62  85
BRANCH  74  95
ATOM     95  C   UNL A   1      50.169  27.969  25.983  1.00  0.00    -0.014 A 
ATOM     96  C   UNL A   1      50.462  28.194  24.624  1.00  0.00     0.010 A 
ATOM     97  C   UNL A   1      51.192  27.541  26.846  1.00  0.00     0.010 A 
ATOM     98  C   UNL A   1      51.740  27.940  24.126  1.00  0.00     0.020 A 
ATOM     99  C   UNL A   1      52.479  27.309  26.356  1.00  0.00     0.020 A 
ATOM    100  C   UNL A   1      52.737  27.479  24.992  1.00  0.00     0.054 A 
BRANCH 100 101
ATOM    101  S   UNL A   1      54.368  27.075  24.311  1.00  0.00     0.124 S 
ATOM    102  O   UNL A   1      55.265  27.548  25.360  1.00  0.00    -0.237 OA
ATOM    103  O   UNL A   1      54.298  25.625  24.147  1.00  0.00    -0.237 OA
ATOM    104  O   UNL A   1      54.415  27.833  23.061  1.00  0.00    -0.744 OA
ENDBRANCH 100 101
ENDBRANCH  74  95
ENDBRANCH  48  49
ENDBRANCH  40  43
ENDBRANCH  38  39
ENDBRANCH  37  38
ENDBRANCH   1  37
TORSDOF 20
ENDMDL
MODEL 3
REMARK VINA RESULT:     -12.6      3.636      9.503
REMARK SMILES C[C@H]1c2ccc(O)cc2OC(=O)[C@@H]1CC(=O)N[C@@H](CC1=c2ccccc2=NC1)C(=O)NCCCCNC(=O)c1ccc(-c2c3nc(c(-c4ccc(S(=O)(=O)[O-])cc4)c4ccc([nH]4)c(-c4ccc(S(=O)(=O)[O-])cc4)c4nc(c(-c5ccc(S(=O)(=O)[O-])cc5)c5ccc2[nH]5)C=C4)C=C3)cc1
REMARK SMILES IDX 33 1 32 2 31 3 29 4 30 5 18 7 17 8 15 9 16 10 14 12 13 13
REMARK SMILES IDX 1 14 2 15 3 16 4 17 9 18 11 19 5 20 8 21 10 22 12 23 6 24
REMARK SMILES IDX 7 25 19 27 20 28 21 29 28 30 22 31 26 32 27 33 23 34 25 35
REMARK SMILES IDX 24 36 34 37 35 38 36 39 37 40 38 42 39 43 40 44 98 45 41 46
REMARK SMILES IDX 97 47 42 48 43 49 44 50 91 51 45 52 96 53 90 54 92 55 46 56
REMARK SMILES IDX 95 57 89 58 88 59 47 61 77 62 58 63 76 64 59 65 62 66 75 67
REMARK SMILES IDX 93 68 60 69 61 70 74 72 94 73 63 74 48 75 49 76 57 77 50 78
REMARK SMILES IDX 56 79 51 80 52 81 53 82 54 83 55 84 78 85 79 86 87 87 80 88
REMARK SMILES IDX 86 89 81 90 82 91 83 92 84 93 85 94 64 95 65 96 73 97 66 98
REMARK SMILES IDX 72 99 67 100 68 101 69 102 70 103 71 104
REMARK H PARENT 31 6 17 11 7 26 36 41 92 60 62 71
REMARK Flexibility Score: inf
ROOT
ATOM      1  C   UNL A   1      37.518  21.684  24.739  1.00  0.00     0.023 C 
ENDROOT
BRANCH   1   2
ATOM      2  C   UNL A   1      36.226  21.081  25.266  1.00  0.00     0.116 C 
BRANCH   2   3
ATOM      3  N   UNL A   1      35.539  21.710  26.357  1.00  0.00    -0.354 N 
ATOM      4  C   UNL A   1      34.169  21.792  26.435  1.00  0.00     0.242 C 
ATOM      5  O   UNL A   1      33.662  21.665  27.556  1.00  0.00    -0.273 OA
ATOM      6  H   UNL A   1      36.074  22.101  27.086  1.00  0.00     0.163 HD
BRANCH   4   7
ATOM      7  C   UNL A   1      33.242  21.965  25.182  1.00  0.00     0.175 C 
BRANCH   7   8
ATOM      8  N   UNL A   1      33.738  22.762  24.054  1.00  0.00    -0.344 N 
ATOM      9  C   UNL A   1      33.648  24.105  23.832  1.00  0.00     0.221 C 
ATOM     10  O   UNL A   1      34.017  24.551  22.744  1.00  0.00    -0.275 OA
ATOM     11  H   UNL A   1      34.204  22.252  23.352  1.00  0.00     0.164 HD
BRANCH   9  12
ATOM     12  C   UNL A   1      33.108  25.042  24.900  1.00  0.00     0.116 C 
BRANCH  12  13
ATOM     13  C   UNL A   1      31.565  25.147  24.903  1.00  0.00     0.116 C 
ATOM     14  C   UNL A   1      29.504  26.476  24.191  1.00  0.00     0.014 C 
ATOM     15  C   UNL A   1      31.034  26.474  24.319  1.00  0.00     0.034 C 
ATOM     16  C   UNL A   1      31.488  27.606  25.206  1.00  0.00    -0.001 A 
ATOM     17  C   UNL A   1      31.755  28.882  24.706  1.00  0.00     0.011 A 
ATOM     18  C   UNL A   1      31.689  27.362  26.568  1.00  0.00     0.138 A 
ATOM     19  C   UNL A   1      31.015  25.059  26.306  1.00  0.00     0.315 C 
ATOM     20  C   UNL A   1      32.271  29.871  25.550  1.00  0.00     0.047 A 
ATOM     21  C   UNL A   1      32.222  28.326  27.415  1.00  0.00     0.093 A 
ATOM     22  O   UNL A   1      31.333  26.125  27.137  1.00  0.00    -0.426 OA
ATOM     23  O   UNL A   1      30.372  24.096  26.707  1.00  0.00    -0.251 OA
ATOM     24  C   UNL A   1      32.519  29.577  26.890  1.00  0.00     0.119 A 
BRANCH  24  25
ATOM     25  O   UNL A   1      33.058  30.506  27.731  1.00  0.00    -0.508 OA
ATOM     26  H   UNL A   1      33.987  30.615  27.773  1.00  0.00     0.293 HD
ENDBRANCH  24  25
ENDBRANCH  12  13
ENDBRANCH   9  12
ENDBRANCH   7   8
BRANCH   7  27
ATOM     27  C   UNL A   1      32.362  20.753  24.721  1.00  0.00     0.068 C 
BRANCH  27  28
ATOM     28  C   UNL A   1      32.973  19.548  24.029  1.00  0.00    -0.037 C 
ATOM     29  C   UNL A   1      33.538  18.521  24.686  1.00  0.00     0.001 A 
ATOM     30  C   UNL A   1      32.311  19.068  22.778  1.00  0.00     0.174 C 
ATOM     31  C   UNL A   1      34.931  18.084  24.613  1.00  0.00     0.010 A 
ATOM     32  C   UNL A   1      32.699  17.423  24.134  1.00  0.00     0.065 A 
ATOM     33  N   UNL A   1      32.027  17.644  23.054  1.00  0.00    -0.280 NA
ATOM     34  C   UNL A   1      35.187  16.776  24.840  1.00  0.00     0.001 A 
ATOM     35  C   UNL A   1      32.835  16.148  24.857  1.00  0.00     0.028 A 
ATOM     36  C   UNL A   1      34.103  15.867  25.203  1.00  0.00     0.002 A 
ENDBRANCH  27  28
ENDBRANCH   7  27
ENDBRANCH   4   7
ENDBRANCH   2   3
ENDBRANCH   1   2
BRANCH   1  37
ATOM     37  C   UNL A   1      38.283  22.633  25.674  1.00  0.00     0.023 C 
BRANCH  37  38
ATOM     38  C   UNL A   1      39.423  22.084  26.540  1.00  0.00     0.116 C 
BRANCH  38  39
ATOM     39  N   UNL A   1      39.871  20.726  26.238  1.00  0.00    -0.352 N 
ATOM     40  C   UNL A   1      41.142  20.189  26.192  1.00  0.00     0.251 C 
ATOM     41  H   UNL A   1      39.148  20.091  26.034  1.00  0.00     0.163 HD
ATOM     42  O   UNL A   1      41.339  19.002  25.948  1.00  0.00    -0.269 OA
BRANCH  40  43
ATOM     43  C   UNL A   1      42.287  21.094  26.390  1.00  0.00     0.039 A 
ATOM     44  C   UNL A   1      42.669  21.444  27.683  1.00  0.00     0.014 A 
ATOM     45  C   UNL A   1      42.835  21.738  25.280  1.00  0.00     0.014 A 
ATOM     46  C   UNL A   1      43.358  22.634  27.873  1.00  0.00     0.010 A 
ATOM     47  C   UNL A   1      43.624  22.872  25.477  1.00  0.00     0.010 A 
ATOM     48  C   UNL A   1      43.796  23.390  26.771  1.00  0.00    -0.014 A 
BRANCH  48  49
ATOM     49  C   UNL A   1      44.312  24.770  26.974  1.00  0.00     0.031 A 
ATOM     50  C   UNL A   1      43.376  25.872  27.418  1.00  0.00     0.074 A 
ATOM     51  C   UNL A   1      45.628  25.027  26.843  1.00  0.00     0.049 A 
ATOM     52  N   UNL A   1      43.622  27.149  27.572  1.00  0.00    -0.248 NA
ATOM     53  C   UNL A   1      41.985  25.497  27.732  1.00  0.00     0.031 C 
ATOM     54  C   UNL A   1      46.650  24.036  26.500  1.00  0.00     0.029 A 
ATOM     55  N   UNL A   1      46.337  26.191  27.012  1.00  0.00    -0.354 N 
ATOM     56  C   UNL A   1      42.417  27.729  27.956  1.00  0.00     0.074 A 
ATOM     57  C   UNL A   1      41.433  26.672  28.000  1.00  0.00     0.031 C 
ATOM     58  C   UNL A   1      47.855  24.619  26.542  1.00  0.00     0.029 A 
ATOM     59  C   UNL A   1      47.689  26.042  26.818  1.00  0.00     0.049 A 
ATOM     60  H   UNL A   1      45.916  27.049  27.249  1.00  0.00     0.167 HD
ATOM     61  C   UNL A   1      42.158  29.023  28.257  1.00  0.00     0.031 A 
ATOM     62  C   UNL A   1      48.686  26.948  26.824  1.00  0.00     0.031 A 
ATOM     63  C   UNL A   1      43.154  30.062  28.257  1.00  0.00     0.049 A 
ATOM     64  C   UNL A   1      48.364  28.392  27.076  1.00  0.00     0.074 A 
ATOM     65  C   UNL A   1      42.988  31.402  28.560  1.00  0.00     0.029 A 
ATOM     66  N   UNL A   1      44.495  29.881  27.958  1.00  0.00    -0.354 N 
ATOM     67  N   UNL A   1      47.209  28.931  27.384  1.00  0.00    -0.248 NA
ATOM     68  C   UNL A   1      49.469  29.355  26.960  1.00  0.00     0.031 C 
ATOM     69  C   UNL A   1      44.216  32.043  28.387  1.00  0.00     0.029 A 
ATOM     70  C   UNL A   1      45.161  31.090  28.039  1.00  0.00     0.049 A 
ATOM     71  H   UNL A   1      44.910  29.019  27.723  1.00  0.00     0.167 HD
ATOM     72  C   UNL A   1      47.446  30.295  27.499  1.00  0.00     0.074 A 
ATOM     73  C   UNL A   1      48.858  30.499  27.247  1.00  0.00     0.031 C 
ATOM     74  C   UNL A   1      46.567  31.285  27.782  1.00  0.00     0.031 A 
BRANCH  61  75
ATOM     75  C   UNL A   1      40.746  29.418  28.606  1.00  0.00    -0.014 A 
ATOM     76  C   UNL A   1      40.412  29.681  29.948  1.00  0.00     0.010 A 
ATOM     77  C   UNL A   1      39.726  29.405  27.638  1.00  0.00     0.010 A 
ATOM     78  C   UNL A   1      39.083  29.893  30.324  1.00  0.00     0.020 A 
ATOM     79  C   UNL A   1      38.397  29.642  28.007  1.00  0.00     0.020 A 
ATOM     80  C   UNL A   1      38.082  29.863  29.350  1.00  0.00     0.054 A 
BRANCH  80  81
ATOM     81  S   UNL A   1      36.358  30.120  29.856  1.00  0.00     0.124 S 
ATOM     82  O   UNL A   1      36.282  31.574  29.967  1.00  0.00    -0.237 OA
ATOM     83  O   UNL A   1      35.607  29.531  28.750  1.00  0.00    -0.237 OA
ATOM     84  O   UNL A   1      36.262  29.389  31.119  1.00  0.00    -0.744 OA
ENDBRANCH  80  81
ENDBRANCH  61  75
BRANCH  62  85
ATOM     85  C   UNL A   1      50.075  26.487  26.554  1.00  0.00    -0.014 A 
ATOM     86  C   UNL A   1      50.926  26.139  27.621  1.00  0.00     0.010 A 
ATOM     87  C   UNL A   1      50.589  26.506  25.246  1.00  0.00     0.010 A 
ATOM     88  C   UNL A   1      52.281  25.893  27.395  1.00  0.00     0.020 A 
ATOM     89  C   UNL A   1      51.940  26.228  25.014  1.00  0.00     0.020 A 
ATOM     90  C   UNL A   1      52.783  25.958  26.094  1.00  0.00     0.054 A 
BRANCH  90  91
ATOM     91  S   UNL A   1      54.561  25.706  25.832  1.00  0.00     0.124 S 
ATOM     92  O   UNL A   1      54.803  24.480  26.587  1.00  0.00    -0.237 OA
ATOM     93  O   UNL A   1      54.657  25.581  24.380  1.00  0.00    -0.237 OA
ATOM     94  O   UNL A   1      55.161  26.915  26.391  1.00  0.00    -0.744 OA
ENDBRANCH  90  91
ENDBRANCH  62  85
BRANCH  74  95
ATOM     95  C   UNL A   1      47.072  32.701  27.830  1.00  0.00    -0.014 A 
ATOM     96  C   UNL A   1      47.165  33.449  26.640  1.00  0.00     0.010 A 
ATOM     97  C   UNL A   1      47.620  33.219  29.015  1.00  0.00     0.010 A 
ATOM     98  C   UNL A   1      47.845  34.667  26.625  1.00  0.00     0.020 A 
ATOM     99  C   UNL A   1      48.281  34.450  29.007  1.00  0.00     0.020 A 
ATOM    100  C   UNL A   1      48.417  35.151  27.805  1.00  0.00     0.054 A 
BRANCH 100 101
ATOM    101  S   UNL A   1      49.367  36.694  27.747  1.00  0.00     0.124 S 
ATOM    102  O   UNL A   1      49.796  36.844  29.133  1.00  0.00    -0.237 OA
ATOM    103  O   UNL A   1      50.426  36.384  26.789  1.00  0.00    -0.237 OA
ATOM    104  O   UNL A   1      48.391  37.681  27.286  1.00  0.00    -0.744 OA
ENDBRANCH 100 101
ENDBRANCH  74  95
ENDBRANCH  48  49
ENDBRANCH  40  43
ENDBRANCH  38  39
ENDBRANCH  37  38
ENDBRANCH   1  37
TORSDOF 20
ENDMDL
