MODEL 1
REMARK VINA RESULT:     -13.2      0.000      0.000
REMARK SMILES O=C(NCCCCNC(=O)[C@@H]1CCCN1S(=O)(=O)c1ccc2c3c(cccc13)C(=O)N2)c1ccc(-c2c3nc(c(-c4ccc(S(=O)(=O)[O-])cc4)c4ccc([nH]4)c(-c4ccc(S(=O)(=O)[O-])cc4)c4nc(c(-c5ccc(S(=O)(=O)[O-])cc5)c5ccc2[nH]5)C=C4)C=C3)cc1
REMARK SMILES IDX 5 1 4 2 3 3 1 4 2 5 32 7 33 8 91 9 34 10 90 11 35 12 36 13
REMARK SMILES IDX 37 14 84 15 38 16 89 17 83 18 85 19 39 20 88 21 82 22 81 23
REMARK SMILES IDX 40 25 70 26 51 27 69 28 52 29 55 30 68 31 86 32 53 33 54 34
REMARK SMILES IDX 67 36 87 37 56 38 41 39 42 40 50 41 43 42 49 43 44 44 45 45
REMARK SMILES IDX 46 46 47 47 48 48 71 49 72 50 80 51 73 52 79 53 74 54 75 55
REMARK SMILES IDX 76 56 77 57 78 58 57 59 58 60 66 61 59 62 65 63 60 64 61 65
REMARK SMILES IDX 62 66 63 67 64 68 6 69 7 70 8 71 9 72 10 74 11 75 12 76
REMARK SMILES IDX 15 77 13 78 14 79 16 80 17 81 18 82 19 83 20 84 28 85 21 86
REMARK SMILES IDX 23 87 27 88 22 89 24 90 26 91 31 92 25 93 29 94 30 96
REMARK H PARENT 3 6 85 24 55 35 8 73 31 95
REMARK Flexibility Score: inf
ROOT
ATOM      1  C   UNL A   1      39.490  22.523  26.518  1.00  0.00     0.023 C 
ENDROOT
BRANCH   1   2
ATOM      2  C   UNL A   1      39.452  20.443  25.813  1.00  0.00     0.116 C 
BRANCH   2   3
ATOM      3  N   UNL A   1      40.480  19.214  25.981  1.00  0.00    -0.352 N 
ATOM      4  O   UNL A   1      42.499  18.207  26.177  1.00  0.00    -0.269 OA
ATOM      5  C   UNL A   1      41.837  19.238  26.203  1.00  0.00     0.251 C 
ATOM      6  H   UNL A   1      40.079  18.318  25.917  1.00  0.00     0.163 HD
BRANCH   5   7
ATOM      7  C   UNL A   1      42.488  20.527  26.493  1.00  0.00     0.039 A 
ATOM      8  C   UNL A   1      43.086  21.236  25.446  1.00  0.00     0.014 A 
ATOM      9  C   UNL A   1      42.486  21.033  27.795  1.00  0.00     0.014 A 
ATOM     10  C   UNL A   1      43.711  22.449  25.710  1.00  0.00     0.010 A 
ATOM     11  C   UNL A   1      43.075  22.274  28.048  1.00  0.00     0.010 A 
ATOM     12  C   UNL A   1      43.676  22.997  27.004  1.00  0.00    -0.014 A 
BRANCH  12  13
ATOM     13  C   UNL A   1      44.116  24.399  27.205  1.00  0.00     0.031 A 
ATOM     14  C   UNL A   1      45.539  24.819  27.002  1.00  0.00     0.074 A 
ATOM     15  C   UNL A   1      43.185  25.298  27.583  1.00  0.00     0.049 A 
ATOM     16  N   UNL A   1      46.048  26.022  27.075  1.00  0.00    -0.248 NA
ATOM     17  C   UNL A   1      46.518  23.767  26.687  1.00  0.00     0.031 C 
ATOM     18  C   UNL A   1      41.776  24.983  27.839  1.00  0.00     0.029 A 
ATOM     19  N   UNL A   1      43.266  26.650  27.801  1.00  0.00    -0.354 N 
ATOM     20  C   UNL A   1      47.406  25.875  26.828  1.00  0.00     0.074 A 
ATOM     21  C   UNL A   1      47.647  24.462  26.626  1.00  0.00     0.031 C 
ATOM     22  C   UNL A   1      41.117  26.112  28.127  1.00  0.00     0.029 A 
ATOM     23  C   UNL A   1      42.061  27.225  28.130  1.00  0.00     0.049 A 
ATOM     24  H   UNL A   1      44.106  27.159  27.729  1.00  0.00     0.167 HD
ATOM     25  C   UNL A   1      48.357  26.839  26.772  1.00  0.00     0.031 A 
ATOM     26  C   UNL A   1      41.741  28.503  28.413  1.00  0.00     0.031 A 
ATOM     27  C   UNL A   1      48.096  28.239  26.983  1.00  0.00     0.049 A 
ATOM     28  C   UNL A   1      42.812  29.549  28.361  1.00  0.00     0.074 A 
ATOM     29  C   UNL A   1      48.983  29.296  26.885  1.00  0.00     0.029 A 
ATOM     30  N   UNL A   1      46.870  28.776  27.351  1.00  0.00    -0.354 N 
ATOM     31  N   UNL A   1      44.079  29.400  28.057  1.00  0.00    -0.248 NA
ATOM     32  C   UNL A   1      42.424  30.927  28.686  1.00  0.00     0.031 C 
ATOM     33  C   UNL A   1      48.314  30.461  27.267  1.00  0.00     0.029 A 
ATOM     34  C   UNL A   1      46.989  30.144  27.526  1.00  0.00     0.049 A 
ATOM     35  H   UNL A   1      46.040  28.260  27.469  1.00  0.00     0.167 HD
ATOM     36  C   UNL A   1      44.641  30.667  28.141  1.00  0.00     0.074 A 
ATOM     37  C   UNL A   1      43.575  31.572  28.521  1.00  0.00     0.031 C 
ATOM     38  C   UNL A   1      45.923  31.037  27.912  1.00  0.00     0.031 A 
BRANCH  25  39
ATOM     39  C   UNL A   1      49.778  26.422  26.502  1.00  0.00    -0.014 A 
ATOM     40  C   UNL A   1      50.613  25.955  27.531  1.00  0.00     0.010 A 
ATOM     41  C   UNL A   1      50.256  26.416  25.177  1.00  0.00     0.010 A 
ATOM     42  C   UNL A   1      51.911  25.518  27.245  1.00  0.00     0.020 A 
ATOM     43  C   UNL A   1      51.544  25.956  24.884  1.00  0.00     0.020 A 
ATOM     44  C   UNL A   1      52.366  25.518  25.923  1.00  0.00     0.054 A 
BRANCH  44  45
ATOM     45  S   UNL A   1      54.053  24.942  25.586  1.00  0.00     0.124 S 
ATOM     46  O   UNL A   1      54.779  25.412  26.763  1.00  0.00    -0.237 OA
ATOM     47  O   UNL A   1      53.878  23.495  25.494  1.00  0.00    -0.237 OA
ATOM     48  O   UNL A   1      54.408  25.608  24.335  1.00  0.00    -0.744 OA
ENDBRANCH  44  45
ENDBRANCH  25  39
BRANCH  26  49
ATOM     49  C   UNL A   1      40.327  28.820  28.750  1.00  0.00    -0.014 A 
ATOM     50  C   UNL A   1      39.898  28.838  30.087  1.00  0.00     0.010 A 
ATOM     51  C   UNL A   1      39.447  29.254  27.739  1.00  0.00     0.010 A 
ATOM     52  C   UNL A   1      38.622  29.313  30.412  1.00  0.00     0.020 A 
ATOM     53  C   UNL A   1      38.180  29.749  28.063  1.00  0.00     0.020 A 
ATOM     54  C   UNL A   1      37.780  29.784  29.399  1.00  0.00     0.054 A 
BRANCH  54  55
ATOM     55  S   UNL A   1      36.172  30.489  29.862  1.00  0.00     0.124 S 
ATOM     56  O   UNL A   1      35.915  29.853  31.149  1.00  0.00    -0.237 OA
ATOM     57  O   UNL A   1      36.467  31.919  29.910  1.00  0.00    -0.237 OA
ATOM     58  O   UNL A   1      35.288  30.075  28.775  1.00  0.00    -0.744 OA
ENDBRANCH  54  55
ENDBRANCH  26  49
BRANCH  38  59
ATOM     59  C   UNL A   1      46.283  32.492  28.047  1.00  0.00    -0.014 A 
ATOM     60  C   UNL A   1      46.812  32.996  29.246  1.00  0.00     0.010 A 
ATOM     61  C   UNL A   1      46.254  33.314  26.904  1.00  0.00     0.010 A 
ATOM     62  C   UNL A   1      47.324  34.295  29.296  1.00  0.00     0.020 A 
ATOM     63  C   UNL A   1      46.786  34.604  26.944  1.00  0.00     0.020 A 
ATOM     64  C   UNL A   1      47.325  35.084  28.140  1.00  0.00     0.054 A 
BRANCH  64  65
ATOM     65  S   UNL A   1      48.080  36.732  28.214  1.00  0.00     0.124 S 
ATOM     66  O   UNL A   1      48.432  36.848  29.627  1.00  0.00    -0.237 OA
ATOM     67  O   UNL A   1      49.206  36.601  27.295  1.00  0.00    -0.237 OA
ATOM     68  O   UNL A   1      47.013  37.624  27.767  1.00  0.00    -0.744 OA
ENDBRANCH  64  65
ENDBRANCH  38  59
ENDBRANCH  12  13
ENDBRANCH   5   7
ENDBRANCH   2   3
ENDBRANCH   1   2
BRANCH   1  69
ATOM     69  C   UNL A   1      38.458  23.878  26.577  1.00  0.00     0.023 C 
BRANCH  69  70
ATOM     70  C   UNL A   1      37.108  23.965  25.867  1.00  0.00     0.116 C 
BRANCH  70  71
ATOM     71  N   UNL A   1      37.062  23.756  24.422  1.00  0.00    -0.355 N 
ATOM     72  C   UNL A   1      36.059  23.095  23.722  1.00  0.00     0.238 C 
ATOM     73  H   UNL A   1      37.812  24.116  23.894  1.00  0.00     0.163 HD
ATOM     74  O   UNL A   1      36.160  22.902  22.512  1.00  0.00    -0.273 OA
BRANCH  72  75
ATOM     75  C   UNL A   1      34.886  22.591  24.541  1.00  0.00     0.162 C 
ATOM     76  C   UNL A   1      34.009  21.449  24.054  1.00  0.00     0.032 C 
ATOM     77  N   UNL A   1      33.884  23.604  24.980  1.00  0.00    -0.185 NA
ATOM     78  C   UNL A   1      32.945  21.396  25.160  1.00  0.00     0.019 C 
ATOM     79  C   UNL A   1      32.912  22.804  25.775  1.00  0.00     0.103 C 
BRANCH  77  80
ATOM     80  S   UNL A   1      33.177  24.683  23.854  1.00  0.00     0.244 S 
ATOM     81  O   UNL A   1      34.108  24.846  22.759  1.00  0.00    -0.207 OA
ATOM     82  O   UNL A   1      31.844  24.179  23.599  1.00  0.00    -0.207 OA
BRANCH  80  83
ATOM     83  C   UNL A   1      33.001  26.262  24.662  1.00  0.00     0.090 A 
ATOM     84  C   UNL A   1      33.900  26.602  25.757  1.00  0.00     0.024 A 
ATOM     85  C   UNL A   1      32.010  27.167  24.230  1.00  0.00     0.005 A 
ATOM     86  C   UNL A   1      33.893  27.798  26.581  1.00  0.00     0.028 A 
ATOM     87  C   UNL A   1      32.200  28.608  25.178  1.00  0.00     0.019 A 
ATOM     88  C   UNL A   1      30.720  27.189  22.953  1.00  0.00     0.010 A 
ATOM     89  C   UNL A   1      33.005  28.800  26.243  1.00  0.00     0.050 A 
ATOM     90  C   UNL A   1      31.205  30.027  25.034  1.00  0.00     0.050 A 
ATOM     91  C   UNL A   1      29.684  28.662  22.758  1.00  0.00     0.002 A 
ATOM     92  N   UNL A   1      32.676  30.059  26.787  1.00  0.00    -0.321 N 
ATOM     93  C   UNL A   1      29.961  30.167  23.757  1.00  0.00     0.014 A 
ATOM     94  C   UNL A   1      31.650  30.847  26.140  1.00  0.00     0.256 C 
ATOM     95  H   UNL A   1      33.135  30.395  27.591  1.00  0.00     0.170 HD
ATOM     96  O   UNL A   1      31.276  31.940  26.538  1.00  0.00    -0.269 OA
ENDBRANCH  80  83
ENDBRANCH  77  80
ENDBRANCH  72  75
ENDBRANCH  70  71
ENDBRANCH  69  70
ENDBRANCH   1  69
TORSDOF 16
ENDMDL
MODEL 2
REMARK VINA RESULT:     -12.9      1.483      2.221
REMARK SMILES O=C(NCCCCNC(=O)[C@@H]1CCCN1S(=O)(=O)c1ccc2c3c(cccc13)C(=O)N2)c1ccc(-c2c3nc(c(-c4ccc(S(=O)(=O)[O-])cc4)c4ccc([nH]4)c(-c4ccc(S(=O)(=O)[O-])cc4)c4nc(c(-c5ccc(S(=O)(=O)[O-])cc5)c5ccc2[nH]5)C=C4)C=C3)cc1
REMARK SMILES IDX 5 1 4 2 3 3 1 4 2 5 32 7 33 8 91 9 34 10 90 11 35 12 36 13
REMARK SMILES IDX 37 14 84 15 38 16 89 17 83 18 85 19 39 20 88 21 82 22 81 23
REMARK SMILES IDX 40 25 70 26 51 27 69 28 52 29 55 30 68 31 86 32 53 33 54 34
REMARK SMILES IDX 67 36 87 37 56 38 41 39 42 40 50 41 43 42 49 43 44 44 45 45
REMARK SMILES IDX 46 46 47 47 48 48 71 49 72 50 80 51 73 52 79 53 74 54 75 55
REMARK SMILES IDX 76 56 77 57 78 58 57 59 58 60 66 61 59 62 65 63 60 64 61 65
REMARK SMILES IDX 62 66 63 67 64 68 6 69 7 70 8 71 9 72 10 74 11 75 12 76
REMARK SMILES IDX 15 77 13 78 14 79 16 80 17 81 18 82 19 83 20 84 28 85 21 86
REMARK SMILES IDX 23 87 27 88 22 89 24 90 26 91 31 92 25 93 29 94 30 96
REMARK H PARENT 3 6 85 24 55 35 8 73 31 95
REMARK Flexibility Score: inf
ROOT
ATOM      1  C   UNL A   1      37.180  21.625  24.653  1.00  0.00     0.023 C 
ENDROOT
BRANCH   1   2
ATOM      2  C   UNL A   1      38.943  21.138  25.869  1.00  0.00     0.116 C 
BRANCH   2   3
ATOM      3  N   UNL A   1      39.881  19.832  25.959  1.00  0.00    -0.352 N 
ATOM      4  O   UNL A   1      41.825  18.673  26.046  1.00  0.00    -0.269 OA
ATOM      5  C   UNL A   1      41.243  19.748  26.130  1.00  0.00     0.251 C 
ATOM      6  H   UNL A   1      39.412  18.970  25.882  1.00  0.00     0.163 HD
BRANCH   5   7
ATOM      7  C   UNL A   1      41.998  20.975  26.435  1.00  0.00     0.039 A 
ATOM      8  C   UNL A   1      42.451  21.773  25.380  1.00  0.00     0.014 A 
ATOM      9  C   UNL A   1      42.237  21.336  27.763  1.00  0.00     0.014 A 
ATOM     10  C   UNL A   1      43.174  22.929  25.657  1.00  0.00     0.010 A 
ATOM     11  C   UNL A   1      42.922  22.522  28.038  1.00  0.00     0.010 A 
ATOM     12  C   UNL A   1      43.380  23.333  26.988  1.00  0.00    -0.014 A 
BRANCH  12  13
ATOM     13  C   UNL A   1      43.919  24.690  27.253  1.00  0.00     0.031 A 
ATOM     14  C   UNL A   1      45.348  25.041  26.980  1.00  0.00     0.074 A 
ATOM     15  C   UNL A   1      43.072  25.610  27.756  1.00  0.00     0.049 A 
ATOM     16  N   UNL A   1      45.934  26.204  27.099  1.00  0.00    -0.248 NA
ATOM     17  C   UNL A   1      46.237  23.961  26.525  1.00  0.00     0.031 C 
ATOM     18  C   UNL A   1      41.666  25.358  28.088  1.00  0.00     0.029 A 
ATOM     19  N   UNL A   1      43.251  26.936  28.060  1.00  0.00    -0.354 N 
ATOM     20  C   UNL A   1      47.262  25.998  26.747  1.00  0.00     0.074 A 
ATOM     21  C   UNL A   1      47.401  24.592  26.431  1.00  0.00     0.031 C 
ATOM     22  C   UNL A   1      41.100  26.499  28.499  1.00  0.00     0.029 A 
ATOM     23  C   UNL A   1      42.109  27.553  28.513  1.00  0.00     0.049 A 
ATOM     24  H   UNL A   1      44.115  27.399  27.965  1.00  0.00     0.167 HD
ATOM     25  C   UNL A   1      48.265  26.907  26.691  1.00  0.00     0.031 A 
ATOM     26  C   UNL A   1      41.888  28.823  28.905  1.00  0.00     0.031 A 
ATOM     27  C   UNL A   1      48.106  28.301  27.015  1.00  0.00     0.049 A 
ATOM     28  C   UNL A   1      43.016  29.807  28.850  1.00  0.00     0.074 A 
ATOM     29  C   UNL A   1      49.049  29.310  26.928  1.00  0.00     0.029 A 
ATOM     30  N   UNL A   1      46.943  28.879  27.505  1.00  0.00    -0.354 N 
ATOM     31  N   UNL A   1      44.249  29.609  28.448  1.00  0.00    -0.248 NA
ATOM     32  C   UNL A   1      42.737  31.178  29.295  1.00  0.00     0.031 C 
ATOM     33  C   UNL A   1      48.480  30.481  27.435  1.00  0.00     0.029 A 
ATOM     34  C   UNL A   1      47.158  30.222  27.765  1.00  0.00     0.049 A 
ATOM     35  H   UNL A   1      46.092  28.404  27.646  1.00  0.00     0.167 HD
ATOM     36  C   UNL A   1      44.893  30.832  28.579  1.00  0.00     0.074 A 
ATOM     37  C   UNL A   1      43.912  31.767  29.095  1.00  0.00     0.031 C 
ATOM     38  C   UNL A   1      46.178  31.143  28.286  1.00  0.00     0.031 A 
BRANCH  25  39
ATOM     39  C   UNL A   1      49.636  26.431  26.293  1.00  0.00    -0.014 A 
ATOM     40  C   UNL A   1      50.104  26.563  24.974  1.00  0.00     0.010 A 
ATOM     41  C   UNL A   1      50.504  25.921  27.278  1.00  0.00     0.010 A 
ATOM     42  C   UNL A   1      51.403  26.167  24.642  1.00  0.00     0.020 A 
ATOM     43  C   UNL A   1      51.812  25.548  26.955  1.00  0.00     0.020 A 
ATOM     44  C   UNL A   1      52.250  25.665  25.635  1.00  0.00     0.054 A 
BRANCH  44  45
ATOM     45  S   UNL A   1      53.931  25.164  25.171  1.00  0.00     0.124 S 
ATOM     46  O   UNL A   1      54.696  25.506  26.368  1.00  0.00    -0.237 OA
ATOM     47  O   UNL A   1      53.773  23.736  24.914  1.00  0.00    -0.237 OA
ATOM     48  O   UNL A   1      54.227  25.981  23.996  1.00  0.00    -0.744 OA
ENDBRANCH  44  45
ENDBRANCH  25  39
BRANCH  26  49
ATOM     49  C   UNL A   1      40.522  29.195  29.362  1.00  0.00    -0.014 A 
ATOM     50  C   UNL A   1      40.232  29.306  30.731  1.00  0.00     0.010 A 
ATOM     51  C   UNL A   1      39.551  29.588  28.419  1.00  0.00     0.010 A 
ATOM     52  C   UNL A   1      39.005  29.831  31.152  1.00  0.00     0.020 A 
ATOM     53  C   UNL A   1      38.334  30.133  28.836  1.00  0.00     0.020 A 
ATOM     54  C   UNL A   1      38.073  30.260  30.201  1.00  0.00     0.054 A 
BRANCH  54  55
ATOM     55  S   UNL A   1      36.534  31.032  30.778  1.00  0.00     0.124 S 
ATOM     56  O   UNL A   1      35.959  29.985  31.616  1.00  0.00    -0.237 OA
ATOM     57  O   UNL A   1      37.028  32.210  31.485  1.00  0.00    -0.237 OA
ATOM     58  O   UNL A   1      35.805  31.311  29.543  1.00  0.00    -0.744 OA
ENDBRANCH  54  55
ENDBRANCH  26  49
BRANCH  38  59
ATOM     59  C   UNL A   1      46.635  32.562  28.495  1.00  0.00    -0.014 A 
ATOM     60  C   UNL A   1      46.454  33.532  27.497  1.00  0.00     0.010 A 
ATOM     61  C   UNL A   1      47.088  32.956  29.769  1.00  0.00     0.010 A 
ATOM     62  C   UNL A   1      46.700  34.879  27.775  1.00  0.00     0.020 A 
ATOM     63  C   UNL A   1      47.312  34.303  30.057  1.00  0.00     0.020 A 
ATOM     64  C   UNL A   1      47.109  35.258  29.059  1.00  0.00     0.054 A 
BRANCH  64  65
ATOM     65  S   UNL A   1      47.331  37.023  29.414  1.00  0.00     0.124 S 
ATOM     66  O   UNL A   1      46.109  37.605  28.866  1.00  0.00    -0.237 OA
ATOM     67  O   UNL A   1      47.436  37.038  30.870  1.00  0.00    -0.237 OA
ATOM     68  O   UNL A   1      48.556  37.371  28.698  1.00  0.00    -0.744 OA
ENDBRANCH  64  65
ENDBRANCH  38  59
ENDBRANCH  12  13
ENDBRANCH   5   7
ENDBRANCH   2   3
ENDBRANCH   1   2
BRANCH   1  69
ATOM     69  C   UNL A   1      36.721  22.734  23.443  1.00  0.00     0.023 C 
BRANCH  69  70
ATOM     70  C   UNL A   1      35.399  23.500  23.432  1.00  0.00     0.116 C 
BRANCH  70  71
ATOM     71  N   UNL A   1      34.181  22.788  23.054  1.00  0.00    -0.355 N 
ATOM     72  C   UNL A   1      33.364  22.054  23.906  1.00  0.00     0.238 C 
ATOM     73  H   UNL A   1      33.914  22.833  22.107  1.00  0.00     0.163 HD
ATOM     74  O   UNL A   1      32.404  21.424  23.467  1.00  0.00    -0.273 OA
BRANCH  72  75
ATOM     75  C   UNL A   1      33.759  22.038  25.371  1.00  0.00     0.162 C 
ATOM     76  C   UNL A   1      33.531  20.813  26.242  1.00  0.00     0.032 C 
ATOM     77  N   UNL A   1      33.237  23.143  26.224  1.00  0.00    -0.185 NA
ATOM     78  C   UNL A   1      33.994  21.330  27.611  1.00  0.00     0.019 C 
ATOM     79  C   UNL A   1      33.830  22.857  27.558  1.00  0.00     0.103 C 
BRANCH  77  80
ATOM     80  S   UNL A   1      31.567  23.521  26.243  1.00  0.00     0.244 S 
ATOM     81  O   UNL A   1      30.845  22.344  25.812  1.00  0.00    -0.207 OA
ATOM     82  O   UNL A   1      31.302  24.093  27.548  1.00  0.00    -0.207 OA
BRANCH  80  83
ATOM     83  C   UNL A   1      31.293  24.805  25.038  1.00  0.00     0.090 A 
ATOM     84  C   UNL A   1      30.889  24.435  23.688  1.00  0.00     0.024 A 
ATOM     85  C   UNL A   1      31.453  26.158  25.401  1.00  0.00     0.005 A 
ATOM     86  C   UNL A   1      30.670  25.308  22.549  1.00  0.00     0.028 A 
ATOM     87  C   UNL A   1      31.018  27.104  24.013  1.00  0.00     0.019 A 
ATOM     88  C   UNL A   1      31.914  27.067  26.903  1.00  0.00     0.010 A 
ATOM     89  C   UNL A   1      30.745  26.670  22.766  1.00  0.00     0.050 A 
ATOM     90  C   UNL A   1      31.059  28.842  23.946  1.00  0.00     0.050 A 
ATOM     91  C   UNL A   1      31.940  28.879  26.875  1.00  0.00     0.002 A 
ATOM     92  N   UNL A   1      30.631  27.813  21.947  1.00  0.00    -0.321 N 
ATOM     93  C   UNL A   1      31.428  29.821  25.396  1.00  0.00     0.014 A 
ATOM     94  C   UNL A   1      30.785  29.117  22.552  1.00  0.00     0.256 C 
ATOM     95  H   UNL A   1      30.449  27.725  20.983  1.00  0.00     0.170 HD
ATOM     96  O   UNL A   1      30.724  30.169  21.933  1.00  0.00    -0.269 OA
ENDBRANCH  80  83
ENDBRANCH  77  80
ENDBRANCH  72  75
ENDBRANCH  70  71
ENDBRANCH  69  70
ENDBRANCH   1  69
TORSDOF 16
ENDMDL
MODEL 3
REMARK VINA RESULT:     -12.9      0.471      7.948
REMARK SMILES O=C(NCCCCNC(=O)[C@@H]1CCCN1S(=O)(=O)c1ccc2c3c(cccc13)C(=O)N2)c1ccc(-c2c3nc(c(-c4ccc(S(=O)(=O)[O-])cc4)c4ccc([nH]4)c(-c4ccc(S(=O)(=O)[O-])cc4)c4nc(c(-c5ccc(S(=O)(=O)[O-])cc5)c5ccc2[nH]5)C=C4)C=C3)cc1
REMARK SMILES IDX 5 1 4 2 3 3 1 4 2 5 32 7 33 8 91 9 34 10 90 11 35 12 36 13
REMARK SMILES IDX 37 14 84 15 38 16 89 17 83 18 85 19 39 20 88 21 82 22 81 23
REMARK SMILES IDX 40 25 70 26 51 27 69 28 52 29 55 30 68 31 86 32 53 33 54 34
REMARK SMILES IDX 67 36 87 37 56 38 41 39 42 40 50 41 43 42 49 43 44 44 45 45
REMARK SMILES IDX 46 46 47 47 48 48 71 49 72 50 80 51 73 52 79 53 74 54 75 55
REMARK SMILES IDX 76 56 77 57 78 58 57 59 58 60 66 61 59 62 65 63 60 64 61 65
REMARK SMILES IDX 62 66 63 67 64 68 6 69 7 70 8 71 9 72 10 74 11 75 12 76
REMARK SMILES IDX 15 77 13 78 14 79 16 80 17 81 18 82 19 83 20 84 28 85 21 86
REMARK SMILES IDX 23 87 27 88 22 89 24 90 26 91 31 92 25 93 29 94 30 96
REMARK H PARENT 3 6 85 24 55 35 8 73 31 95
REMARK Flexibility Score: inf
ROOT
ATOM      1  C   UNL A   1      39.656  22.640  26.569  1.00  0.00     0.023 C 
ENDROOT
BRANCH   1   2
ATOM      2  C   UNL A   1      39.659  20.499  26.076  1.00  0.00     0.116 C 
BRANCH   2   3
ATOM      3  N   UNL A   1      40.736  19.326  26.311  1.00  0.00    -0.352 N 
ATOM      4  O   UNL A   1      42.795  18.414  26.554  1.00  0.00    -0.269 OA
ATOM      5  C   UNL A   1      42.092  19.417  26.521  1.00  0.00     0.251 C 
ATOM      6  H   UNL A   1      40.371  18.411  26.305  1.00  0.00     0.163 HD
BRANCH   5   7
ATOM      7  C   UNL A   1      42.692  20.747  26.726  1.00  0.00     0.039 A 
ATOM      8  C   UNL A   1      43.210  21.434  25.624  1.00  0.00     0.014 A 
ATOM      9  C   UNL A   1      42.720  21.311  28.003  1.00  0.00     0.014 A 
ATOM     10  C   UNL A   1      43.787  22.686  25.808  1.00  0.00     0.010 A 
ATOM     11  C   UNL A   1      43.258  22.588  28.177  1.00  0.00     0.010 A 
ATOM     12  C   UNL A   1      43.780  23.290  27.078  1.00  0.00    -0.014 A 
BRANCH  12  13
ATOM     13  C   UNL A   1      44.160  24.719  27.198  1.00  0.00     0.031 A 
ATOM     14  C   UNL A   1      43.161  25.778  27.544  1.00  0.00     0.074 A 
ATOM     15  C   UNL A   1      45.452  25.041  26.981  1.00  0.00     0.049 A 
ATOM     16  N   UNL A   1      43.369  27.053  27.751  1.00  0.00    -0.248 NA
ATOM     17  C   UNL A   1      41.754  25.368  27.670  1.00  0.00     0.031 C 
ATOM     18  C   UNL A   1      46.499  24.085  26.606  1.00  0.00     0.029 A 
ATOM     19  N   UNL A   1      46.111  26.241  27.059  1.00  0.00    -0.354 N 
ATOM     20  C   UNL A   1      42.122  27.603  28.017  1.00  0.00     0.074 A 
ATOM     21  C   UNL A   1      41.158  26.526  27.925  1.00  0.00     0.031 C 
ATOM     22  C   UNL A   1      47.673  24.724  26.537  1.00  0.00     0.029 A 
ATOM     23  C   UNL A   1      47.460  26.141  26.809  1.00  0.00     0.049 A 
ATOM     24  H   UNL A   1      45.662  27.091  27.272  1.00  0.00     0.167 HD
ATOM     25  C   UNL A   1      41.820  28.889  28.315  1.00  0.00     0.031 A 
ATOM     26  C   UNL A   1      48.426  27.080  26.791  1.00  0.00     0.031 A 
ATOM     27  C   UNL A   1      42.795  29.946  28.396  1.00  0.00     0.049 A 
ATOM     28  C   UNL A   1      48.066  28.500  27.108  1.00  0.00     0.074 A 
ATOM     29  C   UNL A   1      42.592  31.268  28.753  1.00  0.00     0.029 A 
ATOM     30  N   UNL A   1      44.143  29.812  28.100  1.00  0.00    -0.354 N 
ATOM     31  N   UNL A   1      46.891  28.988  27.426  1.00  0.00    -0.248 NA
ATOM     32  C   UNL A   1      49.145  29.494  27.067  1.00  0.00     0.031 C 
ATOM     33  C   UNL A   1      43.802  31.949  28.600  1.00  0.00     0.029 A 
ATOM     34  C   UNL A   1      44.777  31.037  28.224  1.00  0.00     0.049 A 
ATOM     35  H   UNL A   1      44.585  28.971  27.840  1.00  0.00     0.167 HD
ATOM     36  C   UNL A   1      47.089  30.346  27.637  1.00  0.00     0.074 A 
ATOM     37  C   UNL A   1      48.497  30.603  27.413  1.00  0.00     0.031 C 
ATOM     38  C   UNL A   1      46.179  31.285  27.992  1.00  0.00     0.031 A 
BRANCH  25  39
ATOM     39  C   UNL A   1      40.377  29.245  28.550  1.00  0.00    -0.014 A 
ATOM     40  C   UNL A   1      39.908  29.602  29.827  1.00  0.00     0.010 A 
ATOM     41  C   UNL A   1      39.493  29.309  27.456  1.00  0.00     0.010 A 
ATOM     42  C   UNL A   1      38.576  29.987  30.009  1.00  0.00     0.020 A 
ATOM     43  C   UNL A   1      38.167  29.717  27.629  1.00  0.00     0.020 A 
ATOM     44  C   UNL A   1      37.715  30.045  28.908  1.00  0.00     0.054 A 
BRANCH  44  45
ATOM     45  S   UNL A   1      35.994  30.550  29.179  1.00  0.00     0.124 S 
ATOM     46  O   UNL A   1      35.419  30.415  27.842  1.00  0.00    -0.237 OA
ATOM     47  O   UNL A   1      35.531  29.575  30.162  1.00  0.00    -0.237 OA
ATOM     48  O   UNL A   1      36.105  31.924  29.666  1.00  0.00    -0.744 OA
ENDBRANCH  44  45
ENDBRANCH  25  39
BRANCH  26  49
ATOM     49  C   UNL A   1      49.816  26.660  26.470  1.00  0.00    -0.014 A 
ATOM     50  C   UNL A   1      50.650  26.128  27.466  1.00  0.00     0.010 A 
ATOM     51  C   UNL A   1      50.253  26.650  25.130  1.00  0.00     0.010 A 
ATOM     52  C   UNL A   1      51.886  25.566  27.126  1.00  0.00     0.020 A 
ATOM     53  C   UNL A   1      51.477  26.070  24.784  1.00  0.00     0.020 A 
ATOM     54  C   UNL A   1      52.281  25.522  25.785  1.00  0.00     0.054 A 
BRANCH  54  55
ATOM     55  S   UNL A   1      53.841  24.695  25.363  1.00  0.00     0.124 S 
ATOM     56  O   UNL A   1      53.394  23.352  25.011  1.00  0.00    -0.237 OA
ATOM     57  O   UNL A   1      54.330  25.511  24.255  1.00  0.00    -0.237 OA
ATOM     58  O   UNL A   1      54.624  24.788  26.593  1.00  0.00    -0.744 OA
ENDBRANCH  54  55
ENDBRANCH  26  49
BRANCH  38  59
ATOM     59  C   UNL A   1      46.651  32.701  28.185  1.00  0.00    -0.014 A 
ATOM     60  C   UNL A   1      47.218  33.113  29.401  1.00  0.00     0.010 A 
ATOM     61  C   UNL A   1      46.686  33.569  27.077  1.00  0.00     0.010 A 
ATOM     62  C   UNL A   1      47.829  34.366  29.502  1.00  0.00     0.020 A 
ATOM     63  C   UNL A   1      47.316  34.811  27.167  1.00  0.00     0.020 A 
ATOM     64  C   UNL A   1      47.891  35.198  28.379  1.00  0.00     0.054 A 
BRANCH  64  65
ATOM     65  S   UNL A   1      48.772  36.778  28.517  1.00  0.00     0.124 S 
ATOM     66  O   UNL A   1      49.813  36.642  27.502  1.00  0.00    -0.237 OA
ATOM     67  O   UNL A   1      47.723  37.748  28.216  1.00  0.00    -0.237 OA
ATOM     68  O   UNL A   1      49.252  36.791  29.897  1.00  0.00    -0.744 OA
ENDBRANCH  64  65
ENDBRANCH  38  59
ENDBRANCH  12  13
ENDBRANCH   5   7
ENDBRANCH   2   3
ENDBRANCH   1   2
BRANCH   1  69
ATOM     69  C   UNL A   1      38.548  23.929  26.689  1.00  0.00     0.023 C 
BRANCH  69  70
ATOM     70  C   UNL A   1      37.186  23.962  25.997  1.00  0.00     0.116 C 
BRANCH  70  71
ATOM     71  N   UNL A   1      37.129  23.741  24.555  1.00  0.00    -0.355 N 
ATOM     72  C   UNL A   1      36.189  22.967  23.882  1.00  0.00     0.238 C 
ATOM     73  H   UNL A   1      37.820  24.180  24.007  1.00  0.00     0.163 HD
ATOM     74  O   UNL A   1      36.281  22.780  22.671  1.00  0.00    -0.273 OA
BRANCH  72  75
ATOM     75  C   UNL A   1      35.100  22.340  24.732  1.00  0.00     0.162 C 
ATOM     76  C   UNL A   1      34.363  21.089  24.282  1.00  0.00     0.032 C 
ATOM     77  N   UNL A   1      33.988  23.231  25.171  1.00  0.00    -0.185 NA
ATOM     78  C   UNL A   1      33.332  20.929  25.409  1.00  0.00     0.019 C 
ATOM     79  C   UNL A   1      33.136  22.334  25.998  1.00  0.00     0.103 C 
BRANCH  77  80
ATOM     80  S   UNL A   1      33.136  24.192  24.039  1.00  0.00     0.244 S 
ATOM     81  O   UNL A   1      33.939  24.271  22.838  1.00  0.00    -0.207 OA
ATOM     82  O   UNL A   1      31.796  23.645  23.978  1.00  0.00    -0.207 OA
BRANCH  80  83
ATOM     83  C   UNL A   1      33.006  25.834  24.720  1.00  0.00     0.090 A 
ATOM     84  C   UNL A   1      33.950  26.252  25.749  1.00  0.00     0.024 A 
ATOM     85  C   UNL A   1      32.009  26.714  24.252  1.00  0.00     0.005 A 
ATOM     86  C   UNL A   1      33.987  27.511  26.470  1.00  0.00     0.028 A 
ATOM     87  C   UNL A   1      32.249  28.225  25.070  1.00  0.00     0.019 A 
ATOM     88  C   UNL A   1      30.671  26.647  23.027  1.00  0.00     0.010 A 
ATOM     89  C   UNL A   1      33.096  28.493  26.084  1.00  0.00     0.050 A 
ATOM     90  C   UNL A   1      31.263  29.641  24.846  1.00  0.00     0.050 A 
ATOM     91  C   UNL A   1      29.643  28.113  22.750  1.00  0.00     0.002 A 
ATOM     92  N   UNL A   1      32.801  29.798  26.534  1.00  0.00    -0.321 N 
ATOM     93  C   UNL A   1      29.972  29.691  23.610  1.00  0.00     0.014 A 
ATOM     94  C   UNL A   1      31.759  30.543  25.864  1.00  0.00     0.256 C 
ATOM     95  H   UNL A   1      33.294  30.192  27.289  1.00  0.00     0.170 HD
ATOM     96  O   UNL A   1      31.411  31.669  26.183  1.00  0.00    -0.269 OA
ENDBRANCH  80  83
ENDBRANCH  77  80
ENDBRANCH  72  75
ENDBRANCH  70  71
ENDBRANCH  69  70
ENDBRANCH   1  69
TORSDOF 16
ENDMDL
