MODEL 1
REMARK VINA RESULT:      -9.5      0.000      0.000
REMARK SMILES O=C(CCCCCC(F)(F)c1ccccc1)NCCCCNC(=O)c1ccc(-c2c3nc(c(-c4ccc(S(=O)(=O)[O-])cc4)c4ccc([nH]4)c(-c4ccc(S(=O)(=O)[O-])cc4)c4nc(c(-c5ccc(S(=O)(=O)[O-])cc5)c5ccc2[nH]5)C=C4)C=C3)cc1
REMARK SMILES IDX 18 1 17 2 1 3 2 4 3 6 4 7 5 8 6 9 7 10 8 11 9 12 10 13 11 14
REMARK SMILES IDX 12 15 16 16 13 17 15 18 14 19 19 20 20 21 21 22 22 23 23 24
REMARK SMILES IDX 24 26 25 27 26 28 84 29 27 30 83 31 28 32 29 33 30 34 77 35
REMARK SMILES IDX 31 36 82 37 76 38 78 39 32 40 81 41 75 42 74 43 33 45 63 46
REMARK SMILES IDX 44 47 62 48 45 49 48 50 61 51 79 52 46 53 47 54 60 56 80 57
REMARK SMILES IDX 49 58 34 59 35 60 43 61 36 62 42 63 37 64 38 65 39 66 40 67
REMARK SMILES IDX 41 68 64 69 65 70 73 71 66 72 72 73 67 74 68 75 69 76 70 77
REMARK SMILES IDX 71 78 50 79 51 80 59 81 52 82 58 83 53 84 54 85 55 86 56 87
REMARK SMILES IDX 57 88
REMARK H PARENT 17 5 22 25 78 44 48 55
REMARK Flexibility Score: inf
ROOT
ATOM      1  C   UNL A   1      31.765  28.332  23.621  1.00  0.00     0.116 C 
ENDROOT
BRANCH   1   2
ATOM      2  N   UNL A   1      31.697  27.049  22.961  1.00  0.00    -0.356 N 
ATOM      3  O   UNL A   1      33.756  27.141  21.945  1.00  0.00    -0.275 OA
ATOM      4  C   UNL A   1      32.735  26.533  22.226  1.00  0.00     0.219 C 
ATOM      5  H   UNL A   1      30.870  26.522  23.044  1.00  0.00     0.163 HD
BRANCH   4   6
ATOM      6  C   UNL A   1      32.513  25.084  21.847  1.00  0.00     0.100 C 
BRANCH   6   7
ATOM      7  C   UNL A   1      32.486  24.199  23.091  1.00  0.00     0.010 C 
BRANCH   7   8
ATOM      8  C   UNL A   1      31.094  23.833  23.636  1.00  0.00     0.001 C 
BRANCH   8   9
ATOM      9  C   UNL A   1      31.058  23.274  25.062  1.00  0.00     0.007 C 
BRANCH   9  10
ATOM     10  C   UNL A   1      32.153  22.266  25.450  1.00  0.00     0.082 C 
BRANCH  10  11
ATOM     11  C   UNL A   1      33.292  22.774  26.356  1.00  0.00     0.273 C 
ATOM     12  F   UNL A   1      33.007  24.081  26.648  1.00  0.00    -0.201 F 
ATOM     13  F   UNL A   1      33.162  22.113  27.549  1.00  0.00    -0.201 F 
BRANCH  11  14
ATOM     14  C   UNL A   1      34.699  22.606  25.816  1.00  0.00     0.021 A 
ATOM     15  C   UNL A   1      35.352  23.691  25.208  1.00  0.00     0.010 A 
ATOM     16  C   UNL A   1      35.378  21.380  25.889  1.00  0.00     0.010 A 
ATOM     17  C   UNL A   1      36.592  23.522  24.591  1.00  0.00     0.001 A 
ATOM     18  C   UNL A   1      36.594  21.197  25.226  1.00  0.00     0.001 A 
ATOM     19  C   UNL A   1      37.193  22.265  24.567  1.00  0.00     0.000 A 
ENDBRANCH  11  14
ENDBRANCH  10  11
ENDBRANCH   9  10
ENDBRANCH   8   9
ENDBRANCH   7   8
ENDBRANCH   6   7
ENDBRANCH   4   6
ENDBRANCH   1   2
BRANCH   1  20
ATOM     20  C   UNL A   1      31.737  28.175  25.138  1.00  0.00     0.023 C 
BRANCH  20  21
ATOM     21  C   UNL A   1      32.837  27.274  25.714  1.00  0.00     0.023 C 
BRANCH  21  22
ATOM     22  C   UNL A   1      34.027  28.010  26.324  1.00  0.00     0.116 C 
BRANCH  22  23
ATOM     23  N   UNL A   1      33.678  29.360  26.734  1.00  0.00    -0.352 N 
ATOM     24  C   UNL A   1      34.346  30.230  27.560  1.00  0.00     0.251 C 
ATOM     25  H   UNL A   1      32.832  29.703  26.364  1.00  0.00     0.163 HD
ATOM     26  O   UNL A   1      33.773  31.234  27.972  1.00  0.00    -0.269 OA
BRANCH  24  27
ATOM     27  C   UNL A   1      35.744  29.959  27.967  1.00  0.00     0.039 A 
ATOM     28  C   UNL A   1      36.001  29.572  29.285  1.00  0.00     0.014 A 
ATOM     29  C   UNL A   1      36.803  30.116  27.068  1.00  0.00     0.014 A 
ATOM     30  C   UNL A   1      37.310  29.285  29.683  1.00  0.00     0.010 A 
ATOM     31  C   UNL A   1      38.098  29.759  27.446  1.00  0.00     0.010 A 
ATOM     32  C   UNL A   1      38.366  29.342  28.758  1.00  0.00    -0.014 A 
BRANCH  32  33
ATOM     33  C   UNL A   1      39.751  28.960  29.144  1.00  0.00     0.031 A 
ATOM     34  C   UNL A   1      40.651  29.947  29.840  1.00  0.00     0.074 A 
ATOM     35  C   UNL A   1      40.220  27.738  28.816  1.00  0.00     0.049 A 
ATOM     36  N   UNL A   1      41.900  29.809  30.204  1.00  0.00    -0.248 NA
ATOM     37  C   UNL A   1      40.079  31.269  30.147  1.00  0.00     0.031 C 
ATOM     38  C   UNL A   1      39.462  26.701  28.113  1.00  0.00     0.029 A 
ATOM     39  N   UNL A   1      41.450  27.164  29.026  1.00  0.00    -0.354 N 
ATOM     40  C   UNL A   1      42.268  31.026  30.768  1.00  0.00     0.074 A 
ATOM     41  C   UNL A   1      41.125  31.906  30.653  1.00  0.00     0.031 C 
ATOM     42  C   UNL A   1      40.233  25.610  27.974  1.00  0.00     0.029 A 
ATOM     43  C   UNL A   1      41.553  25.883  28.535  1.00  0.00     0.049 A 
ATOM     44  H   UNL A   1      42.188  27.625  29.484  1.00  0.00     0.167 HD
ATOM     45  C   UNL A   1      43.443  31.374  31.344  1.00  0.00     0.031 A 
ATOM     46  C   UNL A   1      42.592  25.025  28.526  1.00  0.00     0.031 A 
ATOM     47  C   UNL A   1      44.578  30.495  31.462  1.00  0.00     0.049 A 
ATOM     48  C   UNL A   1      43.896  25.445  29.150  1.00  0.00     0.074 A 
ATOM     49  C   UNL A   1      45.795  30.740  32.075  1.00  0.00     0.029 A 
ATOM     50  N   UNL A   1      44.641  29.208  30.950  1.00  0.00    -0.354 N 
ATOM     51  N   UNL A   1      44.201  26.578  29.737  1.00  0.00    -0.248 NA
ATOM     52  C   UNL A   1      44.990  24.466  29.122  1.00  0.00     0.031 C 
ATOM     53  C   UNL A   1      46.615  29.623  31.883  1.00  0.00     0.029 A 
ATOM     54  C   UNL A   1      45.885  28.656  31.209  1.00  0.00     0.049 A 
ATOM     55  H   UNL A   1      43.910  28.753  30.473  1.00  0.00     0.167 HD
ATOM     56  C   UNL A   1      45.514  26.435  30.172  1.00  0.00     0.074 A 
ATOM     57  C   UNL A   1      45.937  25.102  29.796  1.00  0.00     0.031 C 
ATOM     58  C   UNL A   1      46.296  27.327  30.829  1.00  0.00     0.031 A 
BRANCH  45  59
ATOM     59  C   UNL A   1      43.569  32.775  31.886  1.00  0.00    -0.014 A 
ATOM     60  C   UNL A   1      43.968  33.844  31.062  1.00  0.00     0.010 A 
ATOM     61  C   UNL A   1      43.238  33.039  33.228  1.00  0.00     0.010 A 
ATOM     62  C   UNL A   1      44.077  35.137  31.579  1.00  0.00     0.020 A 
ATOM     63  C   UNL A   1      43.315  34.338  33.742  1.00  0.00     0.020 A 
ATOM     64  C   UNL A   1      43.750  35.375  32.917  1.00  0.00     0.054 A 
BRANCH  64  65
ATOM     65  S   UNL A   1      43.879  37.069  33.553  1.00  0.00     0.124 S 
ATOM     66  O   UNL A   1      45.110  37.005  34.335  1.00  0.00    -0.237 OA
ATOM     67  O   UNL A   1      43.951  37.866  32.331  1.00  0.00    -0.237 OA
ATOM     68  O   UNL A   1      42.656  37.241  34.334  1.00  0.00    -0.744 OA
ENDBRANCH  64  65
ENDBRANCH  45  59
BRANCH  46  69
ATOM     69  C   UNL A   1      42.439  23.678  27.912  1.00  0.00    -0.014 A 
ATOM     70  C   UNL A   1      42.613  23.498  26.528  1.00  0.00     0.010 A 
ATOM     71  C   UNL A   1      42.125  22.562  28.710  1.00  0.00     0.010 A 
ATOM     72  C   UNL A   1      42.459  22.233  25.952  1.00  0.00     0.020 A 
ATOM     73  C   UNL A   1      42.001  21.291  28.143  1.00  0.00     0.020 A 
ATOM     74  C   UNL A   1      42.156  21.137  26.764  1.00  0.00     0.054 A 
BRANCH  74  75
ATOM     75  S   UNL A   1      42.011  19.497  26.003  1.00  0.00     0.124 S 
ATOM     76  O   UNL A   1      42.879  19.626  24.836  1.00  0.00    -0.237 OA
ATOM     77  O   UNL A   1      42.499  18.614  27.060  1.00  0.00    -0.237 OA
ATOM     78  O   UNL A   1      40.584  19.379  25.712  1.00  0.00    -0.744 OA
ENDBRANCH  74  75
ENDBRANCH  46  69
BRANCH  58  79
ATOM     79  C   UNL A   1      47.682  26.883  31.219  1.00  0.00    -0.014 A 
ATOM     80  C   UNL A   1      47.935  26.269  32.458  1.00  0.00     0.010 A 
ATOM     81  C   UNL A   1      48.739  27.033  30.302  1.00  0.00     0.010 A 
ATOM     82  C   UNL A   1      49.225  25.845  32.787  1.00  0.00     0.020 A 
ATOM     83  C   UNL A   1      50.024  26.582  30.614  1.00  0.00     0.020 A 
ATOM     84  C   UNL A   1      50.263  26.004  31.862  1.00  0.00     0.054 A 
BRANCH  84  85
ATOM     85  S   UNL A   1      51.919  25.403  32.295  1.00  0.00     0.124 S 
ATOM     86  O   UNL A   1      52.740  25.988  31.239  1.00  0.00    -0.237 OA
ATOM     87  O   UNL A   1      52.121  25.960  33.631  1.00  0.00    -0.237 OA
ATOM     88  O   UNL A   1      51.785  23.949  32.248  1.00  0.00    -0.744 OA
ENDBRANCH  84  85
ENDBRANCH  58  79
ENDBRANCH  32  33
ENDBRANCH  24  27
ENDBRANCH  22  23
ENDBRANCH  21  22
ENDBRANCH  20  21
ENDBRANCH   1  20
TORSDOF 20
ENDMDL
MODEL 2
REMARK VINA RESULT:      -9.5      3.129      4.745
REMARK SMILES O=C(CCCCCC(F)(F)c1ccccc1)NCCCCNC(=O)c1ccc(-c2c3nc(c(-c4ccc(S(=O)(=O)[O-])cc4)c4ccc([nH]4)c(-c4ccc(S(=O)(=O)[O-])cc4)c4nc(c(-c5ccc(S(=O)(=O)[O-])cc5)c5ccc2[nH]5)C=C4)C=C3)cc1
REMARK SMILES IDX 18 1 17 2 1 3 2 4 3 6 4 7 5 8 6 9 7 10 8 11 9 12 10 13 11 14
REMARK SMILES IDX 12 15 16 16 13 17 15 18 14 19 19 20 20 21 21 22 22 23 23 24
REMARK SMILES IDX 24 26 25 27 26 28 84 29 27 30 83 31 28 32 29 33 30 34 77 35
REMARK SMILES IDX 31 36 82 37 76 38 78 39 32 40 81 41 75 42 74 43 33 45 63 46
REMARK SMILES IDX 44 47 62 48 45 49 48 50 61 51 79 52 46 53 47 54 60 56 80 57
REMARK SMILES IDX 49 58 34 59 35 60 43 61 36 62 42 63 37 64 38 65 39 66 40 67
REMARK SMILES IDX 41 68 64 69 65 70 73 71 66 72 72 73 67 74 68 75 69 76 70 77
REMARK SMILES IDX 71 78 50 79 51 80 59 81 52 82 58 83 53 84 54 85 55 86 56 87
REMARK SMILES IDX 57 88
REMARK H PARENT 17 5 22 25 78 44 48 55
REMARK Flexibility Score: inf
ROOT
ATOM      1  C   UNL A   1      31.009  26.987  27.060  1.00  0.00     0.116 C 
ENDROOT
BRANCH   1   2
ATOM      2  N   UNL A   1      31.104  26.057  25.959  1.00  0.00    -0.356 N 
ATOM      3  O   UNL A   1      31.171  24.134  27.215  1.00  0.00    -0.275 OA
ATOM      4  C   UNL A   1      31.112  24.695  26.132  1.00  0.00     0.219 C 
ATOM      5  H   UNL A   1      31.164  26.416  25.045  1.00  0.00     0.163 HD
BRANCH   4   6
ATOM      6  C   UNL A   1      30.972  23.944  24.825  1.00  0.00     0.100 C 
BRANCH   6   7
ATOM      7  C   UNL A   1      30.414  24.858  23.736  1.00  0.00     0.010 C 
BRANCH   7   8
ATOM      8  C   UNL A   1      31.409  25.308  22.651  1.00  0.00     0.001 C 
BRANCH   8   9
ATOM      9  C   UNL A   1      31.324  26.779  22.232  1.00  0.00     0.007 C 
BRANCH   9  10
ATOM     10  C   UNL A   1      30.162  27.607  22.805  1.00  0.00     0.082 C 
BRANCH  10  11
ATOM     11  C   UNL A   1      30.481  29.039  23.282  1.00  0.00     0.273 C 
ATOM     12  F   UNL A   1      30.560  28.988  24.648  1.00  0.00    -0.201 F 
ATOM     13  F   UNL A   1      31.758  29.308  22.866  1.00  0.00    -0.201 F 
BRANCH  11  14
ATOM     14  C   UNL A   1      29.536  30.126  22.807  1.00  0.00     0.021 A 
ATOM     15  C   UNL A   1      29.218  30.232  21.444  1.00  0.00     0.010 A 
ATOM     16  C   UNL A   1      28.972  31.055  23.694  1.00  0.00     0.010 A 
ATOM     17  C   UNL A   1      28.455  31.303  20.971  1.00  0.00     0.001 A 
ATOM     18  C   UNL A   1      28.254  32.154  23.216  1.00  0.00     0.001 A 
ATOM     19  C   UNL A   1      28.008  32.283  21.853  1.00  0.00     0.000 A 
ENDBRANCH  11  14
ENDBRANCH  10  11
ENDBRANCH   9  10
ENDBRANCH   8   9
ENDBRANCH   7   8
ENDBRANCH   6   7
ENDBRANCH   4   6
ENDBRANCH   1   2
BRANCH   1  20
ATOM     20  C   UNL A   1      32.320  27.739  27.262  1.00  0.00     0.023 C 
BRANCH  20  21
ATOM     21  C   UNL A   1      33.143  27.957  25.986  1.00  0.00     0.023 C 
BRANCH  21  22
ATOM     22  C   UNL A   1      34.350  28.878  26.140  1.00  0.00     0.116 C 
BRANCH  22  23
ATOM     23  N   UNL A   1      33.958  30.235  26.486  1.00  0.00    -0.352 N 
ATOM     24  C   UNL A   1      34.416  31.055  27.487  1.00  0.00     0.251 C 
ATOM     25  H   UNL A   1      33.256  30.623  25.915  1.00  0.00     0.163 HD
ATOM     26  O   UNL A   1      33.793  32.077  27.763  1.00  0.00    -0.269 OA
BRANCH  24  27
ATOM     27  C   UNL A   1      35.642  30.711  28.242  1.00  0.00     0.039 A 
ATOM     28  C   UNL A   1      35.600  29.653  29.154  1.00  0.00     0.014 A 
ATOM     29  C   UNL A   1      36.821  31.444  28.081  1.00  0.00     0.014 A 
ATOM     30  C   UNL A   1      36.753  29.294  29.857  1.00  0.00     0.010 A 
ATOM     31  C   UNL A   1      37.989  31.039  28.727  1.00  0.00     0.010 A 
ATOM     32  C   UNL A   1      37.967  29.961  29.624  1.00  0.00    -0.014 A 
BRANCH  32  33
ATOM     33  C   UNL A   1      39.222  29.538  30.302  1.00  0.00     0.031 A 
ATOM     34  C   UNL A   1      39.696  30.245  31.544  1.00  0.00     0.074 A 
ATOM     35  C   UNL A   1      39.968  28.550  29.766  1.00  0.00     0.049 A 
ATOM     36  N   UNL A   1      40.788  30.050  32.239  1.00  0.00    -0.248 NA
ATOM     37  C   UNL A   1      38.843  31.328  32.062  1.00  0.00     0.031 C 
ATOM     38  C   UNL A   1      39.638  27.806  28.547  1.00  0.00     0.029 A 
ATOM     39  N   UNL A   1      41.161  28.005  30.172  1.00  0.00    -0.354 N 
ATOM     40  C   UNL A   1      40.762  30.990  33.263  1.00  0.00     0.074 A 
ATOM     41  C   UNL A   1      39.571  31.788  33.069  1.00  0.00     0.031 C 
ATOM     42  C   UNL A   1      40.590  26.886  28.322  1.00  0.00     0.029 A 
ATOM     43  C   UNL A   1      41.620  27.003  29.349  1.00  0.00     0.049 A 
ATOM     44  H   UNL A   1      41.643  28.304  30.977  1.00  0.00     0.167 HD
ATOM     45  C   UNL A   1      41.639  31.164  34.280  1.00  0.00     0.031 A 
ATOM     46  C   UNL A   1      42.747  26.265  29.405  1.00  0.00     0.031 A 
ATOM     47  C   UNL A   1      42.822  30.365  34.472  1.00  0.00     0.049 A 
ATOM     48  C   UNL A   1      43.719  26.494  30.531  1.00  0.00     0.074 A 
ATOM     49  C   UNL A   1      43.745  30.430  35.502  1.00  0.00     0.029 A 
ATOM     50  N   UNL A   1      43.251  29.362  33.615  1.00  0.00    -0.354 N 
ATOM     51  N   UNL A   1      43.641  27.346  31.527  1.00  0.00    -0.248 NA
ATOM     52  C   UNL A   1      44.924  25.654  30.548  1.00  0.00     0.031 C 
ATOM     53  C   UNL A   1      44.763  29.508  35.237  1.00  0.00     0.029 A 
ATOM     54  C   UNL A   1      44.439  28.820  34.078  1.00  0.00     0.049 A 
ATOM     55  H   UNL A   1      42.780  29.077  32.799  1.00  0.00     0.167 HD
ATOM     56  C   UNL A   1      44.773  27.122  32.303  1.00  0.00     0.074 A 
ATOM     57  C   UNL A   1      45.508  26.047  31.672  1.00  0.00     0.031 C 
ATOM     58  C   UNL A   1      45.164  27.749  33.440  1.00  0.00     0.031 A 
BRANCH  45  59
ATOM     59  C   UNL A   1      41.360  32.271  35.264  1.00  0.00    -0.014 A 
ATOM     60  C   UNL A   1      41.841  33.576  35.051  1.00  0.00     0.010 A 
ATOM     61  C   UNL A   1      40.564  32.016  36.396  1.00  0.00     0.010 A 
ATOM     62  C   UNL A   1      41.571  34.591  35.971  1.00  0.00     0.020 A 
ATOM     63  C   UNL A   1      40.264  33.037  37.304  1.00  0.00     0.020 A 
ATOM     64  C   UNL A   1      40.784  34.314  37.093  1.00  0.00     0.054 A 
BRANCH  64  65
ATOM     65  S   UNL A   1      40.431  35.659  38.258  1.00  0.00     0.124 S 
ATOM     66  O   UNL A   1      41.720  35.829  38.922  1.00  0.00    -0.237 OA
ATOM     67  O   UNL A   1      40.030  36.751  37.375  1.00  0.00    -0.237 OA
ATOM     68  O   UNL A   1      39.365  35.119  39.100  1.00  0.00    -0.744 OA
ENDBRANCH  64  65
ENDBRANCH  45  59
BRANCH  46  69
ATOM     69  C   UNL A   1      43.012  25.233  28.365  1.00  0.00    -0.014 A 
ATOM     70  C   UNL A   1      43.698  25.567  27.184  1.00  0.00     0.010 A 
ATOM     71  C   UNL A   1      42.588  23.905  28.555  1.00  0.00     0.010 A 
ATOM     72  C   UNL A   1      43.938  24.598  26.205  1.00  0.00     0.020 A 
ATOM     73  C   UNL A   1      42.853  22.928  27.593  1.00  0.00     0.020 A 
ATOM     74  C   UNL A   1      43.515  23.283  26.417  1.00  0.00     0.054 A 
BRANCH  74  75
ATOM     75  S   UNL A   1      43.882  22.032  25.156  1.00  0.00     0.124 S 
ATOM     76  O   UNL A   1      43.606  22.757  23.920  1.00  0.00    -0.237 OA
ATOM     77  O   UNL A   1      45.288  21.729  25.413  1.00  0.00    -0.237 OA
ATOM     78  O   UNL A   1      42.953  20.949  25.468  1.00  0.00    -0.744 OA
ENDBRANCH  74  75
ENDBRANCH  46  69
BRANCH  58  79
ATOM     79  C   UNL A   1      46.429  27.267  34.101  1.00  0.00    -0.014 A 
ATOM     80  C   UNL A   1      47.690  27.764  33.726  1.00  0.00     0.010 A 
ATOM     81  C   UNL A   1      46.346  26.338  35.156  1.00  0.00     0.010 A 
ATOM     82  C   UNL A   1      48.846  27.317  34.370  1.00  0.00     0.020 A 
ATOM     83  C   UNL A   1      47.497  25.913  35.824  1.00  0.00     0.020 A 
ATOM     84  C   UNL A   1      48.743  26.394  35.417  1.00  0.00     0.054 A 
BRANCH  84  85
ATOM     85  S   UNL A   1      50.255  25.864  36.266  1.00  0.00     0.124 S 
ATOM     86  O   UNL A   1      51.196  26.918  35.895  1.00  0.00    -0.237 OA
ATOM     87  O   UNL A   1      49.846  25.851  37.669  1.00  0.00    -0.237 OA
ATOM     88  O   UNL A   1      50.533  24.550  35.693  1.00  0.00    -0.744 OA
ENDBRANCH  84  85
ENDBRANCH  58  79
ENDBRANCH  32  33
ENDBRANCH  24  27
ENDBRANCH  22  23
ENDBRANCH  21  22
ENDBRANCH  20  21
ENDBRANCH   1  20
TORSDOF 20
ENDMDL
MODEL 3
REMARK VINA RESULT:      -9.3      4.795      6.919
REMARK SMILES O=C(CCCCCC(F)(F)c1ccccc1)NCCCCNC(=O)c1ccc(-c2c3nc(c(-c4ccc(S(=O)(=O)[O-])cc4)c4ccc([nH]4)c(-c4ccc(S(=O)(=O)[O-])cc4)c4nc(c(-c5ccc(S(=O)(=O)[O-])cc5)c5ccc2[nH]5)C=C4)C=C3)cc1
REMARK SMILES IDX 18 1 17 2 1 3 2 4 3 6 4 7 5 8 6 9 7 10 8 11 9 12 10 13 11 14
REMARK SMILES IDX 12 15 16 16 13 17 15 18 14 19 19 20 20 21 21 22 22 23 23 24
REMARK SMILES IDX 24 26 25 27 26 28 84 29 27 30 83 31 28 32 29 33 30 34 77 35
REMARK SMILES IDX 31 36 82 37 76 38 78 39 32 40 81 41 75 42 74 43 33 45 63 46
REMARK SMILES IDX 44 47 62 48 45 49 48 50 61 51 79 52 46 53 47 54 60 56 80 57
REMARK SMILES IDX 49 58 34 59 35 60 43 61 36 62 42 63 37 64 38 65 39 66 40 67
REMARK SMILES IDX 41 68 64 69 65 70 73 71 66 72 72 73 67 74 68 75 69 76 70 77
REMARK SMILES IDX 71 78 50 79 51 80 59 81 52 82 58 83 53 84 54 85 55 86 56 87
REMARK SMILES IDX 57 88
REMARK H PARENT 17 5 22 25 78 44 48 55
REMARK Flexibility Score: inf
ROOT
ATOM      1  C   UNL A   1      34.980  31.505  28.485  1.00  0.00     0.116 C 
ENDROOT
BRANCH   1   2
ATOM      2  N   UNL A   1      33.753  30.970  27.943  1.00  0.00    -0.356 N 
ATOM      3  O   UNL A   1      34.685  29.182  26.840  1.00  0.00    -0.275 OA
ATOM      4  C   UNL A   1      33.705  29.807  27.213  1.00  0.00     0.219 C 
ATOM      5  H   UNL A   1      32.915  31.459  28.104  1.00  0.00     0.163 HD
BRANCH   4   6
ATOM      6  C   UNL A   1      32.287  29.334  26.970  1.00  0.00     0.100 C 
BRANCH   6   7
ATOM      7  C   UNL A   1      32.165  27.835  27.241  1.00  0.00     0.010 C 
BRANCH   7   8
ATOM      8  C   UNL A   1      31.036  27.100  26.498  1.00  0.00     0.001 C 
BRANCH   8   9
ATOM      9  C   UNL A   1      31.407  26.499  25.138  1.00  0.00     0.007 C 
BRANCH   9  10
ATOM     10  C   UNL A   1      30.447  26.765  23.967  1.00  0.00     0.082 C 
BRANCH  10  11
ATOM     11  C   UNL A   1      30.659  28.061  23.159  1.00  0.00     0.273 C 
ATOM     12  F   UNL A   1      31.909  28.520  23.478  1.00  0.00    -0.201 F 
ATOM     13  F   UNL A   1      30.748  27.687  21.844  1.00  0.00    -0.201 F 
BRANCH  11  14
ATOM     14  C   UNL A   1      29.599  29.133  23.328  1.00  0.00     0.021 A 
ATOM     15  C   UNL A   1      28.268  28.866  22.971  1.00  0.00     0.010 A 
ATOM     16  C   UNL A   1      29.910  30.410  23.822  1.00  0.00     0.010 A 
ATOM     17  C   UNL A   1      27.306  29.877  22.997  1.00  0.00     0.001 A 
ATOM     18  C   UNL A   1      28.962  31.434  23.797  1.00  0.00     0.001 A 
ATOM     19  C   UNL A   1      27.664  31.170  23.372  1.00  0.00     0.000 A 
ENDBRANCH  11  14
ENDBRANCH  10  11
ENDBRANCH   9  10
ENDBRANCH   8   9
ENDBRANCH   7   8
ENDBRANCH   6   7
ENDBRANCH   4   6
ENDBRANCH   1   2
BRANCH   1  20
ATOM     20  C   UNL A   1      35.168  32.965  28.088  1.00  0.00     0.023 C 
BRANCH  20  21
ATOM     21  C   UNL A   1      33.906  33.832  28.199  1.00  0.00     0.023 C 
BRANCH  21  22
ATOM     22  C   UNL A   1      34.123  35.223  28.790  1.00  0.00     0.116 C 
BRANCH  22  23
ATOM     23  N   UNL A   1      33.218  35.490  29.896  1.00  0.00    -0.352 N 
ATOM     24  C   UNL A   1      33.276  35.070  31.202  1.00  0.00     0.251 C 
ATOM     25  H   UNL A   1      32.445  36.058  29.673  1.00  0.00     0.163 HD
ATOM     26  O   UNL A   1      32.293  35.207  31.924  1.00  0.00    -0.269 OA
BRANCH  24  27
ATOM     27  C   UNL A   1      34.506  34.445  31.738  1.00  0.00     0.039 A 
ATOM     28  C   UNL A   1      34.534  33.061  31.925  1.00  0.00     0.014 A 
ATOM     29  C   UNL A   1      35.617  35.218  32.090  1.00  0.00     0.014 A 
ATOM     30  C   UNL A   1      35.694  32.446  32.405  1.00  0.00     0.010 A 
ATOM     31  C   UNL A   1      36.797  34.597  32.498  1.00  0.00     0.010 A 
ATOM     32  C   UNL A   1      36.849  33.205  32.663  1.00  0.00    -0.014 A 
BRANCH  32  33
ATOM     33  C   UNL A   1      38.116  32.557  33.094  1.00  0.00     0.031 A 
ATOM     34  C   UNL A   1      38.678  32.814  34.468  1.00  0.00     0.074 A 
ATOM     35  C   UNL A   1      38.796  31.779  32.226  1.00  0.00     0.049 A 
ATOM     36  N   UNL A   1      39.792  32.381  34.998  1.00  0.00    -0.248 NA
ATOM     37  C   UNL A   1      37.894  33.691  35.355  1.00  0.00     0.031 C 
ATOM     38  C   UNL A   1      38.378  31.476  30.855  1.00  0.00     0.029 A 
ATOM     39  N   UNL A   1      39.984  31.106  32.366  1.00  0.00    -0.354 N 
ATOM     40  C   UNL A   1      39.853  32.940  36.269  1.00  0.00     0.074 A 
ATOM     41  C   UNL A   1      38.687  33.784  36.413  1.00  0.00     0.031 C 
ATOM     42  C   UNL A   1      39.281  30.658  30.291  1.00  0.00     0.029 A 
ATOM     43  C   UNL A   1      40.363  30.413  31.239  1.00  0.00     0.049 A 
ATOM     44  H   UNL A   1      40.516  31.118  33.194  1.00  0.00     0.167 HD
ATOM     45  C   UNL A   1      40.784  32.756  37.236  1.00  0.00     0.031 A 
ATOM     46  C   UNL A   1      41.460  29.672  30.989  1.00  0.00     0.031 A 
ATOM     47  C   UNL A   1      41.942  31.911  37.092  1.00  0.00     0.049 A 
ATOM     48  C   UNL A   1      42.494  29.503  32.071  1.00  0.00     0.074 A 
ATOM     49  C   UNL A   1      42.915  31.620  38.032  1.00  0.00     0.029 A 
ATOM     50  N   UNL A   1      42.289  31.230  35.935  1.00  0.00    -0.354 N 
ATOM     51  N   UNL A   1      42.498  29.989  33.290  1.00  0.00    -0.248 NA
ATOM     52  C   UNL A   1      43.664  28.676  31.747  1.00  0.00     0.031 C 
ATOM     53  C   UNL A   1      43.882  30.811  37.426  1.00  0.00     0.029 A 
ATOM     54  C   UNL A   1      43.475  30.541  36.128  1.00  0.00     0.049 A 
ATOM     55  H   UNL A   1      41.769  31.235  35.099  1.00  0.00     0.167 HD
ATOM     56  C   UNL A   1      43.656  29.501  33.886  1.00  0.00     0.074 A 
ATOM     57  C   UNL A   1      44.317  28.671  32.900  1.00  0.00     0.031 C 
ATOM     58  C   UNL A   1      44.126  29.718  35.139  1.00  0.00     0.031 A 
BRANCH  45  59
ATOM     59  C   UNL A   1      40.597  33.491  38.538  1.00  0.00    -0.014 A 
ATOM     60  C   UNL A   1      41.306  34.675  38.816  1.00  0.00     0.010 A 
ATOM     61  C   UNL A   1      39.663  33.020  39.479  1.00  0.00     0.010 A 
ATOM     62  C   UNL A   1      41.118  35.346  40.027  1.00  0.00     0.020 A 
ATOM     63  C   UNL A   1      39.449  33.707  40.679  1.00  0.00     0.020 A 
ATOM     64  C   UNL A   1      40.191  34.857  40.952  1.00  0.00     0.054 A 
BRANCH  64  65
ATOM     65  S   UNL A   1      39.952  35.763  42.505  1.00  0.00     0.124 S 
ATOM     66  O   UNL A   1      39.523  34.701  43.411  1.00  0.00    -0.237 OA
ATOM     67  O   UNL A   1      41.281  36.311  42.763  1.00  0.00    -0.237 OA
ATOM     68  O   UNL A   1      38.927  36.751  42.176  1.00  0.00    -0.744 OA
ENDBRANCH  64  65
ENDBRANCH  45  59
BRANCH  46  69
ATOM     69  C   UNL A   1      41.635  29.026  29.660  1.00  0.00    -0.014 A 
ATOM     70  C   UNL A   1      42.116  29.763  28.563  1.00  0.00     0.010 A 
ATOM     71  C   UNL A   1      41.328  27.663  29.484  1.00  0.00     0.010 A 
ATOM     72  C   UNL A   1      42.269  29.156  27.312  1.00  0.00     0.020 A 
ATOM     73  C   UNL A   1      41.509  27.046  28.244  1.00  0.00     0.020 A 
ATOM     74  C   UNL A   1      41.967  27.800  27.162  1.00  0.00     0.054 A 
BRANCH  74  75
ATOM     75  S   UNL A   1      42.222  27.021  25.544  1.00  0.00     0.124 S 
ATOM     76  O   UNL A   1      40.983  26.271  25.369  1.00  0.00    -0.237 OA
ATOM     77  O   UNL A   1      42.395  28.174  24.663  1.00  0.00    -0.237 OA
ATOM     78  O   UNL A   1      43.423  26.211  25.738  1.00  0.00    -0.744 OA
ENDBRANCH  74  75
ENDBRANCH  46  69
BRANCH  58  79
ATOM     79  C   UNL A   1      45.400  29.020  35.535  1.00  0.00    -0.014 A 
ATOM     80  C   UNL A   1      45.389  27.729  36.091  1.00  0.00     0.010 A 
ATOM     81  C   UNL A   1      46.636  29.649  35.293  1.00  0.00     0.010 A 
ATOM     82  C   UNL A   1      46.586  27.093  36.429  1.00  0.00     0.020 A 
ATOM     83  C   UNL A   1      47.837  29.004  35.600  1.00  0.00     0.020 A 
ATOM     84  C   UNL A   1      47.805  27.735  36.180  1.00  0.00     0.054 A 
BRANCH  84  85
ATOM     85  S   UNL A   1      49.346  26.870  36.586  1.00  0.00     0.124 S 
ATOM     86  O   UNL A   1      50.141  27.084  35.380  1.00  0.00    -0.237 OA
ATOM     87  O   UNL A   1      49.807  27.579  37.777  1.00  0.00    -0.237 OA
ATOM     88  O   UNL A   1      48.921  25.491  36.816  1.00  0.00    -0.744 OA
ENDBRANCH  84  85
ENDBRANCH  58  79
ENDBRANCH  32  33
ENDBRANCH  24  27
ENDBRANCH  22  23
ENDBRANCH  21  22
ENDBRANCH  20  21
ENDBRANCH   1  20
TORSDOF 20
ENDMDL
