MODEL 1
REMARK VINA RESULT:     -11.3      0.000      0.000
REMARK SMILES CC1(C)CSC[C@H]([NH2+][C@H](C(=O)NCCCCNC(=O)c2ccc(-c3c4nc(c(-c5ccc(S(=O)(=O)[O-])cc5)c5ccc([nH]5)c(-c5ccc(S(=O)(=O)[O-])cc5)c5nc(c(-c6ccc(S(=O)(=O)[O-])cc6)c6ccc3[nH]6)C=C5)C=C4)cc2)c2ccccc2)C1
REMARK SMILES IDX 15 1 14 2 13 3 12 4 10 5 11 6 9 8 8 9 7 12 1 13 2 14 3 15
REMARK SMILES IDX 4 16 86 17 5 18 6 19 80 20 81 21 85 22 82 23 84 24 83 25
REMARK SMILES IDX 16 26 17 27 18 28 19 30 20 31 21 32 79 33 22 34 78 35 23 36
REMARK SMILES IDX 24 37 25 38 72 39 26 40 77 41 71 42 73 43 27 44 76 45 70 46
REMARK SMILES IDX 69 47 28 49 58 50 39 51 57 52 40 53 43 54 56 55 74 56 41 57
REMARK SMILES IDX 42 58 55 60 75 61 44 62 29 63 30 64 38 65 31 66 37 67 32 68
REMARK SMILES IDX 33 69 34 70 35 71 36 72 59 73 60 74 68 75 61 76 67 77 62 78
REMARK SMILES IDX 63 79 64 80 65 81 66 82 45 83 46 84 54 85 47 86 53 87 48 88
REMARK SMILES IDX 49 89 50 90 51 91 52 92
REMARK H PARENT 12 7 8 10 8 11 17 29 73 48 43 59
REMARK Flexibility Score: inf
ROOT
ATOM      1  C   UNL A   1      37.963  20.099  25.000  1.00  0.00     0.023 C 
ENDROOT
BRANCH   1   2
ATOM      2  C   UNL A   1      37.208  21.240  24.306  1.00  0.00     0.023 C 
BRANCH   2   3
ATOM      3  C   UNL A   1      36.719  22.339  25.251  1.00  0.00     0.116 C 
BRANCH   3   4
ATOM      4  N   UNL A   1      35.894  21.757  26.291  1.00  0.00    -0.351 N 
ATOM      5  C   UNL A   1      34.551  21.516  26.295  1.00  0.00     0.283 C 
ATOM      6  O   UNL A   1      34.030  21.277  27.387  1.00  0.00    -0.268 OA
ATOM      7  H   UNL A   1      36.371  21.498  27.112  1.00  0.00     0.163 HD
BRANCH   5   8
ATOM      8  C   UNL A   1      33.766  21.510  24.963  1.00  0.00     0.304 C 
BRANCH   8   9
ATOM      9  N   UNL A   1      34.187  22.586  24.016  1.00  0.00    -0.329 N 
ATOM     10  H   UNL A   1      35.110  22.890  24.329  1.00  0.00     0.347 HD
ATOM     11  H   UNL A   1      34.082  22.117  23.116  1.00  0.00     0.347 HD
BRANCH   9  12
ATOM     12  C   UNL A   1      33.401  23.828  23.796  1.00  0.00     0.193 C 
ATOM     13  C   UNL A   1      33.364  27.215  23.682  1.00  0.00     0.012 C 
ATOM     14  C   UNL A   1      33.137  26.265  24.878  1.00  0.00    -0.021 C 
ATOM     15  C   UNL A   1      33.647  26.985  26.148  1.00  0.00     0.012 C 
ATOM     16  C   UNL A   1      31.637  25.990  25.077  1.00  0.00     0.076 C 
ATOM     17  C   UNL A   1      33.966  24.964  24.697  1.00  0.00     0.073 C 
ATOM     18  S   UNL A   1      30.913  25.204  23.623  1.00  0.00    -0.155 SA
ATOM     19  C   UNL A   1      31.867  23.673  23.713  1.00  0.00     0.134 C 
ENDBRANCH   9  12
ENDBRANCH   8   9
BRANCH   8  20
ATOM     20  C   UNL A   1      33.584  20.113  24.370  1.00  0.00     0.019 A 
ATOM     21  C   UNL A   1      32.492  19.857  23.520  1.00  0.00     0.010 A 
ATOM     22  C   UNL A   1      34.407  19.028  24.694  1.00  0.00     0.010 A 
ATOM     23  C   UNL A   1      32.281  18.586  22.975  1.00  0.00     0.001 A 
ATOM     24  C   UNL A   1      34.227  17.770  24.119  1.00  0.00     0.001 A 
ATOM     25  C   UNL A   1      33.164  17.548  23.254  1.00  0.00     0.000 A 
ENDBRANCH   8  20
ENDBRANCH   5   8
ENDBRANCH   3   4
ENDBRANCH   2   3
ENDBRANCH   1   2
BRANCH   1  26
ATOM     26  C   UNL A   1      39.157  20.542  25.838  1.00  0.00     0.116 C 
BRANCH  26  27
ATOM     27  N   UNL A   1      40.138  19.480  25.990  1.00  0.00    -0.352 N 
ATOM     28  C   UNL A   1      41.502  19.568  26.128  1.00  0.00     0.251 C 
ATOM     29  H   UNL A   1      39.772  18.565  25.994  1.00  0.00     0.163 HD
ATOM     30  O   UNL A   1      42.191  18.560  26.029  1.00  0.00    -0.269 OA
BRANCH  28  31
ATOM     31  C   UNL A   1      42.136  20.883  26.374  1.00  0.00     0.039 A 
ATOM     32  C   UNL A   1      42.494  21.675  25.280  1.00  0.00     0.014 A 
ATOM     33  C   UNL A   1      42.383  21.332  27.675  1.00  0.00     0.014 A 
ATOM     34  C   UNL A   1      43.045  22.941  25.493  1.00  0.00     0.010 A 
ATOM     35  C   UNL A   1      42.863  22.623  27.884  1.00  0.00     0.010 A 
ATOM     36  C   UNL A   1      43.202  23.442  26.796  1.00  0.00    -0.014 A 
BRANCH  36  37
ATOM     37  C   UNL A   1      43.707  24.819  27.035  1.00  0.00     0.031 A 
ATOM     38  C   UNL A   1      45.160  25.149  26.808  1.00  0.00     0.074 A 
ATOM     39  C   UNL A   1      42.870  25.761  27.520  1.00  0.00     0.049 A 
ATOM     40  N   UNL A   1      45.789  26.279  27.010  1.00  0.00    -0.248 NA
ATOM     41  C   UNL A   1      46.025  24.065  26.312  1.00  0.00     0.031 C 
ATOM     42  C   UNL A   1      41.452  25.556  27.827  1.00  0.00     0.029 A 
ATOM     43  N   UNL A   1      43.091  27.075  27.850  1.00  0.00    -0.354 N 
ATOM     44  C   UNL A   1      47.120  26.036  26.694  1.00  0.00     0.074 A 
ATOM     45  C   UNL A   1      47.219  24.643  26.318  1.00  0.00     0.031 C 
ATOM     46  C   UNL A   1      40.927  26.706  28.280  1.00  0.00     0.029 A 
ATOM     47  C   UNL A   1      41.977  27.718  28.341  1.00  0.00     0.049 A 
ATOM     48  H   UNL A   1      43.964  27.517  27.746  1.00  0.00     0.167 HD
ATOM     49  C   UNL A   1      48.165  26.898  26.705  1.00  0.00     0.031 A 
ATOM     50  C   UNL A   1      41.820  28.974  28.805  1.00  0.00     0.031 A 
ATOM     51  C   UNL A   1      48.058  28.290  27.057  1.00  0.00     0.049 A 
ATOM     52  C   UNL A   1      43.000  29.910  28.802  1.00  0.00     0.074 A 
ATOM     53  C   UNL A   1      49.044  29.261  27.012  1.00  0.00     0.029 A 
ATOM     54  N   UNL A   1      46.909  28.906  27.525  1.00  0.00    -0.354 N 
ATOM     55  N   UNL A   1      44.228  29.685  28.400  1.00  0.00    -0.248 NA
ATOM     56  C   UNL A   1      42.769  31.272  29.303  1.00  0.00     0.031 C 
ATOM     57  C   UNL A   1      48.510  30.448  27.520  1.00  0.00     0.029 A 
ATOM     58  C   UNL A   1      47.172  30.235  27.810  1.00  0.00     0.049 A 
ATOM     59  H   UNL A   1      46.037  28.465  27.639  1.00  0.00     0.167 HD
ATOM     60  C   UNL A   1      44.906  30.888  28.570  1.00  0.00     0.074 A 
ATOM     61  C   UNL A   1      43.948  31.840  29.091  1.00  0.00     0.031 C 
ATOM     62  C   UNL A   1      46.207  31.177  28.319  1.00  0.00     0.031 A 
BRANCH  49  63
ATOM     63  C   UNL A   1      49.528  26.371  26.339  1.00  0.00    -0.014 A 
ATOM     64  C   UNL A   1      50.050  26.526  25.043  1.00  0.00     0.010 A 
ATOM     65  C   UNL A   1      50.338  25.796  27.337  1.00  0.00     0.010 A 
ATOM     66  C   UNL A   1      51.349  26.101  24.748  1.00  0.00     0.020 A 
ATOM     67  C   UNL A   1      51.646  25.396  27.054  1.00  0.00     0.020 A 
ATOM     68  C   UNL A   1      52.140  25.543  25.757  1.00  0.00     0.054 A 
BRANCH  68  69
ATOM     69  S   UNL A   1      53.844  25.064  25.360  1.00  0.00     0.124 S 
ATOM     70  O   UNL A   1      54.592  25.673  26.457  1.00  0.00    -0.237 OA
ATOM     71  O   UNL A   1      53.778  23.605  25.380  1.00  0.00    -0.237 OA
ATOM     72  O   UNL A   1      54.075  25.656  24.045  1.00  0.00    -0.744 OA
ENDBRANCH  68  69
ENDBRANCH  49  63
BRANCH  50  73
ATOM     73  C   UNL A   1      40.498  29.423  29.329  1.00  0.00    -0.014 A 
ATOM     74  C   UNL A   1      39.480  29.844  28.454  1.00  0.00     0.010 A 
ATOM     75  C   UNL A   1      40.262  29.465  30.715  1.00  0.00     0.010 A 
ATOM     76  C   UNL A   1      38.272  30.339  28.956  1.00  0.00     0.020 A 
ATOM     77  C   UNL A   1      39.044  29.923  31.221  1.00  0.00     0.020 A 
ATOM     78  C   UNL A   1      38.063  30.379  30.337  1.00  0.00     0.054 A 
BRANCH  78  79
ATOM     79  S   UNL A   1      36.486  31.016  30.968  1.00  0.00     0.124 S 
ATOM     80  O   UNL A   1      36.103  29.983  31.925  1.00  0.00    -0.237 OA
ATOM     81  O   UNL A   1      36.874  32.301  31.545  1.00  0.00    -0.237 OA
ATOM     82  O   UNL A   1      35.650  31.106  29.772  1.00  0.00    -0.744 OA
ENDBRANCH  78  79
ENDBRANCH  50  73
BRANCH  62  83
ATOM     83  C   UNL A   1      46.666  32.593  28.556  1.00  0.00    -0.014 A 
ATOM     84  C   UNL A   1      47.151  33.008  29.808  1.00  0.00     0.010 A 
ATOM     85  C   UNL A   1      46.664  33.506  27.485  1.00  0.00     0.010 A 
ATOM     86  C   UNL A   1      47.591  34.322  29.995  1.00  0.00     0.020 A 
ATOM     87  C   UNL A   1      47.135  34.809  27.658  1.00  0.00     0.020 A 
ATOM     88  C   UNL A   1      47.582  35.214  28.917  1.00  0.00     0.054 A 
BRANCH  88  89
ATOM     89  S   UNL A   1      48.200  36.898  29.174  1.00  0.00     0.124 S 
ATOM     90  O   UNL A   1      49.481  36.655  29.833  1.00  0.00    -0.237 OA
ATOM     91  O   UNL A   1      48.282  37.421  27.813  1.00  0.00    -0.237 OA
ATOM     92  O   UNL A   1      47.178  37.521  30.013  1.00  0.00    -0.744 OA
ENDBRANCH  88  89
ENDBRANCH  62  83
ENDBRANCH  36  37
ENDBRANCH  28  31
ENDBRANCH  26  27
ENDBRANCH   1  26
TORSDOF 17
ENDMDL
MODEL 2
REMARK VINA RESULT:     -11.2      0.904      8.217
REMARK SMILES CC1(C)CSC[C@H]([NH2+][C@H](C(=O)NCCCCNC(=O)c2ccc(-c3c4nc(c(-c5ccc(S(=O)(=O)[O-])cc5)c5ccc([nH]5)c(-c5ccc(S(=O)(=O)[O-])cc5)c5nc(c(-c6ccc(S(=O)(=O)[O-])cc6)c6ccc3[nH]6)C=C5)C=C4)cc2)c2ccccc2)C1
REMARK SMILES IDX 15 1 14 2 13 3 12 4 10 5 11 6 9 8 8 9 7 12 1 13 2 14 3 15
REMARK SMILES IDX 4 16 86 17 5 18 6 19 80 20 81 21 85 22 82 23 84 24 83 25
REMARK SMILES IDX 16 26 17 27 18 28 19 30 20 31 21 32 79 33 22 34 78 35 23 36
REMARK SMILES IDX 24 37 25 38 72 39 26 40 77 41 71 42 73 43 27 44 76 45 70 46
REMARK SMILES IDX 69 47 28 49 58 50 39 51 57 52 40 53 43 54 56 55 74 56 41 57
REMARK SMILES IDX 42 58 55 60 75 61 44 62 29 63 30 64 38 65 31 66 37 67 32 68
REMARK SMILES IDX 33 69 34 70 35 71 36 72 59 73 60 74 68 75 61 76 67 77 62 78
REMARK SMILES IDX 63 79 64 80 65 81 66 82 45 83 46 84 54 85 47 86 53 87 48 88
REMARK SMILES IDX 49 89 50 90 51 91 52 92
REMARK H PARENT 12 7 8 10 8 11 17 29 73 48 43 59
REMARK Flexibility Score: inf
ROOT
ATOM      1  C   UNL A   1      37.957  19.934  25.045  1.00  0.00     0.023 C 
ENDROOT
BRANCH   1   2
ATOM      2  C   UNL A   1      37.033  21.055  24.552  1.00  0.00     0.023 C 
BRANCH   2   3
ATOM      3  C   UNL A   1      36.930  22.250  25.501  1.00  0.00     0.116 C 
BRANCH   3   4
ATOM      4  N   UNL A   1      35.911  21.995  26.500  1.00  0.00    -0.351 N 
ATOM      5  C   UNL A   1      34.605  22.390  26.522  1.00  0.00     0.283 C 
ATOM      6  O   UNL A   1      34.012  22.294  27.600  1.00  0.00    -0.268 OA
ATOM      7  H   UNL A   1      36.203  21.459  27.272  1.00  0.00     0.163 HD
BRANCH   5   8
ATOM      8  C   UNL A   1      33.928  22.889  25.225  1.00  0.00     0.304 C 
BRANCH   8   9
ATOM      9  N   UNL A   1      34.728  23.913  24.489  1.00  0.00    -0.329 N 
ATOM     10  H   UNL A   1      35.616  23.988  24.987  1.00  0.00     0.347 HD
ATOM     11  H   UNL A   1      34.707  23.544  23.538  1.00  0.00     0.347 HD
BRANCH   9  12
ATOM     12  C   UNL A   1      34.262  25.308  24.275  1.00  0.00     0.193 C 
ATOM     13  C   UNL A   1      33.562  28.336  25.626  1.00  0.00     0.012 C 
ATOM     14  C   UNL A   1      32.654  27.099  25.452  1.00  0.00    -0.021 C 
ATOM     15  C   UNL A   1      31.643  27.094  26.622  1.00  0.00     0.012 C 
ATOM     16  C   UNL A   1      31.846  27.198  24.148  1.00  0.00     0.076 C 
ATOM     17  C   UNL A   1      33.496  25.797  25.538  1.00  0.00     0.073 C 
ATOM     18  S   UNL A   1      32.928  27.275  22.705  1.00  0.00    -0.155 SA
ATOM     19  C   UNL A   1      33.650  25.631  22.894  1.00  0.00     0.134 C 
ENDBRANCH   9  12
ENDBRANCH   8   9
BRANCH   8  20
ATOM     20  C   UNL A   1      33.322  21.765  24.384  1.00  0.00     0.019 A 
ATOM     21  C   UNL A   1      32.710  22.071  23.154  1.00  0.00     0.010 A 
ATOM     22  C   UNL A   1      33.262  20.434  24.812  1.00  0.00     0.010 A 
ATOM     23  C   UNL A   1      32.127  21.072  22.367  1.00  0.00     0.001 A 
ATOM     24  C   UNL A   1      32.721  19.426  24.012  1.00  0.00     0.001 A 
ATOM     25  C   UNL A   1      32.154  19.745  22.785  1.00  0.00     0.000 A 
ENDBRANCH   8  20
ENDBRANCH   5   8
ENDBRANCH   3   4
ENDBRANCH   2   3
ENDBRANCH   1   2
BRANCH   1  26
ATOM     26  C   UNL A   1      39.223  20.414  25.747  1.00  0.00     0.116 C 
BRANCH  26  27
ATOM     27  N   UNL A   1      40.172  19.332  25.954  1.00  0.00    -0.352 N 
ATOM     28  C   UNL A   1      41.528  19.393  26.164  1.00  0.00     0.251 C 
ATOM     29  H   UNL A   1      39.787  18.426  25.942  1.00  0.00     0.163 HD
ATOM     30  O   UNL A   1      42.200  18.370  26.106  1.00  0.00    -0.269 OA
BRANCH  28  31
ATOM     31  C   UNL A   1      42.175  20.696  26.438  1.00  0.00     0.039 A 
ATOM     32  C   UNL A   1      42.725  21.414  25.373  1.00  0.00     0.014 A 
ATOM     33  C   UNL A   1      42.248  21.205  27.738  1.00  0.00     0.014 A 
ATOM     34  C   UNL A   1      43.293  22.669  25.605  1.00  0.00     0.010 A 
ATOM     35  C   UNL A   1      42.748  22.488  27.955  1.00  0.00     0.010 A 
ATOM     36  C   UNL A   1      43.279  23.233  26.891  1.00  0.00    -0.014 A 
BRANCH  36  37
ATOM     37  C   UNL A   1      43.802  24.603  27.137  1.00  0.00     0.031 A 
ATOM     38  C   UNL A   1      42.861  25.726  27.490  1.00  0.00     0.074 A 
ATOM     39  C   UNL A   1      45.120  24.850  26.979  1.00  0.00     0.049 A 
ATOM     40  N   UNL A   1      43.129  26.991  27.691  1.00  0.00    -0.248 NA
ATOM     41  C   UNL A   1      41.432  25.392  27.611  1.00  0.00     0.031 C 
ATOM     42  C   UNL A   1      46.128  23.860  26.593  1.00  0.00     0.029 A 
ATOM     43  N   UNL A   1      45.837  26.014  27.113  1.00  0.00    -0.354 N 
ATOM     44  C   UNL A   1      41.907  27.606  27.934  1.00  0.00     0.074 A 
ATOM     45  C   UNL A   1      40.890  26.584  27.824  1.00  0.00     0.031 C 
ATOM     46  C   UNL A   1      47.332  24.452  26.541  1.00  0.00     0.029 A 
ATOM     47  C   UNL A   1      47.179  25.871  26.843  1.00  0.00     0.049 A 
ATOM     48  H   UNL A   1      45.430  26.871  27.377  1.00  0.00     0.167 HD
ATOM     49  C   UNL A   1      41.655  28.903  28.233  1.00  0.00     0.031 A 
ATOM     50  C   UNL A   1      48.174  26.781  26.825  1.00  0.00     0.031 A 
ATOM     51  C   UNL A   1      42.672  29.912  28.367  1.00  0.00     0.049 A 
ATOM     52  C   UNL A   1      47.862  28.215  27.164  1.00  0.00     0.074 A 
ATOM     53  C   UNL A   1      42.522  31.233  28.754  1.00  0.00     0.029 A 
ATOM     54  N   UNL A   1      44.020  29.722  28.108  1.00  0.00    -0.354 N 
ATOM     55  N   UNL A   1      46.711  28.752  27.492  1.00  0.00    -0.248 NA
ATOM     56  C   UNL A   1      48.986  29.163  27.145  1.00  0.00     0.031 C 
ATOM     57  C   UNL A   1      43.767  31.859  28.662  1.00  0.00     0.029 A 
ATOM     58  C   UNL A   1      44.706  30.910  28.291  1.00  0.00     0.049 A 
ATOM     59  H   UNL A   1      44.429  28.869  27.836  1.00  0.00     0.167 HD
ATOM     60  C   UNL A   1      46.980  30.093  27.748  1.00  0.00     0.074 A 
ATOM     61  C   UNL A   1      48.403  30.279  27.558  1.00  0.00     0.031 C 
ATOM     62  C   UNL A   1      46.125  31.082  28.108  1.00  0.00     0.031 A 
BRANCH  49  63
ATOM     63  C   UNL A   1      40.221  29.324  28.429  1.00  0.00    -0.014 A 
ATOM     64  C   UNL A   1      39.761  29.806  29.667  1.00  0.00     0.010 A 
ATOM     65  C   UNL A   1      39.346  29.326  27.326  1.00  0.00     0.010 A 
ATOM     66  C   UNL A   1      38.448  30.267  29.803  1.00  0.00     0.020 A 
ATOM     67  C   UNL A   1      38.042  29.812  27.451  1.00  0.00     0.020 A 
ATOM     68  C   UNL A   1      37.598  30.271  28.692  1.00  0.00     0.054 A 
BRANCH  68  69
ATOM     69  S   UNL A   1      35.923  30.937  28.883  1.00  0.00     0.124 S 
ATOM     70  O   UNL A   1      35.102  29.843  28.372  1.00  0.00    -0.237 OA
ATOM     71  O   UNL A   1      35.833  31.169  30.323  1.00  0.00    -0.237 OA
ATOM     72  O   UNL A   1      35.931  32.145  28.061  1.00  0.00    -0.744 OA
ENDBRANCH  68  69
ENDBRANCH  49  63
BRANCH  50  73
ATOM     73  C   UNL A   1      49.560  26.375  26.455  1.00  0.00    -0.014 A 
ATOM     74  C   UNL A   1      50.014  26.486  25.128  1.00  0.00     0.010 A 
ATOM     75  C   UNL A   1      50.424  25.839  27.426  1.00  0.00     0.010 A 
ATOM     76  C   UNL A   1      51.288  26.030  24.773  1.00  0.00     0.020 A 
ATOM     77  C   UNL A   1      51.711  25.415  27.083  1.00  0.00     0.020 A 
ATOM     78  C   UNL A   1      52.127  25.493  25.753  1.00  0.00     0.054 A 
BRANCH  78  79
ATOM     79  S   UNL A   1      53.778  24.914  25.273  1.00  0.00     0.124 S 
ATOM     80  O   UNL A   1      54.569  25.244  26.454  1.00  0.00    -0.237 OA
ATOM     81  O   UNL A   1      53.555  23.489  25.039  1.00  0.00    -0.237 OA
ATOM     82  O   UNL A   1      54.080  25.695  24.076  1.00  0.00    -0.744 OA
ENDBRANCH  78  79
ENDBRANCH  50  73
BRANCH  62  83
ATOM     83  C   UNL A   1      46.706  32.448  28.368  1.00  0.00    -0.014 A 
ATOM     84  C   UNL A   1      47.247  32.790  29.620  1.00  0.00     0.010 A 
ATOM     85  C   UNL A   1      46.760  33.385  27.320  1.00  0.00     0.010 A 
ATOM     86  C   UNL A   1      47.800  34.057  29.828  1.00  0.00     0.020 A 
ATOM     87  C   UNL A   1      47.343  34.639  27.513  1.00  0.00     0.020 A 
ATOM     88  C   UNL A   1      47.846  34.973  28.772  1.00  0.00     0.054 A 
BRANCH  88  89
ATOM     89  S   UNL A   1      48.609  36.593  29.055  1.00  0.00     0.124 S 
ATOM     90  O   UNL A   1      49.401  36.349  30.258  1.00  0.00    -0.237 OA
ATOM     91  O   UNL A   1      49.374  36.805  27.830  1.00  0.00    -0.237 OA
ATOM     92  O   UNL A   1      47.468  37.489  29.233  1.00  0.00    -0.744 OA
ENDBRANCH  88  89
ENDBRANCH  62  83
ENDBRANCH  36  37
ENDBRANCH  28  31
ENDBRANCH  26  27
ENDBRANCH   1  26
TORSDOF 17
ENDMDL
MODEL 3
REMARK VINA RESULT:     -11.2      2.513      9.014
REMARK SMILES CC1(C)CSC[C@H]([NH2+][C@H](C(=O)NCCCCNC(=O)c2ccc(-c3c4nc(c(-c5ccc(S(=O)(=O)[O-])cc5)c5ccc([nH]5)c(-c5ccc(S(=O)(=O)[O-])cc5)c5nc(c(-c6ccc(S(=O)(=O)[O-])cc6)c6ccc3[nH]6)C=C5)C=C4)cc2)c2ccccc2)C1
REMARK SMILES IDX 15 1 14 2 13 3 12 4 10 5 11 6 9 8 8 9 7 12 1 13 2 14 3 15
REMARK SMILES IDX 4 16 86 17 5 18 6 19 80 20 81 21 85 22 82 23 84 24 83 25
REMARK SMILES IDX 16 26 17 27 18 28 19 30 20 31 21 32 79 33 22 34 78 35 23 36
REMARK SMILES IDX 24 37 25 38 72 39 26 40 77 41 71 42 73 43 27 44 76 45 70 46
REMARK SMILES IDX 69 47 28 49 58 50 39 51 57 52 40 53 43 54 56 55 74 56 41 57
REMARK SMILES IDX 42 58 55 60 75 61 44 62 29 63 30 64 38 65 31 66 37 67 32 68
REMARK SMILES IDX 33 69 34 70 35 71 36 72 59 73 60 74 68 75 61 76 67 77 62 78
REMARK SMILES IDX 63 79 64 80 65 81 66 82 45 83 46 84 54 85 47 86 53 87 48 88
REMARK SMILES IDX 49 89 50 90 51 91 52 92
REMARK H PARENT 12 7 8 10 8 11 17 29 73 48 43 59
REMARK Flexibility Score: inf
ROOT
ATOM      1  C   UNL A   1      33.848  29.294  27.156  1.00  0.00     0.023 C 
ENDROOT
BRANCH   1   2
ATOM      2  C   UNL A   1      33.424  27.891  26.702  1.00  0.00     0.023 C 
BRANCH   2   3
ATOM      3  C   UNL A   1      32.093  27.847  25.949  1.00  0.00     0.116 C 
BRANCH   3   4
ATOM      4  N   UNL A   1      31.269  26.778  26.475  1.00  0.00    -0.351 N 
ATOM      5  C   UNL A   1      30.301  26.046  25.851  1.00  0.00     0.283 C 
ATOM      6  O   UNL A   1      29.547  25.388  26.573  1.00  0.00    -0.268 OA
ATOM      7  H   UNL A   1      31.432  26.544  27.418  1.00  0.00     0.163 HD
BRANCH   5   8
ATOM      8  C   UNL A   1      30.216  26.038  24.307  1.00  0.00     0.304 C 
BRANCH   8   9
ATOM      9  N   UNL A   1      30.000  24.679  23.727  1.00  0.00    -0.329 N 
ATOM     10  H   UNL A   1      29.384  24.190  24.378  1.00  0.00     0.347 HD
ATOM     11  H   UNL A   1      29.672  24.908  22.789  1.00  0.00     0.347 HD
BRANCH   9  12
ATOM     12  C   UNL A   1      31.111  23.736  23.430  1.00  0.00     0.193 C 
ATOM     13  C   UNL A   1      32.459  20.661  23.886  1.00  0.00     0.012 C 
ATOM     14  C   UNL A   1      32.637  21.949  24.718  1.00  0.00    -0.021 C 
ATOM     15  C   UNL A   1      32.864  21.528  26.188  1.00  0.00     0.012 C 
ATOM     16  C   UNL A   1      33.886  22.722  24.264  1.00  0.00     0.076 C 
ATOM     17  C   UNL A   1      31.345  22.811  24.659  1.00  0.00     0.073 C 
ATOM     18  S   UNL A   1      33.763  23.216  22.532  1.00  0.00    -0.155 SA
ATOM     19  C   UNL A   1      32.353  24.326  22.728  1.00  0.00     0.134 C 
ENDBRANCH   9  12
ENDBRANCH   8   9
BRANCH   8  20
ATOM     20  C   UNL A   1      29.355  27.166  23.740  1.00  0.00     0.019 A 
ATOM     21  C   UNL A   1      27.956  27.111  23.883  1.00  0.00     0.010 A 
ATOM     22  C   UNL A   1      29.877  28.231  22.997  1.00  0.00     0.010 A 
ATOM     23  C   UNL A   1      27.134  28.115  23.360  1.00  0.00     0.001 A 
ATOM     24  C   UNL A   1      29.067  29.258  22.510  1.00  0.00     0.001 A 
ATOM     25  C   UNL A   1      27.692  29.202  22.694  1.00  0.00     0.000 A 
ENDBRANCH   8  20
ENDBRANCH   5   8
ENDBRANCH   3   4
ENDBRANCH   2   3
ENDBRANCH   1   2
BRANCH   1  26
ATOM     26  C   UNL A   1      35.268  29.384  27.705  1.00  0.00     0.116 C 
BRANCH  26  27
ATOM     27  N   UNL A   1      35.325  30.145  28.942  1.00  0.00    -0.352 N 
ATOM     28  C   UNL A   1      36.357  30.270  29.840  1.00  0.00     0.251 C 
ATOM     29  H   UNL A   1      34.505  30.641  29.170  1.00  0.00     0.163 HD
ATOM     30  O   UNL A   1      36.153  30.780  30.935  1.00  0.00    -0.269 OA
BRANCH  28  31
ATOM     31  C   UNL A   1      37.705  29.770  29.491  1.00  0.00     0.039 A 
ATOM     32  C   UNL A   1      38.112  29.803  28.155  1.00  0.00     0.014 A 
ATOM     33  C   UNL A   1      38.563  29.263  30.472  1.00  0.00     0.014 A 
ATOM     34  C   UNL A   1      39.401  29.384  27.813  1.00  0.00     0.010 A 
ATOM     35  C   UNL A   1      39.871  28.915  30.139  1.00  0.00     0.010 A 
ATOM     36  C   UNL A   1      40.303  28.969  28.805  1.00  0.00    -0.014 A 
BRANCH  36  37
ATOM     37  C   UNL A   1      41.704  28.602  28.467  1.00  0.00     0.031 A 
ATOM     38  C   UNL A   1      42.773  29.663  28.390  1.00  0.00     0.074 A 
ATOM     39  C   UNL A   1      42.002  27.321  28.165  1.00  0.00     0.049 A 
ATOM     40  N   UNL A   1      44.034  29.538  28.064  1.00  0.00    -0.248 NA
ATOM     41  C   UNL A   1      42.370  31.045  28.698  1.00  0.00     0.031 C 
ATOM     42  C   UNL A   1      41.049  26.209  28.156  1.00  0.00     0.029 A 
ATOM     43  N   UNL A   1      43.190  26.738  27.796  1.00  0.00    -0.354 N 
ATOM     44  C   UNL A   1      44.565  30.821  28.099  1.00  0.00     0.074 A 
ATOM     45  C   UNL A   1      43.486  31.717  28.447  1.00  0.00     0.031 C 
ATOM     46  C   UNL A   1      41.691  25.078  27.820  1.00  0.00     0.029 A 
ATOM     47  C   UNL A   1      43.090  25.389  27.544  1.00  0.00     0.049 A 
ATOM     48  H   UNL A   1      44.034  27.238  27.719  1.00  0.00     0.167 HD
ATOM     49  C   UNL A   1      45.841  31.216  27.874  1.00  0.00     0.031 A 
ATOM     50  C   UNL A   1      44.014  24.502  27.123  1.00  0.00     0.031 A 
ATOM     51  C   UNL A   1      46.919  30.318  27.552  1.00  0.00     0.049 A 
ATOM     52  C   UNL A   1      45.425  24.972  26.883  1.00  0.00     0.074 A 
ATOM     53  C   UNL A   1      48.262  30.615  27.393  1.00  0.00     0.029 A 
ATOM     54  N   UNL A   1      46.781  28.957  27.329  1.00  0.00    -0.354 N 
ATOM     55  N   UNL A   1      45.927  26.175  27.024  1.00  0.00    -0.248 NA
ATOM     56  C   UNL A   1      46.396  23.961  26.441  1.00  0.00     0.031 C 
ATOM     57  C   UNL A   1      48.924  29.448  27.006  1.00  0.00     0.029 A 
ATOM     58  C   UNL A   1      48.007  28.409  26.996  1.00  0.00     0.049 A 
ATOM     59  H   UNL A   1      45.937  28.456  27.397  1.00  0.00     0.167 HD
ATOM     60  C   UNL A   1      47.279  26.058  26.718  1.00  0.00     0.074 A 
ATOM     61  C   UNL A   1      47.519  24.665  26.406  1.00  0.00     0.031 C 
ATOM     62  C   UNL A   1      48.236  27.018  26.697  1.00  0.00     0.031 A 
BRANCH  49  63
ATOM     63  C   UNL A   1      46.156  32.688  27.952  1.00  0.00    -0.014 A 
ATOM     64  C   UNL A   1      46.607  33.278  29.146  1.00  0.00     0.010 A 
ATOM     65  C   UNL A   1      46.091  33.471  26.784  1.00  0.00     0.010 A 
ATOM     66  C   UNL A   1      46.970  34.628  29.173  1.00  0.00     0.020 A 
ATOM     67  C   UNL A   1      46.479  34.812  26.801  1.00  0.00     0.020 A 
ATOM     68  C   UNL A   1      46.909  35.386  27.999  1.00  0.00     0.054 A 
BRANCH  68  69
ATOM     69  S   UNL A   1      47.450  37.115  28.052  1.00  0.00     0.124 S 
ATOM     70  O   UNL A   1      46.571  37.738  27.066  1.00  0.00    -0.237 OA
ATOM     71  O   UNL A   1      47.197  37.487  29.441  1.00  0.00    -0.237 OA
ATOM     72  O   UNL A   1      48.860  37.051  27.675  1.00  0.00    -0.744 OA
ENDBRANCH  68  69
ENDBRANCH  49  63
BRANCH  50  73
ATOM     73  C   UNL A   1      43.638  23.080  26.881  1.00  0.00    -0.014 A 
ATOM     74  C   UNL A   1      43.855  22.479  25.628  1.00  0.00     0.010 A 
ATOM     75  C   UNL A   1      43.026  22.325  27.899  1.00  0.00     0.010 A 
ATOM     76  C   UNL A   1      43.428  21.170  25.384  1.00  0.00     0.020 A 
ATOM     77  C   UNL A   1      42.631  21.005  27.672  1.00  0.00     0.020 A 
ATOM     78  C   UNL A   1      42.815  20.442  26.407  1.00  0.00     0.054 A 
BRANCH  78  79
ATOM     79  S   UNL A   1      42.276  18.742  26.073  1.00  0.00     0.124 S 
ATOM     80  O   UNL A   1      43.177  18.345  24.996  1.00  0.00    -0.237 OA
ATOM     81  O   UNL A   1      42.497  18.084  27.359  1.00  0.00    -0.237 OA
ATOM     82  O   UNL A   1      40.873  18.897  25.694  1.00  0.00    -0.744 OA
ENDBRANCH  78  79
ENDBRANCH  50  73
BRANCH  62  83
ATOM     83  C   UNL A   1      49.645  26.593  26.371  1.00  0.00    -0.014 A 
ATOM     84  C   UNL A   1      50.475  25.996  27.336  1.00  0.00     0.010 A 
ATOM     85  C   UNL A   1      50.124  26.745  25.057  1.00  0.00     0.010 A 
ATOM     86  C   UNL A   1      51.770  25.590  27.000  1.00  0.00     0.020 A 
ATOM     87  C   UNL A   1      51.404  26.310  24.709  1.00  0.00     0.020 A 
ATOM     88  C   UNL A   1      52.226  25.749  25.688  1.00  0.00     0.054 A 
BRANCH  88  89
ATOM     89  S   UNL A   1      53.893  25.174  25.268  1.00  0.00     0.124 S 
ATOM     90  O   UNL A   1      53.688  23.737  25.107  1.00  0.00    -0.237 OA
ATOM     91  O   UNL A   1      54.186  25.910  24.041  1.00  0.00    -0.237 OA
ATOM     92  O   UNL A   1      54.697  25.562  26.426  1.00  0.00    -0.744 OA
ENDBRANCH  88  89
ENDBRANCH  62  83
ENDBRANCH  36  37
ENDBRANCH  28  31
ENDBRANCH  26  27
ENDBRANCH   1  26
TORSDOF 17
ENDMDL
