MODEL 1
REMARK VINA RESULT:      -9.3      0.000      0.000
REMARK SMILES O=C(NCCCCNC(=O)c1ncoc1-c1cc(F)cc(F)c1)c1ccc(-c2c3nc(c(-c4ccc(S(=O)(=O)[O-])cc4)c4ccc([nH]4)c(-c4ccc(S(=O)(=O)[O-])cc4)c4nc(c(-c5ccc(S(=O)(=O)[O-])cc5)c5ccc2[nH]5)C=C4)C=C3)cc1
REMARK SMILES IDX 4 1 3 2 1 3 2 4 24 6 25 7 83 8 26 9 82 10 27 11 28 12 29 13
REMARK SMILES IDX 76 14 30 15 81 16 75 17 77 18 31 19 80 20 74 21 73 22 32 24
REMARK SMILES IDX 62 25 43 26 61 27 44 28 47 29 60 30 78 31 45 32 46 33 59 35
REMARK SMILES IDX 79 36 48 37 33 38 34 39 42 40 35 41 41 42 36 43 37 44 38 45
REMARK SMILES IDX 39 46 40 47 63 48 64 49 72 50 65 51 71 52 66 53 67 54 68 55
REMARK SMILES IDX 69 56 70 57 49 58 50 59 58 60 51 61 57 62 52 63 53 64 54 65
REMARK SMILES IDX 55 66 56 67 5 68 6 69 7 70 8 71 9 72 10 74 11 75 12 76 15 77
REMARK SMILES IDX 13 78 14 79 16 80 17 81 23 82 18 83 21 84 19 85 20 86 22 87
REMARK H PARENT 3 5 77 23 47 34 8 73
REMARK Flexibility Score: inf
ROOT
ATOM      1  C   UNL A   1      40.458  21.459  27.065  1.00  0.00     0.116 C 
ENDROOT
BRANCH   1   2
ATOM      2  N   UNL A   1      39.314  21.740  26.213  1.00  0.00    -0.352 N 
ATOM      3  O   UNL A   1      37.574  22.920  25.407  1.00  0.00    -0.269 OA
ATOM      4  C   UNL A   1      38.605  22.908  26.072  1.00  0.00     0.251 C 
ATOM      5  H   UNL A   1      39.005  20.987  25.660  1.00  0.00     0.163 HD
BRANCH   4   6
ATOM      6  C   UNL A   1      39.073  24.139  26.744  1.00  0.00     0.039 A 
ATOM      7  C   UNL A   1      39.890  25.056  26.076  1.00  0.00     0.014 A 
ATOM      8  C   UNL A   1      38.679  24.381  28.063  1.00  0.00     0.014 A 
ATOM      9  C   UNL A   1      40.411  26.148  26.763  1.00  0.00     0.010 A 
ATOM     10  C   UNL A   1      39.146  25.516  28.730  1.00  0.00     0.010 A 
ATOM     11  C   UNL A   1      40.037  26.394  28.094  1.00  0.00    -0.014 A 
BRANCH  11  12
ATOM     12  C   UNL A   1      40.530  27.611  28.784  1.00  0.00     0.031 A 
ATOM     13  C   UNL A   1      41.907  27.660  29.385  1.00  0.00     0.074 A 
ATOM     14  C   UNL A   1      39.714  28.678  28.879  1.00  0.00     0.049 A 
ATOM     15  N   UNL A   1      42.484  28.636  30.040  1.00  0.00    -0.248 NA
ATOM     16  C   UNL A   1      42.741  26.457  29.242  1.00  0.00     0.031 C 
ATOM     17  C   UNL A   1      38.349  28.742  28.351  1.00  0.00     0.029 A 
ATOM     18  N   UNL A   1      39.907  29.908  29.452  1.00  0.00    -0.354 N 
ATOM     19  C   UNL A   1      43.736  28.160  30.408  1.00  0.00     0.074 A 
ATOM     20  C   UNL A   1      43.829  26.800  29.920  1.00  0.00     0.031 C 
ATOM     21  C   UNL A   1      37.835  29.952  28.608  1.00  0.00     0.029 A 
ATOM     22  C   UNL A   1      38.810  30.731  29.365  1.00  0.00     0.049 A 
ATOM     23  H   UNL A   1      40.751  30.176  29.884  1.00  0.00     0.167 HD
ATOM     24  C   UNL A   1      44.719  28.799  31.090  1.00  0.00     0.031 A 
ATOM     25  C   UNL A   1      38.594  31.962  29.862  1.00  0.00     0.031 A 
ATOM     26  C   UNL A   1      44.617  30.150  31.578  1.00  0.00     0.049 A 
ATOM     27  C   UNL A   1      39.687  32.645  30.628  1.00  0.00     0.074 A 
ATOM     28  C   UNL A   1      45.573  30.902  32.238  1.00  0.00     0.029 A 
ATOM     29  N   UNL A   1      43.486  30.949  31.471  1.00  0.00    -0.354 N 
ATOM     30  N   UNL A   1      40.886  32.199  30.917  1.00  0.00    -0.248 NA
ATOM     31  C   UNL A   1      39.404  33.995  31.130  1.00  0.00     0.031 C 
ATOM     32  C   UNL A   1      45.005  32.135  32.576  1.00  0.00     0.029 A 
ATOM     33  C   UNL A   1      43.711  32.173  32.079  1.00  0.00     0.049 A 
ATOM     34  H   UNL A   1      42.648  30.683  31.029  1.00  0.00     0.167 HD
ATOM     35  C   UNL A   1      41.506  33.219  31.628  1.00  0.00     0.074 A 
ATOM     36  C   UNL A   1      40.555  34.310  31.710  1.00  0.00     0.031 C 
ATOM     37  C   UNL A   1      42.751  33.245  32.163  1.00  0.00     0.031 A 
BRANCH  24  38
ATOM     38  C   UNL A   1      45.976  28.023  31.383  1.00  0.00    -0.014 A 
ATOM     39  C   UNL A   1      47.104  28.114  30.547  1.00  0.00     0.010 A 
ATOM     40  C   UNL A   1      46.037  27.203  32.526  1.00  0.00     0.010 A 
ATOM     41  C   UNL A   1      48.247  27.355  30.817  1.00  0.00     0.020 A 
ATOM     42  C   UNL A   1      47.187  26.463  32.812  1.00  0.00     0.020 A 
ATOM     43  C   UNL A   1      48.276  26.524  31.941  1.00  0.00     0.054 A 
BRANCH  43  44
ATOM     44  S   UNL A   1      49.764  25.537  32.260  1.00  0.00     0.124 S 
ATOM     45  O   UNL A   1      49.329  24.689  33.366  1.00  0.00    -0.237 OA
ATOM     46  O   UNL A   1      49.975  24.850  30.988  1.00  0.00    -0.237 OA
ATOM     47  O   UNL A   1      50.776  26.535  32.600  1.00  0.00    -0.744 OA
ENDBRANCH  43  44
ENDBRANCH  24  38
BRANCH  25  48
ATOM     48  C   UNL A   1      37.267  32.600  29.653  1.00  0.00    -0.014 A 
ATOM     49  C   UNL A   1      36.244  32.457  30.604  1.00  0.00     0.010 A 
ATOM     50  C   UNL A   1      37.056  33.428  28.533  1.00  0.00     0.010 A 
ATOM     51  C   UNL A   1      35.034  33.140  30.444  1.00  0.00     0.020 A 
ATOM     52  C   UNL A   1      35.859  34.130  28.384  1.00  0.00     0.020 A 
ATOM     53  C   UNL A   1      34.853  33.979  29.340  1.00  0.00     0.054 A 
BRANCH  53  54
ATOM     54  S   UNL A   1      33.316  34.934  29.206  1.00  0.00     0.124 S 
ATOM     55  O   UNL A   1      33.806  36.233  28.753  1.00  0.00    -0.237 OA
ATOM     56  O   UNL A   1      32.551  34.169  28.224  1.00  0.00    -0.237 OA
ATOM     57  O   UNL A   1      32.777  34.906  30.564  1.00  0.00    -0.744 OA
ENDBRANCH  53  54
ENDBRANCH  25  48
BRANCH  37  58
ATOM     58  C   UNL A   1      43.168  34.502  32.877  1.00  0.00    -0.014 A 
ATOM     59  C   UNL A   1      43.552  35.649  32.160  1.00  0.00     0.010 A 
ATOM     60  C   UNL A   1      43.107  34.556  34.281  1.00  0.00     0.010 A 
ATOM     61  C   UNL A   1      43.887  36.824  32.838  1.00  0.00     0.020 A 
ATOM     62  C   UNL A   1      43.420  35.737  34.961  1.00  0.00     0.020 A 
ATOM     63  C   UNL A   1      43.816  36.861  34.234  1.00  0.00     0.054 A 
BRANCH  63  64
ATOM     64  S   UNL A   1      44.194  38.416  35.088  1.00  0.00     0.124 S 
ATOM     65  O   UNL A   1      45.651  38.469  34.992  1.00  0.00    -0.237 OA
ATOM     66  O   UNL A   1      43.475  39.405  34.289  1.00  0.00    -0.237 OA
ATOM     67  O   UNL A   1      43.666  38.208  36.435  1.00  0.00    -0.744 OA
ENDBRANCH  63  64
ENDBRANCH  37  58
ENDBRANCH  11  12
ENDBRANCH   4   6
ENDBRANCH   1   2
BRANCH   1  68
ATOM     68  C   UNL A   1      41.589  20.758  26.322  1.00  0.00     0.023 C 
BRANCH  68  69
ATOM     69  C   UNL A   1      42.935  21.487  26.339  1.00  0.00     0.023 C 
BRANCH  69  70
ATOM     70  C   UNL A   1      42.853  22.991  26.596  1.00  0.00     0.116 C 
BRANCH  70  71
ATOM     71  N   UNL A   1      43.688  23.383  27.716  1.00  0.00    -0.351 N 
ATOM     72  C   UNL A   1      45.000  23.782  27.718  1.00  0.00     0.273 C 
ATOM     73  H   UNL A   1      43.251  23.361  28.598  1.00  0.00     0.163 HD
ATOM     74  O   UNL A   1      45.592  23.845  28.797  1.00  0.00    -0.267 OA
BRANCH  72  75
ATOM     75  C   UNL A   1      45.657  24.099  26.460  1.00  0.00     0.174 A 
ATOM     76  N   UNL A   1      46.354  23.198  25.666  1.00  0.00    -0.211 NA
ATOM     77  C   UNL A   1      45.614  25.324  25.820  1.00  0.00     0.167 A 
ATOM     78  C   UNL A   1      46.682  23.905  24.609  1.00  0.00     0.309 A 
ATOM     79  O   UNL A   1      46.267  25.201  24.624  1.00  0.00    -0.443 OA
BRANCH  77  80
ATOM     80  C   UNL A   1      45.101  26.640  26.143  1.00  0.00     0.026 A 
ATOM     81  C   UNL A   1      45.858  27.519  26.928  1.00  0.00     0.051 A 
ATOM     82  C   UNL A   1      43.839  27.042  25.694  1.00  0.00     0.051 A 
ATOM     83  C   UNL A   1      45.349  28.773  27.255  1.00  0.00     0.126 A 
ATOM     84  C   UNL A   1      43.347  28.297  26.043  1.00  0.00     0.126 A 
ATOM     85  F   UNL A   1      46.087  29.609  27.994  1.00  0.00    -0.207 F 
ATOM     86  C   UNL A   1      44.093  29.171  26.823  1.00  0.00     0.078 A 
ATOM     87  F   UNL A   1      42.131  28.666  25.621  1.00  0.00    -0.207 F 
ENDBRANCH  77  80
ENDBRANCH  72  75
ENDBRANCH  70  71
ENDBRANCH  69  70
ENDBRANCH  68  69
ENDBRANCH   1  68
TORSDOF 15
ENDMDL
MODEL 2
REMARK VINA RESULT:      -9.2      3.664     10.518
REMARK SMILES O=C(NCCCCNC(=O)c1ncoc1-c1cc(F)cc(F)c1)c1ccc(-c2c3nc(c(-c4ccc(S(=O)(=O)[O-])cc4)c4ccc([nH]4)c(-c4ccc(S(=O)(=O)[O-])cc4)c4nc(c(-c5ccc(S(=O)(=O)[O-])cc5)c5ccc2[nH]5)C=C4)C=C3)cc1
REMARK SMILES IDX 4 1 3 2 1 3 2 4 24 6 25 7 83 8 26 9 82 10 27 11 28 12 29 13
REMARK SMILES IDX 76 14 30 15 81 16 75 17 77 18 31 19 80 20 74 21 73 22 32 24
REMARK SMILES IDX 62 25 43 26 61 27 44 28 47 29 60 30 78 31 45 32 46 33 59 35
REMARK SMILES IDX 79 36 48 37 33 38 34 39 42 40 35 41 41 42 36 43 37 44 38 45
REMARK SMILES IDX 39 46 40 47 63 48 64 49 72 50 65 51 71 52 66 53 67 54 68 55
REMARK SMILES IDX 69 56 70 57 49 58 50 59 58 60 51 61 57 62 52 63 53 64 54 65
REMARK SMILES IDX 55 66 56 67 5 68 6 69 7 70 8 71 9 72 10 74 11 75 12 76 15 77
REMARK SMILES IDX 13 78 14 79 16 80 17 81 23 82 18 83 21 84 19 85 20 86 22 87
REMARK H PARENT 3 5 77 23 47 34 8 73
REMARK Flexibility Score: inf
ROOT
ATOM      1  C   UNL A   1      33.840  28.188  26.707  1.00  0.00     0.116 C 
ENDROOT
BRANCH   1   2
ATOM      2  N   UNL A   1      33.573  29.584  27.010  1.00  0.00    -0.352 N 
ATOM      3  O   UNL A   1      33.900  31.592  27.975  1.00  0.00    -0.269 OA
ATOM      4  C   UNL A   1      34.353  30.489  27.688  1.00  0.00     0.251 C 
ATOM      5  H   UNL A   1      32.711  29.930  26.683  1.00  0.00     0.163 HD
BRANCH   4   6
ATOM      6  C   UNL A   1      35.726  30.118  28.094  1.00  0.00     0.039 A 
ATOM      7  C   UNL A   1      36.790  30.205  27.192  1.00  0.00     0.014 A 
ATOM      8  C   UNL A   1      35.950  29.683  29.403  1.00  0.00     0.014 A 
ATOM      9  C   UNL A   1      38.050  29.743  27.560  1.00  0.00     0.010 A 
ATOM     10  C   UNL A   1      37.231  29.286  29.793  1.00  0.00     0.010 A 
ATOM     11  C   UNL A   1      38.286  29.288  28.866  1.00  0.00    -0.014 A 
BRANCH  11  12
ATOM     12  C   UNL A   1      39.654  28.883  29.270  1.00  0.00     0.031 A 
ATOM     13  C   UNL A   1      40.557  29.826  30.013  1.00  0.00     0.074 A 
ATOM     14  C   UNL A   1      40.087  27.649  28.945  1.00  0.00     0.049 A 
ATOM     15  N   UNL A   1      41.787  29.636  30.422  1.00  0.00    -0.248 NA
ATOM     16  C   UNL A   1      40.016  31.155  30.334  1.00  0.00     0.031 C 
ATOM     17  C   UNL A   1      39.307  26.652  28.207  1.00  0.00     0.029 A 
ATOM     18  N   UNL A   1      41.282  27.024  29.187  1.00  0.00    -0.354 N 
ATOM     19  C   UNL A   1      42.177  30.826  31.024  1.00  0.00     0.074 A 
ATOM     20  C   UNL A   1      41.058  31.739  30.911  1.00  0.00     0.031 C 
ATOM     21  C   UNL A   1      40.035  25.536  28.072  1.00  0.00     0.029 A 
ATOM     22  C   UNL A   1      41.352  25.755  28.664  1.00  0.00     0.049 A 
ATOM     23  H   UNL A   1      42.020  27.444  29.686  1.00  0.00     0.167 HD
ATOM     24  C   UNL A   1      43.358  31.130  31.616  1.00  0.00     0.031 A 
ATOM     25  C   UNL A   1      42.367  24.872  28.634  1.00  0.00     0.031 A 
ATOM     26  C   UNL A   1      44.468  30.218  31.718  1.00  0.00     0.049 A 
ATOM     27  C   UNL A   1      43.670  25.233  29.279  1.00  0.00     0.074 A 
ATOM     28  C   UNL A   1      45.689  30.414  32.340  1.00  0.00     0.029 A 
ATOM     29  N   UNL A   1      44.499  28.941  31.173  1.00  0.00    -0.354 N 
ATOM     30  N   UNL A   1      44.001  26.343  29.894  1.00  0.00    -0.248 NA
ATOM     31  C   UNL A   1      44.736  24.224  29.234  1.00  0.00     0.031 C 
ATOM     32  C   UNL A   1      46.477  29.277  32.126  1.00  0.00     0.029 A 
ATOM     33  C   UNL A   1      45.728  28.351  31.418  1.00  0.00     0.049 A 
ATOM     34  H   UNL A   1      43.757  28.519  30.684  1.00  0.00     0.167 HD
ATOM     35  C   UNL A   1      45.311  26.165  30.318  1.00  0.00     0.074 A 
ATOM     36  C   UNL A   1      45.707  24.833  29.905  1.00  0.00     0.031 C 
ATOM     37  C   UNL A   1      46.112  27.028  30.990  1.00  0.00     0.031 A 
BRANCH  24  38
ATOM     38  C   UNL A   1      43.522  32.523  32.164  1.00  0.00    -0.014 A 
ATOM     39  C   UNL A   1      43.995  33.575  31.360  1.00  0.00     0.010 A 
ATOM     40  C   UNL A   1      43.180  32.787  33.503  1.00  0.00     0.010 A 
ATOM     41  C   UNL A   1      44.176  34.852  31.901  1.00  0.00     0.020 A 
ATOM     42  C   UNL A   1      43.336  34.068  34.040  1.00  0.00     0.020 A 
ATOM     43  C   UNL A   1      43.857  35.087  33.241  1.00  0.00     0.054 A 
BRANCH  43  44
ATOM     44  S   UNL A   1      44.117  36.747  33.924  1.00  0.00     0.124 S 
ATOM     45  O   UNL A   1      42.783  37.083  34.412  1.00  0.00    -0.237 OA
ATOM     46  O   UNL A   1      45.123  36.518  34.957  1.00  0.00    -0.237 OA
ATOM     47  O   UNL A   1      44.576  37.526  32.775  1.00  0.00    -0.744 OA
ENDBRANCH  43  44
ENDBRANCH  24  38
BRANCH  25  48
ATOM     48  C   UNL A   1      42.168  23.571  27.941  1.00  0.00    -0.014 A 
ATOM     49  C   UNL A   1      42.639  23.376  26.633  1.00  0.00     0.010 A 
ATOM     50  C   UNL A   1      41.581  22.493  28.630  1.00  0.00     0.010 A 
ATOM     51  C   UNL A   1      42.533  22.120  26.027  1.00  0.00     0.020 A 
ATOM     52  C   UNL A   1      41.496  21.231  28.037  1.00  0.00     0.020 A 
ATOM     53  C   UNL A   1      41.970  21.054  26.736  1.00  0.00     0.054 A 
BRANCH  53  54
ATOM     54  S   UNL A   1      41.937  19.410  25.970  1.00  0.00     0.124 S 
ATOM     55  O   UNL A   1      42.458  18.566  27.041  1.00  0.00    -0.237 OA
ATOM     56  O   UNL A   1      40.521  19.234  25.657  1.00  0.00    -0.237 OA
ATOM     57  O   UNL A   1      42.809  19.557  24.806  1.00  0.00    -0.744 OA
ENDBRANCH  53  54
ENDBRANCH  25  48
BRANCH  37  58
ATOM     58  C   UNL A   1      47.497  26.556  31.335  1.00  0.00    -0.014 A 
ATOM     59  C   UNL A   1      47.764  25.933  32.567  1.00  0.00     0.010 A 
ATOM     60  C   UNL A   1      48.529  26.677  30.387  1.00  0.00     0.010 A 
ATOM     61  C   UNL A   1      49.047  25.454  32.851  1.00  0.00     0.020 A 
ATOM     62  C   UNL A   1      49.806  26.180  30.658  1.00  0.00     0.020 A 
ATOM     63  C   UNL A   1      50.059  25.579  31.894  1.00  0.00     0.054 A 
BRANCH  63  64
ATOM     64  S   UNL A   1      51.698  24.894  32.259  1.00  0.00     0.124 S 
ATOM     65  O   UNL A   1      51.902  25.315  33.643  1.00  0.00    -0.237 OA
ATOM     66  O   UNL A   1      51.499  23.461  32.061  1.00  0.00    -0.237 OA
ATOM     67  O   UNL A   1      52.569  25.537  31.277  1.00  0.00    -0.744 OA
ENDBRANCH  63  64
ENDBRANCH  37  58
ENDBRANCH  11  12
ENDBRANCH   4   6
ENDBRANCH   1   2
BRANCH   1  68
ATOM     68  C   UNL A   1      33.787  27.888  25.213  1.00  0.00     0.023 C 
BRANCH  68  69
ATOM     69  C   UNL A   1      33.736  26.404  24.845  1.00  0.00     0.023 C 
BRANCH  69  70
ATOM     70  C   UNL A   1      32.577  26.002  23.933  1.00  0.00     0.116 C 
BRANCH  70  71
ATOM     71  N   UNL A   1      33.018  25.115  22.874  1.00  0.00    -0.351 N 
ATOM     72  C   UNL A   1      33.262  23.766  22.921  1.00  0.00     0.273 C 
ATOM     73  H   UNL A   1      33.162  25.540  21.998  1.00  0.00     0.163 HD
ATOM     74  O   UNL A   1      33.853  23.244  21.975  1.00  0.00    -0.267 OA
BRANCH  72  75
ATOM     75  C   UNL A   1      32.835  22.999  24.081  1.00  0.00     0.174 A 
ATOM     76  N   UNL A   1      31.518  22.794  24.470  1.00  0.00    -0.211 NA
ATOM     77  C   UNL A   1      33.669  22.288  24.923  1.00  0.00     0.167 A 
ATOM     78  C   UNL A   1      31.621  21.982  25.497  1.00  0.00     0.309 A 
ATOM     79  O   UNL A   1      32.890  21.625  25.832  1.00  0.00    -0.443 OA
BRANCH  77  80
ATOM     80  C   UNL A   1      35.103  22.139  25.071  1.00  0.00     0.026 A 
ATOM     81  C   UNL A   1      35.897  23.245  25.402  1.00  0.00     0.051 A 
ATOM     82  C   UNL A   1      35.715  20.898  24.869  1.00  0.00     0.051 A 
ATOM     83  C   UNL A   1      37.276  23.100  25.519  1.00  0.00     0.126 A 
ATOM     84  C   UNL A   1      37.097  20.781  24.981  1.00  0.00     0.126 A 
ATOM     85  F   UNL A   1      38.022  24.161  25.849  1.00  0.00    -0.207 F 
ATOM     86  C   UNL A   1      37.889  21.874  25.306  1.00  0.00     0.078 A 
ATOM     87  F   UNL A   1      37.675  19.591  24.768  1.00  0.00    -0.207 F 
ENDBRANCH  77  80
ENDBRANCH  72  75
ENDBRANCH  70  71
ENDBRANCH  69  70
ENDBRANCH  68  69
ENDBRANCH   1  68
TORSDOF 15
ENDMDL
MODEL 3
REMARK VINA RESULT:      -9.1      3.505      6.141
REMARK SMILES O=C(NCCCCNC(=O)c1ncoc1-c1cc(F)cc(F)c1)c1ccc(-c2c3nc(c(-c4ccc(S(=O)(=O)[O-])cc4)c4ccc([nH]4)c(-c4ccc(S(=O)(=O)[O-])cc4)c4nc(c(-c5ccc(S(=O)(=O)[O-])cc5)c5ccc2[nH]5)C=C4)C=C3)cc1
REMARK SMILES IDX 4 1 3 2 1 3 2 4 24 6 25 7 83 8 26 9 82 10 27 11 28 12 29 13
REMARK SMILES IDX 76 14 30 15 81 16 75 17 77 18 31 19 80 20 74 21 73 22 32 24
REMARK SMILES IDX 62 25 43 26 61 27 44 28 47 29 60 30 78 31 45 32 46 33 59 35
REMARK SMILES IDX 79 36 48 37 33 38 34 39 42 40 35 41 41 42 36 43 37 44 38 45
REMARK SMILES IDX 39 46 40 47 63 48 64 49 72 50 65 51 71 52 66 53 67 54 68 55
REMARK SMILES IDX 69 56 70 57 49 58 50 59 58 60 51 61 57 62 52 63 53 64 54 65
REMARK SMILES IDX 55 66 56 67 5 68 6 69 7 70 8 71 9 72 10 74 11 75 12 76 15 77
REMARK SMILES IDX 13 78 14 79 16 80 17 81 23 82 18 83 21 84 19 85 20 86 22 87
REMARK H PARENT 3 5 77 23 47 34 8 73
REMARK Flexibility Score: inf
ROOT
ATOM      1  C   UNL A   1      36.659  23.785  25.388  1.00  0.00     0.116 C 
ENDROOT
BRANCH   1   2
ATOM      2  N   UNL A   1      37.625  22.736  25.665  1.00  0.00    -0.352 N 
ATOM      3  O   UNL A   1      39.600  21.853  26.288  1.00  0.00    -0.269 OA
ATOM      4  C   UNL A   1      38.856  22.828  26.267  1.00  0.00     0.251 C 
ATOM      5  H   UNL A   1      37.359  21.831  25.381  1.00  0.00     0.163 HD
BRANCH   4   6
ATOM      6  C   UNL A   1      39.290  24.111  26.862  1.00  0.00     0.039 A 
ATOM      7  C   UNL A   1      40.054  25.021  26.127  1.00  0.00     0.014 A 
ATOM      8  C   UNL A   1      38.916  24.407  28.175  1.00  0.00     0.014 A 
ATOM      9  C   UNL A   1      40.547  26.168  26.743  1.00  0.00     0.010 A 
ATOM     10  C   UNL A   1      39.352  25.593  28.770  1.00  0.00     0.010 A 
ATOM     11  C   UNL A   1      40.193  26.470  28.067  1.00  0.00    -0.014 A 
BRANCH  11  12
ATOM     12  C   UNL A   1      40.653  27.740  28.680  1.00  0.00     0.031 A 
ATOM     13  C   UNL A   1      42.044  27.879  29.232  1.00  0.00     0.074 A 
ATOM     14  C   UNL A   1      39.793  28.774  28.750  1.00  0.00     0.049 A 
ATOM     15  N   UNL A   1      42.597  28.911  29.818  1.00  0.00    -0.248 NA
ATOM     16  C   UNL A   1      42.926  26.707  29.120  1.00  0.00     0.031 C 
ATOM     17  C   UNL A   1      38.410  28.753  28.265  1.00  0.00     0.029 A 
ATOM     18  N   UNL A   1      39.948  30.039  29.256  1.00  0.00    -0.354 N 
ATOM     19  C   UNL A   1      43.880  28.509  30.166  1.00  0.00     0.074 A 
ATOM     20  C   UNL A   1      44.018  27.131  29.742  1.00  0.00     0.031 C 
ATOM     21  C   UNL A   1      37.850  29.951  28.480  1.00  0.00     0.029 A 
ATOM     22  C   UNL A   1      38.813  30.808  29.166  1.00  0.00     0.049 A 
ATOM     23  H   UNL A   1      40.792  30.365  29.646  1.00  0.00     0.167 HD
ATOM     24  C   UNL A   1      44.854  29.223  30.783  1.00  0.00     0.031 A 
ATOM     25  C   UNL A   1      38.558  32.052  29.608  1.00  0.00     0.031 A 
ATOM     26  C   UNL A   1      44.707  30.591  31.207  1.00  0.00     0.049 A 
ATOM     27  C   UNL A   1      39.642  32.819  30.303  1.00  0.00     0.074 A 
ATOM     28  C   UNL A   1      45.649  31.416  31.797  1.00  0.00     0.029 A 
ATOM     29  N   UNL A   1      43.539  31.334  31.100  1.00  0.00    -0.354 N 
ATOM     30  N   UNL A   1      40.869  32.441  30.573  1.00  0.00    -0.248 NA
ATOM     31  C   UNL A   1      39.315  34.180  30.748  1.00  0.00     0.031 C 
ATOM     32  C   UNL A   1      45.036  32.639  32.094  1.00  0.00     0.029 A 
ATOM     33  C   UNL A   1      43.728  32.595  31.640  1.00  0.00     0.049 A 
ATOM     34  H   UNL A   1      42.699  31.011  30.700  1.00  0.00     0.167 HD
ATOM     35  C   UNL A   1      41.465  33.521  31.212  1.00  0.00     0.074 A 
ATOM     36  C   UNL A   1      40.469  34.572  31.273  1.00  0.00     0.031 C 
ATOM     37  C   UNL A   1      42.723  33.628  31.703  1.00  0.00     0.031 A 
BRANCH  24  38
ATOM     38  C   UNL A   1      46.154  28.518  31.072  1.00  0.00    -0.014 A 
ATOM     39  C   UNL A   1      47.215  28.534  30.149  1.00  0.00     0.010 A 
ATOM     40  C   UNL A   1      46.322  27.843  32.295  1.00  0.00     0.010 A 
ATOM     41  C   UNL A   1      48.398  27.840  30.421  1.00  0.00     0.020 A 
ATOM     42  C   UNL A   1      47.513  27.170  32.581  1.00  0.00     0.020 A 
ATOM     43  C   UNL A   1      48.535  27.152  31.630  1.00  0.00     0.054 A 
BRANCH  43  44
ATOM     44  S   UNL A   1      50.073  26.245  31.951  1.00  0.00     0.124 S 
ATOM     45  O   UNL A   1      49.859  25.016  31.194  1.00  0.00    -0.237 OA
ATOM     46  O   UNL A   1      51.094  27.141  31.416  1.00  0.00    -0.237 OA
ATOM     47  O   UNL A   1      50.086  26.089  33.404  1.00  0.00    -0.744 OA
ENDBRANCH  43  44
ENDBRANCH  24  38
BRANCH  25  48
ATOM     48  C   UNL A   1      37.198  32.621  29.413  1.00  0.00    -0.014 A 
ATOM     49  C   UNL A   1      36.272  32.647  30.469  1.00  0.00     0.010 A 
ATOM     50  C   UNL A   1      36.858  33.219  28.184  1.00  0.00     0.010 A 
ATOM     51  C   UNL A   1      35.032  33.271  30.302  1.00  0.00     0.020 A 
ATOM     52  C   UNL A   1      35.630  33.864  28.022  1.00  0.00     0.020 A 
ATOM     53  C   UNL A   1      34.722  33.882  29.083  1.00  0.00     0.054 A 
BRANCH  53  54
ATOM     54  S   UNL A   1      33.151  34.774  28.922  1.00  0.00     0.124 S 
ATOM     55  O   UNL A   1      33.593  36.084  28.454  1.00  0.00    -0.237 OA
ATOM     56  O   UNL A   1      32.425  33.965  27.945  1.00  0.00    -0.237 OA
ATOM     57  O   UNL A   1      32.600  34.744  30.275  1.00  0.00    -0.744 OA
ENDBRANCH  53  54
ENDBRANCH  25  48
BRANCH  37  58
ATOM     58  C   UNL A   1      43.105  34.936  32.340  1.00  0.00    -0.014 A 
ATOM     59  C   UNL A   1      43.730  35.950  31.593  1.00  0.00     0.010 A 
ATOM     60  C   UNL A   1      42.771  35.178  33.685  1.00  0.00     0.010 A 
ATOM     61  C   UNL A   1      44.032  37.179  32.188  1.00  0.00     0.020 A 
ATOM     62  C   UNL A   1      43.052  36.413  34.276  1.00  0.00     0.020 A 
ATOM     63  C   UNL A   1      43.689  37.403  33.525  1.00  0.00     0.054 A 
BRANCH  63  64
ATOM     64  S   UNL A   1      44.033  39.026  34.256  1.00  0.00     0.124 S 
ATOM     65  O   UNL A   1      45.320  39.364  33.655  1.00  0.00    -0.237 OA
ATOM     66  O   UNL A   1      42.898  39.829  33.805  1.00  0.00    -0.237 OA
ATOM     67  O   UNL A   1      44.067  38.759  35.693  1.00  0.00    -0.744 OA
ENDBRANCH  63  64
ENDBRANCH  37  58
ENDBRANCH  11  12
ENDBRANCH   4   6
ENDBRANCH   1   2
BRANCH   1  68
ATOM     68  C   UNL A   1      35.329  23.243  24.875  1.00  0.00     0.023 C 
BRANCH  68  69
ATOM     69  C   UNL A   1      34.154  23.362  25.848  1.00  0.00     0.023 C 
BRANCH  69  70
ATOM     70  C   UNL A   1      33.628  24.781  26.059  1.00  0.00     0.116 C 
BRANCH  70  71
ATOM     71  N   UNL A   1      32.208  24.782  26.352  1.00  0.00    -0.351 N 
ATOM     72  C   UNL A   1      31.200  25.485  25.743  1.00  0.00     0.273 C 
ATOM     73  H   UNL A   1      31.928  24.196  27.091  1.00  0.00     0.163 HD
ATOM     74  O   UNL A   1      30.098  25.524  26.292  1.00  0.00    -0.267 OA
BRANCH  72  75
ATOM     75  C   UNL A   1      31.460  26.171  24.487  1.00  0.00     0.174 A 
ATOM     76  N   UNL A   1      31.297  25.623  23.222  1.00  0.00    -0.211 NA
ATOM     77  C   UNL A   1      31.826  27.498  24.360  1.00  0.00     0.167 A 
ATOM     78  C   UNL A   1      31.558  26.624  22.414  1.00  0.00     0.309 A 
ATOM     79  O   UNL A   1      31.883  27.796  23.025  1.00  0.00    -0.443 OA
BRANCH  77  80
ATOM     80  C   UNL A   1      32.185  28.562  25.275  1.00  0.00     0.026 A 
ATOM     81  C   UNL A   1      33.277  28.410  26.140  1.00  0.00     0.051 A 
ATOM     82  C   UNL A   1      31.439  29.744  25.321  1.00  0.00     0.051 A 
ATOM     83  C   UNL A   1      33.602  29.426  27.033  1.00  0.00     0.126 A 
ATOM     84  C   UNL A   1      31.778  30.742  26.231  1.00  0.00     0.126 A 
ATOM     85  F   UNL A   1      34.655  29.274  27.845  1.00  0.00    -0.207 F 
ATOM     86  C   UNL A   1      32.858  30.595  27.092  1.00  0.00     0.078 A 
ATOM     87  F   UNL A   1      31.047  31.863  26.278  1.00  0.00    -0.207 F 
ENDBRANCH  77  80
ENDBRANCH  72  75
ENDBRANCH  70  71
ENDBRANCH  69  70
ENDBRANCH  68  69
ENDBRANCH   1  68
TORSDOF 15
ENDMDL
