MODEL 1
REMARK VINA RESULT:     -11.2      0.000      0.000
REMARK SMILES Cc1cc(C)c(C(N)=O)c(N[C@H]2C=C[C@H](C(=O)NCCCCNC(=O)c3ccc(-c4c5nc(c(-c6ccc(S(=O)(=O)[O-])cc6)c6ccc([nH]6)c(-c6ccc(S(=O)(=O)[O-])cc6)c6nc(c(-c7ccc(S(=O)(=O)[O-])cc7)c7ccc4[nH]7)C=C6)C=C5)cc3)C2)n1
REMARK SMILES IDX 20 1 19 2 18 3 16 4 17 5 15 7 12 8 13 9 86 10 14 11 11 12
REMARK SMILES IDX 10 14 1 15 2 16 3 17 87 18 4 19 5 20 6 21 7 22 8 23 9 24
REMARK SMILES IDX 21 27 22 28 23 29 24 30 25 32 26 33 27 34 85 35 28 36 84 37
REMARK SMILES IDX 29 38 30 39 31 40 78 41 32 42 83 43 77 44 79 45 33 46 82 47
REMARK SMILES IDX 76 48 75 49 34 51 64 52 45 53 63 54 46 55 49 56 62 57 80 58
REMARK SMILES IDX 47 59 48 60 61 62 81 63 50 64 35 65 36 66 44 67 37 68 43 69
REMARK SMILES IDX 38 70 39 71 40 72 41 73 42 74 65 75 66 76 74 77 67 78 73 79
REMARK SMILES IDX 68 80 69 81 70 82 71 83 72 84 51 85 52 86 60 87 53 88 59 89
REMARK SMILES IDX 54 90 55 91 56 92 57 93 58 94
REMARK H PARENT 18 6 11 13 8 25 8 26 23 31 79 50 49 61
REMARK Flexibility Score: inf
ROOT
ATOM      1  C   UNL A   1      35.758  21.286  24.713  1.00  0.00     0.023 C 
ENDROOT
BRANCH   1   2
ATOM      2  C   UNL A   1      34.311  21.048  25.128  1.00  0.00     0.116 C 
BRANCH   2   3
ATOM      3  N   UNL A   1      33.425  20.859  23.996  1.00  0.00    -0.356 N 
ATOM      4  C   UNL A   1      32.614  21.776  23.385  1.00  0.00     0.227 C 
ATOM      5  O   UNL A   1      32.056  21.454  22.335  1.00  0.00    -0.274 OA
ATOM      6  H   UNL A   1      33.403  19.951  23.616  1.00  0.00     0.163 HD
BRANCH   4   7
ATOM      7  C   UNL A   1      32.445  23.152  24.028  1.00  0.00     0.103 C 
ATOM      8  C   UNL A   1      30.383  24.421  23.638  1.00  0.00     0.104 C 
ATOM      9  C   UNL A   1      31.497  24.918  22.782  1.00  0.00    -0.006 C 
ATOM     10  C   UNL A   1      31.020  23.380  24.562  1.00  0.00     0.046 C 
ATOM     11  C   UNL A   1      32.621  24.227  22.991  1.00  0.00    -0.016 C 
BRANCH   8  12
ATOM     12  N   UNL A   1      29.708  25.495  24.347  1.00  0.00    -0.363 N 
ATOM     13  H   UNL A   1      28.983  25.251  24.966  1.00  0.00     0.162 HD
BRANCH  12  14
ATOM     14  C   UNL A   1      30.016  26.848  24.209  1.00  0.00     0.139 A 
ATOM     15  C   UNL A   1      28.886  29.557  21.977  1.00  0.00     0.067 C 
ATOM     16  C   UNL A   1      29.626  28.857  23.075  1.00  0.00     0.040 A 
ATOM     17  C   UNL A   1      30.573  29.527  23.829  1.00  0.00     0.028 A 
ATOM     18  N   UNL A   1      29.345  27.553  23.269  1.00  0.00    -0.236 NA
ATOM     19  C   UNL A   1      31.255  28.841  24.843  1.00  0.00    -0.033 A 
ATOM     20  C   UNL A   1      32.274  29.615  25.632  1.00  0.00     0.045 C 
ATOM     21  C   UNL A   1      30.977  27.470  25.031  1.00  0.00     0.084 A 
BRANCH  21  22
ATOM     22  C   UNL A   1      31.721  26.684  26.059  1.00  0.00     0.252 C 
ATOM     23  N   UNL A   1      33.031  26.392  25.795  1.00  0.00    -0.365 N 
ATOM     24  O   UNL A   1      31.203  26.309  27.105  1.00  0.00    -0.269 OA
ATOM     25  H   UNL A   1      33.443  26.695  24.953  1.00  0.00     0.159 HD
ATOM     26  H   UNL A   1      33.561  25.878  26.446  1.00  0.00     0.159 HD
ENDBRANCH  21  22
ENDBRANCH  12  14
ENDBRANCH   8  12
ENDBRANCH   4   7
ENDBRANCH   2   3
ENDBRANCH   1   2
BRANCH   1  27
ATOM     27  C   UNL A   1      36.075  22.697  24.216  1.00  0.00     0.023 C 
BRANCH  27  28
ATOM     28  C   UNL A   1      37.193  23.422  24.959  1.00  0.00     0.116 C 
BRANCH  28  29
ATOM     29  N   UNL A   1      38.180  22.516  25.528  1.00  0.00    -0.352 N 
ATOM     30  C   UNL A   1      39.254  22.788  26.345  1.00  0.00     0.251 C 
ATOM     31  H   UNL A   1      38.062  21.567  25.294  1.00  0.00     0.163 HD
ATOM     32  O   UNL A   1      40.055  21.903  26.617  1.00  0.00    -0.269 OA
BRANCH  30  33
ATOM     33  C   UNL A   1      39.457  24.161  26.859  1.00  0.00     0.039 A 
ATOM     34  C   UNL A   1      39.034  24.464  28.156  1.00  0.00     0.014 A 
ATOM     35  C   UNL A   1      40.096  25.132  26.083  1.00  0.00     0.014 A 
ATOM     36  C   UNL A   1      39.344  25.708  28.711  1.00  0.00     0.010 A 
ATOM     37  C   UNL A   1      40.465  26.343  26.662  1.00  0.00     0.010 A 
ATOM     38  C   UNL A   1      40.112  26.634  27.988  1.00  0.00    -0.014 A 
BRANCH  38  39
ATOM     39  C   UNL A   1      40.615  27.882  28.620  1.00  0.00     0.031 A 
ATOM     40  C   UNL A   1      42.021  27.962  29.142  1.00  0.00     0.074 A 
ATOM     41  C   UNL A   1      39.769  28.915  28.803  1.00  0.00     0.049 A 
ATOM     42  N   UNL A   1      42.604  28.939  29.791  1.00  0.00    -0.248 NA
ATOM     43  C   UNL A   1      42.878  26.787  28.925  1.00  0.00     0.031 C 
ATOM     44  C   UNL A   1      38.369  28.949  28.372  1.00  0.00     0.029 A 
ATOM     45  N   UNL A   1      39.958  30.132  29.409  1.00  0.00    -0.354 N 
ATOM     46  C   UNL A   1      43.889  28.493  30.071  1.00  0.00     0.074 A 
ATOM     47  C   UNL A   1      43.985  27.141  29.562  1.00  0.00     0.031 C 
ATOM     48  C   UNL A   1      37.836  30.136  28.701  1.00  0.00     0.029 A 
ATOM     49  C   UNL A   1      38.836  30.927  29.411  1.00  0.00     0.049 A 
ATOM     50  H   UNL A   1      40.815  30.409  29.806  1.00  0.00     0.167 HD
ATOM     51  C   UNL A   1      44.903  29.153  30.683  1.00  0.00     0.031 A 
ATOM     52  C   UNL A   1      38.626  32.149  29.937  1.00  0.00     0.031 A 
ATOM     53  C   UNL A   1      44.800  30.494  31.197  1.00  0.00     0.049 A 
ATOM     54  C   UNL A   1      39.746  32.840  30.662  1.00  0.00     0.074 A 
ATOM     55  C   UNL A   1      45.787  31.270  31.780  1.00  0.00     0.029 A 
ATOM     56  N   UNL A   1      43.638  31.251  31.207  1.00  0.00    -0.354 N 
ATOM     57  N   UNL A   1      40.977  32.430  30.854  1.00  0.00    -0.248 NA
ATOM     58  C   UNL A   1      39.447  34.155  31.247  1.00  0.00     0.031 C 
ATOM     59  C   UNL A   1      45.206  32.473  32.198  1.00  0.00     0.029 A 
ATOM     60  C   UNL A   1      43.871  32.469  31.826  1.00  0.00     0.049 A 
ATOM     61  H   UNL A   1      42.775  30.964  30.832  1.00  0.00     0.167 HD
ATOM     62  C   UNL A   1      41.604  33.442  31.572  1.00  0.00     0.074 A 
ATOM     63  C   UNL A   1      40.621  34.490  31.764  1.00  0.00     0.031 C 
ATOM     64  C   UNL A   1      42.878  33.495  32.032  1.00  0.00     0.031 A 
BRANCH  51  65
ATOM     65  C   UNL A   1      46.205  28.413  30.846  1.00  0.00    -0.014 A 
ATOM     66  C   UNL A   1      46.461  27.633  31.989  1.00  0.00     0.010 A 
ATOM     67  C   UNL A   1      47.187  28.497  29.843  1.00  0.00     0.010 A 
ATOM     68  C   UNL A   1      47.696  27.002  32.155  1.00  0.00     0.020 A 
ATOM     69  C   UNL A   1      48.414  27.842  29.991  1.00  0.00     0.020 A 
ATOM     70  C   UNL A   1      48.670  27.120  31.158  1.00  0.00     0.054 A 
BRANCH  70  71
ATOM     71  S   UNL A   1      50.273  26.310  31.408  1.00  0.00     0.124 S 
ATOM     72  O   UNL A   1      50.548  25.775  30.077  1.00  0.00    -0.237 OA
ATOM     73  O   UNL A   1      51.131  27.414  31.829  1.00  0.00    -0.237 OA
ATOM     74  O   UNL A   1      50.001  25.310  32.438  1.00  0.00    -0.744 OA
ENDBRANCH  70  71
ENDBRANCH  51  65
BRANCH  52  75
ATOM     75  C   UNL A   1      37.296  32.798  29.780  1.00  0.00    -0.014 A 
ATOM     76  C   UNL A   1      36.344  32.717  30.811  1.00  0.00     0.010 A 
ATOM     77  C   UNL A   1      36.993  33.541  28.624  1.00  0.00     0.010 A 
ATOM     78  C   UNL A   1      35.116  33.373  30.694  1.00  0.00     0.020 A 
ATOM     79  C   UNL A   1      35.776  34.219  28.514  1.00  0.00     0.020 A 
ATOM     80  C   UNL A   1      34.843  34.128  29.549  1.00  0.00     0.054 A 
BRANCH  80  81
ATOM     81  S   UNL A   1      33.279  35.044  29.461  1.00  0.00     0.124 S 
ATOM     82  O   UNL A   1      32.556  34.313  28.425  1.00  0.00    -0.237 OA
ATOM     83  O   UNL A   1      32.755  34.903  30.817  1.00  0.00    -0.237 OA
ATOM     84  O   UNL A   1      33.696  36.398  29.099  1.00  0.00    -0.744 OA
ENDBRANCH  80  81
ENDBRANCH  52  75
BRANCH  64  85
ATOM     85  C   UNL A   1      43.287  34.725  32.797  1.00  0.00    -0.014 A 
ATOM     86  C   UNL A   1      43.709  35.884  32.124  1.00  0.00     0.010 A 
ATOM     87  C   UNL A   1      43.189  34.742  34.200  1.00  0.00     0.010 A 
ATOM     88  C   UNL A   1      44.041  37.037  32.841  1.00  0.00     0.020 A 
ATOM     89  C   UNL A   1      43.495  35.901  34.920  1.00  0.00     0.020 A 
ATOM     90  C   UNL A   1      43.928  37.039  34.236  1.00  0.00     0.054 A 
BRANCH  90  91
ATOM     91  S   UNL A   1      44.304  38.567  35.138  1.00  0.00     0.124 S 
ATOM     92  O   UNL A   1      43.812  38.259  36.477  1.00  0.00    -0.237 OA
ATOM     93  O   UNL A   1      45.756  38.666  35.009  1.00  0.00    -0.237 OA
ATOM     94  O   UNL A   1      43.550  39.589  34.416  1.00  0.00    -0.744 OA
ENDBRANCH  90  91
ENDBRANCH  64  85
ENDBRANCH  38  39
ENDBRANCH  30  33
ENDBRANCH  28  29
ENDBRANCH  27  28
ENDBRANCH   1  27
TORSDOF 17
ENDMDL
MODEL 2
REMARK VINA RESULT:     -11.1      1.412      2.001
REMARK SMILES Cc1cc(C)c(C(N)=O)c(N[C@H]2C=C[C@H](C(=O)NCCCCNC(=O)c3ccc(-c4c5nc(c(-c6ccc(S(=O)(=O)[O-])cc6)c6ccc([nH]6)c(-c6ccc(S(=O)(=O)[O-])cc6)c6nc(c(-c7ccc(S(=O)(=O)[O-])cc7)c7ccc4[nH]7)C=C6)C=C5)cc3)C2)n1
REMARK SMILES IDX 20 1 19 2 18 3 16 4 17 5 15 7 12 8 13 9 86 10 14 11 11 12
REMARK SMILES IDX 10 14 1 15 2 16 3 17 87 18 4 19 5 20 6 21 7 22 8 23 9 24
REMARK SMILES IDX 21 27 22 28 23 29 24 30 25 32 26 33 27 34 85 35 28 36 84 37
REMARK SMILES IDX 29 38 30 39 31 40 78 41 32 42 83 43 77 44 79 45 33 46 82 47
REMARK SMILES IDX 76 48 75 49 34 51 64 52 45 53 63 54 46 55 49 56 62 57 80 58
REMARK SMILES IDX 47 59 48 60 61 62 81 63 50 64 35 65 36 66 44 67 37 68 43 69
REMARK SMILES IDX 38 70 39 71 40 72 41 73 42 74 65 75 66 76 74 77 67 78 73 79
REMARK SMILES IDX 68 80 69 81 70 82 71 83 72 84 51 85 52 86 60 87 53 88 59 89
REMARK SMILES IDX 54 90 55 91 56 92 57 93 58 94
REMARK H PARENT 18 6 11 13 8 25 8 26 23 31 79 50 49 61
REMARK Flexibility Score: inf
ROOT
ATOM      1  C   UNL A   1      36.018  20.865  24.636  1.00  0.00     0.023 C 
ENDROOT
BRANCH   1   2
ATOM      2  C   UNL A   1      34.598  20.456  25.009  1.00  0.00     0.116 C 
BRANCH   2   3
ATOM      3  N   UNL A   1      34.248  20.814  26.371  1.00  0.00    -0.356 N 
ATOM      4  C   UNL A   1      33.450  21.837  26.806  1.00  0.00     0.227 C 
ATOM      5  O   UNL A   1      33.150  21.875  27.999  1.00  0.00    -0.274 OA
ATOM      6  H   UNL A   1      34.637  20.247  27.076  1.00  0.00     0.163 HD
BRANCH   4   7
ATOM      7  C   UNL A   1      32.967  22.873  25.793  1.00  0.00     0.103 C 
ATOM      8  C   UNL A   1      31.543  24.723  26.546  1.00  0.00     0.104 C 
ATOM      9  C   UNL A   1      30.741  23.653  25.889  1.00  0.00    -0.006 C 
ATOM     10  C   UNL A   1      33.004  24.305  26.354  1.00  0.00     0.046 C 
ATOM     11  C   UNL A   1      31.514  22.643  25.479  1.00  0.00    -0.016 C 
BRANCH   8  12
ATOM     12  N   UNL A   1      31.241  26.044  26.021  1.00  0.00    -0.363 N 
ATOM     13  H   UNL A   1      30.295  26.309  25.962  1.00  0.00     0.162 HD
BRANCH  12  14
ATOM     14  C   UNL A   1      32.200  26.962  25.594  1.00  0.00     0.139 A 
ATOM     15  C   UNL A   1      34.362  29.434  27.272  1.00  0.00     0.067 C 
ATOM     16  C   UNL A   1      33.746  28.618  26.176  1.00  0.00     0.040 A 
ATOM     17  C   UNL A   1      34.092  28.834  24.854  1.00  0.00     0.028 A 
ATOM     18  N   UNL A   1      32.832  27.696  26.538  1.00  0.00    -0.236 NA
ATOM     19  C   UNL A   1      33.492  28.060  23.852  1.00  0.00    -0.033 A 
ATOM     20  C   UNL A   1      33.901  28.336  22.432  1.00  0.00     0.045 C 
ATOM     21  C   UNL A   1      32.518  27.110  24.229  1.00  0.00     0.084 A 
BRANCH  21  22
ATOM     22  C   UNL A   1      31.809  26.305  23.191  1.00  0.00     0.252 C 
ATOM     23  N   UNL A   1      32.400  25.138  22.794  1.00  0.00    -0.365 N 
ATOM     24  O   UNL A   1      30.739  26.653  22.704  1.00  0.00    -0.269 OA
ATOM     25  H   UNL A   1      33.259  24.862  23.187  1.00  0.00     0.159 HD
ATOM     26  H   UNL A   1      31.965  24.573  22.114  1.00  0.00     0.159 HD
ENDBRANCH  21  22
ENDBRANCH  12  14
ENDBRANCH   8  12
ENDBRANCH   4   7
ENDBRANCH   2   3
ENDBRANCH   1   2
BRANCH   1  27
ATOM     27  C   UNL A   1      36.226  22.359  24.385  1.00  0.00     0.023 C 
BRANCH  27  28
ATOM     28  C   UNL A   1      37.100  23.083  25.405  1.00  0.00     0.116 C 
BRANCH  28  29
ATOM     29  N   UNL A   1      38.194  22.261  25.903  1.00  0.00    -0.352 N 
ATOM     30  C   UNL A   1      39.329  22.630  26.587  1.00  0.00     0.251 C 
ATOM     31  H   UNL A   1      38.109  21.296  25.722  1.00  0.00     0.163 HD
ATOM     32  O   UNL A   1      40.206  21.805  26.808  1.00  0.00    -0.269 OA
BRANCH  30  33
ATOM     33  C   UNL A   1      39.503  24.035  27.019  1.00  0.00     0.039 A 
ATOM     34  C   UNL A   1      39.081  24.403  28.300  1.00  0.00     0.014 A 
ATOM     35  C   UNL A   1      40.112  24.974  26.183  1.00  0.00     0.014 A 
ATOM     36  C   UNL A   1      39.364  25.684  28.779  1.00  0.00     0.010 A 
ATOM     37  C   UNL A   1      40.456  26.225  26.687  1.00  0.00     0.010 A 
ATOM     38  C   UNL A   1      40.104  26.585  27.996  1.00  0.00    -0.014 A 
BRANCH  38  39
ATOM     39  C   UNL A   1      40.582  27.879  28.551  1.00  0.00     0.031 A 
ATOM     40  C   UNL A   1      41.987  28.022  29.061  1.00  0.00     0.074 A 
ATOM     41  C   UNL A   1      39.713  28.902  28.675  1.00  0.00     0.049 A 
ATOM     42  N   UNL A   1      42.550  29.048  29.648  1.00  0.00    -0.248 NA
ATOM     43  C   UNL A   1      42.869  26.854  28.912  1.00  0.00     0.031 C 
ATOM     44  C   UNL A   1      38.312  28.880  28.248  1.00  0.00     0.029 A 
ATOM     45  N   UNL A   1      39.876  30.157  29.207  1.00  0.00    -0.354 N 
ATOM     46  C   UNL A   1      43.845  28.648  29.949  1.00  0.00     0.074 A 
ATOM     47  C   UNL A   1      43.969  27.270  29.522  1.00  0.00     0.031 C 
ATOM     48  C   UNL A   1      37.753  30.072  28.508  1.00  0.00     0.029 A 
ATOM     49  C   UNL A   1      38.737  30.926  29.165  1.00  0.00     0.049 A 
ATOM     50  H   UNL A   1      40.728  30.476  29.583  1.00  0.00     0.167 HD
ATOM     51  C   UNL A   1      44.845  29.365  30.517  1.00  0.00     0.031 A 
ATOM     52  C   UNL A   1      38.501  32.173  29.618  1.00  0.00     0.031 A 
ATOM     53  C   UNL A   1      44.714  30.732  30.950  1.00  0.00     0.049 A 
ATOM     54  C   UNL A   1      39.608  32.930  30.296  1.00  0.00     0.074 A 
ATOM     55  C   UNL A   1      45.685  31.564  31.481  1.00  0.00     0.029 A 
ATOM     56  N   UNL A   1      43.536  31.463  30.919  1.00  0.00    -0.354 N 
ATOM     57  N   UNL A   1      40.848  32.560  30.507  1.00  0.00    -0.248 NA
ATOM     58  C   UNL A   1      39.281  34.271  30.802  1.00  0.00     0.031 C 
ATOM     59  C   UNL A   1      45.079  32.777  31.828  1.00  0.00     0.029 A 
ATOM     60  C   UNL A   1      43.743  32.721  31.463  1.00  0.00     0.049 A 
ATOM     61  H   UNL A   1      42.678  31.136  30.565  1.00  0.00     0.167 HD
ATOM     62  C   UNL A   1      41.455  33.626  31.161  1.00  0.00     0.074 A 
ATOM     63  C   UNL A   1      40.449  34.662  31.294  1.00  0.00     0.031 C 
ATOM     64  C   UNL A   1      42.729  33.735  31.612  1.00  0.00     0.031 A 
BRANCH  51  65
ATOM     65  C   UNL A   1      46.165  28.666  30.718  1.00  0.00    -0.014 A 
ATOM     66  C   UNL A   1      46.376  27.814  31.818  1.00  0.00     0.010 A 
ATOM     67  C   UNL A   1      47.208  28.860  29.795  1.00  0.00     0.010 A 
ATOM     68  C   UNL A   1      47.623  27.220  32.025  1.00  0.00     0.020 A 
ATOM     69  C   UNL A   1      48.449  28.244  29.982  1.00  0.00     0.020 A 
ATOM     70  C   UNL A   1      48.656  27.448  31.111  1.00  0.00     0.054 A 
BRANCH  70  71
ATOM     71  S   UNL A   1      50.272  26.683  31.415  1.00  0.00     0.124 S 
ATOM     72  O   UNL A   1      50.585  26.115  30.106  1.00  0.00    -0.237 OA
ATOM     73  O   UNL A   1      51.096  27.820  31.818  1.00  0.00    -0.237 OA
ATOM     74  O   UNL A   1      50.002  25.709  32.469  1.00  0.00    -0.744 OA
ENDBRANCH  70  71
ENDBRANCH  51  65
BRANCH  52  75
ATOM     75  C   UNL A   1      37.157  32.781  29.429  1.00  0.00    -0.014 A 
ATOM     76  C   UNL A   1      36.172  32.642  30.421  1.00  0.00     0.010 A 
ATOM     77  C   UNL A   1      36.871  33.545  28.281  1.00  0.00     0.010 A 
ATOM     78  C   UNL A   1      34.927  33.261  30.274  1.00  0.00     0.020 A 
ATOM     79  C   UNL A   1      35.637  34.185  28.142  1.00  0.00     0.020 A 
ATOM     80  C   UNL A   1      34.671  34.036  29.139  1.00  0.00     0.054 A 
BRANCH  80  81
ATOM     81  S   UNL A   1      33.081  34.902  29.016  1.00  0.00     0.124 S 
ATOM     82  O   UNL A   1      32.617  34.887  30.399  1.00  0.00    -0.237 OA
ATOM     83  O   UNL A   1      33.474  36.209  28.495  1.00  0.00    -0.237 OA
ATOM     84  O   UNL A   1      32.313  34.075  28.087  1.00  0.00    -0.744 OA
ENDBRANCH  80  81
ENDBRANCH  52  75
BRANCH  64  85
ATOM     85  C   UNL A   1      43.112  35.017  32.300  1.00  0.00    -0.014 A 
ATOM     86  C   UNL A   1      43.755  36.049  31.594  1.00  0.00     0.010 A 
ATOM     87  C   UNL A   1      42.771  35.217  33.650  1.00  0.00     0.010 A 
ATOM     88  C   UNL A   1      44.064  37.254  32.230  1.00  0.00     0.020 A 
ATOM     89  C   UNL A   1      43.055  36.431  34.283  1.00  0.00     0.020 A 
ATOM     90  C   UNL A   1      43.708  37.439  33.570  1.00  0.00     0.054 A 
BRANCH  90  91
ATOM     91  S   UNL A   1      44.064  39.037  34.354  1.00  0.00     0.124 S 
ATOM     92  O   UNL A   1      45.323  39.414  33.718  1.00  0.00    -0.237 OA
ATOM     93  O   UNL A   1      42.905  39.843  33.978  1.00  0.00    -0.237 OA
ATOM     94  O   UNL A   1      44.155  38.712  35.775  1.00  0.00    -0.744 OA
ENDBRANCH  90  91
ENDBRANCH  64  85
ENDBRANCH  38  39
ENDBRANCH  30  33
ENDBRANCH  28  29
ENDBRANCH  27  28
ENDBRANCH   1  27
TORSDOF 17
ENDMDL
MODEL 3
REMARK VINA RESULT:     -11.1      2.542      9.470
REMARK SMILES Cc1cc(C)c(C(N)=O)c(N[C@H]2C=C[C@H](C(=O)NCCCCNC(=O)c3ccc(-c4c5nc(c(-c6ccc(S(=O)(=O)[O-])cc6)c6ccc([nH]6)c(-c6ccc(S(=O)(=O)[O-])cc6)c6nc(c(-c7ccc(S(=O)(=O)[O-])cc7)c7ccc4[nH]7)C=C6)C=C5)cc3)C2)n1
REMARK SMILES IDX 20 1 19 2 18 3 16 4 17 5 15 7 12 8 13 9 86 10 14 11 11 12
REMARK SMILES IDX 10 14 1 15 2 16 3 17 87 18 4 19 5 20 6 21 7 22 8 23 9 24
REMARK SMILES IDX 21 27 22 28 23 29 24 30 25 32 26 33 27 34 85 35 28 36 84 37
REMARK SMILES IDX 29 38 30 39 31 40 78 41 32 42 83 43 77 44 79 45 33 46 82 47
REMARK SMILES IDX 76 48 75 49 34 51 64 52 45 53 63 54 46 55 49 56 62 57 80 58
REMARK SMILES IDX 47 59 48 60 61 62 81 63 50 64 35 65 36 66 44 67 37 68 43 69
REMARK SMILES IDX 38 70 39 71 40 72 41 73 42 74 65 75 66 76 74 77 67 78 73 79
REMARK SMILES IDX 68 80 69 81 70 82 71 83 72 84 51 85 52 86 60 87 53 88 59 89
REMARK SMILES IDX 54 90 55 91 56 92 57 93 58 94
REMARK H PARENT 18 6 11 13 8 25 8 26 23 31 79 50 49 61
REMARK Flexibility Score: inf
ROOT
ATOM      1  C   UNL A   1      31.551  29.573  25.256  1.00  0.00     0.023 C 
ENDROOT
BRANCH   1   2
ATOM      2  C   UNL A   1      31.269  28.876  23.930  1.00  0.00     0.116 C 
BRANCH   2   3
ATOM      3  N   UNL A   1      32.455  28.726  23.109  1.00  0.00    -0.356 N 
ATOM      4  C   UNL A   1      33.103  27.576  22.748  1.00  0.00     0.227 C 
ATOM      5  O   UNL A   1      34.003  27.652  21.911  1.00  0.00    -0.274 OA
ATOM      6  H   UNL A   1      32.847  29.561  22.766  1.00  0.00     0.163 HD
BRANCH   4   7
ATOM      7  C   UNL A   1      32.674  26.258  23.392  1.00  0.00     0.103 C 
ATOM      8  C   UNL A   1      34.358  24.847  24.484  1.00  0.00     0.104 C 
ATOM      9  C   UNL A   1      34.018  24.335  23.126  1.00  0.00    -0.006 C 
ATOM     10  C   UNL A   1      33.384  26.002  24.733  1.00  0.00     0.046 C 
ATOM     11  C   UNL A   1      33.103  25.104  22.528  1.00  0.00    -0.016 C 
BRANCH   8  12
ATOM     12  N   UNL A   1      34.300  23.807  25.498  1.00  0.00    -0.363 N 
ATOM     13  H   UNL A   1      34.053  24.072  26.413  1.00  0.00     0.162 HD
BRANCH  12  14
ATOM     14  C   UNL A   1      34.574  22.460  25.264  1.00  0.00     0.139 A 
ATOM     15  C   UNL A   1      32.521  19.428  24.831  1.00  0.00     0.067 C 
ATOM     16  C   UNL A   1      33.732  20.304  24.922  1.00  0.00     0.040 A 
ATOM     17  C   UNL A   1      35.004  19.765  24.831  1.00  0.00     0.028 A 
ATOM     18  N   UNL A   1      33.523  21.621  25.120  1.00  0.00    -0.236 NA
ATOM     19  C   UNL A   1      36.116  20.611  24.928  1.00  0.00    -0.033 A 
ATOM     20  C   UNL A   1      37.475  19.976  24.825  1.00  0.00     0.045 C 
ATOM     21  C   UNL A   1      35.898  21.987  25.159  1.00  0.00     0.084 A 
BRANCH  21  22
ATOM     22  C   UNL A   1      37.053  22.916  25.329  1.00  0.00     0.252 C 
ATOM     23  N   UNL A   1      37.686  22.911  26.542  1.00  0.00    -0.365 N 
ATOM     24  O   UNL A   1      37.440  23.659  24.434  1.00  0.00    -0.269 OA
ATOM     25  H   UNL A   1      37.371  22.313  27.258  1.00  0.00     0.159 HD
ATOM     26  H   UNL A   1      38.455  23.505  26.698  1.00  0.00     0.159 HD
ENDBRANCH  21  22
ENDBRANCH  12  14
ENDBRANCH   8  12
ENDBRANCH   4   7
ENDBRANCH   2   3
ENDBRANCH   1   2
BRANCH   1  27
ATOM     27  C   UNL A   1      31.948  28.652  26.410  1.00  0.00     0.023 C 
BRANCH  27  28
ATOM     28  C   UNL A   1      33.247  29.015  27.125  1.00  0.00     0.116 C 
BRANCH  28  29
ATOM     29  N   UNL A   1      33.282  30.399  27.576  1.00  0.00    -0.352 N 
ATOM     30  C   UNL A   1      34.285  31.087  28.219  1.00  0.00     0.251 C 
ATOM     31  H   UNL A   1      32.467  30.920  27.394  1.00  0.00     0.163 HD
ATOM     32  O   UNL A   1      34.077  32.218  28.640  1.00  0.00    -0.269 OA
BRANCH  30  33
ATOM     33  C   UNL A   1      35.599  30.441  28.436  1.00  0.00     0.039 A 
ATOM     34  C   UNL A   1      36.536  30.457  27.399  1.00  0.00     0.014 A 
ATOM     35  C   UNL A   1      35.919  29.858  29.664  1.00  0.00     0.014 A 
ATOM     36  C   UNL A   1      37.829  29.981  27.630  1.00  0.00     0.010 A 
ATOM     37  C   UNL A   1      37.227  29.450  29.914  1.00  0.00     0.010 A 
ATOM     38  C   UNL A   1      38.199  29.527  28.906  1.00  0.00    -0.014 A 
BRANCH  38  39
ATOM     39  C   UNL A   1      39.612  29.196  29.228  1.00  0.00     0.031 A 
ATOM     40  C   UNL A   1      40.523  30.227  29.831  1.00  0.00     0.074 A 
ATOM     41  C   UNL A   1      40.097  27.984  28.890  1.00  0.00     0.049 A 
ATOM     42  N   UNL A   1      41.800  30.138  30.105  1.00  0.00    -0.248 NA
ATOM     43  C   UNL A   1      39.926  31.532  30.151  1.00  0.00     0.031 C 
ATOM     44  C   UNL A   1      39.324  26.906  28.268  1.00  0.00     0.029 A 
ATOM     45  N   UNL A   1      41.359  27.458  29.011  1.00  0.00    -0.354 N 
ATOM     46  C   UNL A   1      42.164  31.377  30.616  1.00  0.00     0.074 A 
ATOM     47  C   UNL A   1      40.983  32.213  30.571  1.00  0.00     0.031 C 
ATOM     48  C   UNL A   1      40.120  25.840  28.089  1.00  0.00     0.029 A 
ATOM     49  C   UNL A   1      41.469  26.173  28.535  1.00  0.00     0.049 A 
ATOM     50  H   UNL A   1      42.114  27.954  29.402  1.00  0.00     0.167 HD
ATOM     51  C   UNL A   1      43.367  31.779  31.092  1.00  0.00     0.031 A 
ATOM     52  C   UNL A   1      42.536  25.355  28.449  1.00  0.00     0.031 A 
ATOM     53  C   UNL A   1      44.542  30.947  31.125  1.00  0.00     0.049 A 
ATOM     54  C   UNL A   1      43.875  25.841  28.930  1.00  0.00     0.074 A 
ATOM     55  C   UNL A   1      45.792  31.242  31.643  1.00  0.00     0.029 A 
ATOM     56  N   UNL A   1      44.619  29.664  30.604  1.00  0.00    -0.354 N 
ATOM     57  N   UNL A   1      44.183  26.992  29.478  1.00  0.00    -0.248 NA
ATOM     58  C   UNL A   1      45.009  24.920  28.777  1.00  0.00     0.031 C 
ATOM     59  C   UNL A   1      46.640  30.160  31.379  1.00  0.00     0.029 A 
ATOM     60  C   UNL A   1      45.906  29.170  30.746  1.00  0.00     0.049 A 
ATOM     61  H   UNL A   1      43.870  29.177  30.191  1.00  0.00     0.167 HD
ATOM     62  C   UNL A   1      45.546  26.931  29.744  1.00  0.00     0.074 A 
ATOM     63  C   UNL A   1      45.997  25.621  29.316  1.00  0.00     0.031 C 
ATOM     64  C   UNL A   1      46.349  27.874  30.294  1.00  0.00     0.031 A 
BRANCH  51  65
ATOM     65  C   UNL A   1      43.470  33.195  31.596  1.00  0.00    -0.014 A 
ATOM     66  C   UNL A   1      43.913  34.235  30.759  1.00  0.00     0.010 A 
ATOM     67  C   UNL A   1      43.115  33.492  32.925  1.00  0.00     0.010 A 
ATOM     68  C   UNL A   1      44.061  35.532  31.257  1.00  0.00     0.020 A 
ATOM     69  C   UNL A   1      43.232  34.795  33.419  1.00  0.00     0.020 A 
ATOM     70  C   UNL A   1      43.730  35.802  32.588  1.00  0.00     0.054 A 
BRANCH  70  71
ATOM     71  S   UNL A   1      43.951  37.489  33.216  1.00  0.00     0.124 S 
ATOM     72  O   UNL A   1      42.847  37.601  34.166  1.00  0.00    -0.237 OA
ATOM     73  O   UNL A   1      45.285  37.440  33.807  1.00  0.00    -0.237 OA
ATOM     74  O   UNL A   1      43.832  38.322  32.022  1.00  0.00    -0.744 OA
ENDBRANCH  70  71
ENDBRANCH  51  65
BRANCH  52  75
ATOM     75  C   UNL A   1      42.370  23.986  27.892  1.00  0.00    -0.014 A 
ATOM     76  C   UNL A   1      42.430  23.775  26.504  1.00  0.00     0.010 A 
ATOM     77  C   UNL A   1      42.202  22.880  28.748  1.00  0.00     0.010 A 
ATOM     78  C   UNL A   1      42.333  22.483  25.980  1.00  0.00     0.020 A 
ATOM     79  C   UNL A   1      42.130  21.585  28.228  1.00  0.00     0.020 A 
ATOM     80  C   UNL A   1      42.193  21.395  26.846  1.00  0.00     0.054 A 
BRANCH  80  81
ATOM     81  S   UNL A   1      42.161  19.721  26.146  1.00  0.00     0.124 S 
ATOM     82  O   UNL A   1      40.766  19.588  25.739  1.00  0.00    -0.237 OA
ATOM     83  O   UNL A   1      43.131  19.816  25.059  1.00  0.00    -0.237 OA
ATOM     84  O   UNL A   1      42.571  18.875  27.265  1.00  0.00    -0.744 OA
ENDBRANCH  80  81
ENDBRANCH  52  75
BRANCH  64  85
ATOM     85  C   UNL A   1      47.806  27.533  30.458  1.00  0.00    -0.014 A 
ATOM     86  C   UNL A   1      48.255  26.820  31.583  1.00  0.00     0.010 A 
ATOM     87  C   UNL A   1      48.724  27.873  29.449  1.00  0.00     0.010 A 
ATOM     88  C   UNL A   1      49.602  26.466  31.703  1.00  0.00     0.020 A 
ATOM     89  C   UNL A   1      50.066  27.499  29.553  1.00  0.00     0.020 A 
ATOM     90  C   UNL A   1      50.499  26.805  30.685  1.00  0.00     0.054 A 
BRANCH  90  91
ATOM     91  S   UNL A   1      52.228  26.277  30.836  1.00  0.00     0.124 S 
ATOM     92  O   UNL A   1      52.828  27.401  31.549  1.00  0.00    -0.237 OA
ATOM     93  O   UNL A   1      52.119  25.036  31.598  1.00  0.00    -0.237 OA
ATOM     94  O   UNL A   1      52.663  26.115  29.450  1.00  0.00    -0.744 OA
ENDBRANCH  90  91
ENDBRANCH  64  85
ENDBRANCH  38  39
ENDBRANCH  30  33
ENDBRANCH  28  29
ENDBRANCH  27  28
ENDBRANCH   1  27
TORSDOF 17
ENDMDL
