MODEL 1
REMARK VINA RESULT:     -13.0      0.000      0.000
REMARK SMILES O=C1C[C@H](C(=O)NCCCCNC(=O)c2ccc(-c3c4nc(c(-c5ccc(S(=O)(=O)[O-])cc5)c5ccc([nH]5)c(-c5ccc(S(=O)(=O)[O-])cc5)c5nc(c(-c6ccc(S(=O)(=O)[O-])cc6)c6ccc3[nH]6)C=C5)C=C4)cc2)c2c(nc(Nc3ccc(Oc4ccccc4)cc3)[nH]c2=O)N1
REMARK SMILES IDX 9 1 8 2 7 3 5 4 6 5 4 7 1 8 2 9 3 10 96 11 76 12 75 14 77 15
REMARK SMILES IDX 94 16 78 17 93 18 95 19 79 21 80 23 81 24 92 25 82 26 91 27
REMARK SMILES IDX 83 28 84 29 85 30 86 31 90 32 87 33 89 34 88 35 10 36 11 37
REMARK SMILES IDX 12 38 13 39 14 41 15 42 16 43 74 44 17 45 73 46 18 47 19 48
REMARK SMILES IDX 20 49 67 50 21 51 72 52 66 53 68 54 22 55 71 56 65 57 64 58
REMARK SMILES IDX 23 60 53 61 34 62 52 63 35 64 38 65 51 66 69 67 36 68 37 69
REMARK SMILES IDX 50 71 70 72 39 73 24 74 25 75 33 76 26 77 32 78 27 79 28 80
REMARK SMILES IDX 29 81 30 82 31 83 54 84 55 85 63 86 56 87 62 88 57 89 58 90
REMARK SMILES IDX 59 91 60 92 61 93 40 94 41 95 49 96 42 97 48 98 43 99 44 100
REMARK SMILES IDX 45 101 46 102 47 103
REMARK H PARENT 7 6 96 13 93 20 79 22 12 40 68 59 38 70
REMARK Flexibility Score: inf
ROOT
ATOM      1  C   UNL A   1      39.318  21.720  25.997  1.00  0.00     0.023 C 
ENDROOT
BRANCH   1   2
ATOM      2  C   UNL A   1      37.968  21.802  25.292  1.00  0.00     0.116 C 
BRANCH   2   3
ATOM      3  N   UNL A   1      36.867  21.791  26.238  1.00  0.00    -0.356 N 
ATOM      4  C   UNL A   1      35.540  21.536  26.060  1.00  0.00     0.228 C 
ATOM      5  O   UNL A   1      34.786  21.723  27.018  1.00  0.00    -0.274 OA
ATOM      6  H   UNL A   1      37.122  22.003  27.164  1.00  0.00     0.163 HD
BRANCH   4   7
ATOM      7  C   UNL A   1      34.977  21.090  24.710  1.00  0.00     0.127 C 
ATOM      8  O   UNL A   1      32.624  18.328  23.929  1.00  0.00    -0.275 OA
ATOM      9  C   UNL A   1      33.088  19.457  24.084  1.00  0.00     0.226 C 
ATOM     10  C   UNL A   1      34.366  19.690  24.853  1.00  0.00     0.119 C 
ATOM     11  N   UNL A   1      32.422  20.550  23.624  1.00  0.00    -0.310 N 
ATOM     12  C   UNL A   1      32.856  21.837  23.657  1.00  0.00     0.146 A 
ATOM     13  H   UNL A   1      31.535  20.394  23.227  1.00  0.00     0.171 HD
ATOM     14  C   UNL A   1      34.068  22.128  24.132  1.00  0.00     0.073 A 
ATOM     15  N   UNL A   1      31.963  22.734  23.174  1.00  0.00    -0.196 NA
ATOM     16  C   UNL A   1      34.465  23.545  24.061  1.00  0.00     0.258 A 
ATOM     17  C   UNL A   1      32.290  23.989  23.145  1.00  0.00     0.209 A 
ATOM     18  N   UNL A   1      33.517  24.401  23.583  1.00  0.00    -0.292 N 
ATOM     19  O   UNL A   1      35.576  23.942  24.391  1.00  0.00    -0.269 OA
ATOM     20  H   UNL A   1      33.727  25.363  23.551  1.00  0.00     0.173 HD
BRANCH  17  21
ATOM     21  N   UNL A   1      31.459  24.963  22.654  1.00  0.00    -0.326 N 
ATOM     22  H   UNL A   1      30.916  24.763  21.858  1.00  0.00     0.170 HD
BRANCH  21  23
ATOM     23  C   UNL A   1      31.352  26.235  23.240  1.00  0.00     0.041 A 
ATOM     24  C   UNL A   1      30.954  26.367  24.574  1.00  0.00     0.030 A 
ATOM     25  C   UNL A   1      31.778  27.375  22.548  1.00  0.00     0.030 A 
ATOM     26  C   UNL A   1      31.001  27.614  25.207  1.00  0.00     0.049 A 
ATOM     27  C   UNL A   1      31.812  28.621  23.172  1.00  0.00     0.049 A 
ATOM     28  C   UNL A   1      31.426  28.746  24.508  1.00  0.00     0.127 A 
BRANCH  28  29
ATOM     29  O   UNL A   1      31.469  29.921  25.234  1.00  0.00    -0.457 OA
BRANCH  29  30
ATOM     30  C   UNL A   1      32.564  30.114  26.041  1.00  0.00     0.127 A 
ATOM     31  C   UNL A   1      32.578  31.205  26.909  1.00  0.00     0.047 A 
ATOM     32  C   UNL A   1      33.635  29.220  25.995  1.00  0.00     0.047 A 
ATOM     33  C   UNL A   1      33.650  31.366  27.787  1.00  0.00     0.004 A 
ATOM     34  C   UNL A   1      34.700  29.381  26.878  1.00  0.00     0.004 A 
ATOM     35  C   UNL A   1      34.703  30.448  27.779  1.00  0.00     0.000 A 
ENDBRANCH  29  30
ENDBRANCH  28  29
ENDBRANCH  21  23
ENDBRANCH  17  21
ENDBRANCH   4   7
ENDBRANCH   2   3
ENDBRANCH   1   2
BRANCH   1  36
ATOM     36  C   UNL A   1      39.497  22.723  27.136  1.00  0.00     0.023 C 
BRANCH  36  37
ATOM     37  C   UNL A   1      40.897  23.312  27.250  1.00  0.00     0.116 C 
BRANCH  37  38
ATOM     38  N   UNL A   1      41.260  24.114  26.090  1.00  0.00    -0.352 N 
ATOM     39  C   UNL A   1      41.351  25.482  25.999  1.00  0.00     0.251 C 
ATOM     40  H   UNL A   1      41.467  23.613  25.268  1.00  0.00     0.163 HD
ATOM     41  O   UNL A   1      41.527  26.031  24.918  1.00  0.00    -0.269 OA
BRANCH  39  42
ATOM     42  C   UNL A   1      41.209  26.275  27.234  1.00  0.00     0.039 A 
ATOM     43  C   UNL A   1      42.189  27.215  27.554  1.00  0.00     0.014 A 
ATOM     44  C   UNL A   1      40.063  26.133  28.023  1.00  0.00     0.014 A 
ATOM     45  C   UNL A   1      41.989  28.064  28.642  1.00  0.00     0.010 A 
ATOM     46  C   UNL A   1      39.839  27.020  29.068  1.00  0.00     0.010 A 
ATOM     47  C   UNL A   1      40.802  27.988  29.389  1.00  0.00    -0.014 A 
BRANCH  47  48
ATOM     48  C   UNL A   1      40.566  28.891  30.539  1.00  0.00     0.031 A 
ATOM     49  C   UNL A   1      41.423  28.761  31.765  1.00  0.00     0.074 A 
ATOM     50  C   UNL A   1      39.572  29.798  30.495  1.00  0.00     0.049 A 
ATOM     51  N   UNL A   1      41.362  29.433  32.885  1.00  0.00    -0.248 NA
ATOM     52  C   UNL A   1      42.479  27.734  31.736  1.00  0.00     0.031 C 
ATOM     53  C   UNL A   1      38.665  30.007  29.364  1.00  0.00     0.029 A 
ATOM     54  N   UNL A   1      39.160  30.718  31.426  1.00  0.00    -0.354 N 
ATOM     55  C   UNL A   1      42.370  28.915  33.687  1.00  0.00     0.074 A 
ATOM     56  C   UNL A   1      42.991  27.836  32.953  1.00  0.00     0.031 C 
ATOM     57  C   UNL A   1      37.826  31.015  29.656  1.00  0.00     0.029 A 
ATOM     58  C   UNL A   1      38.112  31.500  31.004  1.00  0.00     0.049 A 
ATOM     59  H   UNL A   1      39.577  30.809  32.314  1.00  0.00     0.167 HD
ATOM     60  C   UNL A   1      42.760  29.319  34.917  1.00  0.00     0.031 A 
ATOM     61  C   UNL A   1      37.458  32.500  31.628  1.00  0.00     0.031 A 
ATOM     62  C   UNL A   1      42.146  30.395  35.644  1.00  0.00     0.049 A 
ATOM     63  C   UNL A   1      37.879  32.902  33.015  1.00  0.00     0.074 A 
ATOM     64  C   UNL A   1      42.489  30.894  36.887  1.00  0.00     0.029 A 
ATOM     65  N   UNL A   1      41.065  31.137  35.194  1.00  0.00    -0.354 N 
ATOM     66  N   UNL A   1      38.849  32.414  33.751  1.00  0.00    -0.248 NA
ATOM     67  C   UNL A   1      37.125  33.990  33.653  1.00  0.00     0.031 C 
ATOM     68  C   UNL A   1      41.588  31.912  37.209  1.00  0.00     0.029 A 
ATOM     69  C   UNL A   1      40.717  32.082  36.143  1.00  0.00     0.049 A 
ATOM     70  H   UNL A   1      40.614  31.012  34.328  1.00  0.00     0.167 HD
ATOM     71  C   UNL A   1      38.836  33.150  34.930  1.00  0.00     0.074 A 
ATOM     72  C   UNL A   1      37.764  34.117  34.810  1.00  0.00     0.031 C 
ATOM     73  C   UNL A   1      39.647  33.036  36.010  1.00  0.00     0.031 A 
BRANCH  60  74
ATOM     74  C   UNL A   1      43.919  28.603  35.550  1.00  0.00    -0.014 A 
ATOM     75  C   UNL A   1      43.704  27.475  36.361  1.00  0.00     0.010 A 
ATOM     76  C   UNL A   1      45.234  29.022  35.284  1.00  0.00     0.010 A 
ATOM     77  C   UNL A   1      44.787  26.787  36.912  1.00  0.00     0.020 A 
ATOM     78  C   UNL A   1      46.321  28.321  35.814  1.00  0.00     0.020 A 
ATOM     79  C   UNL A   1      46.089  27.210  36.629  1.00  0.00     0.054 A 
BRANCH  79  80
ATOM     80  S   UNL A   1      47.472  26.276  37.338  1.00  0.00     0.124 S 
ATOM     81  O   UNL A   1      48.610  27.141  37.039  1.00  0.00    -0.237 OA
ATOM     82  O   UNL A   1      47.101  26.189  38.747  1.00  0.00    -0.237 OA
ATOM     83  O   UNL A   1      47.449  25.011  36.607  1.00  0.00    -0.744 OA
ENDBRANCH  79  80
ENDBRANCH  60  74
BRANCH  61  84
ATOM     84  C   UNL A   1      36.360  33.208  30.920  1.00  0.00    -0.014 A 
ATOM     85  C   UNL A   1      35.095  33.329  31.518  1.00  0.00     0.010 A 
ATOM     86  C   UNL A   1      36.591  33.821  29.675  1.00  0.00     0.010 A 
ATOM     87  C   UNL A   1      34.082  34.060  30.891  1.00  0.00     0.020 A 
ATOM     88  C   UNL A   1      35.586  34.569  29.053  1.00  0.00     0.020 A 
ATOM     89  C   UNL A   1      34.339  34.688  29.669  1.00  0.00     0.054 A 
BRANCH  89  90
ATOM     90  S   UNL A   1      33.027  35.692  28.918  1.00  0.00     0.124 S 
ATOM     91  O   UNL A   1      33.789  36.717  28.210  1.00  0.00    -0.237 OA
ATOM     92  O   UNL A   1      32.341  34.717  28.075  1.00  0.00    -0.237 OA
ATOM     93  O   UNL A   1      32.258  36.168  30.066  1.00  0.00    -0.744 OA
ENDBRANCH  89  90
ENDBRANCH  61  84
BRANCH  73  94
ATOM     94  C   UNL A   1      39.436  33.984  37.156  1.00  0.00    -0.014 A 
ATOM     95  C   UNL A   1      38.794  33.563  38.333  1.00  0.00     0.010 A 
ATOM     96  C   UNL A   1      40.006  35.270  37.104  1.00  0.00     0.010 A 
ATOM     97  C   UNL A   1      38.727  34.414  39.440  1.00  0.00     0.020 A 
ATOM     98  C   UNL A   1      39.960  36.114  38.215  1.00  0.00     0.020 A 
ATOM     99  C   UNL A   1      39.322  35.678  39.378  1.00  0.00     0.054 A 
BRANCH  99 100
ATOM    100  S   UNL A   1      39.279  36.728  40.856  1.00  0.00     0.124 S 
ATOM    101  O   UNL A   1      38.427  35.958  41.757  1.00  0.00    -0.237 OA
ATOM    102  O   UNL A   1      40.689  36.798  41.231  1.00  0.00    -0.237 OA
ATOM    103  O   UNL A   1      38.701  37.982  40.378  1.00  0.00    -0.744 OA
ENDBRANCH  99 100
ENDBRANCH  73  94
ENDBRANCH  47  48
ENDBRANCH  39  42
ENDBRANCH  37  38
ENDBRANCH  36  37
ENDBRANCH   1  36
TORSDOF 18
ENDMDL
MODEL 2
REMARK VINA RESULT:     -12.8      0.430      7.779
REMARK SMILES O=C1C[C@H](C(=O)NCCCCNC(=O)c2ccc(-c3c4nc(c(-c5ccc(S(=O)(=O)[O-])cc5)c5ccc([nH]5)c(-c5ccc(S(=O)(=O)[O-])cc5)c5nc(c(-c6ccc(S(=O)(=O)[O-])cc6)c6ccc3[nH]6)C=C5)C=C4)cc2)c2c(nc(Nc3ccc(Oc4ccccc4)cc3)[nH]c2=O)N1
REMARK SMILES IDX 9 1 8 2 7 3 5 4 6 5 4 7 1 8 2 9 3 10 96 11 76 12 75 14 77 15
REMARK SMILES IDX 94 16 78 17 93 18 95 19 79 21 80 23 81 24 92 25 82 26 91 27
REMARK SMILES IDX 83 28 84 29 85 30 86 31 90 32 87 33 89 34 88 35 10 36 11 37
REMARK SMILES IDX 12 38 13 39 14 41 15 42 16 43 74 44 17 45 73 46 18 47 19 48
REMARK SMILES IDX 20 49 67 50 21 51 72 52 66 53 68 54 22 55 71 56 65 57 64 58
REMARK SMILES IDX 23 60 53 61 34 62 52 63 35 64 38 65 51 66 69 67 36 68 37 69
REMARK SMILES IDX 50 71 70 72 39 73 24 74 25 75 33 76 26 77 32 78 27 79 28 80
REMARK SMILES IDX 29 81 30 82 31 83 54 84 55 85 63 86 56 87 62 88 57 89 58 90
REMARK SMILES IDX 59 91 60 92 61 93 40 94 41 95 49 96 42 97 48 98 43 99 44 100
REMARK SMILES IDX 45 101 46 102 47 103
REMARK H PARENT 7 6 96 13 93 20 79 22 12 40 68 59 38 70
REMARK Flexibility Score: inf
ROOT
ATOM      1  C   UNL A   1      39.088  21.838  25.895  1.00  0.00     0.023 C 
ENDROOT
BRANCH   1   2
ATOM      2  C   UNL A   1      37.769  21.443  25.240  1.00  0.00     0.116 C 
BRANCH   2   3
ATOM      3  N   UNL A   1      36.665  21.495  26.181  1.00  0.00    -0.356 N 
ATOM      4  C   UNL A   1      35.322  21.366  25.989  1.00  0.00     0.228 C 
ATOM      5  O   UNL A   1      34.581  21.584  26.951  1.00  0.00    -0.274 OA
ATOM      6  H   UNL A   1      36.932  21.649  27.116  1.00  0.00     0.163 HD
BRANCH   4   7
ATOM      7  C   UNL A   1      34.730  21.023  24.622  1.00  0.00     0.127 C 
ATOM      8  O   UNL A   1      32.176  18.485  23.724  1.00  0.00    -0.275 OA
ATOM      9  C   UNL A   1      32.724  19.567  23.927  1.00  0.00     0.226 C 
ATOM     10  C   UNL A   1      34.014  19.669  24.704  1.00  0.00     0.119 C 
ATOM     11  N   UNL A   1      32.144  20.727  23.516  1.00  0.00    -0.310 N 
ATOM     12  C   UNL A   1      32.674  21.974  23.604  1.00  0.00     0.146 A 
ATOM     13  H   UNL A   1      31.248  20.656  23.113  1.00  0.00     0.171 HD
ATOM     14  C   UNL A   1      33.904  22.151  24.090  1.00  0.00     0.073 A 
ATOM     15  N   UNL A   1      31.853  22.956  23.161  1.00  0.00    -0.196 NA
ATOM     16  C   UNL A   1      34.408  23.536  24.080  1.00  0.00     0.258 A 
ATOM     17  C   UNL A   1      32.274  24.183  23.186  1.00  0.00     0.209 A 
ATOM     18  N   UNL A   1      33.528  24.482  23.640  1.00  0.00    -0.292 N 
ATOM     19  O   UNL A   1      35.544  23.833  24.427  1.00  0.00    -0.269 OA
ATOM     20  H   UNL A   1      33.811  25.425  23.650  1.00  0.00     0.173 HD
BRANCH  17  21
ATOM     21  N   UNL A   1      31.522  25.238  22.739  1.00  0.00    -0.326 N 
ATOM     22  H   UNL A   1      30.957  25.110  21.943  1.00  0.00     0.170 HD
BRANCH  21  23
ATOM     23  C   UNL A   1      31.523  26.493  23.369  1.00  0.00     0.041 A 
ATOM     24  C   UNL A   1      31.047  26.627  24.677  1.00  0.00     0.030 A 
ATOM     25  C   UNL A   1      32.130  27.596  22.757  1.00  0.00     0.030 A 
ATOM     26  C   UNL A   1      31.194  27.837  25.364  1.00  0.00     0.049 A 
ATOM     27  C   UNL A   1      32.265  28.807  23.434  1.00  0.00     0.049 A 
ATOM     28  C   UNL A   1      31.800  28.932  24.745  1.00  0.00     0.127 A 
BRANCH  28  29
ATOM     29  O   UNL A   1      31.929  30.068  25.521  1.00  0.00    -0.457 OA
BRANCH  29  30
ATOM     30  C   UNL A   1      33.034  30.145  26.331  1.00  0.00     0.127 A 
ATOM     31  C   UNL A   1      33.172  31.241  27.182  1.00  0.00     0.047 A 
ATOM     32  C   UNL A   1      33.994  29.132  26.307  1.00  0.00     0.047 A 
ATOM     33  C   UNL A   1      34.251  31.291  28.064  1.00  0.00     0.004 A 
ATOM     34  C   UNL A   1      35.067  29.183  27.194  1.00  0.00     0.004 A 
ATOM     35  C   UNL A   1      35.190  30.256  28.079  1.00  0.00     0.000 A 
ENDBRANCH  29  30
ENDBRANCH  28  29
ENDBRANCH  21  23
ENDBRANCH  17  21
ENDBRANCH   4   7
ENDBRANCH   2   3
ENDBRANCH   1   2
BRANCH   1  36
ATOM     36  C   UNL A   1      38.999  23.060  26.807  1.00  0.00     0.023 C 
BRANCH  36  37
ATOM     37  C   UNL A   1      40.342  23.665  27.193  1.00  0.00     0.116 C 
BRANCH  37  38
ATOM     38  N   UNL A   1      41.012  24.299  26.067  1.00  0.00    -0.352 N 
ATOM     39  C   UNL A   1      41.323  25.628  25.902  1.00  0.00     0.251 C 
ATOM     40  H   UNL A   1      41.277  23.701  25.331  1.00  0.00     0.163 HD
ATOM     41  O   UNL A   1      41.758  26.046  24.836  1.00  0.00    -0.269 OA
BRANCH  39  42
ATOM     42  C   UNL A   1      41.096  26.543  27.036  1.00  0.00     0.039 A 
ATOM     43  C   UNL A   1      40.057  26.275  27.928  1.00  0.00     0.014 A 
ATOM     44  C   UNL A   1      41.968  27.616  27.247  1.00  0.00     0.014 A 
ATOM     45  C   UNL A   1      39.927  27.056  29.076  1.00  0.00     0.010 A 
ATOM     46  C   UNL A   1      41.873  28.353  28.421  1.00  0.00     0.010 A 
ATOM     47  C   UNL A   1      40.849  28.082  29.342  1.00  0.00    -0.014 A 
BRANCH  47  48
ATOM     48  C   UNL A   1      40.735  28.912  30.563  1.00  0.00     0.031 A 
ATOM     49  C   UNL A   1      39.696  29.993  30.624  1.00  0.00     0.074 A 
ATOM     50  C   UNL A   1      41.577  28.716  31.595  1.00  0.00     0.049 A 
ATOM     51  N   UNL A   1      39.452  30.845  31.586  1.00  0.00    -0.248 NA
ATOM     52  C   UNL A   1      38.826  30.150  29.446  1.00  0.00     0.031 C 
ATOM     53  C   UNL A   1      42.636  27.704  31.645  1.00  0.00     0.029 A 
ATOM     54  N   UNL A   1      41.672  29.356  32.805  1.00  0.00    -0.354 N 
ATOM     55  C   UNL A   1      38.401  31.630  31.132  1.00  0.00     0.074 A 
ATOM     56  C   UNL A   1      38.090  31.196  29.789  1.00  0.00     0.031 C 
ATOM     57  C   UNL A   1      43.250  27.772  32.839  1.00  0.00     0.029 A 
ATOM     58  C   UNL A   1      42.654  28.850  33.623  1.00  0.00     0.049 A 
ATOM     59  H   UNL A   1      41.091  30.108  33.062  1.00  0.00     0.167 HD
ATOM     60  C   UNL A   1      37.736  32.609  31.787  1.00  0.00     0.031 A 
ATOM     61  C   UNL A   1      43.029  29.210  34.867  1.00  0.00     0.031 A 
ATOM     62  C   UNL A   1      38.043  33.036  33.124  1.00  0.00     0.049 A 
ATOM     63  C   UNL A   1      42.306  30.333  35.558  1.00  0.00     0.074 A 
ATOM     64  C   UNL A   1      37.408  34.003  33.880  1.00  0.00     0.029 A 
ATOM     65  N   UNL A   1      39.067  32.520  33.902  1.00  0.00    -0.354 N 
ATOM     66  N   UNL A   1      41.300  31.052  35.121  1.00  0.00    -0.248 NA
ATOM     67  C   UNL A   1      42.763  30.691  36.908  1.00  0.00     0.031 C 
ATOM     68  C   UNL A   1      38.076  34.105  35.103  1.00  0.00     0.029 A 
ATOM     69  C   UNL A   1      39.093  33.163  35.127  1.00  0.00     0.049 A 
ATOM     70  H   UNL A   1      39.684  31.804  33.626  1.00  0.00     0.167 HD
ATOM     71  C   UNL A   1      40.988  31.932  36.150  1.00  0.00     0.074 A 
ATOM     72  C   UNL A   1      41.911  31.656  37.233  1.00  0.00     0.031 C 
ATOM     73  C   UNL A   1      40.018  32.878  36.194  1.00  0.00     0.031 A 
BRANCH  60  74
ATOM     74  C   UNL A   1      36.599  33.278  31.069  1.00  0.00    -0.014 A 
ATOM     75  C   UNL A   1      35.309  33.289  31.629  1.00  0.00     0.010 A 
ATOM     76  C   UNL A   1      36.833  33.953  29.858  1.00  0.00     0.010 A 
ATOM     77  C   UNL A   1      34.265  33.949  30.978  1.00  0.00     0.020 A 
ATOM     78  C   UNL A   1      35.795  34.635  29.217  1.00  0.00     0.020 A 
ATOM     79  C   UNL A   1      34.516  34.624  29.780  1.00  0.00     0.054 A 
BRANCH  79  80
ATOM     80  S   UNL A   1      33.143  35.495  28.977  1.00  0.00     0.124 S 
ATOM     81  O   UNL A   1      33.843  36.467  28.143  1.00  0.00    -0.237 OA
ATOM     82  O   UNL A   1      32.469  34.419  28.257  1.00  0.00    -0.237 OA
ATOM     83  O   UNL A   1      32.392  36.065  30.093  1.00  0.00    -0.744 OA
ENDBRANCH  79  80
ENDBRANCH  60  74
BRANCH  61  84
ATOM     84  C   UNL A   1      44.123  28.464  35.543  1.00  0.00    -0.014 A 
ATOM     85  C   UNL A   1      45.454  28.895  35.418  1.00  0.00     0.010 A 
ATOM     86  C   UNL A   1      43.833  27.362  36.368  1.00  0.00     0.010 A 
ATOM     87  C   UNL A   1      46.477  28.244  36.113  1.00  0.00     0.020 A 
ATOM     88  C   UNL A   1      44.850  26.720  37.080  1.00  0.00     0.020 A 
ATOM     89  C   UNL A   1      46.166  27.170  36.952  1.00  0.00     0.054 A 
BRANCH  89  90
ATOM     90  S   UNL A   1      47.505  26.395  37.901  1.00  0.00     0.124 S 
ATOM     91  O   UNL A   1      47.056  25.010  37.997  1.00  0.00    -0.237 OA
ATOM     92  O   UNL A   1      48.662  26.627  37.040  1.00  0.00    -0.237 OA
ATOM     93  O   UNL A   1      47.511  27.138  39.159  1.00  0.00    -0.744 OA
ENDBRANCH  89  90
ENDBRANCH  61  84
BRANCH  73  94
ATOM     94  C   UNL A   1      39.874  33.687  37.452  1.00  0.00    -0.014 A 
ATOM     95  C   UNL A   1      40.390  34.991  37.535  1.00  0.00     0.010 A 
ATOM     96  C   UNL A   1      39.098  33.183  38.513  1.00  0.00     0.010 A 
ATOM     97  C   UNL A   1      40.130  35.779  38.660  1.00  0.00     0.020 A 
ATOM     98  C   UNL A   1      38.818  33.975  39.627  1.00  0.00     0.020 A 
ATOM     99  C   UNL A   1      39.335  35.271  39.692  1.00  0.00     0.054 A 
BRANCH  99 100
ATOM    100  S   UNL A   1      38.957  36.345  41.104  1.00  0.00     0.124 S 
ATOM    101  O   UNL A   1      40.223  36.354  41.832  1.00  0.00    -0.237 OA
ATOM    102  O   UNL A   1      38.598  37.603  40.452  1.00  0.00    -0.237 OA
ATOM    103  O   UNL A   1      37.859  35.661  41.781  1.00  0.00    -0.744 OA
ENDBRANCH  99 100
ENDBRANCH  73  94
ENDBRANCH  47  48
ENDBRANCH  39  42
ENDBRANCH  37  38
ENDBRANCH  36  37
ENDBRANCH   1  36
TORSDOF 18
ENDMDL
MODEL 3
REMARK VINA RESULT:     -11.4      5.065     12.240
REMARK SMILES O=C1C[C@H](C(=O)NCCCCNC(=O)c2ccc(-c3c4nc(c(-c5ccc(S(=O)(=O)[O-])cc5)c5ccc([nH]5)c(-c5ccc(S(=O)(=O)[O-])cc5)c5nc(c(-c6ccc(S(=O)(=O)[O-])cc6)c6ccc3[nH]6)C=C5)C=C4)cc2)c2c(nc(Nc3ccc(Oc4ccccc4)cc3)[nH]c2=O)N1
REMARK SMILES IDX 9 1 8 2 7 3 5 4 6 5 4 7 1 8 2 9 3 10 96 11 76 12 75 14 77 15
REMARK SMILES IDX 94 16 78 17 93 18 95 19 79 21 80 23 81 24 92 25 82 26 91 27
REMARK SMILES IDX 83 28 84 29 85 30 86 31 90 32 87 33 89 34 88 35 10 36 11 37
REMARK SMILES IDX 12 38 13 39 14 41 15 42 16 43 74 44 17 45 73 46 18 47 19 48
REMARK SMILES IDX 20 49 67 50 21 51 72 52 66 53 68 54 22 55 71 56 65 57 64 58
REMARK SMILES IDX 23 60 53 61 34 62 52 63 35 64 38 65 51 66 69 67 36 68 37 69
REMARK SMILES IDX 50 71 70 72 39 73 24 74 25 75 33 76 26 77 32 78 27 79 28 80
REMARK SMILES IDX 29 81 30 82 31 83 54 84 55 85 63 86 56 87 62 88 57 89 58 90
REMARK SMILES IDX 59 91 60 92 61 93 40 94 41 95 49 96 42 97 48 98 43 99 44 100
REMARK SMILES IDX 45 101 46 102 47 103
REMARK H PARENT 7 6 96 13 93 20 79 22 12 40 68 59 38 70
REMARK Flexibility Score: inf
ROOT
ATOM      1  C   UNL A   1      37.121  34.224  33.900  1.00  0.00     0.023 C 
ENDROOT
BRANCH   1   2
ATOM      2  C   UNL A   1      36.461  33.656  32.648  1.00  0.00     0.116 C 
BRANCH   2   3
ATOM      3  N   UNL A   1      36.269  32.221  32.745  1.00  0.00    -0.356 N 
ATOM      4  C   UNL A   1      36.503  31.226  31.844  1.00  0.00     0.228 C 
ATOM      5  O   UNL A   1      36.126  30.088  32.135  1.00  0.00    -0.274 OA
ATOM      6  H   UNL A   1      35.908  31.915  33.609  1.00  0.00     0.163 HD
BRANCH   4   7
ATOM      7  C   UNL A   1      37.155  31.501  30.489  1.00  0.00     0.127 C 
ATOM      8  O   UNL A   1      40.011  29.787  28.853  1.00  0.00    -0.275 OA
ATOM      9  C   UNL A   1      38.872  30.175  29.101  1.00  0.00     0.226 C 
ATOM     10  C   UNL A   1      38.518  30.798  30.430  1.00  0.00     0.119 C 
ATOM     11  N   UNL A   1      37.865  29.992  28.204  1.00  0.00    -0.310 N 
ATOM     12  C   UNL A   1      36.587  30.439  28.317  1.00  0.00     0.146 A 
ATOM     13  H   UNL A   1      38.084  29.482  27.391  1.00  0.00     0.171 HD
ATOM     14  C   UNL A   1      36.223  31.182  29.364  1.00  0.00     0.073 A 
ATOM     15  N   UNL A   1      35.779  30.067  27.295  1.00  0.00    -0.196 NA
ATOM     16  C   UNL A   1      34.833  31.671  29.354  1.00  0.00     0.258 A 
ATOM     17  C   UNL A   1      34.543  30.461  27.299  1.00  0.00     0.209 A 
ATOM     18  N   UNL A   1      34.064  31.246  28.310  1.00  0.00    -0.292 N 
ATOM     19  O   UNL A   1      34.386  32.421  30.212  1.00  0.00    -0.269 OA
ATOM     20  H   UNL A   1      33.118  31.520  28.282  1.00  0.00     0.173 HD
BRANCH  17  21
ATOM     21  N   UNL A   1      33.660  30.150  26.298  1.00  0.00    -0.326 N 
ATOM     22  H   UNL A   1      33.209  30.884  25.823  1.00  0.00     0.170 HD
BRANCH  21  23
ATOM     23  C   UNL A   1      33.371  28.827  25.924  1.00  0.00     0.041 A 
ATOM     24  C   UNL A   1      33.894  28.299  24.739  1.00  0.00     0.030 A 
ATOM     25  C   UNL A   1      32.680  27.976  26.793  1.00  0.00     0.030 A 
ATOM     26  C   UNL A   1      33.745  26.939  24.443  1.00  0.00     0.049 A 
ATOM     27  C   UNL A   1      32.516  26.625  26.494  1.00  0.00     0.049 A 
ATOM     28  C   UNL A   1      33.052  26.098  25.316  1.00  0.00     0.127 A 
BRANCH  28  29
ATOM     29  O   UNL A   1      32.990  24.767  24.949  1.00  0.00    -0.457 OA
BRANCH  29  30
ATOM     30  C   UNL A   1      34.183  24.141  24.681  1.00  0.00     0.127 A 
ATOM     31  C   UNL A   1      34.364  23.538  23.437  1.00  0.00     0.047 A 
ATOM     32  C   UNL A   1      35.197  24.123  25.640  1.00  0.00     0.047 A 
ATOM     33  C   UNL A   1      35.598  22.967  23.126  1.00  0.00     0.004 A 
ATOM     34  C   UNL A   1      36.430  23.557  25.323  1.00  0.00     0.004 A 
ATOM     35  C   UNL A   1      36.633  22.988  24.064  1.00  0.00     0.000 A 
ENDBRANCH  29  30
ENDBRANCH  28  29
ENDBRANCH  21  23
ENDBRANCH  17  21
ENDBRANCH   4   7
ENDBRANCH   2   3
ENDBRANCH   1   2
BRANCH   1  36
ATOM     36  C   UNL A   1      36.433  33.837  35.208  1.00  0.00     0.023 C 
BRANCH  36  37
ATOM     37  C   UNL A   1      37.344  33.830  36.428  1.00  0.00     0.116 C 
BRANCH  37  38
ATOM     38  N   UNL A   1      37.187  32.628  37.234  1.00  0.00    -0.352 N 
ATOM     39  C   UNL A   1      37.780  31.401  37.051  1.00  0.00     0.251 C 
ATOM     40  H   UNL A   1      36.582  32.702  38.006  1.00  0.00     0.163 HD
ATOM     41  O   UNL A   1      37.443  30.433  37.723  1.00  0.00    -0.269 OA
BRANCH  39  42
ATOM     42  C   UNL A   1      38.815  31.273  36.009  1.00  0.00     0.039 A 
ATOM     43  C   UNL A   1      40.113  31.702  36.286  1.00  0.00     0.014 A 
ATOM     44  C   UNL A   1      38.504  30.655  34.793  1.00  0.00     0.014 A 
ATOM     45  C   UNL A   1      41.125  31.455  35.358  1.00  0.00     0.010 A 
ATOM     46  C   UNL A   1      39.524  30.356  33.899  1.00  0.00     0.010 A 
ATOM     47  C   UNL A   1      40.840  30.758  34.171  1.00  0.00    -0.014 A 
BRANCH  47  48
ATOM     48  C   UNL A   1      41.903  30.474  33.181  1.00  0.00     0.031 A 
ATOM     49  C   UNL A   1      42.236  31.505  32.141  1.00  0.00     0.074 A 
ATOM     50  C   UNL A   1      42.543  29.289  33.195  1.00  0.00     0.049 A 
ATOM     51  N   UNL A   1      43.111  31.441  31.172  1.00  0.00    -0.248 NA
ATOM     52  C   UNL A   1      41.480  32.768  32.188  1.00  0.00     0.031 C 
ATOM     53  C   UNL A   1      42.296  28.204  34.148  1.00  0.00     0.029 A 
ATOM     54  N   UNL A   1      43.537  28.800  32.386  1.00  0.00    -0.354 N 
ATOM     55  C   UNL A   1      43.013  32.652  30.500  1.00  0.00     0.074 A 
ATOM     56  C   UNL A   1      41.957  33.409  31.132  1.00  0.00     0.031 C 
ATOM     57  C   UNL A   1      43.140  27.191  33.888  1.00  0.00     0.029 A 
ATOM     58  C   UNL A   1      43.963  27.540  32.732  1.00  0.00     0.049 A 
ATOM     59  H   UNL A   1      43.910  29.305  31.627  1.00  0.00     0.167 HD
ATOM     60  C   UNL A   1      43.755  33.103  29.463  1.00  0.00     0.031 A 
ATOM     61  C   UNL A   1      44.912  26.755  32.185  1.00  0.00     0.031 A 
ATOM     62  C   UNL A   1      44.808  32.352  28.838  1.00  0.00     0.049 A 
ATOM     63  C   UNL A   1      45.693  27.259  31.003  1.00  0.00     0.074 A 
ATOM     64  C   UNL A   1      45.633  32.736  27.798  1.00  0.00     0.029 A 
ATOM     65  N   UNL A   1      45.182  31.067  29.198  1.00  0.00    -0.354 N 
ATOM     66  N   UNL A   1      45.600  28.416  30.392  1.00  0.00    -0.248 NA
ATOM     67  C   UNL A   1      46.708  26.358  30.439  1.00  0.00     0.031 C 
ATOM     68  C   UNL A   1      46.480  31.667  27.498  1.00  0.00     0.029 A 
ATOM     69  C   UNL A   1      46.217  30.636  28.388  1.00  0.00     0.049 A 
ATOM     70  H   UNL A   1      44.774  30.540  29.923  1.00  0.00     0.167 HD
ATOM     71  C   UNL A   1      46.560  28.392  29.387  1.00  0.00     0.074 A 
ATOM     72  C   UNL A   1      47.223  27.106  29.471  1.00  0.00     0.031 C 
ATOM     73  C   UNL A   1      46.865  29.354  28.482  1.00  0.00     0.031 A 
BRANCH  60  74
ATOM     74  C   UNL A   1      43.463  34.483  28.947  1.00  0.00    -0.014 A 
ATOM     75  C   UNL A   1      44.003  35.614  29.584  1.00  0.00     0.010 A 
ATOM     76  C   UNL A   1      42.693  34.649  27.782  1.00  0.00     0.010 A 
ATOM     77  C   UNL A   1      43.763  36.892  29.075  1.00  0.00     0.020 A 
ATOM     78  C   UNL A   1      42.471  35.925  27.256  1.00  0.00     0.020 A 
ATOM     79  C   UNL A   1      43.005  37.038  27.910  1.00  0.00     0.054 A 
BRANCH  79  80
ATOM     80  S   UNL A   1      42.738  38.710  27.261  1.00  0.00     0.124 S 
ATOM     81  O   UNL A   1      42.581  39.492  28.484  1.00  0.00    -0.237 OA
ATOM     82  O   UNL A   1      43.966  38.955  26.512  1.00  0.00    -0.237 OA
ATOM     83  O   UNL A   1      41.528  38.581  26.451  1.00  0.00    -0.744 OA
ENDBRANCH  79  80
ENDBRANCH  60  74
BRANCH  61  84
ATOM     84  C   UNL A   1      45.193  25.424  32.784  1.00  0.00    -0.014 A 
ATOM     85  C   UNL A   1      46.150  25.296  33.805  1.00  0.00     0.010 A 
ATOM     86  C   UNL A   1      44.461  24.291  32.384  1.00  0.00     0.010 A 
ATOM     87  C   UNL A   1      46.363  24.062  34.425  1.00  0.00     0.020 A 
ATOM     88  C   UNL A   1      44.658  23.059  33.015  1.00  0.00     0.020 A 
ATOM     89  C   UNL A   1      45.605  22.954  34.036  1.00  0.00     0.054 A 
BRANCH  89  90
ATOM     90  S   UNL A   1      45.851  21.384  34.912  1.00  0.00     0.124 S 
ATOM     91  O   UNL A   1      46.830  20.707  34.066  1.00  0.00    -0.237 OA
ATOM     92  O   UNL A   1      46.341  21.834  36.212  1.00  0.00    -0.237 OA
ATOM     93  O   UNL A   1      44.519  20.785  34.926  1.00  0.00    -0.744 OA
ENDBRANCH  89  90
ENDBRANCH  61  84
BRANCH  73  94
ATOM     94  C   UNL A   1      47.977  29.081  27.508  1.00  0.00    -0.014 A 
ATOM     95  C   UNL A   1      49.306  29.420  27.816  1.00  0.00     0.010 A 
ATOM     96  C   UNL A   1      47.705  28.357  26.332  1.00  0.00     0.010 A 
ATOM     97  C   UNL A   1      50.344  29.038  26.962  1.00  0.00     0.020 A 
ATOM     98  C   UNL A   1      48.742  27.956  25.489  1.00  0.00     0.020 A 
ATOM     99  C   UNL A   1      50.057  28.297  25.811  1.00  0.00     0.054 A 
BRANCH  99 100
ATOM    100  S   UNL A   1      51.434  27.755  24.764  1.00  0.00     0.124 S 
ATOM    101  O   UNL A   1      52.562  28.488  25.333  1.00  0.00    -0.237 OA
ATOM    102  O   UNL A   1      51.448  26.311  24.986  1.00  0.00    -0.237 OA
ATOM    103  O   UNL A   1      51.039  28.173  23.422  1.00  0.00    -0.744 OA
ENDBRANCH  99 100
ENDBRANCH  73  94
ENDBRANCH  47  48
ENDBRANCH  39  42
ENDBRANCH  37  38
ENDBRANCH  36  37
ENDBRANCH   1  36
TORSDOF 18
ENDMDL
