MODEL 1
REMARK VINA RESULT:     -11.8      0.000      0.000
REMARK SMILES Cc1cc(Cl)c2c(c1)C=C(C(=O)NCCCCNC(=O)c1ccc(-c3c4nc(c(-c5ccc(S(=O)(=O)[O-])cc5)c5ccc([nH]5)c(-c5ccc(S(=O)(=O)[O-])cc5)c5nc(c(-c6ccc(S(=O)(=O)[O-])cc6)c6ccc3[nH]6)C=C5)C=C4)cc1)[C@@H](C(F)(F)F)O2
REMARK SMILES IDX 16 1 15 2 14 3 13 4 11 5 12 6 10 8 1 9 2 10 3 11 8 12 4 13
REMARK SMILES IDX 7 14 5 15 6 16 9 17 86 18 81 19 82 20 83 21 84 22 85 23
REMARK SMILES IDX 17 24 18 25 19 26 20 28 21 29 22 30 80 31 23 32 79 33 24 34
REMARK SMILES IDX 25 35 26 36 73 37 27 38 78 39 72 40 74 41 28 42 77 43 71 44
REMARK SMILES IDX 70 45 29 47 59 48 40 49 58 50 41 51 44 52 57 53 75 54 42 55
REMARK SMILES IDX 43 56 56 58 76 59 45 60 30 61 31 62 39 63 32 64 38 65 33 66
REMARK SMILES IDX 34 67 35 68 36 69 37 70 60 71 61 72 69 73 62 74 68 75 63 76
REMARK SMILES IDX 64 77 65 78 66 79 67 80 46 81 47 82 55 83 48 84 54 85 49 86
REMARK SMILES IDX 50 87 51 88 52 89 53 90
REMARK H PARENT 13 7 18 27 74 46 44 57
REMARK Flexibility Score: inf
ROOT
ATOM      1  C   UNL A   1      33.796  28.061  25.911  1.00  0.00     0.023 C 
ENDROOT
BRANCH   1   2
ATOM      2  C   UNL A   1      33.304  28.962  24.774  1.00  0.00     0.023 C 
BRANCH   2   3
ATOM      3  C   UNL A   1      32.176  28.359  23.943  1.00  0.00     0.116 C 
BRANCH   3   4
ATOM      4  N   UNL A   1      32.678  27.636  22.789  1.00  0.00    -0.352 N 
ATOM      5  C   UNL A   1      33.191  26.409  22.539  1.00  0.00     0.251 C 
ATOM      6  O   UNL A   1      33.509  26.200  21.364  1.00  0.00    -0.270 OA
ATOM      7  H   UNL A   1      32.632  28.182  21.971  1.00  0.00     0.163 HD
BRANCH   5   8
ATOM      8  C   UNL A   1      33.390  25.331  23.554  1.00  0.00     0.067 C 
ATOM      9  C   UNL A   1      37.319  20.718  24.854  1.00  0.00     0.044 C 
ATOM     10  C   UNL A   1      36.160  21.647  25.066  1.00  0.00    -0.049 A 
ATOM     11  C   UNL A   1      35.337  21.489  26.189  1.00  0.00     0.028 A 
ATOM     12  C   UNL A   1      35.884  22.676  24.157  1.00  0.00     0.015 A 
ATOM     13  C   UNL A   1      34.259  22.352  26.399  1.00  0.00     0.084 A 
ATOM     14  C   UNL A   1      34.801  23.540  24.364  1.00  0.00     0.019 A 
ATOM     15  Cl  UNL A   1      33.281  22.118  27.803  1.00  0.00    -0.080 Cl
ATOM     16  C   UNL A   1      33.985  23.373  25.484  1.00  0.00     0.146 A 
ATOM     17  C   UNL A   1      34.538  24.637  23.440  1.00  0.00     0.025 C 
ATOM     18  O   UNL A   1      32.944  24.223  25.744  1.00  0.00    -0.474 OA
ATOM     19  C   UNL A   1      32.396  24.962  24.618  1.00  0.00     0.314 C 
BRANCH  19  20
ATOM     20  C   UNL A   1      31.181  24.198  24.057  1.00  0.00     0.429 C 
ATOM     21  F   UNL A   1      31.452  23.716  22.819  1.00  0.00    -0.167 F 
ATOM     22  F   UNL A   1      30.839  23.133  24.818  1.00  0.00    -0.167 F 
ATOM     23  F   UNL A   1      30.081  24.979  23.955  1.00  0.00    -0.167 F 
ENDBRANCH  19  20
ENDBRANCH   5   8
ENDBRANCH   3   4
ENDBRANCH   2   3
ENDBRANCH   1   2
BRANCH   1  24
ATOM     24  C   UNL A   1      33.361  28.476  27.317  1.00  0.00     0.116 C 
BRANCH  24  25
ATOM     25  N   UNL A   1      33.341  29.918  27.525  1.00  0.00    -0.352 N 
ATOM     26  C   UNL A   1      34.366  30.722  27.966  1.00  0.00     0.251 C 
ATOM     27  H   UNL A   1      32.491  30.371  27.327  1.00  0.00     0.163 HD
ATOM     28  O   UNL A   1      34.181  31.917  28.165  1.00  0.00    -0.269 OA
BRANCH  26  29
ATOM     29  C   UNL A   1      35.678  30.107  28.240  1.00  0.00     0.039 A 
ATOM     30  C   UNL A   1      36.644  30.108  27.231  1.00  0.00     0.014 A 
ATOM     31  C   UNL A   1      35.972  29.610  29.513  1.00  0.00     0.014 A 
ATOM     32  C   UNL A   1      37.937  29.675  27.523  1.00  0.00     0.010 A 
ATOM     33  C   UNL A   1      37.275  29.232  29.816  1.00  0.00     0.010 A 
ATOM     34  C   UNL A   1      38.270  29.271  28.827  1.00  0.00    -0.014 A 
BRANCH  34  35
ATOM     35  C   UNL A   1      39.659  28.891  29.176  1.00  0.00     0.031 A 
ATOM     36  C   UNL A   1      40.538  29.859  29.914  1.00  0.00     0.074 A 
ATOM     37  C   UNL A   1      40.140  27.694  28.789  1.00  0.00     0.049 A 
ATOM     38  N   UNL A   1      41.790  29.728  30.267  1.00  0.00    -0.248 NA
ATOM     39  C   UNL A   1      39.937  31.150  30.283  1.00  0.00     0.031 C 
ATOM     40  C   UNL A   1      39.390  26.678  28.043  1.00  0.00     0.029 A 
ATOM     41  N   UNL A   1      41.375  27.127  28.971  1.00  0.00    -0.354 N 
ATOM     42  C   UNL A   1      42.130  30.920  30.894  1.00  0.00     0.074 A 
ATOM     43  C   UNL A   1      40.967  31.781  30.828  1.00  0.00     0.031 C 
ATOM     44  C   UNL A   1      40.170  25.598  27.868  1.00  0.00     0.029 A 
ATOM     45  C   UNL A   1      41.481  25.857  28.454  1.00  0.00     0.049 A 
ATOM     46  H   UNL A   1      42.117  27.585  29.428  1.00  0.00     0.167 HD
ATOM     47  C   UNL A   1      43.295  31.261  31.493  1.00  0.00     0.031 A 
ATOM     48  C   UNL A   1      42.516  24.995  28.459  1.00  0.00     0.031 A 
ATOM     49  C   UNL A   1      44.446  30.403  31.565  1.00  0.00     0.049 A 
ATOM     50  C   UNL A   1      43.807  25.402  29.111  1.00  0.00     0.074 A 
ATOM     51  C   UNL A   1      45.665  30.647  32.172  1.00  0.00     0.029 A 
ATOM     52  N   UNL A   1      44.517  29.132  31.015  1.00  0.00    -0.354 N 
ATOM     53  N   UNL A   1      44.101  26.525  29.722  1.00  0.00    -0.248 NA
ATOM     54  C   UNL A   1      44.905  24.425  29.078  1.00  0.00     0.031 C 
ATOM     55  C   UNL A   1      46.486  29.532  31.962  1.00  0.00     0.029 A 
ATOM     56  C   UNL A   1      45.763  28.582  31.258  1.00  0.00     0.049 A 
ATOM     57  H   UNL A   1      43.789  28.688  30.523  1.00  0.00     0.167 HD
ATOM     58  C   UNL A   1      45.412  26.384  30.160  1.00  0.00     0.074 A 
ATOM     59  C   UNL A   1      45.851  25.064  29.754  1.00  0.00     0.031 C 
ATOM     60  C   UNL A   1      46.182  27.269  30.838  1.00  0.00     0.031 A 
BRANCH  47  61
ATOM     61  C   UNL A   1      43.367  32.625  32.121  1.00  0.00    -0.014 A 
ATOM     62  C   UNL A   1      42.994  32.817  33.464  1.00  0.00     0.010 A 
ATOM     63  C   UNL A   1      43.813  33.726  31.368  1.00  0.00     0.010 A 
ATOM     64  C   UNL A   1      43.020  34.094  34.029  1.00  0.00     0.020 A 
ATOM     65  C   UNL A   1      43.862  35.001  31.937  1.00  0.00     0.020 A 
ATOM     66  C   UNL A   1      43.445  35.179  33.259  1.00  0.00     0.054 A 
BRANCH  66  67
ATOM     67  S   UNL A   1      43.468  36.826  34.016  1.00  0.00     0.124 S 
ATOM     68  O   UNL A   1      44.670  36.759  34.844  1.00  0.00    -0.237 OA
ATOM     69  O   UNL A   1      43.553  37.714  32.859  1.00  0.00    -0.237 OA
ATOM     70  O   UNL A   1      42.207  36.887  34.753  1.00  0.00    -0.744 OA
ENDBRANCH  66  67
ENDBRANCH  47  61
BRANCH  48  71
ATOM     71  C   UNL A   1      42.354  23.645  27.859  1.00  0.00    -0.014 A 
ATOM     72  C   UNL A   1      42.775  23.407  26.540  1.00  0.00     0.010 A 
ATOM     73  C   UNL A   1      41.819  22.583  28.611  1.00  0.00     0.010 A 
ATOM     74  C   UNL A   1      42.663  22.131  25.980  1.00  0.00     0.020 A 
ATOM     75  C   UNL A   1      41.723  21.301  28.060  1.00  0.00     0.020 A 
ATOM     76  C   UNL A   1      42.142  21.085  26.746  1.00  0.00     0.054 A 
BRANCH  76  77
ATOM     77  S   UNL A   1      42.078  19.421  26.024  1.00  0.00     0.124 S 
ATOM     78  O   UNL A   1      40.650  19.251  25.776  1.00  0.00    -0.237 OA
ATOM     79  O   UNL A   1      42.914  19.561  24.834  1.00  0.00    -0.237 OA
ATOM     80  O   UNL A   1      42.639  18.573  27.073  1.00  0.00    -0.744 OA
ENDBRANCH  76  77
ENDBRANCH  48  71
BRANCH  60  81
ATOM     81  C   UNL A   1      47.577  26.839  31.197  1.00  0.00    -0.014 A 
ATOM     82  C   UNL A   1      47.826  26.115  32.375  1.00  0.00     0.010 A 
ATOM     83  C   UNL A   1      48.636  27.096  30.307  1.00  0.00     0.010 A 
ATOM     84  C   UNL A   1      49.116  25.666  32.666  1.00  0.00     0.020 A 
ATOM     85  C   UNL A   1      49.923  26.631  30.585  1.00  0.00     0.020 A 
ATOM     86  C   UNL A   1      50.157  25.924  31.768  1.00  0.00     0.054 A 
BRANCH  86  87
ATOM     87  S   UNL A   1      51.810  25.273  32.135  1.00  0.00     0.124 S 
ATOM     88  O   UNL A   1      52.589  25.769  31.004  1.00  0.00    -0.237 OA
ATOM     89  O   UNL A   1      52.116  25.884  33.425  1.00  0.00    -0.237 OA
ATOM     90  O   UNL A   1      51.611  23.825  32.170  1.00  0.00    -0.744 OA
ENDBRANCH  86  87
ENDBRANCH  60  81
ENDBRANCH  34  35
ENDBRANCH  26  29
ENDBRANCH  24  25
ENDBRANCH   1  24
TORSDOF 15
ENDMDL
MODEL 2
REMARK VINA RESULT:     -11.5      1.889      3.489
REMARK SMILES Cc1cc(Cl)c2c(c1)C=C(C(=O)NCCCCNC(=O)c1ccc(-c3c4nc(c(-c5ccc(S(=O)(=O)[O-])cc5)c5ccc([nH]5)c(-c5ccc(S(=O)(=O)[O-])cc5)c5nc(c(-c6ccc(S(=O)(=O)[O-])cc6)c6ccc3[nH]6)C=C5)C=C4)cc1)[C@@H](C(F)(F)F)O2
REMARK SMILES IDX 16 1 15 2 14 3 13 4 11 5 12 6 10 8 1 9 2 10 3 11 8 12 4 13
REMARK SMILES IDX 7 14 5 15 6 16 9 17 86 18 81 19 82 20 83 21 84 22 85 23
REMARK SMILES IDX 17 24 18 25 19 26 20 28 21 29 22 30 80 31 23 32 79 33 24 34
REMARK SMILES IDX 25 35 26 36 73 37 27 38 78 39 72 40 74 41 28 42 77 43 71 44
REMARK SMILES IDX 70 45 29 47 59 48 40 49 58 50 41 51 44 52 57 53 75 54 42 55
REMARK SMILES IDX 43 56 56 58 76 59 45 60 30 61 31 62 39 63 32 64 38 65 33 66
REMARK SMILES IDX 34 67 35 68 36 69 37 70 60 71 61 72 69 73 62 74 68 75 63 76
REMARK SMILES IDX 64 77 65 78 66 79 67 80 46 81 47 82 55 83 48 84 54 85 49 86
REMARK SMILES IDX 50 87 51 88 52 89 53 90
REMARK H PARENT 13 7 18 27 74 46 44 57
REMARK Flexibility Score: inf
ROOT
ATOM      1  C   UNL A   1      32.916  28.392  25.916  1.00  0.00     0.023 C 
ENDROOT
BRANCH   1   2
ATOM      2  C   UNL A   1      33.826  27.649  24.934  1.00  0.00     0.023 C 
BRANCH   2   3
ATOM      3  C   UNL A   1      33.791  26.131  25.075  1.00  0.00     0.116 C 
BRANCH   3   4
ATOM      4  N   UNL A   1      33.468  25.476  23.821  1.00  0.00    -0.352 N 
ATOM      5  C   UNL A   1      32.418  25.438  22.968  1.00  0.00     0.251 C 
ATOM      6  O   UNL A   1      32.569  24.715  21.977  1.00  0.00    -0.270 OA
ATOM      7  H   UNL A   1      34.210  24.910  23.506  1.00  0.00     0.163 HD
BRANCH   5   8
ATOM      8  C   UNL A   1      31.137  26.187  23.139  1.00  0.00     0.067 C 
ATOM      9  C   UNL A   1      28.768  31.815  22.081  1.00  0.00     0.044 C 
ATOM     10  C   UNL A   1      28.769  30.370  22.482  1.00  0.00    -0.049 A 
ATOM     11  C   UNL A   1      27.596  29.781  22.971  1.00  0.00     0.028 A 
ATOM     12  C   UNL A   1      29.928  29.591  22.374  1.00  0.00     0.015 A 
ATOM     13  C   UNL A   1      27.584  28.435  23.342  1.00  0.00     0.084 A 
ATOM     14  C   UNL A   1      29.920  28.242  22.749  1.00  0.00     0.019 A 
ATOM     15  Cl  UNL A   1      26.109  27.758  23.931  1.00  0.00    -0.080 Cl
ATOM     16  C   UNL A   1      28.747  27.665  23.238  1.00  0.00     0.146 A 
ATOM     17  C   UNL A   1      31.115  27.420  22.599  1.00  0.00     0.025 C 
ATOM     18  O   UNL A   1      28.686  26.340  23.573  1.00  0.00    -0.474 OA
ATOM     19  C   UNL A   1      29.942  25.680  23.893  1.00  0.00     0.314 C 
BRANCH  19  20
ATOM     20  C   UNL A   1      30.149  25.703  25.419  1.00  0.00     0.429 C 
ATOM     21  F   UNL A   1      28.974  25.494  26.063  1.00  0.00    -0.167 F 
ATOM     22  F   UNL A   1      30.997  24.736  25.844  1.00  0.00    -0.167 F 
ATOM     23  F   UNL A   1      30.647  26.883  25.857  1.00  0.00    -0.167 F 
ENDBRANCH  19  20
ENDBRANCH   5   8
ENDBRANCH   3   4
ENDBRANCH   2   3
ENDBRANCH   1   2
BRANCH   1  24
ATOM     24  C   UNL A   1      33.545  28.742  27.264  1.00  0.00     0.116 C 
BRANCH  24  25
ATOM     25  N   UNL A   1      33.563  30.170  27.553  1.00  0.00    -0.352 N 
ATOM     26  C   UNL A   1      34.597  30.914  28.068  1.00  0.00     0.251 C 
ATOM     27  H   UNL A   1      32.734  30.661  27.355  1.00  0.00     0.163 HD
ATOM     28  O   UNL A   1      34.442  32.103  28.329  1.00  0.00    -0.269 OA
BRANCH  26  29
ATOM     29  C   UNL A   1      35.880  30.244  28.347  1.00  0.00     0.039 A 
ATOM     30  C   UNL A   1      36.876  30.264  27.368  1.00  0.00     0.014 A 
ATOM     31  C   UNL A   1      36.119  29.672  29.600  1.00  0.00     0.014 A 
ATOM     32  C   UNL A   1      38.145  29.775  27.673  1.00  0.00     0.010 A 
ATOM     33  C   UNL A   1      37.400  29.237  29.920  1.00  0.00     0.010 A 
ATOM     34  C   UNL A   1      38.425  29.293  28.963  1.00  0.00    -0.014 A 
BRANCH  34  35
ATOM     35  C   UNL A   1      39.791  28.850  29.332  1.00  0.00     0.031 A 
ATOM     36  C   UNL A   1      40.688  29.762  30.118  1.00  0.00     0.074 A 
ATOM     37  C   UNL A   1      40.236  27.648  28.919  1.00  0.00     0.049 A 
ATOM     38  N   UNL A   1      41.926  29.573  30.495  1.00  0.00    -0.248 NA
ATOM     39  C   UNL A   1      40.128  31.064  30.513  1.00  0.00     0.031 C 
ATOM     40  C   UNL A   1      39.466  26.684  28.126  1.00  0.00     0.029 A 
ATOM     41  N   UNL A   1      41.444  27.029  29.111  1.00  0.00    -0.354 N 
ATOM     42  C   UNL A   1      42.295  30.732  31.165  1.00  0.00     0.074 A 
ATOM     43  C   UNL A   1      41.168  31.638  31.099  1.00  0.00     0.031 C 
ATOM     44  C   UNL A   1      40.208  25.581  27.936  1.00  0.00     0.029 A 
ATOM     45  C   UNL A   1      41.514  25.771  28.558  1.00  0.00     0.049 A 
ATOM     46  H   UNL A   1      42.192  27.444  29.598  1.00  0.00     0.167 HD
ATOM     47  C   UNL A   1      43.458  31.010  31.799  1.00  0.00     0.031 A 
ATOM     48  C   UNL A   1      42.515  24.871  28.560  1.00  0.00     0.031 A 
ATOM     49  C   UNL A   1      44.574  30.107  31.871  1.00  0.00     0.049 A 
ATOM     50  C   UNL A   1      43.806  25.208  29.253  1.00  0.00     0.074 A 
ATOM     51  C   UNL A   1      45.787  30.286  32.512  1.00  0.00     0.029 A 
ATOM     52  N   UNL A   1      44.611  28.851  31.284  1.00  0.00    -0.354 N 
ATOM     53  N   UNL A   1      44.127  26.301  29.904  1.00  0.00    -0.248 NA
ATOM     54  C   UNL A   1      44.866  24.192  29.214  1.00  0.00     0.031 C 
ATOM     55  C   UNL A   1      46.570  29.147  32.287  1.00  0.00     0.029 A 
ATOM     56  C   UNL A   1      45.829  28.246  31.539  1.00  0.00     0.049 A 
ATOM     57  H   UNL A   1      43.878  28.449  30.763  1.00  0.00     0.167 HD
ATOM     58  C   UNL A   1      45.421  26.097  30.366  1.00  0.00     0.074 A 
ATOM     59  C   UNL A   1      45.819  24.773  29.930  1.00  0.00     0.031 C 
ATOM     60  C   UNL A   1      46.208  26.931  31.088  1.00  0.00     0.031 A 
BRANCH  47  61
ATOM     61  C   UNL A   1      43.567  32.351  32.470  1.00  0.00    -0.014 A 
ATOM     62  C   UNL A   1      43.185  32.514  33.815  1.00  0.00     0.010 A 
ATOM     63  C   UNL A   1      44.057  33.459  31.756  1.00  0.00     0.010 A 
ATOM     64  C   UNL A   1      43.245  33.771  34.419  1.00  0.00     0.020 A 
ATOM     65  C   UNL A   1      44.141  34.715  32.366  1.00  0.00     0.020 A 
ATOM     66  C   UNL A   1      43.714  34.865  33.687  1.00  0.00     0.054 A 
BRANCH  66  67
ATOM     67  S   UNL A   1      43.781  36.487  34.496  1.00  0.00     0.124 S 
ATOM     68  O   UNL A   1      43.308  37.371  33.433  1.00  0.00    -0.237 OA
ATOM     69  O   UNL A   1      42.871  36.323  35.626  1.00  0.00    -0.237 OA
ATOM     70  O   UNL A   1      45.190  36.640  34.851  1.00  0.00    -0.744 OA
ENDBRANCH  66  67
ENDBRANCH  47  61
BRANCH  48  71
ATOM     71  C   UNL A   1      42.316  23.546  27.916  1.00  0.00    -0.014 A 
ATOM     72  C   UNL A   1      42.885  23.284  26.658  1.00  0.00     0.010 A 
ATOM     73  C   UNL A   1      41.597  22.529  28.569  1.00  0.00     0.010 A 
ATOM     74  C   UNL A   1      42.737  22.028  26.062  1.00  0.00     0.020 A 
ATOM     75  C   UNL A   1      41.463  21.266  27.984  1.00  0.00     0.020 A 
ATOM     76  C   UNL A   1      42.031  21.026  26.731  1.00  0.00     0.054 A 
BRANCH  76  77
ATOM     77  S   UNL A   1      41.918  19.381  25.972  1.00  0.00     0.124 S 
ATOM     78  O   UNL A   1      42.783  19.525  24.805  1.00  0.00    -0.237 OA
ATOM     79  O   UNL A   1      42.422  18.509  27.030  1.00  0.00    -0.237 OA
ATOM     80  O   UNL A   1      40.493  19.236  25.683  1.00  0.00    -0.744 OA
ENDBRANCH  76  77
ENDBRANCH  48  71
BRANCH  60  81
ATOM     81  C   UNL A   1      47.577  26.438  31.464  1.00  0.00    -0.014 A 
ATOM     82  C   UNL A   1      47.774  25.689  32.637  1.00  0.00     0.010 A 
ATOM     83  C   UNL A   1      48.661  26.661  30.596  1.00  0.00     0.010 A 
ATOM     84  C   UNL A   1      49.039  25.181  32.943  1.00  0.00     0.020 A 
ATOM     85  C   UNL A   1      49.922  26.138  30.890  1.00  0.00     0.020 A 
ATOM     86  C   UNL A   1      50.105  25.407  32.066  1.00  0.00     0.054 A 
BRANCH  86  87
ATOM     87  S   UNL A   1      51.722  24.681  32.453  1.00  0.00     0.124 S 
ATOM     88  O   UNL A   1      51.902  25.069  33.850  1.00  0.00    -0.237 OA
ATOM     89  O   UNL A   1      51.499  23.257  32.219  1.00  0.00    -0.237 OA
ATOM     90  O   UNL A   1      52.627  25.328  31.504  1.00  0.00    -0.744 OA
ENDBRANCH  86  87
ENDBRANCH  60  81
ENDBRANCH  34  35
ENDBRANCH  26  29
ENDBRANCH  24  25
ENDBRANCH   1  24
TORSDOF 15
ENDMDL
MODEL 3
REMARK VINA RESULT:     -11.5      2.705      9.249
REMARK SMILES Cc1cc(Cl)c2c(c1)C=C(C(=O)NCCCCNC(=O)c1ccc(-c3c4nc(c(-c5ccc(S(=O)(=O)[O-])cc5)c5ccc([nH]5)c(-c5ccc(S(=O)(=O)[O-])cc5)c5nc(c(-c6ccc(S(=O)(=O)[O-])cc6)c6ccc3[nH]6)C=C5)C=C4)cc1)[C@@H](C(F)(F)F)O2
REMARK SMILES IDX 16 1 15 2 14 3 13 4 11 5 12 6 10 8 1 9 2 10 3 11 8 12 4 13
REMARK SMILES IDX 7 14 5 15 6 16 9 17 86 18 81 19 82 20 83 21 84 22 85 23
REMARK SMILES IDX 17 24 18 25 19 26 20 28 21 29 22 30 80 31 23 32 79 33 24 34
REMARK SMILES IDX 25 35 26 36 73 37 27 38 78 39 72 40 74 41 28 42 77 43 71 44
REMARK SMILES IDX 70 45 29 47 59 48 40 49 58 50 41 51 44 52 57 53 75 54 42 55
REMARK SMILES IDX 43 56 56 58 76 59 45 60 30 61 31 62 39 63 32 64 38 65 33 66
REMARK SMILES IDX 34 67 35 68 36 69 37 70 60 71 61 72 69 73 62 74 68 75 63 76
REMARK SMILES IDX 64 77 65 78 66 79 67 80 46 81 47 82 55 83 48 84 54 85 49 86
REMARK SMILES IDX 50 87 51 88 52 89 53 90
REMARK H PARENT 13 7 18 27 74 46 44 57
REMARK Flexibility Score: inf
ROOT
ATOM      1  C   UNL A   1      35.667  22.739  24.973  1.00  0.00     0.023 C 
ENDROOT
BRANCH   1   2
ATOM      2  C   UNL A   1      34.344  22.681  25.741  1.00  0.00     0.023 C 
BRANCH   2   3
ATOM      3  C   UNL A   1      33.106  22.639  24.850  1.00  0.00     0.116 C 
BRANCH   3   4
ATOM      4  N   UNL A   1      33.401  23.050  23.490  1.00  0.00    -0.352 N 
ATOM      5  C   UNL A   1      33.291  24.182  22.755  1.00  0.00     0.251 C 
ATOM      6  O   UNL A   1      33.672  24.088  21.583  1.00  0.00    -0.270 OA
ATOM      7  H   UNL A   1      33.783  22.312  22.963  1.00  0.00     0.163 HD
BRANCH   5   8
ATOM      8  C   UNL A   1      32.761  25.487  23.250  1.00  0.00     0.067 C 
ATOM      9  C   UNL A   1      34.258  30.005  27.220  1.00  0.00     0.044 C 
ATOM     10  C   UNL A   1      33.468  29.313  26.149  1.00  0.00    -0.049 A 
ATOM     11  C   UNL A   1      32.303  29.906  25.648  1.00  0.00     0.028 A 
ATOM     12  C   UNL A   1      33.878  28.075  25.635  1.00  0.00     0.015 A 
ATOM     13  C   UNL A   1      31.563  29.274  24.646  1.00  0.00     0.084 A 
ATOM     14  C   UNL A   1      33.136  27.436  24.633  1.00  0.00     0.019 A 
ATOM     15  Cl  UNL A   1      30.139  30.054  24.060  1.00  0.00    -0.080 Cl
ATOM     16  C   UNL A   1      31.974  28.035  24.143  1.00  0.00     0.146 A 
ATOM     17  C   UNL A   1      33.584  26.169  24.069  1.00  0.00     0.025 C 
ATOM     18  O   UNL A   1      31.246  27.465  23.135  1.00  0.00    -0.474 OA
ATOM     19  C   UNL A   1      31.397  26.032  22.938  1.00  0.00     0.314 C 
BRANCH  19  20
ATOM     20  C   UNL A   1      30.276  25.298  23.698  1.00  0.00     0.429 C 
ATOM     21  F   UNL A   1      30.190  24.008  23.290  1.00  0.00    -0.167 F 
ATOM     22  F   UNL A   1      30.488  25.265  25.035  1.00  0.00    -0.167 F 
ATOM     23  F   UNL A   1      29.062  25.865  23.506  1.00  0.00    -0.167 F 
ENDBRANCH  19  20
ENDBRANCH   5   8
ENDBRANCH   3   4
ENDBRANCH   2   3
ENDBRANCH   1   2
BRANCH   1  24
ATOM     24  C   UNL A   1      36.837  23.380  25.720  1.00  0.00     0.116 C 
BRANCH  24  25
ATOM     25  N   UNL A   1      38.015  22.529  25.810  1.00  0.00    -0.352 N 
ATOM     26  C   UNL A   1      39.254  22.851  26.311  1.00  0.00     0.251 C 
ATOM     27  H   UNL A   1      37.912  21.610  25.472  1.00  0.00     0.163 HD
ATOM     28  O   UNL A   1      40.179  22.048  26.255  1.00  0.00    -0.269 OA
BRANCH  26  29
ATOM     29  C   UNL A   1      39.461  24.199  26.872  1.00  0.00     0.039 A 
ATOM     30  C   UNL A   1      39.026  24.460  28.173  1.00  0.00     0.014 A 
ATOM     31  C   UNL A   1      40.153  25.169  26.140  1.00  0.00     0.014 A 
ATOM     32  C   UNL A   1      39.352  25.676  28.772  1.00  0.00     0.010 A 
ATOM     33  C   UNL A   1      40.526  26.356  26.759  1.00  0.00     0.010 A 
ATOM     34  C   UNL A   1      40.137  26.615  28.083  1.00  0.00    -0.014 A 
BRANCH  34  35
ATOM     35  C   UNL A   1      40.568  27.874  28.735  1.00  0.00     0.031 A 
ATOM     36  C   UNL A   1      41.968  28.006  29.260  1.00  0.00     0.074 A 
ATOM     37  C   UNL A   1      39.684  28.879  28.894  1.00  0.00     0.049 A 
ATOM     38  N   UNL A   1      42.517  29.006  29.900  1.00  0.00    -0.248 NA
ATOM     39  C   UNL A   1      42.862  26.854  29.060  1.00  0.00     0.031 C 
ATOM     40  C   UNL A   1      38.288  28.858  28.450  1.00  0.00     0.029 A 
ATOM     41  N   UNL A   1      39.831  30.114  29.471  1.00  0.00    -0.354 N 
ATOM     42  C   UNL A   1      43.815  28.604  30.183  1.00  0.00     0.074 A 
ATOM     43  C   UNL A   1      43.957  27.250  29.692  1.00  0.00     0.031 C 
ATOM     44  C   UNL A   1      37.720  30.042  28.736  1.00  0.00     0.029 A 
ATOM     45  C   UNL A   1      38.696  30.888  29.413  1.00  0.00     0.049 A 
ATOM     46  H   UNL A   1      40.669  30.418  29.888  1.00  0.00     0.167 HD
ATOM     47  C   UNL A   1      44.809  29.305  30.777  1.00  0.00     0.031 A 
ATOM     48  C   UNL A   1      38.472  32.142  29.850  1.00  0.00     0.031 A 
ATOM     49  C   UNL A   1      44.670  30.652  31.258  1.00  0.00     0.049 A 
ATOM     50  C   UNL A   1      39.583  32.895  30.526  1.00  0.00     0.074 A 
ATOM     51  C   UNL A   1      45.624  31.458  31.852  1.00  0.00     0.029 A 
ATOM     52  N   UNL A   1      43.500  31.395  31.196  1.00  0.00    -0.354 N 
ATOM     53  N   UNL A   1      40.813  32.507  30.762  1.00  0.00    -0.248 NA
ATOM     54  C   UNL A   1      39.277  34.256  30.990  1.00  0.00     0.031 C 
ATOM     55  C   UNL A   1      45.022  32.680  32.176  1.00  0.00     0.029 A 
ATOM     56  C   UNL A   1      43.704  32.646  31.749  1.00  0.00     0.049 A 
ATOM     57  H   UNL A   1      42.649  31.077  30.813  1.00  0.00     0.167 HD
ATOM     58  C   UNL A   1      41.433  33.581  31.389  1.00  0.00     0.074 A 
ATOM     59  C   UNL A   1      40.447  34.638  31.485  1.00  0.00     0.031 C 
ATOM     60  C   UNL A   1      42.706  33.681  31.842  1.00  0.00     0.031 A 
BRANCH  47  61
ATOM     61  C   UNL A   1      46.136  28.615  30.929  1.00  0.00    -0.014 A 
ATOM     62  C   UNL A   1      47.110  28.703  29.917  1.00  0.00     0.010 A 
ATOM     63  C   UNL A   1      46.417  27.874  32.090  1.00  0.00     0.010 A 
ATOM     64  C   UNL A   1      48.323  28.023  30.043  1.00  0.00     0.020 A 
ATOM     65  C   UNL A   1      47.640  27.212  32.230  1.00  0.00     0.020 A 
ATOM     66  C   UNL A   1      48.576  27.274  31.195  1.00  0.00     0.054 A 
BRANCH  66  67
ATOM     67  S   UNL A   1      50.159  26.400  31.333  1.00  0.00     0.124 S 
ATOM     68  O   UNL A   1      49.958  25.272  30.426  1.00  0.00    -0.237 OA
ATOM     69  O   UNL A   1      51.122  27.402  30.883  1.00  0.00    -0.237 OA
ATOM     70  O   UNL A   1      50.241  26.052  32.749  1.00  0.00    -0.744 OA
ENDBRANCH  66  67
ENDBRANCH  47  61
BRANCH  48  71
ATOM     71  C   UNL A   1      37.146  32.775  29.622  1.00  0.00    -0.014 A 
ATOM     72  C   UNL A   1      36.200  32.819  30.660  1.00  0.00     0.010 A 
ATOM     73  C   UNL A   1      36.838  33.373  28.386  1.00  0.00     0.010 A 
ATOM     74  C   UNL A   1      34.966  33.447  30.467  1.00  0.00     0.020 A 
ATOM     75  C   UNL A   1      35.612  34.018  28.197  1.00  0.00     0.020 A 
ATOM     76  C   UNL A   1      34.682  34.047  29.238  1.00  0.00     0.054 A 
BRANCH  76  77
ATOM     77  S   UNL A   1      33.105  34.923  29.037  1.00  0.00     0.124 S 
ATOM     78  O   UNL A   1      32.412  34.084  28.065  1.00  0.00    -0.237 OA
ATOM     79  O   UNL A   1      32.559  34.904  30.393  1.00  0.00    -0.237 OA
ATOM     80  O   UNL A   1      33.507  36.242  28.555  1.00  0.00    -0.744 OA
ENDBRANCH  76  77
ENDBRANCH  48  71
BRANCH  60  81
ATOM     81  C   UNL A   1      43.114  34.981  32.476  1.00  0.00    -0.014 A 
ATOM     82  C   UNL A   1      43.585  36.048  31.690  1.00  0.00     0.010 A 
ATOM     83  C   UNL A   1      42.951  35.163  33.861  1.00  0.00     0.010 A 
ATOM     84  C   UNL A   1      43.900  37.273  32.283  1.00  0.00     0.020 A 
ATOM     85  C   UNL A   1      43.246  36.393  34.454  1.00  0.00     0.020 A 
ATOM     86  C   UNL A   1      43.726  37.439  33.661  1.00  0.00     0.054 A 
BRANCH  86  87
ATOM     87  S   UNL A   1      44.079  39.059  34.396  1.00  0.00     0.124 S 
ATOM     88  O   UNL A   1      44.003  38.766  35.825  1.00  0.00    -0.237 OA
ATOM     89  O   UNL A   1      45.414  39.359  33.887  1.00  0.00    -0.237 OA
ATOM     90  O   UNL A   1      43.014  39.914  33.876  1.00  0.00    -0.744 OA
ENDBRANCH  86  87
ENDBRANCH  60  81
ENDBRANCH  34  35
ENDBRANCH  26  29
ENDBRANCH  24  25
ENDBRANCH   1  24
TORSDOF 15
ENDMDL
