MODEL 1
REMARK VINA RESULT:     -13.8      0.000      0.000
REMARK SMILES O=C(Cn1c(-c2nc(-c3ccc(C(F)(F)F)cc3)no2)cc2ccccc21)NCCCCNC(=O)c1ccc(-c2c3nc(c(-c4ccc(S(=O)(=O)[O-])cc4)c4ccc([nH]4)c(-c4ccc(S(=O)(=O)[O-])cc4)c4nc(c(-c5ccc(S(=O)(=O)[O-])cc5)c5ccc2[nH]5)C=C4)C=C3)cc1
REMARK SMILES IDX 30 1 29 2 28 3 1 4 2 5 3 7 4 8 5 9 27 10 21 11 22 12 26 13
REMARK SMILES IDX 23 14 25 15 24 16 6 17 7 18 20 19 8 20 19 21 9 22 10 23
REMARK SMILES IDX 18 24 11 25 17 26 12 27 13 28 14 29 15 30 16 31 31 32 32 33
REMARK SMILES IDX 33 34 34 35 35 37 36 38 37 39 95 40 38 41 94 42 39 43 40 44
REMARK SMILES IDX 41 45 88 46 42 47 93 48 87 49 89 50 43 51 92 52 86 53 85 54
REMARK SMILES IDX 44 56 74 57 55 58 73 59 56 60 59 61 72 62 90 63 57 64 58 65
REMARK SMILES IDX 71 67 91 68 60 69 45 70 46 71 54 72 47 73 53 74 48 75 49 76
REMARK SMILES IDX 50 77 51 78 52 79 75 80 76 81 84 82 77 83 83 84 78 85 79 86
REMARK SMILES IDX 80 87 81 88 82 89 61 90 62 91 70 92 63 93 69 94 64 95 65 96
REMARK SMILES IDX 66 97 67 98 68 99
REMARK H PARENT 28 6 33 36 89 55 59 66
REMARK Flexibility Score: inf
ROOT
ATOM      1  C   UNL A   1      33.231  27.996  27.206  1.00  0.00     0.023 C 
ENDROOT
BRANCH   1   2
ATOM      2  C   UNL A   1      34.039  27.854  25.915  1.00  0.00     0.116 C 
BRANCH   2   3
ATOM      3  N   UNL A   1      33.250  27.312  24.822  1.00  0.00    -0.355 N 
ATOM      4  O   UNL A   1      33.465  29.158  23.480  1.00  0.00    -0.273 OA
ATOM      5  C   UNL A   1      33.027  28.024  23.662  1.00  0.00     0.239 C 
ATOM      6  H   UNL A   1      32.863  26.412  24.913  1.00  0.00     0.163 HD
BRANCH   5   7
ATOM      7  C   UNL A   1      32.147  27.353  22.626  1.00  0.00     0.222 C 
BRANCH   7   8
ATOM      8  N   UNL A   1      30.730  27.373  22.973  1.00  0.00    -0.327 N 
ATOM      9  C   UNL A   1      30.023  26.349  23.587  1.00  0.00     0.109 A 
ATOM     10  C   UNL A   1      29.887  28.437  22.674  1.00  0.00     0.049 A 
ATOM     11  C   UNL A   1      28.715  26.790  23.707  1.00  0.00     0.042 A 
ATOM     12  C   UNL A   1      28.624  28.107  23.169  1.00  0.00     0.000 A 
ATOM     13  C   UNL A   1      30.126  29.667  22.025  1.00  0.00     0.027 A 
ATOM     14  C   UNL A   1      27.581  29.053  23.058  1.00  0.00     0.010 A 
ATOM     15  C   UNL A   1      29.074  30.581  21.915  1.00  0.00     0.002 A 
ATOM     16  C   UNL A   1      27.819  30.286  22.434  1.00  0.00     0.001 A 
BRANCH   9  17
ATOM     17  C   UNL A   1      30.609  25.139  24.112  1.00  0.00     0.274 A 
ATOM     18  N   UNL A   1      31.140  24.140  23.417  1.00  0.00    -0.185 NA
ATOM     19  O   UNL A   1      30.602  24.878  25.456  1.00  0.00    -0.332 OA
ATOM     20  C   UNL A   1      31.465  23.217  24.403  1.00  0.00     0.202 A 
ATOM     21  N   UNL A   1      31.139  23.617  25.640  1.00  0.00    -0.057 NA
BRANCH  20  22
ATOM     22  C   UNL A   1      32.115  21.917  24.206  1.00  0.00     0.023 A 
ATOM     23  C   UNL A   1      32.012  21.279  22.957  1.00  0.00     0.013 A 
ATOM     24  C   UNL A   1      32.666  21.194  25.272  1.00  0.00     0.013 A 
ATOM     25  C   UNL A   1      32.385  19.938  22.789  1.00  0.00     0.014 A 
ATOM     26  C   UNL A   1      33.031  19.842  25.107  1.00  0.00     0.014 A 
ATOM     27  C   UNL A   1      32.867  19.191  23.873  1.00  0.00     0.056 A 
BRANCH  27  28
ATOM     28  C   UNL A   1      33.134  17.710  23.704  1.00  0.00     0.416 C 
ATOM     29  F   UNL A   1      32.452  17.174  22.652  1.00  0.00    -0.166 F 
ATOM     30  F   UNL A   1      34.448  17.433  23.468  1.00  0.00    -0.166 F 
ATOM     31  F   UNL A   1      32.787  16.960  24.788  1.00  0.00    -0.166 F 
ENDBRANCH  27  28
ENDBRANCH  20  22
ENDBRANCH   9  17
ENDBRANCH   7   8
ENDBRANCH   5   7
ENDBRANCH   2   3
ENDBRANCH   1   2
BRANCH   1  32
ATOM     32  C   UNL A   1      32.297  29.211  27.251  1.00  0.00     0.023 C 
BRANCH  32  33
ATOM     33  C   UNL A   1      32.895  30.470  26.632  1.00  0.00     0.116 C 
BRANCH  33  34
ATOM     34  N   UNL A   1      32.195  31.679  26.999  1.00  0.00    -0.352 N 
ATOM     35  C   UNL A   1      32.621  32.902  27.406  1.00  0.00     0.251 C 
ATOM     36  H   UNL A   1      31.215  31.601  26.943  1.00  0.00     0.163 HD
ATOM     37  O   UNL A   1      31.801  33.836  27.333  1.00  0.00    -0.269 OA
BRANCH  35  38
ATOM     38  C   UNL A   1      33.893  33.117  28.112  1.00  0.00     0.039 A 
ATOM     39  C   UNL A   1      34.864  34.080  27.830  1.00  0.00     0.014 A 
ATOM     40  C   UNL A   1      34.185  32.153  29.067  1.00  0.00     0.014 A 
ATOM     41  C   UNL A   1      36.196  33.776  28.098  1.00  0.00     0.010 A 
ATOM     42  C   UNL A   1      35.452  32.105  29.569  1.00  0.00     0.010 A 
ATOM     43  C   UNL A   1      36.489  32.629  28.830  1.00  0.00    -0.014 A 
BRANCH  43  44
ATOM     44  C   UNL A   1      37.842  32.236  29.225  1.00  0.00     0.031 A 
ATOM     45  C   UNL A   1      37.981  30.756  28.982  1.00  0.00     0.074 A 
ATOM     46  C   UNL A   1      38.794  33.144  29.624  1.00  0.00     0.049 A 
ATOM     47  N   UNL A   1      37.985  29.841  29.894  1.00  0.00    -0.248 NA
ATOM     48  C   UNL A   1      37.752  30.177  27.632  1.00  0.00     0.031 C 
ATOM     49  C   UNL A   1      38.721  34.617  29.781  1.00  0.00     0.029 A 
ATOM     50  N   UNL A   1      40.116  32.935  29.972  1.00  0.00    -0.354 N 
ATOM     51  C   UNL A   1      38.147  28.629  29.227  1.00  0.00     0.074 A 
ATOM     52  C   UNL A   1      37.760  28.862  27.871  1.00  0.00     0.031 C 
ATOM     53  C   UNL A   1      39.967  35.160  29.904  1.00  0.00     0.029 A 
ATOM     54  C   UNL A   1      40.948  34.094  29.989  1.00  0.00     0.049 A 
ATOM     55  H   UNL A   1      40.461  32.041  30.194  1.00  0.00     0.167 HD
ATOM     56  C   UNL A   1      38.894  27.643  29.791  1.00  0.00     0.031 A 
ATOM     57  C   UNL A   1      42.305  34.157  30.247  1.00  0.00     0.031 A 
ATOM     58  C   UNL A   1      39.083  27.930  31.189  1.00  0.00     0.049 A 
ATOM     59  C   UNL A   1      42.624  32.864  30.914  1.00  0.00     0.074 A 
ATOM     60  C   UNL A   1      38.264  27.961  32.294  1.00  0.00     0.029 A 
ATOM     61  N   UNL A   1      40.145  28.761  31.440  1.00  0.00    -0.354 N 
ATOM     62  N   UNL A   1      42.153  32.566  32.094  1.00  0.00    -0.248 NA
ATOM     63  C   UNL A   1      42.915  31.751  30.023  1.00  0.00     0.031 C 
ATOM     64  C   UNL A   1      38.675  29.117  33.019  1.00  0.00     0.029 A 
ATOM     65  C   UNL A   1      39.835  29.638  32.441  1.00  0.00     0.049 A 
ATOM     66  H   UNL A   1      41.007  28.729  30.966  1.00  0.00     0.167 HD
ATOM     67  C   UNL A   1      41.645  31.285  31.938  1.00  0.00     0.074 A 
ATOM     68  C   UNL A   1      42.150  30.837  30.629  1.00  0.00     0.031 C 
ATOM     69  C   UNL A   1      40.590  30.849  32.694  1.00  0.00     0.031 A 
BRANCH  56  70
ATOM     70  C   UNL A   1      39.833  26.729  29.036  1.00  0.00    -0.014 A 
ATOM     71  C   UNL A   1      41.235  26.876  28.975  1.00  0.00     0.010 A 
ATOM     72  C   UNL A   1      39.303  25.512  28.554  1.00  0.00     0.010 A 
ATOM     73  C   UNL A   1      42.058  25.884  28.416  1.00  0.00     0.020 A 
ATOM     74  C   UNL A   1      40.117  24.504  28.024  1.00  0.00     0.020 A 
ATOM     75  C   UNL A   1      41.491  24.707  27.933  1.00  0.00     0.054 A 
BRANCH  75  76
ATOM     76  S   UNL A   1      42.552  23.459  27.158  1.00  0.00     0.124 S 
ATOM     77  O   UNL A   1      42.886  22.603  28.294  1.00  0.00    -0.237 OA
ATOM     78  O   UNL A   1      41.664  22.863  26.160  1.00  0.00    -0.237 OA
ATOM     79  O   UNL A   1      43.663  24.236  26.620  1.00  0.00    -0.744 OA
ENDBRANCH  75  76
ENDBRANCH  56  70
BRANCH  57  80
ATOM     80  C   UNL A   1      43.409  34.837  29.454  1.00  0.00    -0.014 A 
ATOM     81  C   UNL A   1      43.173  35.109  28.096  1.00  0.00     0.010 A 
ATOM     82  C   UNL A   1      44.770  34.881  29.876  1.00  0.00     0.010 A 
ATOM     83  C   UNL A   1      44.224  35.303  27.182  1.00  0.00     0.020 A 
ATOM     84  C   UNL A   1      45.839  35.103  28.961  1.00  0.00     0.020 A 
ATOM     85  C   UNL A   1      45.553  35.260  27.605  1.00  0.00     0.054 A 
BRANCH  85  86
ATOM     86  S   UNL A   1      46.853  35.297  26.322  1.00  0.00     0.124 S 
ATOM     87  O   UNL A   1      46.393  34.266  25.394  1.00  0.00    -0.237 OA
ATOM     88  O   UNL A   1      46.765  36.668  25.822  1.00  0.00    -0.237 OA
ATOM     89  O   UNL A   1      48.080  34.982  27.048  1.00  0.00    -0.744 OA
ENDBRANCH  85  86
ENDBRANCH  57  80
BRANCH  69  90
ATOM     90  C   UNL A   1      40.093  31.685  33.863  1.00  0.00    -0.014 A 
ATOM     91  C   UNL A   1      40.525  31.243  35.124  1.00  0.00     0.010 A 
ATOM     92  C   UNL A   1      39.068  32.660  33.815  1.00  0.00     0.010 A 
ATOM     93  C   UNL A   1      39.921  31.688  36.298  1.00  0.00     0.020 A 
ATOM     94  C   UNL A   1      38.482  33.147  35.006  1.00  0.00     0.020 A 
ATOM     95  C   UNL A   1      38.896  32.631  36.237  1.00  0.00     0.054 A 
BRANCH  95  96
ATOM     96  S   UNL A   1      38.120  33.117  37.804  1.00  0.00     0.124 S 
ATOM     97  O   UNL A   1      38.574  32.068  38.715  1.00  0.00    -0.237 OA
ATOM     98  O   UNL A   1      38.689  34.440  38.046  1.00  0.00    -0.237 OA
ATOM     99  O   UNL A   1      36.687  33.104  37.511  1.00  0.00    -0.744 OA
ENDBRANCH  95  96
ENDBRANCH  69  90
ENDBRANCH  43  44
ENDBRANCH  35  38
ENDBRANCH  33  34
ENDBRANCH  32  33
ENDBRANCH   1  32
TORSDOF 18
ENDMDL
MODEL 2
REMARK VINA RESULT:     -13.7      2.904      5.057
REMARK SMILES O=C(Cn1c(-c2nc(-c3ccc(C(F)(F)F)cc3)no2)cc2ccccc21)NCCCCNC(=O)c1ccc(-c2c3nc(c(-c4ccc(S(=O)(=O)[O-])cc4)c4ccc([nH]4)c(-c4ccc(S(=O)(=O)[O-])cc4)c4nc(c(-c5ccc(S(=O)(=O)[O-])cc5)c5ccc2[nH]5)C=C4)C=C3)cc1
REMARK SMILES IDX 30 1 29 2 28 3 1 4 2 5 3 7 4 8 5 9 27 10 21 11 22 12 26 13
REMARK SMILES IDX 23 14 25 15 24 16 6 17 7 18 20 19 8 20 19 21 9 22 10 23
REMARK SMILES IDX 18 24 11 25 17 26 12 27 13 28 14 29 15 30 16 31 31 32 32 33
REMARK SMILES IDX 33 34 34 35 35 37 36 38 37 39 95 40 38 41 94 42 39 43 40 44
REMARK SMILES IDX 41 45 88 46 42 47 93 48 87 49 89 50 43 51 92 52 86 53 85 54
REMARK SMILES IDX 44 56 74 57 55 58 73 59 56 60 59 61 72 62 90 63 57 64 58 65
REMARK SMILES IDX 71 67 91 68 60 69 45 70 46 71 54 72 47 73 53 74 48 75 49 76
REMARK SMILES IDX 50 77 51 78 52 79 75 80 76 81 84 82 77 83 83 84 78 85 79 86
REMARK SMILES IDX 80 87 81 88 82 89 61 90 62 91 70 92 63 93 69 94 64 95 65 96
REMARK SMILES IDX 66 97 67 98 68 99
REMARK H PARENT 28 6 33 36 89 55 59 66
REMARK Flexibility Score: inf
ROOT
ATOM      1  C   UNL A   1      31.935  27.909  27.185  1.00  0.00     0.023 C 
ENDROOT
BRANCH   1   2
ATOM      2  C   UNL A   1      31.254  26.642  26.667  1.00  0.00     0.116 C 
BRANCH   2   3
ATOM      3  N   UNL A   1      32.202  25.676  26.141  1.00  0.00    -0.355 N 
ATOM      4  O   UNL A   1      31.223  23.861  27.142  1.00  0.00    -0.273 OA
ATOM      5  C   UNL A   1      32.103  24.329  26.423  1.00  0.00     0.239 C 
ATOM      6  H   UNL A   1      32.937  25.992  25.567  1.00  0.00     0.163 HD
BRANCH   5   7
ATOM      7  C   UNL A   1      33.189  23.444  25.844  1.00  0.00     0.222 C 
BRANCH   7   8
ATOM      8  N   UNL A   1      32.730  22.622  24.729  1.00  0.00    -0.327 N 
ATOM      9  C   UNL A   1      32.126  23.083  23.567  1.00  0.00     0.109 A 
ATOM     10  C   UNL A   1      32.803  21.234  24.724  1.00  0.00     0.049 A 
ATOM     11  C   UNL A   1      31.843  21.964  22.801  1.00  0.00     0.042 A 
ATOM     12  C   UNL A   1      32.291  20.804  23.499  1.00  0.00     0.000 A 
ATOM     13  C   UNL A   1      33.289  20.319  25.682  1.00  0.00     0.027 A 
ATOM     14  C   UNL A   1      32.310  19.424  23.200  1.00  0.00     0.010 A 
ATOM     15  C   UNL A   1      33.283  18.957  25.369  1.00  0.00     0.002 A 
ATOM     16  C   UNL A   1      32.811  18.512  24.140  1.00  0.00     0.001 A 
BRANCH   9  17
ATOM     17  C   UNL A   1      31.975  24.473  23.208  1.00  0.00     0.274 A 
ATOM     18  N   UNL A   1      30.884  25.217  23.330  1.00  0.00    -0.185 NA
ATOM     19  O   UNL A   1      32.998  25.160  22.612  1.00  0.00    -0.332 OA
ATOM     20  C   UNL A   1      31.269  26.425  22.764  1.00  0.00     0.202 A 
ATOM     21  N   UNL A   1      32.528  26.423  22.303  1.00  0.00    -0.057 NA
BRANCH  20  22
ATOM     22  C   UNL A   1      30.455  27.640  22.650  1.00  0.00     0.023 A 
ATOM     23  C   UNL A   1      31.043  28.817  22.151  1.00  0.00     0.013 A 
ATOM     24  C   UNL A   1      29.171  27.728  23.203  1.00  0.00     0.013 A 
ATOM     25  C   UNL A   1      30.398  30.057  22.261  1.00  0.00     0.014 A 
ATOM     26  C   UNL A   1      28.527  28.976  23.324  1.00  0.00     0.014 A 
ATOM     27  C   UNL A   1      29.146  30.158  22.881  1.00  0.00     0.056 A 
BRANCH  27  28
ATOM     28  C   UNL A   1      28.530  31.522  23.112  1.00  0.00     0.416 C 
ATOM     29  F   UNL A   1      29.102  32.182  24.159  1.00  0.00    -0.166 F 
ATOM     30  F   UNL A   1      28.665  32.352  22.038  1.00  0.00    -0.166 F 
ATOM     31  F   UNL A   1      27.196  31.485  23.386  1.00  0.00    -0.166 F 
ENDBRANCH  27  28
ENDBRANCH  20  22
ENDBRANCH   9  17
ENDBRANCH   7   8
ENDBRANCH   5   7
ENDBRANCH   2   3
ENDBRANCH   1   2
BRANCH   1  32
ATOM     32  C   UNL A   1      32.042  29.046  26.161  1.00  0.00     0.023 C 
BRANCH  32  33
ATOM     33  C   UNL A   1      32.935  30.197  26.610  1.00  0.00     0.116 C 
BRANCH  33  34
ATOM     34  N   UNL A   1      32.200  31.390  26.967  1.00  0.00    -0.352 N 
ATOM     35  C   UNL A   1      32.590  32.628  27.361  1.00  0.00     0.251 C 
ATOM     36  H   UNL A   1      31.223  31.282  26.913  1.00  0.00     0.163 HD
ATOM     37  O   UNL A   1      31.743  33.536  27.280  1.00  0.00    -0.269 OA
BRANCH  35  38
ATOM     38  C   UNL A   1      33.856  32.887  28.063  1.00  0.00     0.039 A 
ATOM     39  C   UNL A   1      34.800  33.873  27.767  1.00  0.00     0.014 A 
ATOM     40  C   UNL A   1      34.175  31.944  29.030  1.00  0.00     0.014 A 
ATOM     41  C   UNL A   1      36.140  33.609  28.038  1.00  0.00     0.010 A 
ATOM     42  C   UNL A   1      35.443  31.938  29.532  1.00  0.00     0.010 A 
ATOM     43  C   UNL A   1      36.465  32.480  28.786  1.00  0.00    -0.014 A 
BRANCH  43  44
ATOM     44  C   UNL A   1      37.828  32.130  29.184  1.00  0.00     0.031 A 
ATOM     45  C   UNL A   1      38.010  30.653  28.956  1.00  0.00     0.074 A 
ATOM     46  C   UNL A   1      38.754  33.069  29.574  1.00  0.00     0.049 A 
ATOM     47  N   UNL A   1      38.039  29.747  29.876  1.00  0.00    -0.248 NA
ATOM     48  C   UNL A   1      37.798  30.054  27.611  1.00  0.00     0.031 C 
ATOM     49  C   UNL A   1      38.639  34.540  29.718  1.00  0.00     0.029 A 
ATOM     50  N   UNL A   1      40.081  32.901  29.924  1.00  0.00    -0.354 N 
ATOM     51  C   UNL A   1      38.236  28.533  29.221  1.00  0.00     0.074 A 
ATOM     52  C   UNL A   1      37.844  28.743  27.863  1.00  0.00     0.031 C 
ATOM     53  C   UNL A   1      39.869  35.120  29.835  1.00  0.00     0.029 A 
ATOM     54  C   UNL A   1      40.880  34.083  29.931  1.00  0.00     0.049 A 
ATOM     55  H   UNL A   1      40.451  32.019  30.156  1.00  0.00     0.167 HD
ATOM     56  C   UNL A   1      39.012  27.574  29.795  1.00  0.00     0.031 A 
ATOM     57  C   UNL A   1      42.235  34.187  30.189  1.00  0.00     0.031 A 
ATOM     58  C   UNL A   1      39.191  27.880  31.190  1.00  0.00     0.049 A 
ATOM     59  C   UNL A   1      42.590  32.911  30.868  1.00  0.00     0.074 A 
ATOM     60  C   UNL A   1      38.371  27.899  32.294  1.00  0.00     0.029 A 
ATOM     61  N   UNL A   1      40.229  28.744  31.433  1.00  0.00    -0.354 N 
ATOM     62  N   UNL A   1      42.127  32.611  32.050  1.00  0.00    -0.248 NA
ATOM     63  C   UNL A   1      42.913  31.798  29.988  1.00  0.00     0.031 C 
ATOM     64  C   UNL A   1      38.749  29.073  33.009  1.00  0.00     0.029 A 
ATOM     65  C   UNL A   1      39.893  29.621  32.426  1.00  0.00     0.049 A 
ATOM     66  H   UNL A   1      41.092  28.732  30.960  1.00  0.00     0.167 HD
ATOM     67  C   UNL A   1      41.656  31.314  31.907  1.00  0.00     0.074 A 
ATOM     68  C   UNL A   1      42.175  30.869  30.602  1.00  0.00     0.031 C 
ATOM     69  C   UNL A   1      40.614  30.856  32.667  1.00  0.00     0.031 A 
BRANCH  56  70
ATOM     70  C   UNL A   1      39.976  26.681  29.048  1.00  0.00    -0.014 A 
ATOM     71  C   UNL A   1      41.382  26.800  29.077  1.00  0.00     0.010 A 
ATOM     72  C   UNL A   1      39.453  25.502  28.474  1.00  0.00     0.010 A 
ATOM     73  C   UNL A   1      42.218  25.821  28.516  1.00  0.00     0.020 A 
ATOM     74  C   UNL A   1      40.278  24.505  27.939  1.00  0.00     0.020 A 
ATOM     75  C   UNL A   1      41.658  24.683  27.940  1.00  0.00     0.054 A 
BRANCH  75  76
ATOM     76  S   UNL A   1      42.740  23.454  27.164  1.00  0.00     0.124 S 
ATOM     77  O   UNL A   1      42.246  22.209  27.747  1.00  0.00    -0.237 OA
ATOM     78  O   UNL A   1      42.460  23.637  25.740  1.00  0.00    -0.237 OA
ATOM     79  O   UNL A   1      44.077  23.850  27.591  1.00  0.00    -0.744 OA
ENDBRANCH  75  76
ENDBRANCH  56  70
BRANCH  57  80
ATOM     80  C   UNL A   1      43.318  34.891  29.389  1.00  0.00    -0.014 A 
ATOM     81  C   UNL A   1      43.044  35.217  28.050  1.00  0.00     0.010 A 
ATOM     82  C   UNL A   1      44.692  34.911  29.770  1.00  0.00     0.010 A 
ATOM     83  C   UNL A   1      44.069  35.439  27.112  1.00  0.00     0.020 A 
ATOM     84  C   UNL A   1      45.734  35.162  28.833  1.00  0.00     0.020 A 
ATOM     85  C   UNL A   1      45.409  35.372  27.493  1.00  0.00     0.054 A 
BRANCH  85  86
ATOM     86  S   UNL A   1      46.671  35.451  26.173  1.00  0.00     0.124 S 
ATOM     87  O   UNL A   1      47.841  34.883  26.839  1.00  0.00    -0.237 OA
ATOM     88  O   UNL A   1      46.085  34.617  25.126  1.00  0.00    -0.237 OA
ATOM     89  O   UNL A   1      46.763  36.873  25.852  1.00  0.00    -0.744 OA
ENDBRANCH  85  86
ENDBRANCH  57  80
BRANCH  69  90
ATOM     90  C   UNL A   1      40.093  31.689  33.828  1.00  0.00    -0.014 A 
ATOM     91  C   UNL A   1      40.463  31.219  35.098  1.00  0.00     0.010 A 
ATOM     92  C   UNL A   1      39.095  32.690  33.754  1.00  0.00     0.010 A 
ATOM     93  C   UNL A   1      39.826  31.663  36.254  1.00  0.00     0.020 A 
ATOM     94  C   UNL A   1      38.475  33.176  34.928  1.00  0.00     0.020 A 
ATOM     95  C   UNL A   1      38.828  32.633  36.167  1.00  0.00     0.054 A 
BRANCH  95  96
ATOM     96  S   UNL A   1      38.003  33.118  37.709  1.00  0.00     0.124 S 
ATOM     97  O   UNL A   1      38.596  34.426  37.980  1.00  0.00    -0.237 OA
ATOM     98  O   UNL A   1      36.594  33.142  37.325  1.00  0.00    -0.237 OA
ATOM     99  O   UNL A   1      38.369  32.066  38.656  1.00  0.00    -0.744 OA
ENDBRANCH  95  96
ENDBRANCH  69  90
ENDBRANCH  43  44
ENDBRANCH  35  38
ENDBRANCH  33  34
ENDBRANCH  32  33
ENDBRANCH   1  32
TORSDOF 18
ENDMDL
MODEL 3
REMARK VINA RESULT:     -13.6      3.303      7.550
REMARK SMILES O=C(Cn1c(-c2nc(-c3ccc(C(F)(F)F)cc3)no2)cc2ccccc21)NCCCCNC(=O)c1ccc(-c2c3nc(c(-c4ccc(S(=O)(=O)[O-])cc4)c4ccc([nH]4)c(-c4ccc(S(=O)(=O)[O-])cc4)c4nc(c(-c5ccc(S(=O)(=O)[O-])cc5)c5ccc2[nH]5)C=C4)C=C3)cc1
REMARK SMILES IDX 30 1 29 2 28 3 1 4 2 5 3 7 4 8 5 9 27 10 21 11 22 12 26 13
REMARK SMILES IDX 23 14 25 15 24 16 6 17 7 18 20 19 8 20 19 21 9 22 10 23
REMARK SMILES IDX 18 24 11 25 17 26 12 27 13 28 14 29 15 30 16 31 31 32 32 33
REMARK SMILES IDX 33 34 34 35 35 37 36 38 37 39 95 40 38 41 94 42 39 43 40 44
REMARK SMILES IDX 41 45 88 46 42 47 93 48 87 49 89 50 43 51 92 52 86 53 85 54
REMARK SMILES IDX 44 56 74 57 55 58 73 59 56 60 59 61 72 62 90 63 57 64 58 65
REMARK SMILES IDX 71 67 91 68 60 69 45 70 46 71 54 72 47 73 53 74 48 75 49 76
REMARK SMILES IDX 50 77 51 78 52 79 75 80 76 81 84 82 77 83 83 84 78 85 79 86
REMARK SMILES IDX 80 87 81 88 82 89 61 90 62 91 70 92 63 93 69 94 64 95 65 96
REMARK SMILES IDX 66 97 67 98 68 99
REMARK H PARENT 28 6 33 36 89 55 59 66
REMARK Flexibility Score: inf
ROOT
ATOM      1  C   UNL A   1      33.293  28.918  26.977  1.00  0.00     0.023 C 
ENDROOT
BRANCH   1   2
ATOM      2  C   UNL A   1      34.160  27.837  26.331  1.00  0.00     0.116 C 
BRANCH   2   3
ATOM      3  N   UNL A   1      33.507  27.203  25.199  1.00  0.00    -0.355 N 
ATOM      4  O   UNL A   1      34.179  28.773  23.670  1.00  0.00    -0.273 OA
ATOM      5  C   UNL A   1      33.577  27.733  23.927  1.00  0.00     0.239 C 
ATOM      6  H   UNL A   1      32.999  26.373  25.344  1.00  0.00     0.163 HD
BRANCH   5   7
ATOM      7  C   UNL A   1      32.809  26.991  22.852  1.00  0.00     0.222 C 
BRANCH   7   8
ATOM      8  N   UNL A   1      31.394  26.821  23.167  1.00  0.00    -0.327 N 
ATOM      9  C   UNL A   1      30.802  25.677  23.685  1.00  0.00     0.109 A 
ATOM     10  C   UNL A   1      30.437  27.802  22.932  1.00  0.00     0.049 A 
ATOM     11  C   UNL A   1      29.451  25.954  23.808  1.00  0.00     0.042 A 
ATOM     12  C   UNL A   1      29.214  27.291  23.371  1.00  0.00     0.000 A 
ATOM     13  C   UNL A   1      30.541  29.098  22.385  1.00  0.00     0.027 A 
ATOM     14  C   UNL A   1      28.071  28.117  23.310  1.00  0.00     0.010 A 
ATOM     15  C   UNL A   1      29.391  29.891  22.321  1.00  0.00     0.002 A 
ATOM     16  C   UNL A   1      28.172  29.414  22.787  1.00  0.00     0.001 A 
BRANCH   9  17
ATOM     17  C   UNL A   1      31.518  24.504  24.127  1.00  0.00     0.274 A 
ATOM     18  N   UNL A   1      31.787  23.415  23.418  1.00  0.00    -0.185 NA
ATOM     19  O   UNL A   1      31.946  24.389  25.422  1.00  0.00    -0.332 OA
ATOM     20  C   UNL A   1      32.407  22.588  24.346  1.00  0.00     0.202 A 
ATOM     21  N   UNL A   1      32.504  23.132  25.567  1.00  0.00    -0.057 NA
BRANCH  20  22
ATOM     22  C   UNL A   1      32.948  21.247  24.102  1.00  0.00     0.023 A 
ATOM     23  C   UNL A   1      32.191  20.327  23.354  1.00  0.00     0.013 A 
ATOM     24  C   UNL A   1      34.099  20.781  24.750  1.00  0.00     0.013 A 
ATOM     25  C   UNL A   1      32.532  18.968  23.308  1.00  0.00     0.014 A 
ATOM     26  C   UNL A   1      34.436  19.413  24.713  1.00  0.00     0.014 A 
ATOM     27  C   UNL A   1      33.641  18.487  24.017  1.00  0.00     0.056 A 
BRANCH  27  28
ATOM     28  C   UNL A   1      33.913  16.998  24.066  1.00  0.00     0.416 C 
ATOM     29  F   UNL A   1      34.362  16.511  22.874  1.00  0.00    -0.166 F 
ATOM     30  F   UNL A   1      34.868  16.664  24.980  1.00  0.00    -0.166 F 
ATOM     31  F   UNL A   1      32.821  16.247  24.382  1.00  0.00    -0.166 F 
ENDBRANCH  27  28
ENDBRANCH  20  22
ENDBRANCH   9  17
ENDBRANCH   7   8
ENDBRANCH   5   7
ENDBRANCH   2   3
ENDBRANCH   1   2
BRANCH   1  32
ATOM     32  C   UNL A   1      33.829  30.347  26.826  1.00  0.00     0.023 C 
BRANCH  32  33
ATOM     33  C   UNL A   1      34.971  30.681  27.778  1.00  0.00     0.116 C 
BRANCH  33  34
ATOM     34  N   UNL A   1      34.534  31.315  29.001  1.00  0.00    -0.352 N 
ATOM     35  C   UNL A   1      35.199  31.761  30.096  1.00  0.00     0.251 C 
ATOM     36  H   UNL A   1      33.559  31.451  29.049  1.00  0.00     0.163 HD
ATOM     37  O   UNL A   1      34.592  32.554  30.839  1.00  0.00    -0.269 OA
BRANCH  35  38
ATOM     38  C   UNL A   1      36.481  31.195  30.544  1.00  0.00     0.039 A 
ATOM     39  C   UNL A   1      37.688  31.873  30.725  1.00  0.00     0.014 A 
ATOM     40  C   UNL A   1      36.483  29.811  30.658  1.00  0.00     0.014 A 
ATOM     41  C   UNL A   1      38.875  31.180  30.511  1.00  0.00     0.010 A 
ATOM     42  C   UNL A   1      37.684  29.177  30.792  1.00  0.00     0.010 A 
ATOM     43  C   UNL A   1      38.827  29.799  30.341  1.00  0.00    -0.014 A 
BRANCH  43  44
ATOM     44  C   UNL A   1      40.010  28.956  30.168  1.00  0.00     0.031 A 
ATOM     45  C   UNL A   1      40.628  28.747  31.526  1.00  0.00     0.074 A 
ATOM     46  C   UNL A   1      40.356  28.396  28.961  1.00  0.00     0.049 A 
ATOM     47  N   UNL A   1      41.706  29.313  31.957  1.00  0.00    -0.248 NA
ATOM     48  C   UNL A   1      39.845  28.150  32.641  1.00  0.00     0.031 C 
ATOM     49  C   UNL A   1      39.717  28.502  27.627  1.00  0.00     0.029 A 
ATOM     50  N   UNL A   1      41.401  27.545  28.655  1.00  0.00    -0.354 N 
ATOM     51  C   UNL A   1      41.913  28.826  33.246  1.00  0.00     0.074 A 
ATOM     52  C   UNL A   1      40.650  28.327  33.692  1.00  0.00     0.031 C 
ATOM     53  C   UNL A   1      40.202  27.554  26.774  1.00  0.00     0.029 A 
ATOM     54  C   UNL A   1      41.297  26.849  27.414  1.00  0.00     0.049 A 
ATOM     55  H   UNL A   1      42.171  27.428  29.257  1.00  0.00     0.167 HD
ATOM     56  C   UNL A   1      43.179  28.590  33.683  1.00  0.00     0.031 A 
ATOM     57  C   UNL A   1      42.168  25.907  26.897  1.00  0.00     0.031 A 
ATOM     58  C   UNL A   1      44.114  29.257  32.816  1.00  0.00     0.049 A 
ATOM     59  C   UNL A   1      43.425  26.086  27.675  1.00  0.00     0.074 A 
ATOM     60  C   UNL A   1      44.433  30.570  32.557  1.00  0.00     0.029 A 
ATOM     61  N   UNL A   1      44.452  28.524  31.707  1.00  0.00    -0.354 N 
ATOM     62  N   UNL A   1      44.140  27.174  27.582  1.00  0.00    -0.248 NA
ATOM     63  C   UNL A   1      43.496  25.360  28.933  1.00  0.00     0.031 C 
ATOM     64  C   UNL A   1      44.599  30.632  31.143  1.00  0.00     0.029 A 
ATOM     65  C   UNL A   1      44.562  29.339  30.615  1.00  0.00     0.049 A 
ATOM     66  H   UNL A   1      44.596  27.551  31.700  1.00  0.00     0.167 HD
ATOM     67  C   UNL A   1      44.380  27.532  28.900  1.00  0.00     0.074 A 
ATOM     68  C   UNL A   1      43.952  26.363  29.690  1.00  0.00     0.031 C 
ATOM     69  C   UNL A   1      44.555  28.842  29.254  1.00  0.00     0.031 A 
BRANCH  56  70
ATOM     70  C   UNL A   1      43.592  27.416  34.542  1.00  0.00    -0.014 A 
ATOM     71  C   UNL A   1      43.523  26.061  34.153  1.00  0.00     0.010 A 
ATOM     72  C   UNL A   1      44.316  27.699  35.721  1.00  0.00     0.010 A 
ATOM     73  C   UNL A   1      44.101  25.041  34.925  1.00  0.00     0.020 A 
ATOM     74  C   UNL A   1      44.923  26.693  36.481  1.00  0.00     0.020 A 
ATOM     75  C   UNL A   1      44.789  25.363  36.092  1.00  0.00     0.054 A 
BRANCH  75  76
ATOM     76  S   UNL A   1      45.479  24.037  37.116  1.00  0.00     0.124 S 
ATOM     77  O   UNL A   1      44.898  24.332  38.422  1.00  0.00    -0.237 OA
ATOM     78  O   UNL A   1      44.972  22.832  36.459  1.00  0.00    -0.237 OA
ATOM     79  O   UNL A   1      46.921  24.239  37.019  1.00  0.00    -0.744 OA
ENDBRANCH  75  76
ENDBRANCH  56  70
BRANCH  57  80
ATOM     80  C   UNL A   1      41.874  24.527  26.332  1.00  0.00    -0.014 A 
ATOM     81  C   UNL A   1      40.743  23.845  26.812  1.00  0.00     0.010 A 
ATOM     82  C   UNL A   1      42.840  23.735  25.645  1.00  0.00     0.010 A 
ATOM     83  C   UNL A   1      40.623  22.447  26.720  1.00  0.00     0.020 A 
ATOM     84  C   UNL A   1      42.711  22.322  25.524  1.00  0.00     0.020 A 
ATOM     85  C   UNL A   1      41.621  21.684  26.115  1.00  0.00     0.054 A 
BRANCH  85  86
ATOM     86  S   UNL A   1      41.491  19.865  26.237  1.00  0.00     0.124 S 
ATOM     87  O   UNL A   1      41.885  19.627  27.624  1.00  0.00    -0.237 OA
ATOM     88  O   UNL A   1      40.079  19.628  25.942  1.00  0.00    -0.237 OA
ATOM     89  O   UNL A   1      42.425  19.372  25.229  1.00  0.00    -0.744 OA
ENDBRANCH  85  86
ENDBRANCH  57  80
BRANCH  69  90
ATOM     90  C   UNL A   1      44.702  29.908  28.179  1.00  0.00    -0.014 A 
ATOM     91  C   UNL A   1      46.006  30.403  28.019  1.00  0.00     0.010 A 
ATOM     92  C   UNL A   1      43.645  30.602  27.543  1.00  0.00     0.010 A 
ATOM     93  C   UNL A   1      46.259  31.581  27.320  1.00  0.00     0.020 A 
ATOM     94  C   UNL A   1      43.901  31.775  26.796  1.00  0.00     0.020 A 
ATOM     95  C   UNL A   1      45.207  32.269  26.718  1.00  0.00     0.054 A 
BRANCH  95  96
ATOM     96  S   UNL A   1      45.606  33.826  25.875  1.00  0.00     0.124 S 
ATOM     97  O   UNL A   1      45.048  34.824  26.785  1.00  0.00    -0.237 OA
ATOM     98  O   UNL A   1      47.065  33.790  25.810  1.00  0.00    -0.237 OA
ATOM     99  O   UNL A   1      44.926  33.718  24.585  1.00  0.00    -0.744 OA
ENDBRANCH  95  96
ENDBRANCH  69  90
ENDBRANCH  43  44
ENDBRANCH  35  38
ENDBRANCH  33  34
ENDBRANCH  32  33
ENDBRANCH   1  32
TORSDOF 18
ENDMDL
