MODEL 1
REMARK VINA RESULT:     -12.0      0.000      0.000
REMARK SMILES C[C@H]1Oc2ccccc2C=C1/C=C/C(=O)N[C@H](C(=O)NCCCCNC(=O)c1ccc(-c2c3nc(c(-c4ccc(S(=O)(=O)[O-])cc4)c4ccc([nH]4)c(-c4ccc(S(=O)(=O)[O-])cc4)c4nc(c(-c5ccc(S(=O)(=O)[O-])cc5)c5ccc2[nH]5)C=C4)C=C3)cc1)c1ccccc1
REMARK SMILES IDX 22 1 21 2 20 3 18 4 19 5 17 7 16 8 14 9 15 10 13 12 12 13
REMARK SMILES IDX 11 14 1 15 2 16 3 17 4 18 10 19 5 20 9 21 6 22 8 23 7 24
REMARK SMILES IDX 88 25 89 26 93 27 90 28 92 29 91 30 23 31 24 32 25 33 26 34
REMARK SMILES IDX 27 36 28 37 29 38 87 39 30 40 86 41 31 42 32 43 33 44 80 45
REMARK SMILES IDX 34 46 85 47 79 48 81 49 35 50 84 51 78 52 77 53 36 55 66 56
REMARK SMILES IDX 47 57 65 58 48 59 51 60 64 61 82 62 49 63 50 64 63 66 83 67
REMARK SMILES IDX 52 68 37 69 38 70 46 71 39 72 45 73 40 74 41 75 42 76 43 77
REMARK SMILES IDX 44 78 67 79 68 80 76 81 69 82 75 83 70 84 71 85 72 86 73 87
REMARK SMILES IDX 74 88 53 89 54 90 62 91 55 92 61 93 56 94 57 95 58 96 59 97
REMARK SMILES IDX 60 98
REMARK H PARENT 20 6 16 11 25 35 81 54 51 65
REMARK Flexibility Score: inf
ROOT
ATOM      1  C   UNL A   1      31.325  29.687  25.298  1.00  0.00     0.023 C 
ENDROOT
BRANCH   1   2
ATOM      2  C   UNL A   1      31.248  28.799  24.066  1.00  0.00     0.116 C 
BRANCH   2   3
ATOM      3  N   UNL A   1      29.989  28.104  23.885  1.00  0.00    -0.354 N 
ATOM      4  C   UNL A   1      29.623  26.905  24.450  1.00  0.00     0.247 C 
ATOM      5  O   UNL A   1      28.492  26.468  24.223  1.00  0.00    -0.272 OA
ATOM      6  H   UNL A   1      29.328  28.535  23.297  1.00  0.00     0.163 HD
BRANCH   4   7
ATOM      7  C   UNL A   1      30.652  26.077  25.278  1.00  0.00     0.202 C 
BRANCH   7   8
ATOM      8  N   UNL A   1      29.875  25.111  26.071  1.00  0.00    -0.337 N 
ATOM      9  C   UNL A   1      30.203  23.932  26.663  1.00  0.00     0.244 C 
ATOM     10  O   UNL A   1      29.440  23.407  27.467  1.00  0.00    -0.270 OA
ATOM     11  H   UNL A   1      28.933  25.369  26.197  1.00  0.00     0.164 HD
BRANCH   9  12
ATOM     12  C   UNL A   1      31.379  23.194  26.179  1.00  0.00     0.071 C 
ATOM     13  C   UNL A   1      32.459  22.947  26.934  1.00  0.00     0.013 C 
BRANCH  13  14
ATOM     14  C   UNL A   1      33.749  22.532  26.381  1.00  0.00    -0.007 C 
ATOM     15  C   UNL A   1      32.839  20.658  24.892  1.00  0.00     0.058 C 
ATOM     16  C   UNL A   1      33.872  21.071  25.943  1.00  0.00     0.200 C 
ATOM     17  O   UNL A   1      35.140  20.668  25.389  1.00  0.00    -0.485 OA
ATOM     18  C   UNL A   1      36.221  21.464  25.614  1.00  0.00     0.127 A 
ATOM     19  C   UNL A   1      34.822  23.339  26.391  1.00  0.00     0.019 C 
ATOM     20  C   UNL A   1      37.467  20.907  25.320  1.00  0.00     0.047 A 
ATOM     21  C   UNL A   1      36.127  22.773  26.082  1.00  0.00     0.017 A 
ATOM     22  C   UNL A   1      38.630  21.651  25.515  1.00  0.00     0.004 A 
ATOM     23  C   UNL A   1      37.298  23.516  26.280  1.00  0.00     0.012 A 
ATOM     24  C   UNL A   1      38.545  22.954  25.998  1.00  0.00     0.001 A 
ENDBRANCH  13  14
ENDBRANCH   9  12
ENDBRANCH   7   8
BRANCH   7  25
ATOM     25  C   UNL A   1      31.804  25.588  24.407  1.00  0.00    -0.016 A 
ATOM     26  C   UNL A   1      31.500  24.753  23.313  1.00  0.00     0.006 A 
ATOM     27  C   UNL A   1      33.156  25.870  24.659  1.00  0.00     0.006 A 
ATOM     28  C   UNL A   1      32.510  24.229  22.504  1.00  0.00     0.000 A 
ATOM     29  C   UNL A   1      34.166  25.357  23.841  1.00  0.00     0.000 A 
ATOM     30  C   UNL A   1      33.842  24.536  22.765  1.00  0.00     0.000 A 
ENDBRANCH   7  25
ENDBRANCH   4   7
ENDBRANCH   2   3
ENDBRANCH   1   2
BRANCH   1  31
ATOM     31  C   UNL A   1      31.841  28.993  26.559  1.00  0.00     0.023 C 
BRANCH  31  32
ATOM     32  C   UNL A   1      33.287  29.299  26.948  1.00  0.00     0.116 C 
BRANCH  32  33
ATOM     33  N   UNL A   1      33.469  30.596  27.592  1.00  0.00    -0.352 N 
ATOM     34  C   UNL A   1      34.549  31.093  28.295  1.00  0.00     0.251 C 
ATOM     35  H   UNL A   1      32.705  31.211  27.513  1.00  0.00     0.163 HD
ATOM     36  O   UNL A   1      34.491  32.182  28.846  1.00  0.00    -0.269 OA
BRANCH  34  37
ATOM     37  C   UNL A   1      35.762  30.255  28.417  1.00  0.00     0.039 A 
ATOM     38  C   UNL A   1      36.019  29.574  29.605  1.00  0.00     0.014 A 
ATOM     39  C   UNL A   1      36.700  30.258  27.383  1.00  0.00     0.014 A 
ATOM     40  C   UNL A   1      37.309  29.129  29.861  1.00  0.00     0.010 A 
ATOM     41  C   UNL A   1      37.965  29.706  27.605  1.00  0.00     0.010 A 
ATOM     42  C   UNL A   1      38.308  29.220  28.877  1.00  0.00    -0.014 A 
BRANCH  42  43
ATOM     43  C   UNL A   1      39.714  28.874  29.224  1.00  0.00     0.031 A 
ATOM     44  C   UNL A   1      40.298  27.542  28.815  1.00  0.00     0.074 A 
ATOM     45  C   UNL A   1      40.495  29.789  29.830  1.00  0.00     0.049 A 
ATOM     46  N   UNL A   1      41.497  27.068  29.041  1.00  0.00    -0.248 NA
ATOM     47  C   UNL A   1      39.430  26.621  28.058  1.00  0.00     0.031 C 
ATOM     48  C   UNL A   1      40.064  31.131  30.228  1.00  0.00     0.029 A 
ATOM     49  N   UNL A   1      41.821  29.748  30.183  1.00  0.00    -0.354 N 
ATOM     50  C   UNL A   1      41.519  25.794  28.483  1.00  0.00     0.074 A 
ATOM     51  C   UNL A   1      40.207  25.554  27.925  1.00  0.00     0.031 C 
ATOM     52  C   UNL A   1      41.119  31.807  30.703  1.00  0.00     0.029 A 
ATOM     53  C   UNL A   1      42.281  30.923  30.729  1.00  0.00     0.049 A 
ATOM     54  H   UNL A   1      42.388  28.953  30.056  1.00  0.00     0.167 HD
ATOM     55  C   UNL A   1      42.542  24.909  28.430  1.00  0.00     0.031 A 
ATOM     56  C   UNL A   1      43.491  31.256  31.219  1.00  0.00     0.031 A 
ATOM     57  C   UNL A   1      43.858  25.167  28.952  1.00  0.00     0.049 A 
ATOM     58  C   UNL A   1      44.591  30.237  31.208  1.00  0.00     0.074 A 
ATOM     59  C   UNL A   1      44.966  24.337  28.925  1.00  0.00     0.029 A 
ATOM     60  N   UNL A   1      44.251  26.337  29.582  1.00  0.00    -0.354 N 
ATOM     61  N   UNL A   1      44.580  29.027  30.703  1.00  0.00    -0.248 NA
ATOM     62  C   UNL A   1      45.861  30.615  31.845  1.00  0.00     0.031 C 
ATOM     63  C   UNL A   1      46.010  24.980  29.591  1.00  0.00     0.029 A 
ATOM     64  C   UNL A   1      45.574  26.237  29.977  1.00  0.00     0.049 A 
ATOM     65  H   UNL A   1      43.674  27.122  29.727  1.00  0.00     0.167 HD
ATOM     66  C   UNL A   1      45.837  28.496  30.965  1.00  0.00     0.074 A 
ATOM     67  C   UNL A   1      46.593  29.525  31.651  1.00  0.00     0.031 C 
ATOM     68  C   UNL A   1      46.313  27.262  30.672  1.00  0.00     0.031 A 
BRANCH  55  69
ATOM     69  C   UNL A   1      42.303  23.565  27.791  1.00  0.00    -0.014 A 
ATOM     70  C   UNL A   1      42.081  22.439  28.607  1.00  0.00     0.010 A 
ATOM     71  C   UNL A   1      42.427  23.388  26.403  1.00  0.00     0.010 A 
ATOM     72  C   UNL A   1      42.019  21.159  28.052  1.00  0.00     0.020 A 
ATOM     73  C   UNL A   1      42.340  22.110  25.840  1.00  0.00     0.020 A 
ATOM     74  C   UNL A   1      42.160  21.002  26.671  1.00  0.00     0.054 A 
BRANCH  74  75
ATOM     75  S   UNL A   1      42.102  19.330  25.968  1.00  0.00     0.124 S 
ATOM     76  O   UNL A   1      40.679  19.158  25.696  1.00  0.00    -0.237 OA
ATOM     77  O   UNL A   1      42.961  19.445  24.793  1.00  0.00    -0.237 OA
ATOM     78  O   UNL A   1      42.640  18.493  27.040  1.00  0.00    -0.744 OA
ENDBRANCH  74  75
ENDBRANCH  55  69
BRANCH  56  79
ATOM     79  C   UNL A   1      43.691  32.622  31.772  1.00  0.00    -0.014 A 
ATOM     80  C   UNL A   1      44.332  33.611  30.999  1.00  0.00     0.010 A 
ATOM     81  C   UNL A   1      43.346  32.912  33.103  1.00  0.00     0.010 A 
ATOM     82  C   UNL A   1      44.688  34.835  31.567  1.00  0.00     0.020 A 
ATOM     83  C   UNL A   1      43.675  34.149  33.666  1.00  0.00     0.020 A 
ATOM     84  C   UNL A   1      44.375  35.088  32.904  1.00  0.00     0.054 A 
BRANCH  84  85
ATOM     85  S   UNL A   1      44.909  36.656  33.643  1.00  0.00     0.124 S 
ATOM     86  O   UNL A   1      44.734  36.388  35.069  1.00  0.00    -0.237 OA
ATOM     87  O   UNL A   1      46.292  36.772  33.190  1.00  0.00    -0.237 OA
ATOM     88  O   UNL A   1      43.985  37.633  33.072  1.00  0.00    -0.744 OA
ENDBRANCH  84  85
ENDBRANCH  56  79
BRANCH  68  89
ATOM     89  C   UNL A   1      47.714  26.921  31.101  1.00  0.00    -0.014 A 
ATOM     90  C   UNL A   1      48.666  26.532  30.141  1.00  0.00     0.010 A 
ATOM     91  C   UNL A   1      48.040  26.844  32.466  1.00  0.00     0.010 A 
ATOM     92  C   UNL A   1      49.906  26.030  30.539  1.00  0.00     0.020 A 
ATOM     93  C   UNL A   1      49.291  26.365  32.867  1.00  0.00     0.020 A 
ATOM     94  C   UNL A   1      50.205  25.935  31.901  1.00  0.00     0.054 A 
BRANCH  94  95
ATOM     95  S   UNL A   1      51.800  25.233  32.401  1.00  0.00     0.124 S 
ATOM     96  O   UNL A   1      51.647  23.829  32.031  1.00  0.00    -0.237 OA
ATOM     97  O   UNL A   1      52.753  25.995  31.599  1.00  0.00    -0.237 OA
ATOM     98  O   UNL A   1      51.855  25.497  33.838  1.00  0.00    -0.744 OA
ENDBRANCH  94  95
ENDBRANCH  68  89
ENDBRANCH  42  43
ENDBRANCH  34  37
ENDBRANCH  32  33
ENDBRANCH  31  32
ENDBRANCH   1  31
TORSDOF 18
ENDMDL
MODEL 2
REMARK VINA RESULT:     -11.7      1.506      3.092
REMARK SMILES C[C@H]1Oc2ccccc2C=C1/C=C/C(=O)N[C@H](C(=O)NCCCCNC(=O)c1ccc(-c2c3nc(c(-c4ccc(S(=O)(=O)[O-])cc4)c4ccc([nH]4)c(-c4ccc(S(=O)(=O)[O-])cc4)c4nc(c(-c5ccc(S(=O)(=O)[O-])cc5)c5ccc2[nH]5)C=C4)C=C3)cc1)c1ccccc1
REMARK SMILES IDX 22 1 21 2 20 3 18 4 19 5 17 7 16 8 14 9 15 10 13 12 12 13
REMARK SMILES IDX 11 14 1 15 2 16 3 17 4 18 10 19 5 20 9 21 6 22 8 23 7 24
REMARK SMILES IDX 88 25 89 26 93 27 90 28 92 29 91 30 23 31 24 32 25 33 26 34
REMARK SMILES IDX 27 36 28 37 29 38 87 39 30 40 86 41 31 42 32 43 33 44 80 45
REMARK SMILES IDX 34 46 85 47 79 48 81 49 35 50 84 51 78 52 77 53 36 55 66 56
REMARK SMILES IDX 47 57 65 58 48 59 51 60 64 61 82 62 49 63 50 64 63 66 83 67
REMARK SMILES IDX 52 68 37 69 38 70 46 71 39 72 45 73 40 74 41 75 42 76 43 77
REMARK SMILES IDX 44 78 67 79 68 80 76 81 69 82 75 83 70 84 71 85 72 86 73 87
REMARK SMILES IDX 74 88 53 89 54 90 62 91 55 92 61 93 56 94 57 95 58 96 59 97
REMARK SMILES IDX 60 98
REMARK H PARENT 20 6 16 11 25 35 81 54 51 65
REMARK Flexibility Score: inf
ROOT
ATOM      1  C   UNL A   1      32.051  27.136  26.556  1.00  0.00     0.023 C 
ENDROOT
BRANCH   1   2
ATOM      2  C   UNL A   1      30.639  26.750  26.143  1.00  0.00     0.116 C 
BRANCH   2   3
ATOM      3  N   UNL A   1      30.501  26.296  24.773  1.00  0.00    -0.354 N 
ATOM      4  C   UNL A   1      30.760  27.023  23.635  1.00  0.00     0.247 C 
ATOM      5  O   UNL A   1      30.628  26.470  22.540  1.00  0.00    -0.272 OA
ATOM      6  H   UNL A   1      30.188  25.371  24.644  1.00  0.00     0.163 HD
BRANCH   4   7
ATOM      7  C   UNL A   1      31.120  28.537  23.732  1.00  0.00     0.202 C 
BRANCH   7   8
ATOM      8  N   UNL A   1      32.341  28.731  22.933  1.00  0.00    -0.337 N 
ATOM      9  C   UNL A   1      33.332  27.884  22.547  1.00  0.00     0.244 C 
ATOM     10  O   UNL A   1      34.141  28.223  21.689  1.00  0.00    -0.270 OA
ATOM     11  H   UNL A   1      32.465  29.655  22.617  1.00  0.00     0.164 HD
BRANCH   9  12
ATOM     12  C   UNL A   1      33.549  26.645  23.310  1.00  0.00     0.071 C 
ATOM     13  C   UNL A   1      33.999  25.508  22.760  1.00  0.00     0.013 C 
BRANCH  13  14
ATOM     14  C   UNL A   1      33.891  24.202  23.411  1.00  0.00    -0.007 C 
ATOM     15  C   UNL A   1      35.186  24.826  25.531  1.00  0.00     0.058 C 
ATOM     16  C   UNL A   1      35.009  23.826  24.386  1.00  0.00     0.200 C 
ATOM     17  O   UNL A   1      34.894  22.543  25.035  1.00  0.00    -0.485 OA
ATOM     18  C   UNL A   1      34.043  21.626  24.498  1.00  0.00     0.127 A 
ATOM     19  C   UNL A   1      32.947  23.311  23.069  1.00  0.00     0.019 C 
ATOM     20  C   UNL A   1      34.172  20.318  24.968  1.00  0.00     0.047 A 
ATOM     21  C   UNL A   1      33.067  21.944  23.556  1.00  0.00     0.017 A 
ATOM     22  C   UNL A   1      33.339  19.313  24.479  1.00  0.00     0.004 A 
ATOM     23  C   UNL A   1      32.234  20.931  23.064  1.00  0.00     0.012 A 
ATOM     24  C   UNL A   1      32.372  19.619  23.524  1.00  0.00     0.001 A 
ENDBRANCH  13  14
ENDBRANCH   9  12
ENDBRANCH   7   8
BRANCH   7  25
ATOM     25  C   UNL A   1      29.901  29.417  23.479  1.00  0.00    -0.016 A 
ATOM     26  C   UNL A   1      29.912  30.728  23.996  1.00  0.00     0.006 A 
ATOM     27  C   UNL A   1      28.743  28.985  22.813  1.00  0.00     0.006 A 
ATOM     28  C   UNL A   1      28.809  31.570  23.845  1.00  0.00     0.000 A 
ATOM     29  C   UNL A   1      27.646  29.832  22.649  1.00  0.00     0.000 A 
ATOM     30  C   UNL A   1      27.678  31.124  23.166  1.00  0.00     0.000 A 
ENDBRANCH   7  25
ENDBRANCH   4   7
ENDBRANCH   2   3
ENDBRANCH   1   2
BRANCH   1  31
ATOM     31  C   UNL A   1      32.175  28.509  27.216  1.00  0.00     0.023 C 
BRANCH  31  32
ATOM     32  C   UNL A   1      33.484  29.257  26.967  1.00  0.00     0.116 C 
BRANCH  32  33
ATOM     33  N   UNL A   1      33.631  30.478  27.753  1.00  0.00    -0.352 N 
ATOM     34  C   UNL A   1      34.704  30.930  28.497  1.00  0.00     0.251 C 
ATOM     35  H   UNL A   1      32.845  31.071  27.752  1.00  0.00     0.163 HD
ATOM     36  O   UNL A   1      34.617  31.946  29.169  1.00  0.00    -0.269 OA
BRANCH  34  37
ATOM     37  C   UNL A   1      35.945  30.126  28.510  1.00  0.00     0.039 A 
ATOM     38  C   UNL A   1      36.286  29.392  29.644  1.00  0.00     0.014 A 
ATOM     39  C   UNL A   1      36.827  30.214  27.431  1.00  0.00     0.014 A 
ATOM     40  C   UNL A   1      37.601  28.976  29.809  1.00  0.00     0.010 A 
ATOM     41  C   UNL A   1      38.118  29.692  27.557  1.00  0.00     0.010 A 
ATOM     42  C   UNL A   1      38.542  29.151  28.781  1.00  0.00    -0.014 A 
BRANCH  42  43
ATOM     43  C   UNL A   1      39.974  28.833  29.035  1.00  0.00     0.031 A 
ATOM     44  C   UNL A   1      40.550  27.501  28.613  1.00  0.00     0.074 A 
ATOM     45  C   UNL A   1      40.781  29.772  29.566  1.00  0.00     0.049 A 
ATOM     46  N   UNL A   1      41.769  27.050  28.763  1.00  0.00    -0.248 NA
ATOM     47  C   UNL A   1      39.646  26.552  27.938  1.00  0.00     0.031 C 
ATOM     48  C   UNL A   1      40.358  31.116  29.966  1.00  0.00     0.029 A 
ATOM     49  N   UNL A   1      42.129  29.758  29.825  1.00  0.00    -0.354 N 
ATOM     50  C   UNL A   1      41.772  25.764  28.231  1.00  0.00     0.074 A 
ATOM     51  C   UNL A   1      40.428  25.494  27.773  1.00  0.00     0.031 C 
ATOM     52  C   UNL A   1      41.432  31.818  30.352  1.00  0.00     0.029 A 
ATOM     53  C   UNL A   1      42.607  30.951  30.314  1.00  0.00     0.049 A 
ATOM     54  H   UNL A   1      42.699  28.969  29.675  1.00  0.00     0.167 HD
ATOM     55  C   UNL A   1      42.803  24.894  28.125  1.00  0.00     0.031 A 
ATOM     56  C   UNL A   1      43.843  31.312  30.711  1.00  0.00     0.031 A 
ATOM     57  C   UNL A   1      44.148  25.183  28.548  1.00  0.00     0.049 A 
ATOM     58  C   UNL A   1      44.956  30.309  30.643  1.00  0.00     0.074 A 
ATOM     59  C   UNL A   1      45.265  24.368  28.460  1.00  0.00     0.029 A 
ATOM     60  N   UNL A   1      44.565  26.371  29.125  1.00  0.00    -0.354 N 
ATOM     61  N   UNL A   1      44.929  29.089  30.165  1.00  0.00    -0.248 NA
ATOM     62  C   UNL A   1      46.261  30.719  31.181  1.00  0.00     0.031 C 
ATOM     63  C   UNL A   1      46.343  25.041  29.038  1.00  0.00     0.029 A 
ATOM     64  C   UNL A   1      45.915  26.299  29.428  1.00  0.00     0.049 A 
ATOM     65  H   UNL A   1      43.988  27.151  29.294  1.00  0.00     0.167 HD
ATOM     66  C   UNL A   1      46.209  28.582  30.349  1.00  0.00     0.074 A 
ATOM     67  C   UNL A   1      46.995  29.636  30.958  1.00  0.00     0.031 C 
ATOM     68  C   UNL A   1      46.683  27.349  30.048  1.00  0.00     0.031 A 
BRANCH  55  69
ATOM     69  C   UNL A   1      42.542  23.533  27.532  1.00  0.00    -0.014 A 
ATOM     70  C   UNL A   1      42.004  22.516  28.343  1.00  0.00     0.010 A 
ATOM     71  C   UNL A   1      42.945  23.221  26.223  1.00  0.00     0.010 A 
ATOM     72  C   UNL A   1      41.903  21.205  27.868  1.00  0.00     0.020 A 
ATOM     73  C   UNL A   1      42.823  21.916  25.735  1.00  0.00     0.020 A 
ATOM     74  C   UNL A   1      42.324  20.912  26.568  1.00  0.00     0.054 A 
BRANCH  74  75
ATOM     75  S   UNL A   1      42.210  19.201  25.975  1.00  0.00     0.124 S 
ATOM     76  O   UNL A   1      43.094  19.217  24.815  1.00  0.00    -0.237 OA
ATOM     77  O   UNL A   1      42.685  18.431  27.122  1.00  0.00    -0.237 OA
ATOM     78  O   UNL A   1      40.788  19.040  25.677  1.00  0.00    -0.744 OA
ENDBRANCH  74  75
ENDBRANCH  55  69
BRANCH  56  79
ATOM     79  C   UNL A   1      44.060  32.693  31.220  1.00  0.00    -0.014 A 
ATOM     80  C   UNL A   1      43.669  33.033  32.530  1.00  0.00     0.010 A 
ATOM     81  C   UNL A   1      44.552  33.698  30.370  1.00  0.00     0.010 A 
ATOM     82  C   UNL A   1      43.698  34.362  32.957  1.00  0.00     0.020 A 
ATOM     83  C   UNL A   1      44.611  35.026  30.805  1.00  0.00     0.020 A 
ATOM     84  C   UNL A   1      44.151  35.353  32.083  1.00  0.00     0.054 A 
BRANCH  84  85
ATOM     85  S   UNL A   1      44.114  37.082  32.631  1.00  0.00     0.124 S 
ATOM     86  O   UNL A   1      43.003  37.070  33.580  1.00  0.00    -0.237 OA
ATOM     87  O   UNL A   1      45.440  37.263  33.217  1.00  0.00    -0.237 OA
ATOM     88  O   UNL A   1      43.875  37.825  31.397  1.00  0.00    -0.744 OA
ENDBRANCH  84  85
ENDBRANCH  56  79
BRANCH  68  89
ATOM     89  C   UNL A   1      48.117  27.038  30.384  1.00  0.00    -0.014 A 
ATOM     90  C   UNL A   1      48.445  26.538  31.658  1.00  0.00     0.010 A 
ATOM     91  C   UNL A   1      49.147  27.381  29.492  1.00  0.00     0.010 A 
ATOM     92  C   UNL A   1      49.780  26.428  32.051  1.00  0.00     0.020 A 
ATOM     93  C   UNL A   1      50.485  27.248  29.873  1.00  0.00     0.020 A 
ATOM     94  C   UNL A   1      50.792  26.799  31.160  1.00  0.00     0.054 A 
BRANCH  94  95
ATOM     95  S   UNL A   1      52.518  26.698  31.706  1.00  0.00     0.124 S 
ATOM     96  O   UNL A   1      52.553  25.402  32.378  1.00  0.00    -0.237 OA
ATOM     97  O   UNL A   1      53.258  26.775  30.448  1.00  0.00    -0.237 OA
ATOM     98  O   UNL A   1      52.669  27.859  32.580  1.00  0.00    -0.744 OA
ENDBRANCH  94  95
ENDBRANCH  68  89
ENDBRANCH  42  43
ENDBRANCH  34  37
ENDBRANCH  32  33
ENDBRANCH  31  32
ENDBRANCH   1  31
TORSDOF 18
ENDMDL
MODEL 3
REMARK VINA RESULT:     -11.6      1.803      2.870
REMARK SMILES C[C@H]1Oc2ccccc2C=C1/C=C/C(=O)N[C@H](C(=O)NCCCCNC(=O)c1ccc(-c2c3nc(c(-c4ccc(S(=O)(=O)[O-])cc4)c4ccc([nH]4)c(-c4ccc(S(=O)(=O)[O-])cc4)c4nc(c(-c5ccc(S(=O)(=O)[O-])cc5)c5ccc2[nH]5)C=C4)C=C3)cc1)c1ccccc1
REMARK SMILES IDX 22 1 21 2 20 3 18 4 19 5 17 7 16 8 14 9 15 10 13 12 12 13
REMARK SMILES IDX 11 14 1 15 2 16 3 17 4 18 10 19 5 20 9 21 6 22 8 23 7 24
REMARK SMILES IDX 88 25 89 26 93 27 90 28 92 29 91 30 23 31 24 32 25 33 26 34
REMARK SMILES IDX 27 36 28 37 29 38 87 39 30 40 86 41 31 42 32 43 33 44 80 45
REMARK SMILES IDX 34 46 85 47 79 48 81 49 35 50 84 51 78 52 77 53 36 55 66 56
REMARK SMILES IDX 47 57 65 58 48 59 51 60 64 61 82 62 49 63 50 64 63 66 83 67
REMARK SMILES IDX 52 68 37 69 38 70 46 71 39 72 45 73 40 74 41 75 42 76 43 77
REMARK SMILES IDX 44 78 67 79 68 80 76 81 69 82 75 83 70 84 71 85 72 86 73 87
REMARK SMILES IDX 74 88 53 89 54 90 62 91 55 92 61 93 56 94 57 95 58 96 59 97
REMARK SMILES IDX 60 98
REMARK H PARENT 20 6 16 11 25 35 81 54 51 65
REMARK Flexibility Score: inf
ROOT
ATOM      1  C   UNL A   1      31.497  30.099  26.086  1.00  0.00     0.023 C 
ENDROOT
BRANCH   1   2
ATOM      2  C   UNL A   1      31.437  29.739  24.610  1.00  0.00     0.116 C 
BRANCH   2   3
ATOM      3  N   UNL A   1      32.719  29.694  23.934  1.00  0.00    -0.354 N 
ATOM      4  C   UNL A   1      33.161  28.719  23.071  1.00  0.00     0.247 C 
ATOM      5  O   UNL A   1      34.270  28.854  22.548  1.00  0.00    -0.272 OA
ATOM      6  H   UNL A   1      33.338  30.439  24.112  1.00  0.00     0.163 HD
BRANCH   4   7
ATOM      7  C   UNL A   1      32.315  27.430  22.838  1.00  0.00     0.202 C 
BRANCH   7   8
ATOM      8  N   UNL A   1      32.778  26.846  21.569  1.00  0.00    -0.337 N 
ATOM      9  C   UNL A   1      32.825  25.569  21.107  1.00  0.00     0.244 C 
ATOM     10  O   UNL A   1      33.045  25.344  19.922  1.00  0.00    -0.270 OA
ATOM     11  H   UNL A   1      33.121  27.511  20.929  1.00  0.00     0.164 HD
BRANCH   9  12
ATOM     12  C   UNL A   1      32.815  24.460  22.074  1.00  0.00     0.071 C 
ATOM     13  C   UNL A   1      33.900  24.065  22.755  1.00  0.00     0.013 C 
BRANCH  13  14
ATOM     14  C   UNL A   1      33.993  22.775  23.441  1.00  0.00    -0.007 C 
ATOM     15  C   UNL A   1      35.999  23.374  24.915  1.00  0.00     0.058 C 
ATOM     16  C   UNL A   1      35.377  22.364  23.948  1.00  0.00     0.200 C 
ATOM     17  O   UNL A   1      35.464  21.099  24.633  1.00  0.00    -0.485 OA
ATOM     18  C   UNL A   1      34.442  20.213  24.476  1.00  0.00     0.127 A 
ATOM     19  C   UNL A   1      32.958  21.921  23.498  1.00  0.00     0.019 C 
ATOM     20  C   UNL A   1      34.688  18.908  24.907  1.00  0.00     0.047 A 
ATOM     21  C   UNL A   1      33.200  20.559  23.950  1.00  0.00     0.017 A 
ATOM     22  C   UNL A   1      33.699  17.933  24.791  1.00  0.00     0.004 A 
ATOM     23  C   UNL A   1      32.209  19.576  23.830  1.00  0.00     0.012 A 
ATOM     24  C   UNL A   1      32.459  18.267  24.249  1.00  0.00     0.001 A 
ENDBRANCH  13  14
ENDBRANCH   9  12
ENDBRANCH   7   8
BRANCH   7  25
ATOM     25  C   UNL A   1      32.259  26.566  24.093  1.00  0.00    -0.016 A 
ATOM     26  C   UNL A   1      31.022  25.991  24.446  1.00  0.00     0.006 A 
ATOM     27  C   UNL A   1      33.349  26.355  24.953  1.00  0.00     0.006 A 
ATOM     28  C   UNL A   1      30.887  25.231  25.610  1.00  0.00     0.000 A 
ATOM     29  C   UNL A   1      33.217  25.583  26.109  1.00  0.00     0.000 A 
ATOM     30  C   UNL A   1      31.987  25.023  26.438  1.00  0.00     0.000 A 
ENDBRANCH   7  25
ENDBRANCH   4   7
ENDBRANCH   2   3
ENDBRANCH   1   2
BRANCH   1  31
ATOM     31  C   UNL A   1      32.225  29.083  26.967  1.00  0.00     0.023 C 
BRANCH  31  32
ATOM     32  C   UNL A   1      33.663  29.434  27.346  1.00  0.00     0.116 C 
BRANCH  32  33
ATOM     33  N   UNL A   1      33.791  30.666  28.119  1.00  0.00    -0.352 N 
ATOM     34  C   UNL A   1      34.860  31.148  28.849  1.00  0.00     0.251 C 
ATOM     35  H   UNL A   1      32.992  31.241  28.119  1.00  0.00     0.163 HD
ATOM     36  O   UNL A   1      34.757  32.169  29.512  1.00  0.00    -0.269 OA
BRANCH  34  37
ATOM     37  C   UNL A   1      36.118  30.371  28.859  1.00  0.00     0.039 A 
ATOM     38  C   UNL A   1      36.560  29.780  30.041  1.00  0.00     0.014 A 
ATOM     39  C   UNL A   1      36.914  30.347  27.713  1.00  0.00     0.014 A 
ATOM     40  C   UNL A   1      37.894  29.408  30.151  1.00  0.00     0.010 A 
ATOM     41  C   UNL A   1      38.224  29.864  27.799  1.00  0.00     0.010 A 
ATOM     42  C   UNL A   1      38.751  29.476  29.040  1.00  0.00    -0.014 A 
BRANCH  42  43
ATOM     43  C   UNL A   1      40.206  29.213  29.218  1.00  0.00     0.031 A 
ATOM     44  C   UNL A   1      40.795  27.875  28.837  1.00  0.00     0.074 A 
ATOM     45  C   UNL A   1      41.015  30.203  29.641  1.00  0.00     0.049 A 
ATOM     46  N   UNL A   1      42.034  27.466  28.933  1.00  0.00    -0.248 NA
ATOM     47  C   UNL A   1      39.880  26.863  28.277  1.00  0.00     0.031 C 
ATOM     48  C   UNL A   1      40.577  31.556  29.991  1.00  0.00     0.029 A 
ATOM     49  N   UNL A   1      42.377  30.242  29.813  1.00  0.00    -0.354 N 
ATOM     50  C   UNL A   1      42.043  26.153  28.476  1.00  0.00     0.074 A 
ATOM     51  C   UNL A   1      40.682  25.819  28.122  1.00  0.00     0.031 C 
ATOM     52  C   UNL A   1      41.651  32.309  30.266  1.00  0.00     0.029 A 
ATOM     53  C   UNL A   1      42.847  31.474  30.201  1.00  0.00     0.049 A 
ATOM     54  H   UNL A   1      42.960  29.461  29.672  1.00  0.00     0.167 HD
ATOM     55  C   UNL A   1      43.092  25.306  28.353  1.00  0.00     0.031 A 
ATOM     56  C   UNL A   1      44.094  31.891  30.496  1.00  0.00     0.031 A 
ATOM     57  C   UNL A   1      44.452  25.656  28.671  1.00  0.00     0.049 A 
ATOM     58  C   UNL A   1      45.231  30.917  30.413  1.00  0.00     0.074 A 
ATOM     59  C   UNL A   1      45.585  24.868  28.557  1.00  0.00     0.029 A 
ATOM     60  N   UNL A   1      44.868  26.887  29.151  1.00  0.00    -0.354 N 
ATOM     61  N   UNL A   1      45.212  29.670  30.008  1.00  0.00    -0.248 NA
ATOM     62  C   UNL A   1      46.554  31.393  30.841  1.00  0.00     0.031 C 
ATOM     63  C   UNL A   1      46.676  25.603  29.025  1.00  0.00     0.029 A 
ATOM     64  C   UNL A   1      46.235  26.870  29.369  1.00  0.00     0.049 A 
ATOM     65  H   UNL A   1      44.278  27.659  29.312  1.00  0.00     0.167 HD
ATOM     66  C   UNL A   1      46.516  29.210  30.137  1.00  0.00     0.074 A 
ATOM     67  C   UNL A   1      47.306  30.319  30.633  1.00  0.00     0.031 C 
ATOM     68  C   UNL A   1      47.008  27.975  29.877  1.00  0.00     0.031 A 
BRANCH  55  69
ATOM     69  C   UNL A   1      42.836  23.906  27.857  1.00  0.00    -0.014 A 
ATOM     70  C   UNL A   1      42.643  23.682  26.480  1.00  0.00     0.010 A 
ATOM     71  C   UNL A   1      42.656  22.839  28.754  1.00  0.00     0.010 A 
ATOM     72  C   UNL A   1      42.244  22.428  26.012  1.00  0.00     0.020 A 
ATOM     73  C   UNL A   1      42.281  21.575  28.287  1.00  0.00     0.020 A 
ATOM     74  C   UNL A   1      42.055  21.384  26.922  1.00  0.00     0.054 A 
BRANCH  74  75
ATOM     75  S   UNL A   1      41.513  19.768  26.300  1.00  0.00     0.124 S 
ATOM     76  O   UNL A   1      41.720  18.906  27.459  1.00  0.00    -0.237 OA
ATOM     77  O   UNL A   1      40.120  20.014  25.937  1.00  0.00    -0.237 OA
ATOM     78  O   UNL A   1      42.406  19.522  25.169  1.00  0.00    -0.744 OA
ENDBRANCH  74  75
ENDBRANCH  55  69
BRANCH  56  79
ATOM     79  C   UNL A   1      44.299  33.305  30.910  1.00  0.00    -0.014 A 
ATOM     80  C   UNL A   1      44.125  33.680  32.257  1.00  0.00     0.010 A 
ATOM     81  C   UNL A   1      44.560  34.299  29.952  1.00  0.00     0.010 A 
ATOM     82  C   UNL A   1      44.136  35.026  32.626  1.00  0.00     0.020 A 
ATOM     83  C   UNL A   1      44.601  35.647  30.323  1.00  0.00     0.020 A 
ATOM     84  C   UNL A   1      44.354  36.003  31.652  1.00  0.00     0.054 A 
BRANCH  84  85
ATOM     85  S   UNL A   1      44.293  37.749  32.139  1.00  0.00     0.124 S 
ATOM     86  O   UNL A   1      43.336  37.717  33.242  1.00  0.00    -0.237 OA
ATOM     87  O   UNL A   1      45.676  38.028  32.513  1.00  0.00    -0.237 OA
ATOM     88  O   UNL A   1      43.831  38.423  30.928  1.00  0.00    -0.744 OA
ENDBRANCH  84  85
ENDBRANCH  56  79
BRANCH  68  89
ATOM     89  C   UNL A   1      48.469  27.724  30.137  1.00  0.00    -0.014 A 
ATOM     90  C   UNL A   1      48.897  27.343  31.422  1.00  0.00     0.010 A 
ATOM     91  C   UNL A   1      49.426  28.010  29.149  1.00  0.00     0.010 A 
ATOM     92  C   UNL A   1      50.257  27.294  31.728  1.00  0.00     0.020 A 
ATOM     93  C   UNL A   1      50.791  27.937  29.444  1.00  0.00     0.020 A 
ATOM     94  C   UNL A   1      51.196  27.607  30.740  1.00  0.00     0.054 A 
BRANCH  94  95
ATOM     95  S   UNL A   1      52.958  27.589  31.169  1.00  0.00     0.124 S 
ATOM     96  O   UNL A   1      52.961  28.229  32.482  1.00  0.00    -0.237 OA
ATOM     97  O   UNL A   1      53.276  26.163  31.163  1.00  0.00    -0.237 OA
ATOM     98  O   UNL A   1      53.580  28.362  30.096  1.00  0.00    -0.744 OA
ENDBRANCH  94  95
ENDBRANCH  68  89
ENDBRANCH  42  43
ENDBRANCH  34  37
ENDBRANCH  32  33
ENDBRANCH  31  32
ENDBRANCH   1  31
TORSDOF 18
ENDMDL
