MODEL 1
REMARK VINA RESULT:     -10.2      0.000      0.000
REMARK SMILES C[C@@H](C(=O)NCCCCNC(=O)c1ccc(-c2c3nc(c(-c4ccc(S(=O)(=O)[O-])cc4)c4ccc([nH]4)c(-c4ccc(S(=O)(=O)[O-])cc4)c4nc(c(-c5ccc(S(=O)(=O)[O-])cc5)c5ccc2[nH]5)C=C4)C=C3)cc1)[C@H](C)[N@@H+](C)[C@@H](C)C1CC1
REMARK SMILES IDX 7 1 6 2 5 3 3 4 4 5 2 7 1 8 73 9 74 10 75 11 76 12 77 14
REMARK SMILES IDX 78 15 79 16 80 17 81 18 8 19 9 20 10 21 11 22 12 24 13 25
REMARK SMILES IDX 14 26 72 27 15 28 71 29 16 30 17 31 18 32 65 33 19 34 70 35
REMARK SMILES IDX 64 36 66 37 20 38 69 39 63 40 62 41 21 43 51 44 32 45 50 46
REMARK SMILES IDX 33 47 36 48 49 49 67 50 34 51 35 52 48 54 68 55 37 56 22 57
REMARK SMILES IDX 23 58 31 59 24 60 30 61 25 62 26 63 27 64 28 65 29 66 52 67
REMARK SMILES IDX 53 68 61 69 54 70 60 71 55 72 56 73 57 74 58 75 59 76 38 77
REMARK SMILES IDX 39 78 47 79 40 80 46 81 41 82 42 83 43 84 44 85 45 86
REMARK H PARENT 5 6 75 13 10 23 66 42 36 53
REMARK Flexibility Score: inf
ROOT
ATOM      1  C   UNL A   1      38.559  23.576  26.593  1.00  0.00     0.023 C 
ENDROOT
BRANCH   1   2
ATOM      2  C   UNL A   1      37.393  23.102  25.723  1.00  0.00     0.116 C 
BRANCH   2   3
ATOM      3  N   UNL A   1      36.139  23.098  26.454  1.00  0.00    -0.356 N 
ATOM      4  C   UNL A   1      34.901  23.526  26.056  1.00  0.00     0.228 C 
ATOM      5  O   UNL A   1      33.994  23.528  26.887  1.00  0.00    -0.275 OA
ATOM      6  H   UNL A   1      36.185  22.735  27.368  1.00  0.00     0.163 HD
BRANCH   4   7
ATOM      7  C   UNL A   1      34.714  24.016  24.616  1.00  0.00     0.133 C 
ATOM      8  C   UNL A   1      33.871  25.289  24.688  1.00  0.00     0.024 C 
BRANCH   7   9
ATOM      9  C   UNL A   1      34.082  22.932  23.696  1.00  0.00     0.193 C 
ATOM     10  C   UNL A   1      33.205  23.575  22.604  1.00  0.00     0.076 C 
BRANCH   9  11
ATOM     11  N   UNL A   1      33.349  21.805  24.332  1.00  0.00    -0.332 N 
ATOM     12  C   UNL A   1      31.895  21.937  24.285  1.00  0.00     0.333 C 
ATOM     13  H   UNL A   1      33.719  21.995  25.264  1.00  0.00     0.348 HD
BRANCH  11  14
ATOM     14  C   UNL A   1      33.795  20.400  24.264  1.00  0.00     0.184 C 
ATOM     15  C   UNL A   1      35.098  20.034  24.981  1.00  0.00     0.075 C 
BRANCH  14  16
ATOM     16  C   UNL A   1      32.642  19.459  24.549  1.00  0.00     0.047 C 
ATOM     17  C   UNL A   1      32.296  18.366  23.562  1.00  0.00     0.010 C 
ATOM     18  C   UNL A   1      32.798  18.001  24.928  1.00  0.00     0.010 C 
ENDBRANCH  14  16
ENDBRANCH  11  14
ENDBRANCH   9  11
ENDBRANCH   7   9
ENDBRANCH   4   7
ENDBRANCH   2   3
ENDBRANCH   1   2
BRANCH   1  19
ATOM     19  C   UNL A   1      39.715  22.588  26.710  1.00  0.00     0.023 C 
BRANCH  19  20
ATOM     20  C   UNL A   1      41.053  23.220  27.052  1.00  0.00     0.116 C 
BRANCH  20  21
ATOM     21  N   UNL A   1      41.547  24.090  25.996  1.00  0.00    -0.352 N 
ATOM     22  C   UNL A   1      41.721  25.453  26.011  1.00  0.00     0.251 C 
ATOM     23  H   UNL A   1      41.792  23.640  25.155  1.00  0.00     0.163 HD
ATOM     24  O   UNL A   1      42.001  26.045  24.979  1.00  0.00    -0.269 OA
BRANCH  22  25
ATOM     25  C   UNL A   1      41.530  26.190  27.277  1.00  0.00     0.039 A 
ATOM     26  C   UNL A   1      42.582  26.967  27.765  1.00  0.00     0.014 A 
ATOM     27  C   UNL A   1      40.310  26.144  27.957  1.00  0.00     0.014 A 
ATOM     28  C   UNL A   1      42.386  27.744  28.905  1.00  0.00     0.010 A 
ATOM     29  C   UNL A   1      40.087  26.990  29.038  1.00  0.00     0.010 A 
ATOM     30  C   UNL A   1      41.126  27.794  29.528  1.00  0.00    -0.014 A 
BRANCH  30  31
ATOM     31  C   UNL A   1      40.890  28.695  30.682  1.00  0.00     0.031 A 
ATOM     32  C   UNL A   1      41.724  28.571  31.930  1.00  0.00     0.074 A 
ATOM     33  C   UNL A   1      39.905  29.612  30.610  1.00  0.00     0.049 A 
ATOM     34  N   UNL A   1      41.676  29.289  33.022  1.00  0.00    -0.248 NA
ATOM     35  C   UNL A   1      42.724  27.491  31.966  1.00  0.00     0.031 C 
ATOM     36  C   UNL A   1      38.988  29.785  29.479  1.00  0.00     0.029 A 
ATOM     37  N   UNL A   1      39.512  30.578  31.502  1.00  0.00    -0.354 N 
ATOM     38  C   UNL A   1      42.639  28.754  33.870  1.00  0.00     0.074 A 
ATOM     39  C   UNL A   1      43.208  27.610  33.194  1.00  0.00     0.031 C 
ATOM     40  C   UNL A   1      38.170  30.820  29.728  1.00  0.00     0.029 A 
ATOM     41  C   UNL A   1      38.476  31.360  31.048  1.00  0.00     0.049 A 
ATOM     42  H   UNL A   1      39.932  30.700  32.383  1.00  0.00     0.167 HD
ATOM     43  C   UNL A   1      43.035  29.192  35.088  1.00  0.00     0.031 A 
ATOM     44  C   UNL A   1      37.842  32.397  31.629  1.00  0.00     0.031 A 
ATOM     45  C   UNL A   1      42.466  30.333  35.757  1.00  0.00     0.049 A 
ATOM     46  C   UNL A   1      38.300  32.859  32.985  1.00  0.00     0.074 A 
ATOM     47  C   UNL A   1      42.824  30.883  36.975  1.00  0.00     0.029 A 
ATOM     48  N   UNL A   1      41.422  31.101  35.263  1.00  0.00    -0.354 N 
ATOM     49  N   UNL A   1      39.263  32.383  33.737  1.00  0.00    -0.248 NA
ATOM     50  C   UNL A   1      37.596  34.013  33.561  1.00  0.00     0.031 C 
ATOM     51  C   UNL A   1      41.962  31.950  37.244  1.00  0.00     0.029 A 
ATOM     52  C   UNL A   1      41.109  32.105  36.163  1.00  0.00     0.049 A 
ATOM     53  H   UNL A   1      40.970  30.953  34.401  1.00  0.00     0.167 HD
ATOM     54  C   UNL A   1      39.293  33.191  34.869  1.00  0.00     0.074 A 
ATOM     55  C   UNL A   1      38.276  34.206  34.683  1.00  0.00     0.031 C 
ATOM     56  C   UNL A   1      40.084  33.100  35.967  1.00  0.00     0.031 A 
BRANCH  43  57
ATOM     57  C   UNL A   1      44.150  28.445  35.772  1.00  0.00    -0.014 A 
ATOM     58  C   UNL A   1      43.880  27.323  36.575  1.00  0.00     0.010 A 
ATOM     59  C   UNL A   1      45.487  28.824  35.556  1.00  0.00     0.010 A 
ATOM     60  C   UNL A   1      44.923  26.607  37.169  1.00  0.00     0.020 A 
ATOM     61  C   UNL A   1      46.535  28.094  36.124  1.00  0.00     0.020 A 
ATOM     62  C   UNL A   1      46.245  26.995  36.935  1.00  0.00     0.054 A 
BRANCH  62  63
ATOM     63  S   UNL A   1      47.577  26.011  37.674  1.00  0.00     0.124 S 
ATOM     64  O   UNL A   1      47.401  26.284  39.099  1.00  0.00    -0.237 OA
ATOM     65  O   UNL A   1      47.245  24.654  37.250  1.00  0.00    -0.237 OA
ATOM     66  O   UNL A   1      48.790  26.568  37.081  1.00  0.00    -0.744 OA
ENDBRANCH  62  63
ENDBRANCH  43  57
BRANCH  44  67
ATOM     67  C   UNL A   1      36.709  33.069  30.933  1.00  0.00    -0.014 A 
ATOM     68  C   UNL A   1      36.926  33.839  29.776  1.00  0.00     0.010 A 
ATOM     69  C   UNL A   1      35.402  32.954  31.440  1.00  0.00     0.010 A 
ATOM     70  C   UNL A   1      35.864  34.511  29.164  1.00  0.00     0.020 A 
ATOM     71  C   UNL A   1      34.333  33.596  30.811  1.00  0.00     0.020 A 
ATOM     72  C   UNL A   1      34.574  34.388  29.688  1.00  0.00     0.054 A 
BRANCH  72  73
ATOM     73  S   UNL A   1      33.208  35.253  28.866  1.00  0.00     0.124 S 
ATOM     74  O   UNL A   1      32.575  34.176  28.112  1.00  0.00    -0.237 OA
ATOM     75  O   UNL A   1      32.439  35.774  29.995  1.00  0.00    -0.237 OA
ATOM     76  O   UNL A   1      33.883  36.270  28.061  1.00  0.00    -0.744 OA
ENDBRANCH  72  73
ENDBRANCH  44  67
BRANCH  56  77
ATOM     77  C   UNL A   1      39.890  34.142  37.037  1.00  0.00    -0.014 A 
ATOM     78  C   UNL A   1      40.453  35.426  36.916  1.00  0.00     0.010 A 
ATOM     79  C   UNL A   1      39.125  33.835  38.176  1.00  0.00     0.010 A 
ATOM     80  C   UNL A   1      40.303  36.362  37.941  1.00  0.00     0.020 A 
ATOM     81  C   UNL A   1      38.944  34.780  39.189  1.00  0.00     0.020 A 
ATOM     82  C   UNL A   1      39.554  36.031  39.074  1.00  0.00     0.054 A 
BRANCH  82  83
ATOM     83  S   UNL A   1      39.373  37.265  40.390  1.00  0.00     0.124 S 
ATOM     84  O   UNL A   1      38.687  36.502  41.429  1.00  0.00    -0.237 OA
ATOM     85  O   UNL A   1      40.757  37.625  40.685  1.00  0.00    -0.237 OA
ATOM     86  O   UNL A   1      38.580  38.322  39.768  1.00  0.00    -0.744 OA
ENDBRANCH  82  83
ENDBRANCH  56  77
ENDBRANCH  30  31
ENDBRANCH  22  25
ENDBRANCH  20  21
ENDBRANCH  19  20
ENDBRANCH   1  19
TORSDOF 18
ENDMDL
MODEL 2
REMARK VINA RESULT:      -9.8      3.006      8.471
REMARK SMILES C[C@@H](C(=O)NCCCCNC(=O)c1ccc(-c2c3nc(c(-c4ccc(S(=O)(=O)[O-])cc4)c4ccc([nH]4)c(-c4ccc(S(=O)(=O)[O-])cc4)c4nc(c(-c5ccc(S(=O)(=O)[O-])cc5)c5ccc2[nH]5)C=C4)C=C3)cc1)[C@H](C)[N@@H+](C)[C@@H](C)C1CC1
REMARK SMILES IDX 7 1 6 2 5 3 3 4 4 5 2 7 1 8 73 9 74 10 75 11 76 12 77 14
REMARK SMILES IDX 78 15 79 16 80 17 81 18 8 19 9 20 10 21 11 22 12 24 13 25
REMARK SMILES IDX 14 26 72 27 15 28 71 29 16 30 17 31 18 32 65 33 19 34 70 35
REMARK SMILES IDX 64 36 66 37 20 38 69 39 63 40 62 41 21 43 51 44 32 45 50 46
REMARK SMILES IDX 33 47 36 48 49 49 67 50 34 51 35 52 48 54 68 55 37 56 22 57
REMARK SMILES IDX 23 58 31 59 24 60 30 61 25 62 26 63 27 64 28 65 29 66 52 67
REMARK SMILES IDX 53 68 61 69 54 70 60 71 55 72 56 73 57 74 58 75 59 76 38 77
REMARK SMILES IDX 39 78 47 79 40 80 46 81 41 82 42 83 43 84 44 85 45 86
REMARK H PARENT 5 6 75 13 10 23 66 42 36 53
REMARK Flexibility Score: inf
ROOT
ATOM      1  C   UNL A   1      31.883  28.347  24.794  1.00  0.00     0.023 C 
ENDROOT
BRANCH   1   2
ATOM      2  C   UNL A   1      31.316  26.937  24.624  1.00  0.00     0.116 C 
BRANCH   2   3
ATOM      3  N   UNL A   1      32.072  26.163  23.654  1.00  0.00    -0.356 N 
ATOM      4  C   UNL A   1      32.992  25.172  23.863  1.00  0.00     0.228 C 
ATOM      5  O   UNL A   1      33.594  24.726  22.886  1.00  0.00    -0.275 OA
ATOM      6  H   UNL A   1      31.896  26.383  22.711  1.00  0.00     0.163 HD
BRANCH   4   7
ATOM      7  C   UNL A   1      33.258  24.697  25.295  1.00  0.00     0.133 C 
ATOM      8  C   UNL A   1      34.694  25.096  25.634  1.00  0.00     0.024 C 
BRANCH   7   9
ATOM      9  C   UNL A   1      33.005  23.172  25.471  1.00  0.00     0.193 C 
ATOM     10  C   UNL A   1      33.533  22.677  26.832  1.00  0.00     0.076 C 
BRANCH   9  11
ATOM     11  N   UNL A   1      33.451  22.251  24.392  1.00  0.00    -0.332 N 
ATOM     12  C   UNL A   1      34.856  21.864  24.481  1.00  0.00     0.333 C 
ATOM     13  H   UNL A   1      33.289  22.930  23.648  1.00  0.00     0.348 HD
BRANCH  11  14
ATOM     14  C   UNL A   1      32.602  21.185  23.827  1.00  0.00     0.184 C 
ATOM     15  C   UNL A   1      32.140  21.340  22.375  1.00  0.00     0.075 C 
BRANCH  14  16
ATOM     16  C   UNL A   1      33.169  19.819  24.157  1.00  0.00     0.047 C 
ATOM     17  C   UNL A   1      32.752  19.114  25.429  1.00  0.00     0.010 C 
ATOM     18  C   UNL A   1      32.383  18.526  24.099  1.00  0.00     0.010 C 
ENDBRANCH  14  16
ENDBRANCH  11  14
ENDBRANCH   9  11
ENDBRANCH   7   9
ENDBRANCH   4   7
ENDBRANCH   2   3
ENDBRANCH   1   2
BRANCH   1  19
ATOM     19  C   UNL A   1      33.402  28.444  24.694  1.00  0.00     0.023 C 
BRANCH  19  20
ATOM     20  C   UNL A   1      34.099  28.809  25.994  1.00  0.00     0.116 C 
BRANCH  20  21
ATOM     21  N   UNL A   1      33.743  30.138  26.465  1.00  0.00    -0.352 N 
ATOM     22  C   UNL A   1      34.334  30.891  27.451  1.00  0.00     0.251 C 
ATOM     23  H   UNL A   1      32.973  30.556  26.015  1.00  0.00     0.163 HD
ATOM     24  O   UNL A   1      33.807  31.929  27.826  1.00  0.00    -0.269 OA
BRANCH  22  25
ATOM     25  C   UNL A   1      35.586  30.413  28.071  1.00  0.00     0.039 A 
ATOM     26  C   UNL A   1      36.803  30.863  27.556  1.00  0.00     0.014 A 
ATOM     27  C   UNL A   1      35.559  29.555  29.174  1.00  0.00     0.014 A 
ATOM     28  C   UNL A   1      37.990  30.499  28.190  1.00  0.00     0.010 A 
ATOM     29  C   UNL A   1      36.735  29.269  29.858  1.00  0.00     0.010 A 
ATOM     30  C   UNL A   1      37.965  29.732  29.368  1.00  0.00    -0.014 A 
BRANCH  30  31
ATOM     31  C   UNL A   1      39.220  29.426  30.096  1.00  0.00     0.031 A 
ATOM     32  C   UNL A   1      40.131  28.328  29.617  1.00  0.00     0.074 A 
ATOM     33  C   UNL A   1      39.525  30.128  31.205  1.00  0.00     0.049 A 
ATOM     34  N   UNL A   1      41.279  27.940  30.111  1.00  0.00    -0.248 NA
ATOM     35  C   UNL A   1      39.689  27.549  28.448  1.00  0.00     0.031 C 
ATOM     36  C   UNL A   1      38.689  31.174  31.804  1.00  0.00     0.029 A 
ATOM     37  N   UNL A   1      40.624  30.076  32.025  1.00  0.00    -0.354 N 
ATOM     38  C   UNL A   1      41.697  26.882  29.313  1.00  0.00     0.074 A 
ATOM     39  C   UNL A   1      40.651  26.642  28.345  1.00  0.00     0.031 C 
ATOM     40  C   UNL A   1      39.324  31.691  32.868  1.00  0.00     0.029 A 
ATOM     41  C   UNL A   1      40.592  30.992  33.051  1.00  0.00     0.049 A 
ATOM     42  H   UNL A   1      41.366  29.444  31.892  1.00  0.00     0.167 HD
ATOM     43  C   UNL A   1      42.861  26.191  29.362  1.00  0.00     0.031 A 
ATOM     44  C   UNL A   1      41.482  31.241  34.030  1.00  0.00     0.031 A 
ATOM     45  C   UNL A   1      43.901  26.433  30.326  1.00  0.00     0.049 A 
ATOM     46  C   UNL A   1      42.764  30.454  34.063  1.00  0.00     0.074 A 
ATOM     47  C   UNL A   1      45.134  25.815  30.436  1.00  0.00     0.029 A 
ATOM     48  N   UNL A   1      43.832  27.371  31.346  1.00  0.00    -0.354 N 
ATOM     49  N   UNL A   1      43.171  29.506  33.253  1.00  0.00    -0.248 NA
ATOM     50  C   UNL A   1      43.714  30.785  35.133  1.00  0.00     0.031 C 
ATOM     51  C   UNL A   1      45.789  26.340  31.554  1.00  0.00     0.029 A 
ATOM     52  C   UNL A   1      44.991  27.331  32.102  1.00  0.00     0.049 A 
ATOM     53  H   UNL A   1      43.071  27.974  31.509  1.00  0.00     0.167 HD
ATOM     54  C   UNL A   1      44.434  29.140  33.704  1.00  0.00     0.074 A 
ATOM     55  C   UNL A   1      44.736  29.995  34.836  1.00  0.00     0.031 C 
ATOM     56  C   UNL A   1      45.269  28.181  33.233  1.00  0.00     0.031 A 
BRANCH  43  57
ATOM     57  C   UNL A   1      43.079  25.115  28.330  1.00  0.00    -0.014 A 
ATOM     58  C   UNL A   1      43.633  25.422  27.074  1.00  0.00     0.010 A 
ATOM     59  C   UNL A   1      42.793  23.773  28.640  1.00  0.00     0.010 A 
ATOM     60  C   UNL A   1      43.876  24.413  26.139  1.00  0.00     0.020 A 
ATOM     61  C   UNL A   1      43.060  22.756  27.719  1.00  0.00     0.020 A 
ATOM     62  C   UNL A   1      43.592  23.085  26.470  1.00  0.00     0.054 A 
BRANCH  62  63
ATOM     63  S   UNL A   1      43.971  21.792  25.256  1.00  0.00     0.124 S 
ATOM     64  O   UNL A   1      45.307  21.369  25.670  1.00  0.00    -0.237 OA
ATOM     65  O   UNL A   1      42.906  20.818  25.484  1.00  0.00    -0.237 OA
ATOM     66  O   UNL A   1      43.909  22.489  23.974  1.00  0.00    -0.744 OA
ENDBRANCH  62  63
ENDBRANCH  43  57
BRANCH  44  67
ATOM     67  C   UNL A   1      41.195  32.280  35.059  1.00  0.00    -0.014 A 
ATOM     68  C   UNL A   1      40.501  31.957  36.239  1.00  0.00     0.010 A 
ATOM     69  C   UNL A   1      41.603  33.610  34.851  1.00  0.00     0.010 A 
ATOM     70  C   UNL A   1      40.188  32.951  37.170  1.00  0.00     0.020 A 
ATOM     71  C   UNL A   1      41.321  34.600  35.795  1.00  0.00     0.020 A 
ATOM     72  C   UNL A   1      40.597  34.267  36.941  1.00  0.00     0.054 A 
BRANCH  72  73
ATOM     73  S   UNL A   1      40.197  35.538  38.172  1.00  0.00     0.124 S 
ATOM     74  O   UNL A   1      39.868  36.683  37.330  1.00  0.00    -0.237 OA
ATOM     75  O   UNL A   1      39.076  34.938  38.892  1.00  0.00    -0.237 OA
ATOM     76  O   UNL A   1      41.430  35.662  38.948  1.00  0.00    -0.744 OA
ENDBRANCH  72  73
ENDBRANCH  44  67
BRANCH  56  77
ATOM     77  C   UNL A   1      46.595  28.025  33.930  1.00  0.00    -0.014 A 
ATOM     78  C   UNL A   1      46.755  27.127  35.001  1.00  0.00     0.010 A 
ATOM     79  C   UNL A   1      47.700  28.781  33.501  1.00  0.00     0.010 A 
ATOM     80  C   UNL A   1      47.979  27.031  35.666  1.00  0.00     0.020 A 
ATOM     81  C   UNL A   1      48.936  28.664  34.141  1.00  0.00     0.020 A 
ATOM     82  C   UNL A   1      49.060  27.805  35.236  1.00  0.00     0.054 A 
BRANCH  82  83
ATOM     83  S   UNL A   1      50.640  27.662  36.115  1.00  0.00     0.124 S 
ATOM     84  O   UNL A   1      50.596  26.284  36.595  1.00  0.00    -0.237 OA
ATOM     85  O   UNL A   1      51.617  27.934  35.065  1.00  0.00    -0.237 OA
ATOM     86  O   UNL A   1      50.551  28.685  37.155  1.00  0.00    -0.744 OA
ENDBRANCH  82  83
ENDBRANCH  56  77
ENDBRANCH  30  31
ENDBRANCH  22  25
ENDBRANCH  20  21
ENDBRANCH  19  20
ENDBRANCH   1  19
TORSDOF 18
ENDMDL
MODEL 3
REMARK VINA RESULT:      -9.7      2.876      9.179
REMARK SMILES C[C@@H](C(=O)NCCCCNC(=O)c1ccc(-c2c3nc(c(-c4ccc(S(=O)(=O)[O-])cc4)c4ccc([nH]4)c(-c4ccc(S(=O)(=O)[O-])cc4)c4nc(c(-c5ccc(S(=O)(=O)[O-])cc5)c5ccc2[nH]5)C=C4)C=C3)cc1)[C@H](C)[N@@H+](C)[C@@H](C)C1CC1
REMARK SMILES IDX 7 1 6 2 5 3 3 4 4 5 2 7 1 8 73 9 74 10 75 11 76 12 77 14
REMARK SMILES IDX 78 15 79 16 80 17 81 18 8 19 9 20 10 21 11 22 12 24 13 25
REMARK SMILES IDX 14 26 72 27 15 28 71 29 16 30 17 31 18 32 65 33 19 34 70 35
REMARK SMILES IDX 64 36 66 37 20 38 69 39 63 40 62 41 21 43 51 44 32 45 50 46
REMARK SMILES IDX 33 47 36 48 49 49 67 50 34 51 35 52 48 54 68 55 37 56 22 57
REMARK SMILES IDX 23 58 31 59 24 60 30 61 25 62 26 63 27 64 28 65 29 66 52 67
REMARK SMILES IDX 53 68 61 69 54 70 60 71 55 72 56 73 57 74 58 75 59 76 38 77
REMARK SMILES IDX 39 78 47 79 40 80 46 81 41 82 42 83 43 84 44 85 45 86
REMARK H PARENT 5 6 75 13 10 23 66 42 36 53
REMARK Flexibility Score: inf
ROOT
ATOM      1  C   UNL A   1      31.797  27.853  27.141  1.00  0.00     0.023 C 
ENDROOT
BRANCH   1   2
ATOM      2  C   UNL A   1      31.039  26.690  26.498  1.00  0.00     0.116 C 
BRANCH   2   3
ATOM      3  N   UNL A   1      31.488  26.435  25.141  1.00  0.00    -0.356 N 
ATOM      4  C   UNL A   1      32.481  25.604  24.697  1.00  0.00     0.228 C 
ATOM      5  O   UNL A   1      32.764  25.628  23.499  1.00  0.00    -0.275 OA
ATOM      6  H   UNL A   1      31.009  26.932  24.439  1.00  0.00     0.163 HD
BRANCH   4   7
ATOM      7  C   UNL A   1      33.214  24.718  25.710  1.00  0.00     0.133 C 
ATOM      8  C   UNL A   1      34.680  24.675  25.279  1.00  0.00     0.024 C 
BRANCH   7   9
ATOM      9  C   UNL A   1      32.584  23.301  25.826  1.00  0.00     0.193 C 
ATOM     10  C   UNL A   1      31.789  23.154  27.138  1.00  0.00     0.076 C 
BRANCH   9  11
ATOM     11  N   UNL A   1      33.464  22.117  25.635  1.00  0.00    -0.332 N 
ATOM     12  C   UNL A   1      34.053  21.606  26.871  1.00  0.00     0.333 C 
ATOM     13  H   UNL A   1      34.145  22.625  25.070  1.00  0.00     0.348 HD
BRANCH  11  14
ATOM     14  C   UNL A   1      33.196  21.052  24.650  1.00  0.00     0.184 C 
ATOM     15  C   UNL A   1      32.965  19.635  25.183  1.00  0.00     0.075 C 
BRANCH  14  16
ATOM     16  C   UNL A   1      32.169  21.510  23.634  1.00  0.00     0.047 C 
ATOM     17  C   UNL A   1      32.594  22.363  22.459  1.00  0.00     0.010 C 
ATOM     18  C   UNL A   1      32.064  20.980  22.219  1.00  0.00     0.010 C 
ENDBRANCH  14  16
ENDBRANCH  11  14
ENDBRANCH   9  11
ENDBRANCH   7   9
ENDBRANCH   4   7
ENDBRANCH   2   3
ENDBRANCH   1   2
BRANCH   1  19
ATOM     19  C   UNL A   1      32.305  28.906  26.161  1.00  0.00     0.023 C 
BRANCH  19  20
ATOM     20  C   UNL A   1      33.604  29.576  26.573  1.00  0.00     0.116 C 
BRANCH  20  21
ATOM     21  N   UNL A   1      33.421  30.968  26.951  1.00  0.00    -0.352 N 
ATOM     22  C   UNL A   1      34.180  31.741  27.797  1.00  0.00     0.251 C 
ATOM     23  H   UNL A   1      32.646  31.420  26.544  1.00  0.00     0.163 HD
ATOM     24  O   UNL A   1      33.791  32.853  28.124  1.00  0.00    -0.269 OA
BRANCH  22  25
ATOM     25  C   UNL A   1      35.446  31.197  28.329  1.00  0.00     0.039 A 
ATOM     26  C   UNL A   1      36.614  31.944  28.172  1.00  0.00     0.014 A 
ATOM     27  C   UNL A   1      35.473  29.976  29.009  1.00  0.00     0.014 A 
ATOM     28  C   UNL A   1      37.798  31.491  28.752  1.00  0.00     0.010 A 
ATOM     29  C   UNL A   1      36.631  29.574  29.664  1.00  0.00     0.010 A 
ATOM     30  C   UNL A   1      37.809  30.324  29.536  1.00  0.00    -0.014 A 
BRANCH  30  31
ATOM     31  C   UNL A   1      39.046  29.895  30.233  1.00  0.00     0.031 A 
ATOM     32  C   UNL A   1      39.485  30.581  31.499  1.00  0.00     0.074 A 
ATOM     33  C   UNL A   1      39.785  28.898  29.707  1.00  0.00     0.049 A 
ATOM     34  N   UNL A   1      40.521  30.322  32.255  1.00  0.00    -0.248 NA
ATOM     35  C   UNL A   1      38.672  31.717  31.966  1.00  0.00     0.031 C 
ATOM     36  C   UNL A   1      39.496  28.199  28.451  1.00  0.00     0.029 A 
ATOM     37  N   UNL A   1      40.928  28.292  30.166  1.00  0.00    -0.354 N 
ATOM     38  C   UNL A   1      40.480  31.254  33.285  1.00  0.00     0.074 A 
ATOM     39  C   UNL A   1      39.359  32.128  33.022  1.00  0.00     0.031 C 
ATOM     40  C   UNL A   1      40.411  27.235  28.261  1.00  0.00     0.029 A 
ATOM     41  C   UNL A   1      41.372  27.270  29.359  1.00  0.00     0.049 A 
ATOM     42  H   UNL A   1      41.386  28.562  30.993  1.00  0.00     0.167 HD
ATOM     43  C   UNL A   1      41.286  31.356  34.369  1.00  0.00     0.031 A 
ATOM     44  C   UNL A   1      42.433  26.451  29.488  1.00  0.00     0.031 A 
ATOM     45  C   UNL A   1      42.401  30.483  34.628  1.00  0.00     0.049 A 
ATOM     46  C   UNL A   1      43.314  26.591  30.700  1.00  0.00     0.074 A 
ATOM     47  C   UNL A   1      43.254  30.478  35.717  1.00  0.00     0.029 A 
ATOM     48  N   UNL A   1      42.816  29.459  33.791  1.00  0.00    -0.354 N 
ATOM     49  N   UNL A   1      43.214  27.433  31.699  1.00  0.00    -0.248 NA
ATOM     50  C   UNL A   1      44.441  25.654  30.808  1.00  0.00     0.031 C 
ATOM     51  C   UNL A   1      44.219  29.486  35.513  1.00  0.00     0.029 A 
ATOM     52  C   UNL A   1      43.926  28.830  34.328  1.00  0.00     0.049 A 
ATOM     53  H   UNL A   1      42.385  29.215  32.939  1.00  0.00     0.167 HD
ATOM     54  C   UNL A   1      44.254  27.116  32.566  1.00  0.00     0.074 A 
ATOM     55  C   UNL A   1      44.947  25.982  31.988  1.00  0.00     0.031 C 
ATOM     56  C   UNL A   1      44.610  27.711  33.732  1.00  0.00     0.031 A 
BRANCH  43  57
ATOM     57  C   UNL A   1      40.980  32.441  35.368  1.00  0.00    -0.014 A 
ATOM     58  C   UNL A   1      40.121  32.199  36.455  1.00  0.00     0.010 A 
ATOM     59  C   UNL A   1      41.609  33.694  35.262  1.00  0.00     0.010 A 
ATOM     60  C   UNL A   1      39.878  33.196  37.404  1.00  0.00     0.020 A 
ATOM     61  C   UNL A   1      41.392  34.685  36.224  1.00  0.00     0.020 A 
ATOM     62  C   UNL A   1      40.519  34.432  37.284  1.00  0.00     0.054 A 
BRANCH  62  63
ATOM     63  S   UNL A   1      40.227  35.685  38.562  1.00  0.00     0.124 S 
ATOM     64  O   UNL A   1      38.891  35.328  39.036  1.00  0.00    -0.237 OA
ATOM     65  O   UNL A   1      41.314  35.438  39.505  1.00  0.00    -0.237 OA
ATOM     66  O   UNL A   1      40.311  36.949  37.835  1.00  0.00    -0.744 OA
ENDBRANCH  62  63
ENDBRANCH  43  57
BRANCH  44  67
ATOM     67  C   UNL A   1      42.723  25.428  28.444  1.00  0.00    -0.014 A 
ATOM     68  C   UNL A   1      42.169  24.138  28.524  1.00  0.00     0.010 A 
ATOM     69  C   UNL A   1      43.575  25.739  27.369  1.00  0.00     0.010 A 
ATOM     70  C   UNL A   1      42.492  23.168  27.570  1.00  0.00     0.020 A 
ATOM     71  C   UNL A   1      43.874  24.783  26.395  1.00  0.00     0.020 A 
ATOM     72  C   UNL A   1      43.345  23.497  26.513  1.00  0.00     0.054 A 
BRANCH  72  73
ATOM     73  S   UNL A   1      43.737  22.229  25.276  1.00  0.00     0.124 S 
ATOM     74  O   UNL A   1      42.702  21.231  25.526  1.00  0.00    -0.237 OA
ATOM     75  O   UNL A   1      43.617  22.966  24.019  1.00  0.00    -0.237 OA
ATOM     76  O   UNL A   1      45.098  21.823  25.622  1.00  0.00    -0.744 OA
ENDBRANCH  72  73
ENDBRANCH  44  67
BRANCH  56  77
ATOM     77  C   UNL A   1      45.790  27.127  34.465  1.00  0.00    -0.014 A 
ATOM     78  C   UNL A   1      47.097  27.592  34.229  1.00  0.00     0.010 A 
ATOM     79  C   UNL A   1      45.587  26.106  35.410  1.00  0.00     0.010 A 
ATOM     80  C   UNL A   1      48.184  27.005  34.883  1.00  0.00     0.020 A 
ATOM     81  C   UNL A   1      46.667  25.540  36.091  1.00  0.00     0.020 A 
ATOM     82  C   UNL A   1      47.962  25.979  35.805  1.00  0.00     0.054 A 
BRANCH  82  83
ATOM     83  S   UNL A   1      49.388  25.234  36.641  1.00  0.00     0.124 S 
ATOM     84  O   UNL A   1      49.265  23.830  36.259  1.00  0.00    -0.237 OA
ATOM     85  O   UNL A   1      50.515  25.951  36.051  1.00  0.00    -0.237 OA
ATOM     86  O   UNL A   1      49.148  25.517  38.054  1.00  0.00    -0.744 OA
ENDBRANCH  82  83
ENDBRANCH  56  77
ENDBRANCH  30  31
ENDBRANCH  22  25
ENDBRANCH  20  21
ENDBRANCH  19  20
ENDBRANCH   1  19
TORSDOF 18
ENDMDL
