MODEL 1
REMARK VINA RESULT:     -12.6      0.000      0.000
REMARK SMILES O=C(NCCCCNC(=O)[C@H]1Cc2c([nH]c3ccccc23)[C@H](c2c[nH]c3ccccc23)[NH2+]1)c1ccc(-c2c3nc(c(-c4ccc(S(=O)(=O)[O-])cc4)c4ccc([nH]4)c(-c4ccc(S(=O)(=O)[O-])cc4)c4nc(c(-c5ccc(S(=O)(=O)[O-])cc5)c5ccc2[nH]5)C=C4)C=C3)cc1
REMARK SMILES IDX 4 1 3 2 1 3 2 4 33 6 34 7 92 8 35 9 91 10 36 11 37 12 38 13
REMARK SMILES IDX 85 14 39 15 90 16 84 17 86 18 40 19 89 20 83 21 82 22 41 24
REMARK SMILES IDX 71 25 52 26 70 27 53 28 56 29 69 30 87 31 54 32 55 33 68 35
REMARK SMILES IDX 88 36 57 37 42 38 43 39 51 40 44 41 50 42 45 43 46 44 47 45
REMARK SMILES IDX 48 46 49 47 72 48 73 49 81 50 74 51 80 52 75 53 76 54 77 55
REMARK SMILES IDX 78 56 79 57 58 58 59 59 67 60 60 61 66 62 61 63 62 64 63 65
REMARK SMILES IDX 64 66 65 67 5 68 6 69 7 70 8 71 9 72 10 74 11 75 12 76 32 77
REMARK SMILES IDX 13 78 22 79 14 82 21 83 15 84 16 85 20 86 17 88 19 89 18 90
REMARK SMILES IDX 23 91 24 92 31 93 25 94 26 95 30 96 27 98 29 99 28 100
REMARK H PARENT 3 5 86 23 56 34 8 73 32 80 32 81 15 87 25 97
REMARK Flexibility Score: inf
ROOT
ATOM      1  C   UNL A   1      33.969  28.302  26.943  1.00  0.00     0.116 C 
ENDROOT
BRANCH   1   2
ATOM      2  N   UNL A   1      33.715  29.680  27.332  1.00  0.00    -0.352 N 
ATOM      3  O   UNL A   1      34.132  31.636  28.372  1.00  0.00    -0.269 OA
ATOM      4  C   UNL A   1      34.537  30.536  28.020  1.00  0.00     0.251 C 
ATOM      5  H   UNL A   1      32.839  30.046  27.066  1.00  0.00     0.163 HD
BRANCH   4   6
ATOM      6  C   UNL A   1      35.903  30.093  28.358  1.00  0.00     0.039 A 
ATOM      7  C   UNL A   1      36.202  29.627  29.642  1.00  0.00     0.014 A 
ATOM      8  C   UNL A   1      36.893  30.168  27.377  1.00  0.00     0.014 A 
ATOM      9  C   UNL A   1      37.519  29.330  29.976  1.00  0.00     0.010 A 
ATOM     10  C   UNL A   1      38.202  29.816  27.698  1.00  0.00     0.010 A 
ATOM     11  C   UNL A   1      38.528  29.415  29.006  1.00  0.00    -0.014 A 
BRANCH  11  12
ATOM     12  C   UNL A   1      39.918  29.032  29.339  1.00  0.00     0.031 A 
ATOM     13  C   UNL A   1      40.854  30.018  29.973  1.00  0.00     0.074 A 
ATOM     14  C   UNL A   1      40.340  27.793  29.022  1.00  0.00     0.049 A 
ATOM     15  N   UNL A   1      42.126  29.884  30.248  1.00  0.00    -0.248 NA
ATOM     16  C   UNL A   1      40.292  31.327  30.337  1.00  0.00     0.031 C 
ATOM     17  C   UNL A   1      39.513  26.756  28.400  1.00  0.00     0.029 A 
ATOM     18  N   UNL A   1      41.569  27.205  29.162  1.00  0.00    -0.354 N 
ATOM     19  C   UNL A   1      42.526  31.099  30.789  1.00  0.00     0.074 A 
ATOM     20  C   UNL A   1      41.364  31.963  30.792  1.00  0.00     0.031 C 
ATOM     21  C   UNL A   1      40.259  25.658  28.214  1.00  0.00     0.029 A 
ATOM     22  C   UNL A   1      41.625  25.932  28.647  1.00  0.00     0.049 A 
ATOM     23  H   UNL A   1      42.337  27.649  29.590  1.00  0.00     0.167 HD
ATOM     24  C   UNL A   1      43.754  31.461  31.234  1.00  0.00     0.031 A 
ATOM     25  C   UNL A   1      42.664  25.090  28.501  1.00  0.00     0.031 A 
ATOM     26  C   UNL A   1      44.903  30.594  31.215  1.00  0.00     0.049 A 
ATOM     27  C   UNL A   1      44.020  25.517  28.977  1.00  0.00     0.074 A 
ATOM     28  C   UNL A   1      46.182  30.850  31.678  1.00  0.00     0.029 A 
ATOM     29  N   UNL A   1      44.915  29.308  30.695  1.00  0.00    -0.354 N 
ATOM     30  N   UNL A   1      44.374  26.656  29.524  1.00  0.00    -0.248 NA
ATOM     31  C   UNL A   1      45.115  24.552  28.823  1.00  0.00     0.031 C 
ATOM     32  C   UNL A   1      46.979  29.735  31.393  1.00  0.00     0.029 A 
ATOM     33  C   UNL A   1      46.184  28.766  30.800  1.00  0.00     0.049 A 
ATOM     34  H   UNL A   1      44.135  28.849  30.307  1.00  0.00     0.167 HD
ATOM     35  C   UNL A   1      45.731  26.539  29.794  1.00  0.00     0.074 A 
ATOM     36  C   UNL A   1      46.132  25.216  29.358  1.00  0.00     0.031 C 
ATOM     37  C   UNL A   1      46.565  27.447  30.359  1.00  0.00     0.031 A 
BRANCH  24  38
ATOM     38  C   UNL A   1      43.919  32.872  31.733  1.00  0.00    -0.014 A 
ATOM     39  C   UNL A   1      43.856  33.178  33.105  1.00  0.00     0.010 A 
ATOM     40  C   UNL A   1      44.142  33.910  30.810  1.00  0.00     0.010 A 
ATOM     41  C   UNL A   1      43.952  34.503  33.539  1.00  0.00     0.020 A 
ATOM     42  C   UNL A   1      44.262  35.235  31.242  1.00  0.00     0.020 A 
ATOM     43  C   UNL A   1      44.140  35.525  32.603  1.00  0.00     0.054 A 
BRANCH  43  44
ATOM     44  S   UNL A   1      44.230  37.241  33.185  1.00  0.00     0.124 S 
ATOM     45  O   UNL A   1      44.305  37.980  31.926  1.00  0.00    -0.237 OA
ATOM     46  O   UNL A   1      42.983  37.396  33.930  1.00  0.00    -0.237 OA
ATOM     47  O   UNL A   1      45.444  37.268  33.997  1.00  0.00    -0.744 OA
ENDBRANCH  43  44
ENDBRANCH  24  38
BRANCH  25  48
ATOM     48  C   UNL A   1      42.432  23.774  27.854  1.00  0.00    -0.014 A 
ATOM     49  C   UNL A   1      42.773  23.570  26.507  1.00  0.00     0.010 A 
ATOM     50  C   UNL A   1      41.976  22.685  28.621  1.00  0.00     0.010 A 
ATOM     51  C   UNL A   1      42.678  22.295  25.942  1.00  0.00     0.020 A 
ATOM     52  C   UNL A   1      41.902  21.405  28.066  1.00  0.00     0.020 A 
ATOM     53  C   UNL A   1      42.254  21.218  26.729  1.00  0.00     0.054 A 
BRANCH  53  54
ATOM     54  S   UNL A   1      42.254  19.552  26.008  1.00  0.00     0.124 S 
ATOM     55  O   UNL A   1      43.183  19.704  24.893  1.00  0.00    -0.237 OA
ATOM     56  O   UNL A   1      42.725  18.726  27.117  1.00  0.00    -0.237 OA
ATOM     57  O   UNL A   1      40.856  19.342  25.637  1.00  0.00    -0.744 OA
ENDBRANCH  53  54
ENDBRANCH  25  48
BRANCH  37  58
ATOM     58  C   UNL A   1      47.997  27.036  30.567  1.00  0.00    -0.014 A 
ATOM     59  C   UNL A   1      48.957  27.221  29.558  1.00  0.00     0.010 A 
ATOM     60  C   UNL A   1      48.400  26.551  31.824  1.00  0.00     0.010 A 
ATOM     61  C   UNL A   1      50.300  26.920  29.802  1.00  0.00     0.020 A 
ATOM     62  C   UNL A   1      49.744  26.268  32.078  1.00  0.00     0.020 A 
ATOM     63  C   UNL A   1      50.685  26.451  31.062  1.00  0.00     0.054 A 
BRANCH  63  64
ATOM     64  S   UNL A   1      52.445  26.150  31.384  1.00  0.00     0.124 S 
ATOM     65  O   UNL A   1      52.785  27.257  32.274  1.00  0.00    -0.237 OA
ATOM     66  O   UNL A   1      52.437  24.826  32.002  1.00  0.00    -0.237 OA
ATOM     67  O   UNL A   1      53.054  26.206  30.058  1.00  0.00    -0.744 OA
ENDBRANCH  63  64
ENDBRANCH  37  58
ENDBRANCH  11  12
ENDBRANCH   4   6
ENDBRANCH   1   2
BRANCH   1  68
ATOM     68  C   UNL A   1      32.691  27.503  26.717  1.00  0.00     0.023 C 
BRANCH  68  69
ATOM     69  C   UNL A   1      32.163  27.526  25.279  1.00  0.00     0.023 C 
BRANCH  69  70
ATOM     70  C   UNL A   1      31.630  26.180  24.777  1.00  0.00     0.116 C 
BRANCH  70  71
ATOM     71  N   UNL A   1      31.023  25.448  25.866  1.00  0.00    -0.351 N 
ATOM     72  C   UNL A   1      31.301  24.221  26.377  1.00  0.00     0.278 C 
ATOM     73  H   UNL A   1      30.283  25.920  26.314  1.00  0.00     0.163 HD
ATOM     74  O   UNL A   1      30.549  23.831  27.282  1.00  0.00    -0.268 OA
BRANCH  72  75
ATOM     75  C   UNL A   1      32.539  23.373  25.990  1.00  0.00     0.277 C 
ATOM     76  C   UNL A   1      33.915  24.054  26.168  1.00  0.00     0.114 C 
ATOM     77  N   UNL A   1      32.402  22.025  26.624  1.00  0.00    -0.324 N 
ATOM     78  C   UNL A   1      35.007  23.050  26.065  1.00  0.00    -0.006 A 
ATOM     79  C   UNL A   1      33.387  21.043  26.141  1.00  0.00     0.264 C 
ATOM     80  H   UNL A   1      31.467  21.669  26.424  1.00  0.00     0.347 HD
ATOM     81  H   UNL A   1      32.567  22.147  27.623  1.00  0.00     0.347 HD
ATOM     82  C   UNL A   1      34.740  21.696  26.060  1.00  0.00     0.083 A 
ATOM     83  C   UNL A   1      36.416  23.223  26.053  1.00  0.00     0.003 A 
ATOM     84  N   UNL A   1      35.942  21.040  26.016  1.00  0.00    -0.353 N 
ATOM     85  C   UNL A   1      36.980  21.948  26.009  1.00  0.00     0.046 A 
ATOM     86  C   UNL A   1      37.269  24.343  26.099  1.00  0.00     0.010 A 
ATOM     87  H   UNL A   1      36.048  20.062  25.993  1.00  0.00     0.166 HD
ATOM     88  C   UNL A   1      38.364  21.737  25.985  1.00  0.00     0.026 A 
ATOM     89  C   UNL A   1      38.655  24.149  26.087  1.00  0.00     0.001 A 
ATOM     90  C   UNL A   1      39.191  22.864  26.026  1.00  0.00     0.002 A 
BRANCH  79  91
ATOM     91  C   UNL A   1      33.008  20.319  24.853  1.00  0.00     0.041 A 
ATOM     92  C   UNL A   1      32.136  20.873  23.918  1.00  0.00     0.093 A 
ATOM     93  C   UNL A   1      33.404  19.042  24.286  1.00  0.00     0.009 A 
ATOM     94  N   UNL A   1      31.910  19.976  22.916  1.00  0.00    -0.361 N 
ATOM     95  C   UNL A   1      32.660  18.847  23.116  1.00  0.00     0.046 A 
ATOM     96  C   UNL A   1      34.306  18.009  24.631  1.00  0.00     0.011 A 
ATOM     97  H   UNL A   1      31.298  20.117  22.159  1.00  0.00     0.166 HD
ATOM     98  C   UNL A   1      32.728  17.682  22.337  1.00  0.00     0.026 A 
ATOM     99  C   UNL A   1      34.387  16.836  23.870  1.00  0.00     0.001 A 
ATOM    100  C   UNL A   1      33.597  16.671  22.742  1.00  0.00     0.002 A 
ENDBRANCH  79  91
ENDBRANCH  72  75
ENDBRANCH  70  71
ENDBRANCH  69  70
ENDBRANCH  68  69
ENDBRANCH   1  68
TORSDOF 15
ENDMDL
MODEL 2
REMARK VINA RESULT:     -12.4      4.441     10.142
REMARK SMILES O=C(NCCCCNC(=O)[C@H]1Cc2c([nH]c3ccccc23)[C@H](c2c[nH]c3ccccc23)[NH2+]1)c1ccc(-c2c3nc(c(-c4ccc(S(=O)(=O)[O-])cc4)c4ccc([nH]4)c(-c4ccc(S(=O)(=O)[O-])cc4)c4nc(c(-c5ccc(S(=O)(=O)[O-])cc5)c5ccc2[nH]5)C=C4)C=C3)cc1
REMARK SMILES IDX 4 1 3 2 1 3 2 4 33 6 34 7 92 8 35 9 91 10 36 11 37 12 38 13
REMARK SMILES IDX 85 14 39 15 90 16 84 17 86 18 40 19 89 20 83 21 82 22 41 24
REMARK SMILES IDX 71 25 52 26 70 27 53 28 56 29 69 30 87 31 54 32 55 33 68 35
REMARK SMILES IDX 88 36 57 37 42 38 43 39 51 40 44 41 50 42 45 43 46 44 47 45
REMARK SMILES IDX 48 46 49 47 72 48 73 49 81 50 74 51 80 52 75 53 76 54 77 55
REMARK SMILES IDX 78 56 79 57 58 58 59 59 67 60 60 61 66 62 61 63 62 64 63 65
REMARK SMILES IDX 64 66 65 67 5 68 6 69 7 70 8 71 9 72 10 74 11 75 12 76 32 77
REMARK SMILES IDX 13 78 22 79 14 82 21 83 15 84 16 85 20 86 17 88 19 89 18 90
REMARK SMILES IDX 23 91 24 92 31 93 25 94 26 95 30 96 27 98 29 99 28 100
REMARK H PARENT 3 5 86 23 56 34 8 73 32 80 32 81 15 87 25 97
REMARK Flexibility Score: inf
ROOT
ATOM      1  C   UNL A   1      41.722  22.926  27.700  1.00  0.00     0.116 C 
ENDROOT
BRANCH   1   2
ATOM      2  N   UNL A   1      41.837  23.641  26.440  1.00  0.00    -0.352 N 
ATOM      3  O   UNL A   1      41.734  25.431  25.072  1.00  0.00    -0.269 OA
ATOM      4  C   UNL A   1      41.726  24.991  26.213  1.00  0.00     0.251 C 
ATOM      5  H   UNL A   1      42.017  23.086  25.646  1.00  0.00     0.163 HD
BRANCH   4   6
ATOM      6  C   UNL A   1      41.561  25.894  27.368  1.00  0.00     0.039 A 
ATOM      7  C   UNL A   1      40.439  25.794  28.196  1.00  0.00     0.014 A 
ATOM      8  C   UNL A   1      42.538  26.864  27.604  1.00  0.00     0.014 A 
ATOM      9  C   UNL A   1      40.242  26.731  29.204  1.00  0.00     0.010 A 
ATOM     10  C   UNL A   1      42.365  27.768  28.650  1.00  0.00     0.010 A 
ATOM     11  C   UNL A   1      41.206  27.721  29.443  1.00  0.00    -0.014 A 
BRANCH  11  12
ATOM     12  C   UNL A   1      41.033  28.677  30.560  1.00  0.00     0.031 A 
ATOM     13  C   UNL A   1      41.877  28.571  31.796  1.00  0.00     0.074 A 
ATOM     14  C   UNL A   1      40.075  29.617  30.463  1.00  0.00     0.049 A 
ATOM     15  N   UNL A   1      41.800  29.262  32.904  1.00  0.00    -0.248 NA
ATOM     16  C   UNL A   1      42.937  27.552  31.791  1.00  0.00     0.031 C 
ATOM     17  C   UNL A   1      39.197  29.807  29.307  1.00  0.00     0.029 A 
ATOM     18  N   UNL A   1      39.669  30.574  31.355  1.00  0.00    -0.354 N 
ATOM     19  C   UNL A   1      42.780  28.743  33.742  1.00  0.00     0.074 A 
ATOM     20  C   UNL A   1      43.430  27.672  33.017  1.00  0.00     0.031 C 
ATOM     21  C   UNL A   1      38.355  30.820  29.560  1.00  0.00     0.029 A 
ATOM     22  C   UNL A   1      38.596  31.310  30.913  1.00  0.00     0.049 A 
ATOM     23  H   UNL A   1      40.103  30.722  32.226  1.00  0.00     0.167 HD
ATOM     24  C   UNL A   1      43.100  29.124  35.003  1.00  0.00     0.031 A 
ATOM     25  C   UNL A   1      37.859  32.247  31.536  1.00  0.00     0.031 A 
ATOM     26  C   UNL A   1      42.437  30.185  35.714  1.00  0.00     0.049 A 
ATOM     27  C   UNL A   1      38.212  32.638  32.940  1.00  0.00     0.074 A 
ATOM     28  C   UNL A   1      42.710  30.674  36.980  1.00  0.00     0.029 A 
ATOM     29  N   UNL A   1      41.361  30.913  35.227  1.00  0.00    -0.354 N 
ATOM     30  N   UNL A   1      39.167  32.166  33.704  1.00  0.00    -0.248 NA
ATOM     31  C   UNL A   1      37.396  33.686  33.565  1.00  0.00     0.031 C 
ATOM     32  C   UNL A   1      41.767  31.666  37.275  1.00  0.00     0.029 A 
ATOM     33  C   UNL A   1      40.941  31.830  36.175  1.00  0.00     0.049 A 
ATOM     34  H   UNL A   1      40.956  30.794  34.337  1.00  0.00     0.167 HD
ATOM     35  C   UNL A   1      39.079  32.869  34.898  1.00  0.00     0.074 A 
ATOM     36  C   UNL A   1      37.982  33.806  34.751  1.00  0.00     0.031 C 
ATOM     37  C   UNL A   1      39.844  32.753  36.011  1.00  0.00     0.031 A 
BRANCH  24  38
ATOM     38  C   UNL A   1      44.184  28.349  35.703  1.00  0.00    -0.014 A 
ATOM     39  C   UNL A   1      45.535  28.733  35.613  1.00  0.00     0.010 A 
ATOM     40  C   UNL A   1      43.844  27.217  36.465  1.00  0.00     0.010 A 
ATOM     41  C   UNL A   1      46.531  27.963  36.222  1.00  0.00     0.020 A 
ATOM     42  C   UNL A   1      44.835  26.458  37.096  1.00  0.00     0.020 A 
ATOM     43  C   UNL A   1      46.175  26.822  36.947  1.00  0.00     0.054 A 
BRANCH  43  44
ATOM     44  S   UNL A   1      47.486  25.820  37.703  1.00  0.00     0.124 S 
ATOM     45  O   UNL A   1      46.759  24.606  38.070  1.00  0.00    -0.237 OA
ATOM     46  O   UNL A   1      48.447  25.670  36.614  1.00  0.00    -0.237 OA
ATOM     47  O   UNL A   1      47.943  26.636  38.824  1.00  0.00    -0.744 OA
ENDBRANCH  43  44
ENDBRANCH  24  38
BRANCH  25  48
ATOM     48  C   UNL A   1      36.706  32.847  30.815  1.00  0.00    -0.014 A 
ATOM     49  C   UNL A   1      35.389  32.563  31.212  1.00  0.00     0.010 A 
ATOM     50  C   UNL A   1      36.931  33.797  29.801  1.00  0.00     0.010 A 
ATOM     51  C   UNL A   1      34.316  33.234  30.618  1.00  0.00     0.020 A 
ATOM     52  C   UNL A   1      35.862  34.485  29.222  1.00  0.00     0.020 A 
ATOM     53  C   UNL A   1      34.561  34.199  29.635  1.00  0.00     0.054 A 
BRANCH  53  54
ATOM     54  S   UNL A   1      33.161  35.141  28.965  1.00  0.00     0.124 S 
ATOM     55  O   UNL A   1      32.339  35.348  30.152  1.00  0.00    -0.237 OA
ATOM     56  O   UNL A   1      33.810  36.334  28.427  1.00  0.00    -0.237 OA
ATOM     57  O   UNL A   1      32.596  34.243  27.959  1.00  0.00    -0.744 OA
ENDBRANCH  53  54
ENDBRANCH  25  48
BRANCH  37  58
ATOM     58  C   UNL A   1      39.545  33.678  37.158  1.00  0.00    -0.014 A 
ATOM     59  C   UNL A   1      38.705  33.277  38.211  1.00  0.00     0.010 A 
ATOM     60  C   UNL A   1      40.190  34.925  37.225  1.00  0.00     0.010 A 
ATOM     61  C   UNL A   1      38.512  34.115  39.313  1.00  0.00     0.020 A 
ATOM     62  C   UNL A   1      40.016  35.756  38.334  1.00  0.00     0.020 A 
ATOM     63  C   UNL A   1      39.174  35.346  39.370  1.00  0.00     0.054 A 
BRANCH  63  64
ATOM     64  S   UNL A   1      38.977  36.378  40.850  1.00  0.00     0.124 S 
ATOM     65  O   UNL A   1      40.313  36.321  41.439  1.00  0.00    -0.237 OA
ATOM     66  O   UNL A   1      38.591  37.671  40.291  1.00  0.00    -0.237 OA
ATOM     67  O   UNL A   1      37.931  35.698  41.609  1.00  0.00    -0.744 OA
ENDBRANCH  63  64
ENDBRANCH  37  58
ENDBRANCH  11  12
ENDBRANCH   4   6
ENDBRANCH   1   2
BRANCH   1  68
ATOM     68  C   UNL A   1      40.665  21.828  27.667  1.00  0.00     0.023 C 
BRANCH  68  69
ATOM     69  C   UNL A   1      40.328  21.301  26.268  1.00  0.00     0.023 C 
BRANCH  69  70
ATOM     70  C   UNL A   1      38.836  21.332  25.920  1.00  0.00     0.116 C 
BRANCH  70  71
ATOM     71  N   UNL A   1      38.369  22.699  25.856  1.00  0.00    -0.351 N 
ATOM     72  C   UNL A   1      37.131  23.206  25.625  1.00  0.00     0.278 C 
ATOM     73  H   UNL A   1      39.067  23.377  26.007  1.00  0.00     0.163 HD
ATOM     74  O   UNL A   1      37.057  24.441  25.562  1.00  0.00    -0.268 OA
BRANCH  72  75
ATOM     75  C   UNL A   1      35.836  22.356  25.565  1.00  0.00     0.277 C 
ATOM     76  C   UNL A   1      35.980  20.933  24.981  1.00  0.00     0.114 C 
ATOM     77  N   UNL A   1      35.158  22.440  26.897  1.00  0.00    -0.324 N 
ATOM     78  C   UNL A   1      34.761  20.130  25.267  1.00  0.00    -0.006 A 
ATOM     79  C   UNL A   1      33.797  21.877  26.902  1.00  0.00     0.264 C 
ATOM     80  H   UNL A   1      35.103  23.421  27.169  1.00  0.00     0.347 HD
ATOM     81  H   UNL A   1      35.713  21.885  27.549  1.00  0.00     0.347 HD
ATOM     82  C   UNL A   1      33.793  20.579  26.142  1.00  0.00     0.083 A 
ATOM     83  C   UNL A   1      34.399  18.826  24.837  1.00  0.00     0.003 A 
ATOM     84  N   UNL A   1      32.839  19.600  26.237  1.00  0.00    -0.353 N 
ATOM     85  C   UNL A   1      33.183  18.522  25.449  1.00  0.00     0.046 A 
ATOM     86  C   UNL A   1      35.000  17.863  24.003  1.00  0.00     0.010 A 
ATOM     87  H   UNL A   1      32.026  19.660  26.788  1.00  0.00     0.166 HD
ATOM     88  C   UNL A   1      32.523  17.303  25.249  1.00  0.00     0.026 A 
ATOM     89  C   UNL A   1      34.358  16.636  23.802  1.00  0.00     0.001 A 
ATOM     90  C   UNL A   1      33.136  16.365  24.413  1.00  0.00     0.002 A 
BRANCH  79  91
ATOM     91  C   UNL A   1      32.697  22.829  26.441  1.00  0.00     0.041 A 
ATOM     92  C   UNL A   1      31.767  23.372  27.325  1.00  0.00     0.093 A 
ATOM     93  C   UNL A   1      32.359  23.394  25.147  1.00  0.00     0.009 A 
ATOM     94  N   UNL A   1      30.856  24.112  26.631  1.00  0.00    -0.361 N 
ATOM     95  C   UNL A   1      31.182  24.137  25.302  1.00  0.00     0.046 A 
ATOM     96  C   UNL A   1      32.908  23.357  23.844  1.00  0.00     0.011 A 
ATOM     97  H   UNL A   1      30.076  24.563  27.027  1.00  0.00     0.166 HD
ATOM     98  C   UNL A   1      30.519  24.770  24.240  1.00  0.00     0.026 A 
ATOM     99  C   UNL A   1      32.259  23.979  22.769  1.00  0.00     0.001 A 
ATOM    100  C   UNL A   1      31.072  24.668  22.965  1.00  0.00     0.002 A 
ENDBRANCH  79  91
ENDBRANCH  72  75
ENDBRANCH  70  71
ENDBRANCH  69  70
ENDBRANCH  68  69
ENDBRANCH   1  68
TORSDOF 15
ENDMDL
MODEL 3
REMARK VINA RESULT:     -12.3      2.464      3.113
REMARK SMILES O=C(NCCCCNC(=O)[C@H]1Cc2c([nH]c3ccccc23)[C@H](c2c[nH]c3ccccc23)[NH2+]1)c1ccc(-c2c3nc(c(-c4ccc(S(=O)(=O)[O-])cc4)c4ccc([nH]4)c(-c4ccc(S(=O)(=O)[O-])cc4)c4nc(c(-c5ccc(S(=O)(=O)[O-])cc5)c5ccc2[nH]5)C=C4)C=C3)cc1
REMARK SMILES IDX 4 1 3 2 1 3 2 4 33 6 34 7 92 8 35 9 91 10 36 11 37 12 38 13
REMARK SMILES IDX 85 14 39 15 90 16 84 17 86 18 40 19 89 20 83 21 82 22 41 24
REMARK SMILES IDX 71 25 52 26 70 27 53 28 56 29 69 30 87 31 54 32 55 33 68 35
REMARK SMILES IDX 88 36 57 37 42 38 43 39 51 40 44 41 50 42 45 43 46 44 47 45
REMARK SMILES IDX 48 46 49 47 72 48 73 49 81 50 74 51 80 52 75 53 76 54 77 55
REMARK SMILES IDX 78 56 79 57 58 58 59 59 67 60 60 61 66 62 61 63 62 64 63 65
REMARK SMILES IDX 64 66 65 67 5 68 6 69 7 70 8 71 9 72 10 74 11 75 12 76 32 77
REMARK SMILES IDX 13 78 22 79 14 82 21 83 15 84 16 85 20 86 17 88 19 89 18 90
REMARK SMILES IDX 23 91 24 92 31 93 25 94 26 95 30 96 27 98 29 99 28 100
REMARK H PARENT 3 5 86 23 56 34 8 73 32 80 32 81 15 87 25 97
REMARK Flexibility Score: inf
ROOT
ATOM      1  C   UNL A   1      35.310  29.202  27.558  1.00  0.00     0.116 C 
ENDROOT
BRANCH   1   2
ATOM      2  N   UNL A   1      35.150  30.026  28.744  1.00  0.00    -0.352 N 
ATOM      3  O   UNL A   1      35.800  31.029  30.657  1.00  0.00    -0.269 OA
ATOM      4  C   UNL A   1      36.112  30.427  29.639  1.00  0.00     0.251 C 
ATOM      5  H   UNL A   1      34.234  30.337  28.931  1.00  0.00     0.163 HD
BRANCH   4   6
ATOM      6  C   UNL A   1      37.522  30.088  29.366  1.00  0.00     0.039 A 
ATOM      7  C   UNL A   1      38.003  30.050  28.055  1.00  0.00     0.014 A 
ATOM      8  C   UNL A   1      38.358  29.787  30.443  1.00  0.00     0.014 A 
ATOM      9  C   UNL A   1      39.300  29.610  27.810  1.00  0.00     0.010 A 
ATOM     10  C   UNL A   1      39.674  29.400  30.199  1.00  0.00     0.010 A 
ATOM     11  C   UNL A   1      40.147  29.289  28.880  1.00  0.00    -0.014 A 
BRANCH  11  12
ATOM     12  C   UNL A   1      41.550  28.888  28.627  1.00  0.00     0.031 A 
ATOM     13  C   UNL A   1      42.652  29.906  28.648  1.00  0.00     0.074 A 
ATOM     14  C   UNL A   1      41.811  27.600  28.336  1.00  0.00     0.049 A 
ATOM     15  N   UNL A   1      43.919  29.750  28.361  1.00  0.00    -0.248 NA
ATOM     16  C   UNL A   1      42.284  31.277  29.032  1.00  0.00     0.031 C 
ATOM     17  C   UNL A   1      40.814  26.530  28.287  1.00  0.00     0.029 A 
ATOM     18  N   UNL A   1      42.988  26.979  28.011  1.00  0.00    -0.354 N 
ATOM     19  C   UNL A   1      44.495  31.007  28.498  1.00  0.00     0.074 A 
ATOM     20  C   UNL A   1      43.437  31.916  28.884  1.00  0.00     0.031 C 
ATOM     21  C   UNL A   1      41.421  25.382  27.952  1.00  0.00     0.029 A 
ATOM     22  C   UNL A   1      42.835  25.648  27.707  1.00  0.00     0.049 A 
ATOM     23  H   UNL A   1      43.858  27.440  27.996  1.00  0.00     0.167 HD
ATOM     24  C   UNL A   1      45.788  31.367  28.311  1.00  0.00     0.031 A 
ATOM     25  C   UNL A   1      43.720  24.747  27.245  1.00  0.00     0.031 A 
ATOM     26  C   UNL A   1      46.828  30.453  27.917  1.00  0.00     0.049 A 
ATOM     27  C   UNL A   1      45.141  25.169  27.020  1.00  0.00     0.074 A 
ATOM     28  C   UNL A   1      48.176  30.708  27.739  1.00  0.00     0.029 A 
ATOM     29  N   UNL A   1      46.633  29.109  27.629  1.00  0.00    -0.354 N 
ATOM     30  N   UNL A   1      45.679  26.353  27.194  1.00  0.00    -0.248 NA
ATOM     31  C   UNL A   1      46.074  24.142  26.544  1.00  0.00     0.031 C 
ATOM     32  C   UNL A   1      48.787  29.529  27.296  1.00  0.00     0.029 A 
ATOM     33  C   UNL A   1      47.830  28.528  27.249  1.00  0.00     0.049 A 
ATOM     34  H   UNL A   1      45.770  28.639  27.687  1.00  0.00     0.167 HD
ATOM     35  C   UNL A   1      47.020  26.210  26.862  1.00  0.00     0.074 A 
ATOM     36  C   UNL A   1      47.212  24.823  26.486  1.00  0.00     0.031 C 
ATOM     37  C   UNL A   1      48.002  27.145  26.876  1.00  0.00     0.031 A 
BRANCH  24  38
ATOM     38  C   UNL A   1      46.131  32.823  28.485  1.00  0.00    -0.014 A 
ATOM     39  C   UNL A   1      46.321  33.384  29.761  1.00  0.00     0.010 A 
ATOM     40  C   UNL A   1      46.266  33.642  27.350  1.00  0.00     0.010 A 
ATOM     41  C   UNL A   1      46.578  34.752  29.900  1.00  0.00     0.020 A 
ATOM     42  C   UNL A   1      46.548  35.005  27.483  1.00  0.00     0.020 A 
ATOM     43  C   UNL A   1      46.676  35.556  28.761  1.00  0.00     0.054 A 
BRANCH  43  44
ATOM     44  S   UNL A   1      46.980  37.333  28.966  1.00  0.00     0.124 S 
ATOM     45  O   UNL A   1      46.090  37.661  30.078  1.00  0.00    -0.237 OA
ATOM     46  O   UNL A   1      48.408  37.383  29.271  1.00  0.00    -0.237 OA
ATOM     47  O   UNL A   1      46.602  37.901  27.676  1.00  0.00    -0.744 OA
ENDBRANCH  43  44
ENDBRANCH  24  38
BRANCH  25  48
ATOM     48  C   UNL A   1      43.251  23.368  26.954  1.00  0.00    -0.014 A 
ATOM     49  C   UNL A   1      43.237  22.880  25.637  1.00  0.00     0.010 A 
ATOM     50  C   UNL A   1      42.925  22.499  28.013  1.00  0.00     0.010 A 
ATOM     51  C   UNL A   1      42.924  21.542  25.385  1.00  0.00     0.020 A 
ATOM     52  C   UNL A   1      42.634  21.156  27.767  1.00  0.00     0.020 A 
ATOM     53  C   UNL A   1      42.635  20.685  26.453  1.00  0.00     0.054 A 
BRANCH  53  54
ATOM     54  S   UNL A   1      42.348  18.925  26.112  1.00  0.00     0.124 S 
ATOM     55  O   UNL A   1      40.934  18.912  25.755  1.00  0.00    -0.237 OA
ATOM     56  O   UNL A   1      43.281  18.659  25.019  1.00  0.00    -0.237 OA
ATOM     57  O   UNL A   1      42.683  18.274  27.377  1.00  0.00    -0.744 OA
ENDBRANCH  53  54
ENDBRANCH  25  48
BRANCH  37  58
ATOM     58  C   UNL A   1      49.388  26.700  26.498  1.00  0.00    -0.014 A 
ATOM     59  C   UNL A   1      50.224  26.065  27.432  1.00  0.00     0.010 A 
ATOM     60  C   UNL A   1      49.817  26.835  25.166  1.00  0.00     0.010 A 
ATOM     61  C   UNL A   1      51.472  25.575  27.038  1.00  0.00     0.020 A 
ATOM     62  C   UNL A   1      51.055  26.329  24.764  1.00  0.00     0.020 A 
ATOM     63  C   UNL A   1      51.877  25.705  25.706  1.00  0.00     0.054 A 
BRANCH  63  64
ATOM     64  S   UNL A   1      53.463  24.985  25.198  1.00  0.00     0.124 S 
ATOM     65  O   UNL A   1      53.656  25.575  23.876  1.00  0.00    -0.237 OA
ATOM     66  O   UNL A   1      54.377  25.456  26.236  1.00  0.00    -0.237 OA
ATOM     67  O   UNL A   1      53.209  23.547  25.208  1.00  0.00    -0.744 OA
ENDBRANCH  63  64
ENDBRANCH  37  58
ENDBRANCH  11  12
ENDBRANCH   4   6
ENDBRANCH   1   2
BRANCH   1  68
ATOM     68  C   UNL A   1      34.042  29.122  26.715  1.00  0.00     0.023 C 
BRANCH  68  69
ATOM     69  C   UNL A   1      33.050  28.036  27.146  1.00  0.00     0.023 C 
BRANCH  69  70
ATOM     70  C   UNL A   1      32.869  26.902  26.132  1.00  0.00     0.116 C 
BRANCH  70  71
ATOM     71  N   UNL A   1      31.810  26.016  26.560  1.00  0.00    -0.351 N 
ATOM     72  C   UNL A   1      31.700  24.665  26.495  1.00  0.00     0.278 C 
ATOM     73  H   UNL A   1      31.038  26.471  26.969  1.00  0.00     0.163 HD
ATOM     74  O   UNL A   1      30.625  24.191  26.887  1.00  0.00    -0.268 OA
BRANCH  72  75
ATOM     75  C   UNL A   1      32.854  23.713  26.091  1.00  0.00     0.277 C 
ATOM     76  C   UNL A   1      34.287  24.264  26.267  1.00  0.00     0.114 C 
ATOM     77  N   UNL A   1      32.599  22.376  26.711  1.00  0.00    -0.324 N 
ATOM     78  C   UNL A   1      35.283  23.167  26.146  1.00  0.00    -0.006 A 
ATOM     79  C   UNL A   1      33.490  21.314  26.211  1.00  0.00     0.264 C 
ATOM     80  H   UNL A   1      31.636  22.108  26.514  1.00  0.00     0.347 HD
ATOM     81  H   UNL A   1      32.781  22.471  27.710  1.00  0.00     0.347 HD
ATOM     82  C   UNL A   1      34.895  21.842  26.128  1.00  0.00     0.083 A 
ATOM     83  C   UNL A   1      36.702  23.213  26.127  1.00  0.00     0.003 A 
ATOM     84  N   UNL A   1      36.033  21.081  26.070  1.00  0.00    -0.353 N 
ATOM     85  C   UNL A   1      37.148  21.892  26.066  1.00  0.00     0.046 A 
ATOM     86  C   UNL A   1      37.654  24.250  26.180  1.00  0.00     0.010 A 
ATOM     87  H   UNL A   1      36.050  20.098  26.036  1.00  0.00     0.166 HD
ATOM     88  C   UNL A   1      38.508  21.557  26.031  1.00  0.00     0.026 A 
ATOM     89  C   UNL A   1      39.016  23.931  26.156  1.00  0.00     0.001 A 
ATOM     90  C   UNL A   1      39.433  22.604  26.078  1.00  0.00     0.002 A 
BRANCH  79  91
ATOM     91  C   UNL A   1      33.039  20.641  24.918  1.00  0.00     0.041 A 
ATOM     92  C   UNL A   1      32.200  21.275  24.003  1.00  0.00     0.093 A 
ATOM     93  C   UNL A   1      33.328  19.347  24.326  1.00  0.00     0.009 A 
ATOM     94  N   UNL A   1      31.894  20.414  22.991  1.00  0.00    -0.361 N 
ATOM     95  C   UNL A   1      32.557  19.229  23.164  1.00  0.00     0.046 A 
ATOM     96  C   UNL A   1      34.153  18.243  24.643  1.00  0.00     0.011 A 
ATOM     97  H   UNL A   1      31.285  20.615  22.245  1.00  0.00     0.166 HD
ATOM     98  C   UNL A   1      32.525  18.074  22.367  1.00  0.00     0.026 A 
ATOM     99  C   UNL A   1      34.134  17.079  23.864  1.00  0.00     0.001 A 
ATOM    100  C   UNL A   1      33.319  16.993  22.745  1.00  0.00     0.002 A 
ENDBRANCH  79  91
ENDBRANCH  72  75
ENDBRANCH  70  71
ENDBRANCH  69  70
ENDBRANCH  68  69
ENDBRANCH   1  68
TORSDOF 15
ENDMDL
