MODEL 1
REMARK VINA RESULT:     -11.0      0.000      0.000
REMARK SMILES CC(C)C[C@@H](CNC(=O)[C@@H]1CCOC1)C(=O)NCCCCNC(=O)c1ccc(-c2c3nc(c(-c4ccc(S(=O)(=O)[O-])cc4)c4ccc([nH]4)c(-c4ccc(S(=O)(=O)[O-])cc4)c4nc(c(-c5ccc(S(=O)(=O)[O-])cc5)c5ccc2[nH]5)C=C4)C=C3)cc1
REMARK SMILES IDX 19 1 18 2 17 3 15 4 16 5 5 7 4 8 2 9 1 10 3 11 6 12 7 13
REMARK SMILES IDX 8 14 9 16 10 17 11 18 14 19 12 20 13 21 20 22 21 23 22 24
REMARK SMILES IDX 23 25 24 27 25 28 26 29 84 30 27 31 83 32 28 33 29 34 30 35
REMARK SMILES IDX 77 36 31 37 82 38 76 39 78 40 32 41 81 42 75 43 74 44 33 46
REMARK SMILES IDX 63 47 44 48 62 49 45 50 48 51 61 52 79 53 46 54 47 55 60 57
REMARK SMILES IDX 80 58 49 59 34 60 35 61 43 62 36 63 42 64 37 65 38 66 39 67
REMARK SMILES IDX 40 68 41 69 64 70 65 71 73 72 66 73 72 74 67 75 68 76 69 77
REMARK SMILES IDX 70 78 71 79 50 80 51 81 59 82 52 83 58 84 53 85 54 86 55 87
REMARK SMILES IDX 56 88 57 89
REMARK H PARENT 17 6 7 15 22 26 78 45 48 56
REMARK Flexibility Score: inf
ROOT
ATOM      1  C   UNL A   1      33.163  30.387  27.228  1.00  0.00     0.023 C 
ENDROOT
BRANCH   1   2
ATOM      2  C   UNL A   1      32.447  30.130  25.907  1.00  0.00     0.116 C 
BRANCH   2   3
ATOM      3  N   UNL A   1      33.368  29.766  24.847  1.00  0.00    -0.356 N 
ATOM      4  C   UNL A   1      33.420  28.684  24.029  1.00  0.00     0.224 C 
ATOM      5  O   UNL A   1      34.301  28.676  23.162  1.00  0.00    -0.275 OA
ATOM      6  H   UNL A   1      34.086  30.423  24.694  1.00  0.00     0.163 HD
BRANCH   4   7
ATOM      7  C   UNL A   1      32.443  27.516  24.122  1.00  0.00     0.098 C 
BRANCH   7   8
ATOM      8  C   UNL A   1      31.794  27.399  25.515  1.00  0.00     0.018 C 
BRANCH   8   9
ATOM      9  C   UNL A   1      31.906  26.038  26.221  1.00  0.00    -0.017 C 
ATOM     10  C   UNL A   1      30.693  25.142  25.972  1.00  0.00     0.007 C 
ATOM     11  C   UNL A   1      33.177  25.326  25.740  1.00  0.00     0.007 C 
ENDBRANCH   8   9
ENDBRANCH   7   8
BRANCH   7  12
ATOM     12  C   UNL A   1      31.562  27.384  22.866  1.00  0.00     0.129 C 
BRANCH  12  13
ATOM     13  N   UNL A   1      30.139  27.237  23.083  1.00  0.00    -0.355 N 
ATOM     14  C   UNL A   1      29.105  28.113  23.030  1.00  0.00     0.225 C 
ATOM     15  H   UNL A   1      29.867  26.320  23.315  1.00  0.00     0.163 HD
ATOM     16  O   UNL A   1      28.011  27.662  23.395  1.00  0.00    -0.275 OA
BRANCH  14  17
ATOM     17  C   UNL A   1      29.174  29.539  22.497  1.00  0.00     0.106 C 
ATOM     18  C   UNL A   1      29.375  30.572  23.582  1.00  0.00     0.044 C 
ATOM     19  C   UNL A   1      28.013  30.061  21.688  1.00  0.00     0.173 C 
ATOM     20  C   UNL A   1      28.053  31.297  23.674  1.00  0.00     0.161 C 
ATOM     21  O   UNL A   1      27.313  31.029  22.482  1.00  0.00    -0.381 OA
ENDBRANCH  14  17
ENDBRANCH  12  13
ENDBRANCH   7  12
ENDBRANCH   4   7
ENDBRANCH   2   3
ENDBRANCH   1   2
BRANCH   1  22
ATOM     22  C   UNL A   1      34.548  29.751  27.322  1.00  0.00     0.023 C 
BRANCH  22  23
ATOM     23  C   UNL A   1      35.622  30.631  27.955  1.00  0.00     0.116 C 
BRANCH  23  24
ATOM     24  N   UNL A   1      35.556  30.663  29.411  1.00  0.00    -0.352 N 
ATOM     25  C   UNL A   1      36.446  30.141  30.320  1.00  0.00     0.251 C 
ATOM     26  H   UNL A   1      34.770  31.116  29.794  1.00  0.00     0.163 HD
ATOM     27  O   UNL A   1      36.183  30.129  31.518  1.00  0.00    -0.269 OA
BRANCH  25  28
ATOM     28  C   UNL A   1      37.709  29.561  29.824  1.00  0.00     0.039 A 
ATOM     29  C   UNL A   1      38.088  29.789  28.501  1.00  0.00     0.014 A 
ATOM     30  C   UNL A   1      38.546  28.856  30.694  1.00  0.00     0.014 A 
ATOM     31  C   UNL A   1      39.349  29.378  28.069  1.00  0.00     0.010 A 
ATOM     32  C   UNL A   1      39.829  28.517  30.284  1.00  0.00     0.010 A 
ATOM     33  C   UNL A   1      40.246  28.778  28.969  1.00  0.00    -0.014 A 
BRANCH  33  34
ATOM     34  C   UNL A   1      41.629  28.428  28.562  1.00  0.00     0.031 A 
ATOM     35  C   UNL A   1      42.685  29.495  28.489  1.00  0.00     0.074 A 
ATOM     36  C   UNL A   1      41.914  27.166  28.183  1.00  0.00     0.049 A 
ATOM     37  N   UNL A   1      43.927  29.401  28.089  1.00  0.00    -0.248 NA
ATOM     38  C   UNL A   1      42.285  30.854  28.892  1.00  0.00     0.031 C 
ATOM     39  C   UNL A   1      40.963  26.052  28.158  1.00  0.00     0.029 A 
ATOM     40  N   UNL A   1      43.086  26.610  27.737  1.00  0.00    -0.354 N 
ATOM     41  C   UNL A   1      44.449  30.686  28.172  1.00  0.00     0.074 A 
ATOM     42  C   UNL A   1      43.376  31.551  28.611  1.00  0.00     0.031 C 
ATOM     43  C   UNL A   1      41.595  24.942  27.744  1.00  0.00     0.029 A 
ATOM     44  C   UNL A   1      42.984  25.271  27.440  1.00  0.00     0.049 A 
ATOM     45  H   UNL A   1      43.922  27.121  27.639  1.00  0.00     0.167 HD
ATOM     46  C   UNL A   1      45.712  31.106  27.926  1.00  0.00     0.031 A 
ATOM     47  C   UNL A   1      43.904  24.406  26.971  1.00  0.00     0.031 A 
ATOM     48  C   UNL A   1      46.781  30.240  27.504  1.00  0.00     0.049 A 
ATOM     49  C   UNL A   1      45.304  24.891  26.716  1.00  0.00     0.074 A 
ATOM     50  C   UNL A   1      48.109  30.558  27.284  1.00  0.00     0.029 A 
ATOM     51  N   UNL A   1      46.643  28.886  27.241  1.00  0.00    -0.354 N 
ATOM     52  N   UNL A   1      45.796  26.098  26.863  1.00  0.00    -0.248 NA
ATOM     53  C   UNL A   1      46.277  23.896  26.245  1.00  0.00     0.031 C 
ATOM     54  C   UNL A   1      48.766  29.402  26.847  1.00  0.00     0.029 A 
ATOM     55  C   UNL A   1      47.859  28.355  26.844  1.00  0.00     0.049 A 
ATOM     56  H   UNL A   1      45.804  28.376  27.324  1.00  0.00     0.167 HD
ATOM     57  C   UNL A   1      47.141  26.002  26.524  1.00  0.00     0.074 A 
ATOM     58  C   UNL A   1      47.388  24.617  26.181  1.00  0.00     0.031 C 
ATOM     59  C   UNL A   1      48.086  26.974  26.503  1.00  0.00     0.031 A 
BRANCH  46  60
ATOM     60  C   UNL A   1      46.000  32.571  28.110  1.00  0.00    -0.014 A 
ATOM     61  C   UNL A   1      45.834  33.482  27.050  1.00  0.00     0.010 A 
ATOM     62  C   UNL A   1      46.428  33.051  29.361  1.00  0.00     0.010 A 
ATOM     63  C   UNL A   1      46.137  34.834  27.223  1.00  0.00     0.020 A 
ATOM     64  C   UNL A   1      46.705  34.409  29.547  1.00  0.00     0.020 A 
ATOM     65  C   UNL A   1      46.577  35.289  28.470  1.00  0.00     0.054 A 
BRANCH  65  66
ATOM     66  S   UNL A   1      46.954  37.051  28.669  1.00  0.00     0.124 S 
ATOM     67  O   UNL A   1      46.469  37.606  27.408  1.00  0.00    -0.237 OA
ATOM     68  O   UNL A   1      46.180  37.414  29.854  1.00  0.00    -0.237 OA
ATOM     69  O   UNL A   1      48.405  37.077  28.844  1.00  0.00    -0.744 OA
ENDBRANCH  65  66
ENDBRANCH  46  60
BRANCH  47  70
ATOM     70  C   UNL A   1      43.531  22.984  26.736  1.00  0.00    -0.014 A 
ATOM     71  C   UNL A   1      43.842  22.359  25.515  1.00  0.00     0.010 A 
ATOM     72  C   UNL A   1      42.885  22.241  27.741  1.00  0.00     0.010 A 
ATOM     73  C   UNL A   1      43.503  21.021  25.298  1.00  0.00     0.020 A 
ATOM     74  C   UNL A   1      42.566  20.895  27.536  1.00  0.00     0.020 A 
ATOM     75  C   UNL A   1      42.869  20.296  26.311  1.00  0.00     0.054 A 
BRANCH  75  76
ATOM     76  S   UNL A   1      42.494  18.542  26.031  1.00  0.00     0.124 S 
ATOM     77  O   UNL A   1      41.065  18.582  25.735  1.00  0.00    -0.237 OA
ATOM     78  O   UNL A   1      43.364  18.208  24.907  1.00  0.00    -0.237 OA
ATOM     79  O   UNL A   1      42.855  17.910  27.298  1.00  0.00    -0.744 OA
ENDBRANCH  75  76
ENDBRANCH  47  70
BRANCH  59  80
ATOM     80  C   UNL A   1      49.484  26.569  26.123  1.00  0.00    -0.014 A 
ATOM     81  C   UNL A   1      50.055  26.981  24.906  1.00  0.00     0.010 A 
ATOM     82  C   UNL A   1      50.257  25.814  27.024  1.00  0.00     0.010 A 
ATOM     83  C   UNL A   1      51.366  26.620  24.585  1.00  0.00     0.020 A 
ATOM     84  C   UNL A   1      51.576  25.474  26.718  1.00  0.00     0.020 A 
ATOM     85  C   UNL A   1      52.119  25.868  25.492  1.00  0.00     0.054 A 
BRANCH  85  86
ATOM     86  S   UNL A   1      53.834  25.452  25.075  1.00  0.00     0.124 S 
ATOM     87  O   UNL A   1      54.574  26.091  26.161  1.00  0.00    -0.237 OA
ATOM     88  O   UNL A   1      53.825  23.992  25.096  1.00  0.00    -0.237 OA
ATOM     89  O   UNL A   1      54.024  26.049  23.755  1.00  0.00    -0.744 OA
ENDBRANCH  85  86
ENDBRANCH  59  80
ENDBRANCH  33  34
ENDBRANCH  25  28
ENDBRANCH  23  24
ENDBRANCH  22  23
ENDBRANCH   1  22
TORSDOF 19
ENDMDL
MODEL 2
REMARK VINA RESULT:     -11.0      4.732     10.320
REMARK SMILES CC(C)C[C@@H](CNC(=O)[C@@H]1CCOC1)C(=O)NCCCCNC(=O)c1ccc(-c2c3nc(c(-c4ccc(S(=O)(=O)[O-])cc4)c4ccc([nH]4)c(-c4ccc(S(=O)(=O)[O-])cc4)c4nc(c(-c5ccc(S(=O)(=O)[O-])cc5)c5ccc2[nH]5)C=C4)C=C3)cc1
REMARK SMILES IDX 19 1 18 2 17 3 15 4 16 5 5 7 4 8 2 9 1 10 3 11 6 12 7 13
REMARK SMILES IDX 8 14 9 16 10 17 11 18 14 19 12 20 13 21 20 22 21 23 22 24
REMARK SMILES IDX 23 25 24 27 25 28 26 29 84 30 27 31 83 32 28 33 29 34 30 35
REMARK SMILES IDX 77 36 31 37 82 38 76 39 78 40 32 41 81 42 75 43 74 44 33 46
REMARK SMILES IDX 63 47 44 48 62 49 45 50 48 51 61 52 79 53 46 54 47 55 60 57
REMARK SMILES IDX 80 58 49 59 34 60 35 61 43 62 36 63 42 64 37 65 38 66 39 67
REMARK SMILES IDX 40 68 41 69 64 70 65 71 73 72 66 73 72 74 67 75 68 76 69 77
REMARK SMILES IDX 70 78 71 79 50 80 51 81 59 82 52 83 58 84 53 85 54 86 55 87
REMARK SMILES IDX 56 88 57 89
REMARK H PARENT 17 6 7 15 22 26 78 45 48 56
REMARK Flexibility Score: inf
ROOT
ATOM      1  C   UNL A   1      35.224  23.684  23.632  1.00  0.00     0.023 C 
ENDROOT
BRANCH   1   2
ATOM      2  C   UNL A   1      34.404  24.903  24.037  1.00  0.00     0.116 C 
BRANCH   2   3
ATOM      3  N   UNL A   1      33.621  24.663  25.234  1.00  0.00    -0.356 N 
ATOM      4  C   UNL A   1      32.560  23.849  25.470  1.00  0.00     0.224 C 
ATOM      5  O   UNL A   1      32.129  23.808  26.628  1.00  0.00    -0.275 OA
ATOM      6  H   UNL A   1      33.910  25.186  26.017  1.00  0.00     0.163 HD
BRANCH   4   7
ATOM      7  C   UNL A   1      31.909  22.989  24.391  1.00  0.00     0.098 C 
BRANCH   7   8
ATOM      8  C   UNL A   1      31.746  21.520  24.827  1.00  0.00     0.018 C 
BRANCH   8   9
ATOM      9  C   UNL A   1      32.637  20.484  24.121  1.00  0.00    -0.017 C 
ATOM     10  C   UNL A   1      32.564  19.103  24.770  1.00  0.00     0.007 C 
ATOM     11  C   UNL A   1      32.220  20.383  22.649  1.00  0.00     0.007 C 
ENDBRANCH   8   9
ENDBRANCH   7   8
BRANCH   7  12
ATOM     12  C   UNL A   1      30.735  23.705  23.697  1.00  0.00     0.129 C 
BRANCH  12  13
ATOM     13  N   UNL A   1      31.078  24.696  22.699  1.00  0.00    -0.355 N 
ATOM     14  C   UNL A   1      30.903  26.039  22.638  1.00  0.00     0.225 C 
ATOM     15  H   UNL A   1      31.528  24.320  21.908  1.00  0.00     0.163 HD
ATOM     16  O   UNL A   1      31.218  26.565  21.562  1.00  0.00    -0.275 OA
BRANCH  14  17
ATOM     17  C   UNL A   1      30.437  26.927  23.784  1.00  0.00     0.106 C 
ATOM     18  C   UNL A   1      29.552  28.067  23.334  1.00  0.00     0.044 C 
ATOM     19  C   UNL A   1      31.479  27.581  24.658  1.00  0.00     0.173 C 
ATOM     20  C   UNL A   1      30.402  29.305  23.500  1.00  0.00     0.161 C 
ATOM     21  O   UNL A   1      31.492  28.985  24.365  1.00  0.00    -0.381 OA
ENDBRANCH  14  17
ENDBRANCH  12  13
ENDBRANCH   7  12
ENDBRANCH   4   7
ENDBRANCH   2   3
ENDBRANCH   1   2
BRANCH   1  22
ATOM     22  C   UNL A   1      35.895  22.966  24.800  1.00  0.00     0.023 C 
BRANCH  22  23
ATOM     23  C   UNL A   1      37.117  23.675  25.379  1.00  0.00     0.116 C 
BRANCH  23  24
ATOM     24  N   UNL A   1      38.250  22.784  25.596  1.00  0.00    -0.352 N 
ATOM     25  C   UNL A   1      39.448  23.057  26.213  1.00  0.00     0.251 C 
ATOM     26  H   UNL A   1      38.144  21.866  25.255  1.00  0.00     0.163 HD
ATOM     27  O   UNL A   1      40.361  22.239  26.199  1.00  0.00    -0.269 OA
BRANCH  25  28
ATOM     28  C   UNL A   1      39.629  24.371  26.862  1.00  0.00     0.039 A 
ATOM     29  C   UNL A   1      39.120  24.569  28.146  1.00  0.00     0.014 A 
ATOM     30  C   UNL A   1      40.364  25.373  26.223  1.00  0.00     0.014 A 
ATOM     31  C   UNL A   1      39.419  25.750  28.826  1.00  0.00     0.010 A 
ATOM     32  C   UNL A   1      40.724  26.513  26.930  1.00  0.00     0.010 A 
ATOM     33  C   UNL A   1      40.260  26.711  28.240  1.00  0.00    -0.014 A 
BRANCH  33  34
ATOM     34  C   UNL A   1      40.678  27.926  28.983  1.00  0.00     0.031 A 
ATOM     35  C   UNL A   1      42.019  27.969  29.660  1.00  0.00     0.074 A 
ATOM     36  C   UNL A   1      39.820  28.957  29.114  1.00  0.00     0.049 A 
ATOM     37  N   UNL A   1      42.533  28.908  30.413  1.00  0.00    -0.248 NA
ATOM     38  C   UNL A   1      42.886  26.790  29.494  1.00  0.00     0.031 C 
ATOM     39  C   UNL A   1      38.468  29.014  28.549  1.00  0.00     0.029 A 
ATOM     40  N   UNL A   1      39.953  30.154  29.772  1.00  0.00    -0.354 N 
ATOM     41  C   UNL A   1      43.769  28.426  30.825  1.00  0.00     0.074 A 
ATOM     42  C   UNL A   1      43.907  27.093  30.282  1.00  0.00     0.031 C 
ATOM     43  C   UNL A   1      37.909  30.193  28.864  1.00  0.00     0.029 A 
ATOM     44  C   UNL A   1      38.843  30.961  29.681  1.00  0.00     0.049 A 
ATOM     45  H   UNL A   1      40.767  30.410  30.263  1.00  0.00     0.167 HD
ATOM     46  C   UNL A   1      44.715  29.045  31.570  1.00  0.00     0.031 A 
ATOM     47  C   UNL A   1      38.603  32.180  30.201  1.00  0.00     0.031 A 
ATOM     48  C   UNL A   1      44.582  30.377  32.096  1.00  0.00     0.049 A 
ATOM     49  C   UNL A   1      39.672  32.854  31.016  1.00  0.00     0.074 A 
ATOM     50  C   UNL A   1      45.507  31.115  32.815  1.00  0.00     0.029 A 
ATOM     51  N   UNL A   1      43.454  31.171  31.958  1.00  0.00    -0.354 N 
ATOM     52  N   UNL A   1      40.862  32.408  31.340  1.00  0.00    -0.248 NA
ATOM     53  C   UNL A   1      39.371  34.199  31.523  1.00  0.00     0.031 C 
ATOM     54  C   UNL A   1      44.921  32.341  33.147  1.00  0.00     0.029 A 
ATOM     55  C   UNL A   1      43.651  32.386  32.593  1.00  0.00     0.049 A 
ATOM     56  H   UNL A   1      42.634  30.910  31.480  1.00  0.00     0.167 HD
ATOM     57  C   UNL A   1      41.461  33.428  32.070  1.00  0.00     0.074 A 
ATOM     58  C   UNL A   1      40.509  34.518  32.126  1.00  0.00     0.031 C 
ATOM     59  C   UNL A   1      42.691  33.460  32.640  1.00  0.00     0.031 A 
BRANCH  46  60
ATOM     60  C   UNL A   1      45.979  28.279  31.857  1.00  0.00    -0.014 A 
ATOM     61  C   UNL A   1      47.097  28.381  31.009  1.00  0.00     0.010 A 
ATOM     62  C   UNL A   1      46.058  27.457  32.996  1.00  0.00     0.010 A 
ATOM     63  C   UNL A   1      48.252  27.640  31.267  1.00  0.00     0.020 A 
ATOM     64  C   UNL A   1      47.223  26.735  33.274  1.00  0.00     0.020 A 
ATOM     65  C   UNL A   1      48.306  26.816  32.395  1.00  0.00     0.054 A 
BRANCH  65  66
ATOM     66  S   UNL A   1      49.821  25.872  32.711  1.00  0.00     0.124 S 
ATOM     67  O   UNL A   1      49.810  24.911  31.610  1.00  0.00    -0.237 OA
ATOM     68  O   UNL A   1      50.860  26.896  32.640  1.00  0.00    -0.237 OA
ATOM     69  O   UNL A   1      49.603  25.301  34.038  1.00  0.00    -0.744 OA
ENDBRANCH  65  66
ENDBRANCH  46  60
BRANCH  47  70
ATOM     70  C   UNL A   1      37.299  32.850  29.943  1.00  0.00    -0.014 A 
ATOM     71  C   UNL A   1      37.151  33.722  28.849  1.00  0.00     0.010 A 
ATOM     72  C   UNL A   1      36.193  32.603  30.777  1.00  0.00     0.010 A 
ATOM     73  C   UNL A   1      35.923  34.343  28.600  1.00  0.00     0.020 A 
ATOM     74  C   UNL A   1      34.958  33.204  30.516  1.00  0.00     0.020 A 
ATOM     75  C   UNL A   1      34.833  34.078  29.434  1.00  0.00     0.054 A 
BRANCH  75  76
ATOM     76  S   UNL A   1      33.233  34.847  29.056  1.00  0.00     0.124 S 
ATOM     77  O   UNL A   1      32.658  33.899  28.108  1.00  0.00    -0.237 OA
ATOM     78  O   UNL A   1      32.591  34.902  30.366  1.00  0.00    -0.237 OA
ATOM     79  O   UNL A   1      33.604  36.146  28.498  1.00  0.00    -0.744 OA
ENDBRANCH  75  76
ENDBRANCH  47  70
BRANCH  59  80
ATOM     80  C   UNL A   1      43.091  34.724  33.350  1.00  0.00    -0.014 A 
ATOM     81  C   UNL A   1      42.973  34.843  34.746  1.00  0.00     0.010 A 
ATOM     82  C   UNL A   1      43.648  35.786  32.615  1.00  0.00     0.010 A 
ATOM     83  C   UNL A   1      43.379  36.015  35.390  1.00  0.00     0.020 A 
ATOM     84  C   UNL A   1      44.079  36.948  33.258  1.00  0.00     0.020 A 
ATOM     85  C   UNL A   1      43.928  37.060  34.642  1.00  0.00     0.054 A 
BRANCH  85  86
ATOM     86  S   UNL A   1      44.492  38.552  35.506  1.00  0.00     0.124 S 
ATOM     87  O   UNL A   1      45.942  38.461  35.354  1.00  0.00    -0.237 OA
ATOM     88  O   UNL A   1      43.849  39.624  34.749  1.00  0.00    -0.237 OA
ATOM     89  O   UNL A   1      43.995  38.374  36.868  1.00  0.00    -0.744 OA
ENDBRANCH  85  86
ENDBRANCH  59  80
ENDBRANCH  33  34
ENDBRANCH  25  28
ENDBRANCH  23  24
ENDBRANCH  22  23
ENDBRANCH   1  22
TORSDOF 19
ENDMDL
MODEL 3
REMARK VINA RESULT:     -10.9      1.670      3.610
REMARK SMILES CC(C)C[C@@H](CNC(=O)[C@@H]1CCOC1)C(=O)NCCCCNC(=O)c1ccc(-c2c3nc(c(-c4ccc(S(=O)(=O)[O-])cc4)c4ccc([nH]4)c(-c4ccc(S(=O)(=O)[O-])cc4)c4nc(c(-c5ccc(S(=O)(=O)[O-])cc5)c5ccc2[nH]5)C=C4)C=C3)cc1
REMARK SMILES IDX 19 1 18 2 17 3 15 4 16 5 5 7 4 8 2 9 1 10 3 11 6 12 7 13
REMARK SMILES IDX 8 14 9 16 10 17 11 18 14 19 12 20 13 21 20 22 21 23 22 24
REMARK SMILES IDX 23 25 24 27 25 28 26 29 84 30 27 31 83 32 28 33 29 34 30 35
REMARK SMILES IDX 77 36 31 37 82 38 76 39 78 40 32 41 81 42 75 43 74 44 33 46
REMARK SMILES IDX 63 47 44 48 62 49 45 50 48 51 61 52 79 53 46 54 47 55 60 57
REMARK SMILES IDX 80 58 49 59 34 60 35 61 43 62 36 63 42 64 37 65 38 66 39 67
REMARK SMILES IDX 40 68 41 69 64 70 65 71 73 72 66 73 72 74 67 75 68 76 69 77
REMARK SMILES IDX 70 78 71 79 50 80 51 81 59 82 52 83 58 84 53 85 54 86 55 87
REMARK SMILES IDX 56 88 57 89
REMARK H PARENT 17 6 7 15 22 26 78 45 48 56
REMARK Flexibility Score: inf
ROOT
ATOM      1  C   UNL A   1      33.969  28.986  26.013  1.00  0.00     0.023 C 
ENDROOT
BRANCH   1   2
ATOM      2  C   UNL A   1      33.284  27.708  25.543  1.00  0.00     0.116 C 
BRANCH   2   3
ATOM      3  N   UNL A   1      33.689  27.332  24.202  1.00  0.00    -0.356 N 
ATOM      4  C   UNL A   1      33.368  26.263  23.429  1.00  0.00     0.224 C 
ATOM      5  O   UNL A   1      33.827  26.240  22.282  1.00  0.00    -0.275 OA
ATOM      6  H   UNL A   1      34.310  27.967  23.776  1.00  0.00     0.163 HD
BRANCH   4   7
ATOM      7  C   UNL A   1      32.467  25.127  23.904  1.00  0.00     0.098 C 
BRANCH   7   8
ATOM      8  C   UNL A   1      31.124  25.085  23.151  1.00  0.00     0.018 C 
BRANCH   8   9
ATOM      9  C   UNL A   1      29.939  25.815  23.805  1.00  0.00    -0.017 C 
ATOM     10  C   UNL A   1      30.014  25.814  25.331  1.00  0.00     0.007 C 
ATOM     11  C   UNL A   1      29.896  27.261  23.294  1.00  0.00     0.007 C 
ENDBRANCH   8   9
ENDBRANCH   7   8
BRANCH   7  12
ATOM     12  C   UNL A   1      33.245  23.818  24.134  1.00  0.00     0.129 C 
BRANCH  12  13
ATOM     13  N   UNL A   1      34.402  23.593  23.295  1.00  0.00    -0.355 N 
ATOM     14  C   UNL A   1      35.637  23.094  23.546  1.00  0.00     0.225 C 
ATOM     15  H   UNL A   1      34.266  23.855  22.356  1.00  0.00     0.163 HD
ATOM     16  O   UNL A   1      36.435  23.154  22.600  1.00  0.00    -0.275 OA
BRANCH  14  17
ATOM     17  C   UNL A   1      36.075  22.413  24.837  1.00  0.00     0.106 C 
ATOM     18  C   UNL A   1      36.517  23.388  25.904  1.00  0.00     0.044 C 
ATOM     19  C   UNL A   1      37.187  21.395  24.771  1.00  0.00     0.173 C 
ATOM     20  C   UNL A   1      38.015  23.210  25.994  1.00  0.00     0.161 C 
ATOM     21  O   UNL A   1      38.354  21.966  25.379  1.00  0.00    -0.381 OA
ENDBRANCH  14  17
ENDBRANCH  12  13
ENDBRANCH   7  12
ENDBRANCH   4   7
ENDBRANCH   2   3
ENDBRANCH   1   2
BRANCH   1  22
ATOM     22  C   UNL A   1      34.252  29.029  27.513  1.00  0.00     0.023 C 
BRANCH  22  23
ATOM     23  C   UNL A   1      35.428  29.909  27.925  1.00  0.00     0.116 C 
BRANCH  23  24
ATOM     24  N   UNL A   1      35.442  30.223  29.348  1.00  0.00    -0.352 N 
ATOM     25  C   UNL A   1      36.425  29.962  30.273  1.00  0.00     0.251 C 
ATOM     26  H   UNL A   1      34.641  30.682  29.693  1.00  0.00     0.163 HD
ATOM     27  O   UNL A   1      36.232  30.168  31.467  1.00  0.00    -0.269 OA
BRANCH  25  28
ATOM     28  C   UNL A   1      37.705  29.395  29.807  1.00  0.00     0.039 A 
ATOM     29  C   UNL A   1      38.079  29.567  28.474  1.00  0.00     0.014 A 
ATOM     30  C   UNL A   1      38.560  28.760  30.712  1.00  0.00     0.014 A 
ATOM     31  C   UNL A   1      39.353  29.170  28.064  1.00  0.00     0.010 A 
ATOM     32  C   UNL A   1      39.853  28.437  30.320  1.00  0.00     0.010 A 
ATOM     33  C   UNL A   1      40.264  28.644  28.994  1.00  0.00    -0.014 A 
BRANCH  33  34
ATOM     34  C   UNL A   1      41.658  28.313  28.605  1.00  0.00     0.031 A 
ATOM     35  C   UNL A   1      42.703  29.393  28.564  1.00  0.00     0.074 A 
ATOM     36  C   UNL A   1      41.963  27.060  28.214  1.00  0.00     0.049 A 
ATOM     37  N   UNL A   1      43.953  29.317  28.183  1.00  0.00    -0.248 NA
ATOM     38  C   UNL A   1      42.282  30.742  28.978  1.00  0.00     0.031 C 
ATOM     39  C   UNL A   1      41.024  25.936  28.158  1.00  0.00     0.029 A 
ATOM     40  N   UNL A   1      43.148  26.522  27.780  1.00  0.00    -0.354 N 
ATOM     41  C   UNL A   1      44.459  30.606  28.292  1.00  0.00     0.074 A 
ATOM     42  C   UNL A   1      43.371  31.454  28.724  1.00  0.00     0.031 C 
ATOM     43  C   UNL A   1      41.675  24.839  27.740  1.00  0.00     0.029 A 
ATOM     44  C   UNL A   1      43.065  25.186  27.464  1.00  0.00     0.049 A 
ATOM     45  H   UNL A   1      43.980  27.043  27.702  1.00  0.00     0.167 HD
ATOM     46  C   UNL A   1      45.722  31.042  28.072  1.00  0.00     0.031 A 
ATOM     47  C   UNL A   1      44.002  24.337  26.999  1.00  0.00     0.031 A 
ATOM     48  C   UNL A   1      46.807  30.194  27.657  1.00  0.00     0.049 A 
ATOM     49  C   UNL A   1      45.401  24.841  26.773  1.00  0.00     0.074 A 
ATOM     50  C   UNL A   1      48.135  30.528  27.463  1.00  0.00     0.029 A 
ATOM     51  N   UNL A   1      46.687  28.842  27.374  1.00  0.00    -0.354 N 
ATOM     52  N   UNL A   1      45.877  26.051  26.945  1.00  0.00    -0.248 NA
ATOM     53  C   UNL A   1      46.392  23.862  26.305  1.00  0.00     0.031 C 
ATOM     54  C   UNL A   1      48.812  29.386  27.022  1.00  0.00     0.029 A 
ATOM     55  C   UNL A   1      47.915  28.329  26.990  1.00  0.00     0.049 A 
ATOM     56  H   UNL A   1      45.853  28.322  27.436  1.00  0.00     0.167 HD
ATOM     57  C   UNL A   1      47.228  25.973  26.627  1.00  0.00     0.074 A 
ATOM     58  C   UNL A   1      47.496  24.595  26.269  1.00  0.00     0.031 C 
ATOM     59  C   UNL A   1      48.163  26.955  26.635  1.00  0.00     0.031 A 
BRANCH  46  60
ATOM     60  C   UNL A   1      45.992  32.508  28.281  1.00  0.00    -0.014 A 
ATOM     61  C   UNL A   1      45.835  33.431  27.229  1.00  0.00     0.010 A 
ATOM     62  C   UNL A   1      46.392  32.975  29.546  1.00  0.00     0.010 A 
ATOM     63  C   UNL A   1      46.120  34.783  27.426  1.00  0.00     0.020 A 
ATOM     64  C   UNL A   1      46.651  34.334  29.754  1.00  0.00     0.020 A 
ATOM     65  C   UNL A   1      46.533  35.226  28.687  1.00  0.00     0.054 A 
BRANCH  65  66
ATOM     66  S   UNL A   1      46.888  36.990  28.916  1.00  0.00     0.124 S 
ATOM     67  O   UNL A   1      46.334  37.568  27.694  1.00  0.00    -0.237 OA
ATOM     68  O   UNL A   1      46.165  37.307  30.144  1.00  0.00    -0.237 OA
ATOM     69  O   UNL A   1      48.345  37.038  29.023  1.00  0.00    -0.744 OA
ENDBRANCH  65  66
ENDBRANCH  46  60
BRANCH  47  70
ATOM     70  C   UNL A   1      43.648  22.915  26.739  1.00  0.00    -0.014 A 
ATOM     71  C   UNL A   1      44.288  22.199  25.710  1.00  0.00     0.010 A 
ATOM     72  C   UNL A   1      42.688  22.262  27.533  1.00  0.00     0.010 A 
ATOM     73  C   UNL A   1      43.964  20.860  25.473  1.00  0.00     0.020 A 
ATOM     74  C   UNL A   1      42.380  20.916  27.314  1.00  0.00     0.020 A 
ATOM     75  C   UNL A   1      43.014  20.226  26.278  1.00  0.00     0.054 A 
BRANCH  75  76
ATOM     76  S   UNL A   1      42.655  18.469  25.992  1.00  0.00     0.124 S 
ATOM     77  O   UNL A   1      43.091  17.863  27.247  1.00  0.00    -0.237 OA
ATOM     78  O   UNL A   1      41.214  18.475  25.759  1.00  0.00    -0.237 OA
ATOM     79  O   UNL A   1      43.466  18.143  24.822  1.00  0.00    -0.744 OA
ENDBRANCH  75  76
ENDBRANCH  47  70
BRANCH  59  80
ATOM     80  C   UNL A   1      49.572  26.571  26.272  1.00  0.00    -0.014 A 
ATOM     81  C   UNL A   1      50.063  26.753  24.968  1.00  0.00     0.010 A 
ATOM     82  C   UNL A   1      50.433  26.074  27.268  1.00  0.00     0.010 A 
ATOM     83  C   UNL A   1      51.384  26.417  24.659  1.00  0.00     0.020 A 
ATOM     84  C   UNL A   1      51.761  25.762  26.969  1.00  0.00     0.020 A 
ATOM     85  C   UNL A   1      52.224  25.923  25.661  1.00  0.00     0.054 A 
BRANCH  85  86
ATOM     86  S   UNL A   1      53.948  25.541  25.248  1.00  0.00     0.124 S 
ATOM     87  O   UNL A   1      53.999  25.866  23.825  1.00  0.00    -0.237 OA
ATOM     88  O   UNL A   1      54.696  26.439  26.124  1.00  0.00    -0.237 OA
ATOM     89  O   UNL A   1      54.075  24.121  25.568  1.00  0.00    -0.744 OA
ENDBRANCH  85  86
ENDBRANCH  59  80
ENDBRANCH  33  34
ENDBRANCH  25  28
ENDBRANCH  23  24
ENDBRANCH  22  23
ENDBRANCH   1  22
TORSDOF 19
ENDMDL
