MODEL 1
REMARK VINA RESULT:     -10.5      0.000      0.000
REMARK SMILES CCC[C@@H](C)[C@H](NS(=O)(=O)c1ccc(C)c(C)c1)C(=O)NCCCCNC(=O)c1ccc(-c2c3nc(c(-c4ccc(S(=O)(=O)[O-])cc4)c4ccc([nH]4)c(-c4ccc(S(=O)(=O)[O-])cc4)c4nc(c(-c5ccc(S(=O)(=O)[O-])cc5)c5ccc2[nH]5)C=C4)C=C3)cc1
REMARK SMILES IDX 23 1 22 2 21 3 19 4 20 5 6 7 4 8 5 9 3 10 2 11 1 12 7 13
REMARK SMILES IDX 8 15 9 16 10 17 11 18 12 19 18 20 13 21 16 22 14 23 17 24
REMARK SMILES IDX 15 25 24 26 25 27 26 28 27 29 28 31 29 32 30 33 88 34 31 35
REMARK SMILES IDX 87 36 32 37 33 38 34 39 81 40 35 41 86 42 80 43 82 44 36 45
REMARK SMILES IDX 85 46 79 47 78 48 37 50 67 51 48 52 66 53 49 54 52 55 65 56
REMARK SMILES IDX 83 57 50 58 51 59 64 61 84 62 53 63 38 64 39 65 47 66 40 67
REMARK SMILES IDX 46 68 41 69 42 70 43 71 44 72 45 73 68 74 69 75 77 76 70 77
REMARK SMILES IDX 76 78 71 79 72 80 73 81 74 82 75 83 54 84 55 85 63 86 56 87
REMARK SMILES IDX 62 88 57 89 58 90 59 91 60 92 61 93
REMARK H PARENT 21 6 7 14 26 30 82 49 52 60
REMARK Flexibility Score: inf
ROOT
ATOM      1  C   UNL A   1      37.530  20.426  24.624  1.00  0.00     0.023 C 
ENDROOT
BRANCH   1   2
ATOM      2  C   UNL A   1      36.295  20.800  25.447  1.00  0.00     0.116 C 
BRANCH   2   3
ATOM      3  N   UNL A   1      35.134  20.121  24.933  1.00  0.00    -0.355 N 
ATOM      4  C   UNL A   1      33.874  20.575  24.718  1.00  0.00     0.238 C 
ATOM      5  O   UNL A   1      33.019  19.702  24.508  1.00  0.00    -0.273 OA
ATOM      6  H   UNL A   1      35.278  19.175  24.699  1.00  0.00     0.163 HD
BRANCH   4   7
ATOM      7  C   UNL A   1      33.483  22.051  24.595  1.00  0.00     0.161 C 
BRANCH   7   8
ATOM      8  C   UNL A   1      34.266  22.912  23.562  1.00  0.00     0.013 C 
ATOM      9  C   UNL A   1      34.995  24.065  24.304  1.00  0.00     0.010 C 
BRANCH   8  10
ATOM     10  C   UNL A   1      33.397  23.544  22.446  1.00  0.00     0.005 C 
BRANCH  10  11
ATOM     11  C   UNL A   1      33.178  25.056  22.633  1.00  0.00    -0.003 C 
ATOM     12  C   UNL A   1      32.509  25.704  21.428  1.00  0.00     0.004 C 
ENDBRANCH  10  11
ENDBRANCH   8  10
ENDBRANCH   7   8
BRANCH   7  13
ATOM     13  N   UNL A   1      33.072  22.884  25.746  1.00  0.00    -0.198 NA
ATOM     14  H   UNL A   1      33.609  23.742  25.616  1.00  0.00     0.142 HD
BRANCH  13  15
ATOM     15  S   UNL A   1      31.603  23.434  26.287  1.00  0.00     0.241 S 
ATOM     16  O   UNL A   1      30.633  22.666  25.545  1.00  0.00    -0.207 OA
ATOM     17  O   UNL A   1      31.622  23.379  27.730  1.00  0.00    -0.207 OA
BRANCH  15  18
ATOM     18  C   UNL A   1      31.373  25.124  25.779  1.00  0.00     0.082 A 
ATOM     19  C   UNL A   1      30.308  25.490  24.966  1.00  0.00     0.022 A 
ATOM     20  C   UNL A   1      32.285  26.102  26.194  1.00  0.00     0.025 A 
ATOM     21  C   UNL A   1      30.246  26.782  24.437  1.00  0.00     0.005 A 
ATOM     22  C   UNL A   1      32.190  27.428  25.727  1.00  0.00    -0.047 A 
ATOM     23  C   UNL A   1      31.199  27.752  24.780  1.00  0.00    -0.048 A 
ATOM     24  C   UNL A   1      33.179  28.442  26.238  1.00  0.00     0.044 C 
ATOM     25  C   UNL A   1      31.109  29.119  24.155  1.00  0.00     0.044 C 
ENDBRANCH  15  18
ENDBRANCH  13  15
ENDBRANCH   7  13
ENDBRANCH   4   7
ENDBRANCH   2   3
ENDBRANCH   1   2
BRANCH   1  26
ATOM     26  C   UNL A   1      38.482  19.430  25.265  1.00  0.00     0.023 C 
BRANCH  26  27
ATOM     27  C   UNL A   1      39.573  20.051  26.118  1.00  0.00     0.116 C 
BRANCH  27  28
ATOM     28  N   UNL A   1      40.854  19.353  26.031  1.00  0.00    -0.352 N 
ATOM     29  C   UNL A   1      42.130  19.841  26.201  1.00  0.00     0.251 C 
ATOM     30  H   UNL A   1      40.794  18.393  25.820  1.00  0.00     0.163 HD
ATOM     31  O   UNL A   1      43.109  19.136  25.981  1.00  0.00    -0.269 OA
BRANCH  29  32
ATOM     32  C   UNL A   1      42.301  21.245  26.615  1.00  0.00     0.039 A 
ATOM     33  C   UNL A   1      42.636  21.531  27.940  1.00  0.00     0.014 A 
ATOM     34  C   UNL A   1      42.249  22.258  25.657  1.00  0.00     0.014 A 
ATOM     35  C   UNL A   1      43.047  22.821  28.273  1.00  0.00     0.010 A 
ATOM     36  C   UNL A   1      42.769  23.505  25.966  1.00  0.00     0.010 A 
ATOM     37  C   UNL A   1      43.189  23.795  27.272  1.00  0.00    -0.014 A 
BRANCH  37  38
ATOM     38  C   UNL A   1      43.812  25.113  27.547  1.00  0.00     0.031 A 
ATOM     39  C   UNL A   1      42.969  26.247  28.062  1.00  0.00     0.074 A 
ATOM     40  C   UNL A   1      45.107  25.316  27.226  1.00  0.00     0.049 A 
ATOM     41  N   UNL A   1      43.295  27.498  28.248  1.00  0.00    -0.248 NA
ATOM     42  C   UNL A   1      41.561  25.942  28.370  1.00  0.00     0.031 C 
ATOM     43  C   UNL A   1      46.012  24.310  26.662  1.00  0.00     0.029 A 
ATOM     44  N   UNL A   1      45.887  26.443  27.318  1.00  0.00    -0.354 N 
ATOM     45  C   UNL A   1      42.133  28.132  28.670  1.00  0.00     0.074 A 
ATOM     46  C   UNL A   1      41.080  27.142  28.656  1.00  0.00     0.031 C 
ATOM     47  C   UNL A   1      47.228  24.854  26.490  1.00  0.00     0.029 A 
ATOM     48  C   UNL A   1      47.179  26.258  26.881  1.00  0.00     0.049 A 
ATOM     49  H   UNL A   1      45.552  27.301  27.664  1.00  0.00     0.167 HD
ATOM     50  C   UNL A   1      41.964  29.417  29.057  1.00  0.00     0.031 A 
ATOM     51  C   UNL A   1      48.205  27.126  26.792  1.00  0.00     0.031 A 
ATOM     52  C   UNL A   1      43.022  30.390  29.087  1.00  0.00     0.049 A 
ATOM     53  C   UNL A   1      47.990  28.551  27.222  1.00  0.00     0.074 A 
ATOM     54  C   UNL A   1      42.974  31.698  29.532  1.00  0.00     0.029 A 
ATOM     55  N   UNL A   1      44.318  30.159  28.652  1.00  0.00    -0.354 N 
ATOM     56  N   UNL A   1      46.902  29.112  27.695  1.00  0.00    -0.248 NA
ATOM     57  C   UNL A   1      49.139  29.459  27.109  1.00  0.00     0.031 C 
ATOM     58  C   UNL A   1      44.228  32.277  29.314  1.00  0.00     0.029 A 
ATOM     59  C   UNL A   1      45.073  31.312  28.787  1.00  0.00     0.049 A 
ATOM     60  H   UNL A   1      44.653  29.304  28.300  1.00  0.00     0.167 HD
ATOM     61  C   UNL A   1      47.240  30.436  27.949  1.00  0.00     0.074 A 
ATOM     62  C   UNL A   1      48.639  30.585  27.601  1.00  0.00     0.031 C 
ATOM     63  C   UNL A   1      46.461  31.440  28.423  1.00  0.00     0.031 A 
BRANCH  50  64
ATOM     64  C   UNL A   1      40.581  29.839  29.479  1.00  0.00    -0.014 A 
ATOM     65  C   UNL A   1      39.538  29.955  28.542  1.00  0.00     0.010 A 
ATOM     66  C   UNL A   1      40.311  30.093  30.837  1.00  0.00     0.010 A 
ATOM     67  C   UNL A   1      38.264  30.362  28.946  1.00  0.00     0.020 A 
ATOM     68  C   UNL A   1      39.029  30.470  31.249  1.00  0.00     0.020 A 
ATOM     69  C   UNL A   1      38.019  30.619  30.298  1.00  0.00     0.054 A 
BRANCH  69  70
ATOM     70  S   UNL A   1      36.349  31.121  30.795  1.00  0.00     0.124 S 
ATOM     71  O   UNL A   1      35.647  31.142  29.514  1.00  0.00    -0.237 OA
ATOM     72  O   UNL A   1      35.953  30.053  31.709  1.00  0.00    -0.237 OA
ATOM     73  O   UNL A   1      36.549  32.428  31.417  1.00  0.00    -0.744 OA
ENDBRANCH  69  70
ENDBRANCH  50  64
BRANCH  51  74
ATOM     74  C   UNL A   1      49.528  26.669  26.282  1.00  0.00    -0.014 A 
ATOM     75  C   UNL A   1      50.384  25.912  27.100  1.00  0.00     0.010 A 
ATOM     76  C   UNL A   1      49.933  26.975  24.969  1.00  0.00     0.010 A 
ATOM     77  C   UNL A   1      51.626  25.483  26.622  1.00  0.00     0.020 A 
ATOM     78  C   UNL A   1      51.162  26.525  24.478  1.00  0.00     0.020 A 
ATOM     79  C   UNL A   1      52.007  25.789  25.313  1.00  0.00     0.054 A 
BRANCH  79  80
ATOM     80  S   UNL A   1      53.601  25.176  24.699  1.00  0.00     0.124 S 
ATOM     81  O   UNL A   1      53.515  23.751  25.002  1.00  0.00    -0.237 OA
ATOM     82  O   UNL A   1      53.548  25.527  23.282  1.00  0.00    -0.237 OA
ATOM     83  O   UNL A   1      54.580  25.926  25.483  1.00  0.00    -0.744 OA
ENDBRANCH  79  80
ENDBRANCH  51  74
BRANCH  63  84
ATOM     84  C   UNL A   1      47.107  32.787  28.600  1.00  0.00    -0.014 A 
ATOM     85  C   UNL A   1      47.823  33.096  29.770  1.00  0.00     0.010 A 
ATOM     86  C   UNL A   1      47.053  33.729  27.556  1.00  0.00     0.010 A 
ATOM     87  C   UNL A   1      48.454  34.336  29.903  1.00  0.00     0.020 A 
ATOM     88  C   UNL A   1      47.707  34.958  27.674  1.00  0.00     0.020 A 
ATOM     89  C   UNL A   1      48.394  35.258  28.852  1.00  0.00     0.054 A 
BRANCH  89  90
ATOM     90  S   UNL A   1      49.269  36.836  29.029  1.00  0.00     0.124 S 
ATOM     91  O   UNL A   1      49.247  37.035  30.475  1.00  0.00    -0.237 OA
ATOM     92  O   UNL A   1      50.579  36.541  28.455  1.00  0.00    -0.237 OA
ATOM     93  O   UNL A   1      48.453  37.772  28.259  1.00  0.00    -0.744 OA
ENDBRANCH  89  90
ENDBRANCH  63  84
ENDBRANCH  37  38
ENDBRANCH  29  32
ENDBRANCH  27  28
ENDBRANCH  26  27
ENDBRANCH   1  26
TORSDOF 20
ENDMDL
MODEL 2
REMARK VINA RESULT:     -10.5      3.466      9.042
REMARK SMILES CCC[C@@H](C)[C@H](NS(=O)(=O)c1ccc(C)c(C)c1)C(=O)NCCCCNC(=O)c1ccc(-c2c3nc(c(-c4ccc(S(=O)(=O)[O-])cc4)c4ccc([nH]4)c(-c4ccc(S(=O)(=O)[O-])cc4)c4nc(c(-c5ccc(S(=O)(=O)[O-])cc5)c5ccc2[nH]5)C=C4)C=C3)cc1
REMARK SMILES IDX 23 1 22 2 21 3 19 4 20 5 6 7 4 8 5 9 3 10 2 11 1 12 7 13
REMARK SMILES IDX 8 15 9 16 10 17 11 18 12 19 18 20 13 21 16 22 14 23 17 24
REMARK SMILES IDX 15 25 24 26 25 27 26 28 27 29 28 31 29 32 30 33 88 34 31 35
REMARK SMILES IDX 87 36 32 37 33 38 34 39 81 40 35 41 86 42 80 43 82 44 36 45
REMARK SMILES IDX 85 46 79 47 78 48 37 50 67 51 48 52 66 53 49 54 52 55 65 56
REMARK SMILES IDX 83 57 50 58 51 59 64 61 84 62 53 63 38 64 39 65 47 66 40 67
REMARK SMILES IDX 46 68 41 69 42 70 43 71 44 72 45 73 68 74 69 75 77 76 70 77
REMARK SMILES IDX 76 78 71 79 72 80 73 81 74 82 75 83 54 84 55 85 63 86 56 87
REMARK SMILES IDX 62 88 57 89 58 90 59 91 60 92 61 93
REMARK H PARENT 21 6 7 14 26 30 82 49 52 60
REMARK Flexibility Score: inf
ROOT
ATOM      1  C   UNL A   1      31.453  27.518  26.982  1.00  0.00     0.023 C 
ENDROOT
BRANCH   1   2
ATOM      2  C   UNL A   1      31.313  26.126  26.363  1.00  0.00     0.116 C 
BRANCH   2   3
ATOM      3  N   UNL A   1      30.136  26.068  25.534  1.00  0.00    -0.355 N 
ATOM      4  C   UNL A   1      30.013  25.971  24.188  1.00  0.00     0.238 C 
ATOM      5  O   UNL A   1      28.882  26.198  23.735  1.00  0.00    -0.273 OA
ATOM      6  H   UNL A   1      29.283  26.104  26.026  1.00  0.00     0.163 HD
BRANCH   4   7
ATOM      7  C   UNL A   1      31.116  25.490  23.239  1.00  0.00     0.161 C 
BRANCH   7   8
ATOM      8  C   UNL A   1      31.510  26.435  22.067  1.00  0.00     0.013 C 
ATOM      9  C   UNL A   1      32.495  25.694  21.122  1.00  0.00     0.010 C 
BRANCH   8  10
ATOM     10  C   UNL A   1      32.178  27.764  22.496  1.00  0.00     0.005 C 
BRANCH  10  11
ATOM     11  C   UNL A   1      33.667  27.606  22.855  1.00  0.00    -0.003 C 
ATOM     12  C   UNL A   1      34.328  28.932  23.203  1.00  0.00     0.004 C 
ENDBRANCH  10  11
ENDBRANCH   8  10
ENDBRANCH   7   8
BRANCH   7  13
ATOM     13  N   UNL A   1      31.282  24.077  22.833  1.00  0.00    -0.198 NA
ATOM     14  H   UNL A   1      31.915  24.137  22.035  1.00  0.00     0.142 HD
BRANCH  13  15
ATOM     15  S   UNL A   1      31.803  22.717  23.630  1.00  0.00     0.241 S 
ATOM     16  O   UNL A   1      30.921  22.603  24.766  1.00  0.00    -0.207 OA
ATOM     17  O   UNL A   1      31.882  21.649  22.661  1.00  0.00    -0.207 OA
BRANCH  15  18
ATOM     18  C   UNL A   1      33.425  23.003  24.304  1.00  0.00     0.082 A 
ATOM     19  C   UNL A   1      33.833  24.278  24.676  1.00  0.00     0.022 A 
ATOM     20  C   UNL A   1      34.312  21.929  24.452  1.00  0.00     0.025 A 
ATOM     21  C   UNL A   1      35.164  24.507  25.035  1.00  0.00     0.005 A 
ATOM     22  C   UNL A   1      35.636  22.137  24.886  1.00  0.00    -0.047 A 
ATOM     23  C   UNL A   1      36.086  23.452  25.111  1.00  0.00    -0.048 A 
ATOM     24  C   UNL A   1      36.531  20.938  25.061  1.00  0.00     0.044 C 
ATOM     25  C   UNL A   1      37.517  23.757  25.467  1.00  0.00     0.044 C 
ENDBRANCH  15  18
ENDBRANCH  13  15
ENDBRANCH   7  13
ENDBRANCH   4   7
ENDBRANCH   2   3
ENDBRANCH   1   2
BRANCH   1  26
ATOM     26  C   UNL A   1      32.508  28.419  26.363  1.00  0.00     0.023 C 
BRANCH  26  27
ATOM     27  C   UNL A   1      33.725  28.665  27.236  1.00  0.00     0.116 C 
BRANCH  27  28
ATOM     28  N   UNL A   1      33.776  30.010  27.805  1.00  0.00    -0.352 N 
ATOM     29  C   UNL A   1      34.823  30.662  28.418  1.00  0.00     0.251 C 
ATOM     30  H   UNL A   1      32.940  30.525  27.740  1.00  0.00     0.163 HD
ATOM     31  O   UNL A   1      34.662  31.758  28.943  1.00  0.00    -0.269 OA
BRANCH  29  32
ATOM     32  C   UNL A   1      36.138  29.998  28.468  1.00  0.00     0.039 A 
ATOM     33  C   UNL A   1      36.985  30.076  27.361  1.00  0.00     0.014 A 
ATOM     34  C   UNL A   1      36.569  29.410  29.657  1.00  0.00     0.014 A 
ATOM     35  C   UNL A   1      38.314  29.677  27.494  1.00  0.00     0.010 A 
ATOM     36  C   UNL A   1      37.916  29.125  29.819  1.00  0.00     0.010 A 
ATOM     37  C   UNL A   1      38.806  29.271  28.745  1.00  0.00    -0.014 A 
BRANCH  37  38
ATOM     38  C   UNL A   1      40.251  29.033  28.977  1.00  0.00     0.031 A 
ATOM     39  C   UNL A   1      40.854  27.698  28.635  1.00  0.00     0.074 A 
ATOM     40  C   UNL A   1      40.989  29.977  29.597  1.00  0.00     0.049 A 
ATOM     41  N   UNL A   1      42.059  27.254  28.872  1.00  0.00    -0.248 NA
ATOM     42  C   UNL A   1      39.973  26.720  27.975  1.00  0.00     0.031 C 
ATOM     43  C   UNL A   1      40.502  31.288  30.034  1.00  0.00     0.029 A 
ATOM     44  N   UNL A   1      42.309  29.974  29.981  1.00  0.00    -0.354 N 
ATOM     45  C   UNL A   1      42.073  25.942  28.414  1.00  0.00     0.074 A 
ATOM     46  C   UNL A   1      40.742  25.643  27.940  1.00  0.00     0.031 C 
ATOM     47  C   UNL A   1      41.513  31.974  30.593  1.00  0.00     0.029 A 
ATOM     48  C   UNL A   1      42.706  31.136  30.603  1.00  0.00     0.049 A 
ATOM     49  H   UNL A   1      42.912  29.213  29.825  1.00  0.00     0.167 HD
ATOM     50  C   UNL A   1      43.110  25.073  28.370  1.00  0.00     0.031 A 
ATOM     51  C   UNL A   1      43.894  31.482  31.135  1.00  0.00     0.031 A 
ATOM     52  C   UNL A   1      44.436  25.386  28.825  1.00  0.00     0.049 A 
ATOM     53  C   UNL A   1      45.029  30.496  31.079  1.00  0.00     0.074 A 
ATOM     54  C   UNL A   1      45.575  24.604  28.758  1.00  0.00     0.029 A 
ATOM     55  N   UNL A   1      44.802  26.577  29.434  1.00  0.00    -0.354 N 
ATOM     56  N   UNL A   1      45.043  29.287  30.569  1.00  0.00    -0.248 NA
ATOM     57  C   UNL A   1      46.305  30.919  31.670  1.00  0.00     0.031 C 
ATOM     58  C   UNL A   1      46.617  25.301  29.378  1.00  0.00     0.029 A 
ATOM     59  C   UNL A   1      46.142  26.539  29.778  1.00  0.00     0.049 A 
ATOM     60  H   UNL A   1      44.198  27.337  29.597  1.00  0.00     0.167 HD
ATOM     61  C   UNL A   1      46.334  28.811  30.764  1.00  0.00     0.074 A 
ATOM     62  C   UNL A   1      47.077  29.870  31.416  1.00  0.00     0.031 C 
ATOM     63  C   UNL A   1      46.857  27.603  30.438  1.00  0.00     0.031 A 
BRANCH  50  64
ATOM     64  C   UNL A   1      42.842  23.701  27.809  1.00  0.00    -0.014 A 
ATOM     65  C   UNL A   1      42.415  22.647  28.637  1.00  0.00     0.010 A 
ATOM     66  C   UNL A   1      42.989  23.469  26.429  1.00  0.00     0.010 A 
ATOM     67  C   UNL A   1      42.186  21.375  28.105  1.00  0.00     0.020 A 
ATOM     68  C   UNL A   1      42.730  22.206  25.887  1.00  0.00     0.020 A 
ATOM     69  C   UNL A   1      42.347  21.163  26.733  1.00  0.00     0.054 A 
BRANCH  69  70
ATOM     70  S   UNL A   1      42.017  19.509  26.068  1.00  0.00     0.124 S 
ATOM     71  O   UNL A   1      40.572  19.552  25.857  1.00  0.00    -0.237 OA
ATOM     72  O   UNL A   1      42.828  19.485  24.853  1.00  0.00    -0.237 OA
ATOM     73  O   UNL A   1      42.465  18.611  27.130  1.00  0.00    -0.744 OA
ENDBRANCH  69  70
ENDBRANCH  50  64
BRANCH  51  74
ATOM     74  C   UNL A   1      44.073  32.824  31.756  1.00  0.00    -0.014 A 
ATOM     75  C   UNL A   1      43.862  33.004  33.135  1.00  0.00     0.010 A 
ATOM     76  C   UNL A   1      44.469  33.926  30.977  1.00  0.00     0.010 A 
ATOM     77  C   UNL A   1      44.029  34.263  33.719  1.00  0.00     0.020 A 
ATOM     78  C   UNL A   1      44.664  35.181  31.562  1.00  0.00     0.020 A 
ATOM     79  C   UNL A   1      44.432  35.344  32.930  1.00  0.00     0.054 A 
BRANCH  79  80
ATOM     80  S   UNL A   1      44.692  36.956  33.721  1.00  0.00     0.124 S 
ATOM     81  O   UNL A   1      44.387  36.661  35.117  1.00  0.00    -0.237 OA
ATOM     82  O   UNL A   1      46.096  37.230  33.424  1.00  0.00    -0.237 OA
ATOM     83  O   UNL A   1      43.737  37.828  33.041  1.00  0.00    -0.744 OA
ENDBRANCH  79  80
ENDBRANCH  51  74
BRANCH  63  84
ATOM     84  C   UNL A   1      48.304  27.365  30.774  1.00  0.00    -0.014 A 
ATOM     85  C   UNL A   1      49.323  27.735  29.879  1.00  0.00     0.010 A 
ATOM     86  C   UNL A   1      48.649  26.828  32.028  1.00  0.00     0.010 A 
ATOM     87  C   UNL A   1      50.665  27.548  30.223  1.00  0.00     0.020 A 
ATOM     88  C   UNL A   1      49.990  26.666  32.386  1.00  0.00     0.020 A 
ATOM     89  C   UNL A   1      50.989  27.017  31.476  1.00  0.00     0.054 A 
BRANCH  89  90
ATOM     90  S   UNL A   1      52.738  26.838  31.918  1.00  0.00     0.124 S 
ATOM     91  O   UNL A   1      52.753  27.313  33.298  1.00  0.00    -0.237 OA
ATOM     92  O   UNL A   1      52.967  25.405  31.745  1.00  0.00    -0.237 OA
ATOM     93  O   UNL A   1      53.428  27.695  30.957  1.00  0.00    -0.744 OA
ENDBRANCH  89  90
ENDBRANCH  63  84
ENDBRANCH  37  38
ENDBRANCH  29  32
ENDBRANCH  27  28
ENDBRANCH  26  27
ENDBRANCH   1  26
TORSDOF 20
ENDMDL
MODEL 3
REMARK VINA RESULT:     -10.4      5.821      9.593
REMARK SMILES CCC[C@@H](C)[C@H](NS(=O)(=O)c1ccc(C)c(C)c1)C(=O)NCCCCNC(=O)c1ccc(-c2c3nc(c(-c4ccc(S(=O)(=O)[O-])cc4)c4ccc([nH]4)c(-c4ccc(S(=O)(=O)[O-])cc4)c4nc(c(-c5ccc(S(=O)(=O)[O-])cc5)c5ccc2[nH]5)C=C4)C=C3)cc1
REMARK SMILES IDX 23 1 22 2 21 3 19 4 20 5 6 7 4 8 5 9 3 10 2 11 1 12 7 13
REMARK SMILES IDX 8 15 9 16 10 17 11 18 12 19 18 20 13 21 16 22 14 23 17 24
REMARK SMILES IDX 15 25 24 26 25 27 26 28 27 29 28 31 29 32 30 33 88 34 31 35
REMARK SMILES IDX 87 36 32 37 33 38 34 39 81 40 35 41 86 42 80 43 82 44 36 45
REMARK SMILES IDX 85 46 79 47 78 48 37 50 67 51 48 52 66 53 49 54 52 55 65 56
REMARK SMILES IDX 83 57 50 58 51 59 64 61 84 62 53 63 38 64 39 65 47 66 40 67
REMARK SMILES IDX 46 68 41 69 42 70 43 71 44 72 45 73 68 74 69 75 77 76 70 77
REMARK SMILES IDX 76 78 71 79 72 80 73 81 74 82 75 83 54 84 55 85 63 86 56 87
REMARK SMILES IDX 62 88 57 89 58 90 59 91 60 92 61 93
REMARK H PARENT 21 6 7 14 26 30 82 49 52 60
REMARK Flexibility Score: inf
ROOT
ATOM      1  C   UNL A   1      31.856  30.649  26.463  1.00  0.00     0.023 C 
ENDROOT
BRANCH   1   2
ATOM      2  C   UNL A   1      31.405  29.665  25.381  1.00  0.00     0.116 C 
BRANCH   2   3
ATOM      3  N   UNL A   1      32.306  29.718  24.257  1.00  0.00    -0.355 N 
ATOM      4  C   UNL A   1      33.083  28.752  23.708  1.00  0.00     0.238 C 
ATOM      5  O   UNL A   1      33.944  29.149  22.909  1.00  0.00    -0.273 OA
ATOM      6  H   UNL A   1      32.365  30.597  23.817  1.00  0.00     0.163 HD
BRANCH   4   7
ATOM      7  C   UNL A   1      32.884  27.246  23.909  1.00  0.00     0.161 C 
BRANCH   7   8
ATOM      8  C   UNL A   1      32.917  26.712  25.370  1.00  0.00     0.013 C 
ATOM      9  C   UNL A   1      34.287  26.033  25.636  1.00  0.00     0.010 C 
BRANCH   8  10
ATOM     10  C   UNL A   1      31.807  25.688  25.716  1.00  0.00     0.005 C 
BRANCH  10  11
ATOM     11  C   UNL A   1      32.357  24.372  26.295  1.00  0.00    -0.003 C 
ATOM     12  C   UNL A   1      31.254  23.433  26.764  1.00  0.00     0.004 C 
ENDBRANCH  10  11
ENDBRANCH   8  10
ENDBRANCH   7   8
BRANCH   7  13
ATOM     13  N   UNL A   1      33.413  26.224  22.980  1.00  0.00    -0.198 NA
ATOM     14  H   UNL A   1      34.107  25.734  23.544  1.00  0.00     0.142 HD
BRANCH  13  15
ATOM     15  S   UNL A   1      32.703  25.005  22.105  1.00  0.00     0.241 S 
ATOM     16  O   UNL A   1      31.286  25.198  22.297  1.00  0.00    -0.207 OA
ATOM     17  O   UNL A   1      33.268  25.038  20.776  1.00  0.00    -0.207 OA
BRANCH  15  18
ATOM     18  C   UNL A   1      33.082  23.434  22.852  1.00  0.00     0.082 A 
ATOM     19  C   UNL A   1      32.118  22.441  22.963  1.00  0.00     0.022 A 
ATOM     20  C   UNL A   1      34.371  23.197  23.347  1.00  0.00     0.025 A 
ATOM     21  C   UNL A   1      32.385  21.289  23.707  1.00  0.00     0.005 A 
ATOM     22  C   UNL A   1      34.675  22.005  24.035  1.00  0.00    -0.047 A 
ATOM     23  C   UNL A   1      33.648  21.072  24.278  1.00  0.00    -0.048 A 
ATOM     24  C   UNL A   1      36.087  21.791  24.511  1.00  0.00     0.044 C 
ATOM     25  C   UNL A   1      33.875  19.832  25.101  1.00  0.00     0.044 C 
ENDBRANCH  15  18
ENDBRANCH  13  15
ENDBRANCH   7  13
ENDBRANCH   4   7
ENDBRANCH   2   3
ENDBRANCH   1   2
BRANCH   1  26
ATOM     26  C   UNL A   1      33.095  30.255  27.247  1.00  0.00     0.023 C 
BRANCH  26  27
ATOM     27  C   UNL A   1      34.050  31.398  27.544  1.00  0.00     0.116 C 
BRANCH  27  28
ATOM     28  N   UNL A   1      33.388  32.693  27.682  1.00  0.00    -0.352 N 
ATOM     29  C   UNL A   1      33.613  33.699  28.596  1.00  0.00     0.251 C 
ATOM     30  H   UNL A   1      32.678  32.873  27.024  1.00  0.00     0.163 HD
ATOM     31  O   UNL A   1      32.885  34.685  28.641  1.00  0.00    -0.269 OA
BRANCH  29  32
ATOM     32  C   UNL A   1      34.724  33.549  29.553  1.00  0.00     0.039 A 
ATOM     33  C   UNL A   1      34.552  32.741  30.679  1.00  0.00     0.014 A 
ATOM     34  C   UNL A   1      35.967  34.110  29.260  1.00  0.00     0.014 A 
ATOM     35  C   UNL A   1      35.666  32.392  31.441  1.00  0.00     0.010 A 
ATOM     36  C   UNL A   1      37.086  33.667  29.948  1.00  0.00     0.010 A 
ATOM     37  C   UNL A   1      36.950  32.791  31.035  1.00  0.00    -0.014 A 
BRANCH  37  38
ATOM     38  C   UNL A   1      38.174  32.278  31.697  1.00  0.00     0.031 A 
ATOM     39  C   UNL A   1      38.616  32.864  33.010  1.00  0.00     0.074 A 
ATOM     40  C   UNL A   1      38.941  31.368  31.062  1.00  0.00     0.049 A 
ATOM     41  N   UNL A   1      39.712  32.639  33.684  1.00  0.00    -0.248 NA
ATOM     42  C   UNL A   1      37.727  33.863  33.626  1.00  0.00     0.031 C 
ATOM     43  C   UNL A   1      38.649  30.771  29.755  1.00  0.00     0.029 A 
ATOM     44  N   UNL A   1      40.135  30.793  31.424  1.00  0.00    -0.354 N 
ATOM     45  C   UNL A   1      39.656  33.484  34.786  1.00  0.00     0.074 A 
ATOM     46  C   UNL A   1      38.448  34.266  34.660  1.00  0.00     0.031 C 
ATOM     47  C   UNL A   1      39.616  29.893  29.443  1.00  0.00     0.029 A 
ATOM     48  C   UNL A   1      40.622  29.900  30.497  1.00  0.00     0.049 A 
ATOM     49  H   UNL A   1      40.598  31.002  32.267  1.00  0.00     0.167 HD
ATOM     50  C   UNL A   1      40.521  33.581  35.821  1.00  0.00     0.031 A 
ATOM     51  C   UNL A   1      41.760  29.178  30.491  1.00  0.00     0.031 A 
ATOM     52  C   UNL A   1      41.710  32.784  35.949  1.00  0.00     0.049 A 
ATOM     53  C   UNL A   1      42.708  29.308  31.651  1.00  0.00     0.074 A 
ATOM     54  C   UNL A   1      42.615  32.751  36.994  1.00  0.00     0.029 A 
ATOM     55  N   UNL A   1      42.160  31.880  34.998  1.00  0.00    -0.354 N 
ATOM     56  N   UNL A   1      42.597  30.055  32.724  1.00  0.00    -0.248 NA
ATOM     57  C   UNL A   1      43.934  28.500  31.600  1.00  0.00     0.031 C 
ATOM     58  C   UNL A   1      43.644  31.867  36.649  1.00  0.00     0.029 A 
ATOM     59  C   UNL A   1      43.349  31.308  35.416  1.00  0.00     0.049 A 
ATOM     60  H   UNL A   1      41.703  31.676  34.151  1.00  0.00     0.167 HD
ATOM     61  C   UNL A   1      43.731  29.795  33.484  1.00  0.00     0.074 A 
ATOM     62  C   UNL A   1      44.502  28.805  32.760  1.00  0.00     0.031 C 
ATOM     63  C   UNL A   1      44.104  30.331  34.672  1.00  0.00     0.031 A 
BRANCH  50  64
ATOM     64  C   UNL A   1      40.207  34.587  36.897  1.00  0.00    -0.014 A 
ATOM     65  C   UNL A   1      39.322  34.277  37.946  1.00  0.00     0.010 A 
ATOM     66  C   UNL A   1      40.827  35.850  36.878  1.00  0.00     0.010 A 
ATOM     67  C   UNL A   1      39.027  35.225  38.929  1.00  0.00     0.020 A 
ATOM     68  C   UNL A   1      40.558  36.791  37.877  1.00  0.00     0.020 A 
ATOM     69  C   UNL A   1      39.646  36.477  38.887  1.00  0.00     0.054 A 
BRANCH  69  70
ATOM     70  S   UNL A   1      39.263  37.678  40.190  1.00  0.00     0.124 S 
ATOM     71  O   UNL A   1      38.905  36.806  41.306  1.00  0.00    -0.237 OA
ATOM     72  O   UNL A   1      40.523  38.402  40.339  1.00  0.00    -0.237 OA
ATOM     73  O   UNL A   1      38.162  38.458  39.631  1.00  0.00    -0.744 OA
ENDBRANCH  69  70
ENDBRANCH  50  64
BRANCH  51  74
ATOM     74  C   UNL A   1      42.058  28.264  29.354  1.00  0.00    -0.014 A 
ATOM     75  C   UNL A   1      42.785  28.724  28.241  1.00  0.00     0.010 A 
ATOM     76  C   UNL A   1      41.631  26.923  29.383  1.00  0.00     0.010 A 
ATOM     77  C   UNL A   1      43.065  27.866  27.174  1.00  0.00     0.020 A 
ATOM     78  C   UNL A   1      41.933  26.055  28.330  1.00  0.00     0.020 A 
ATOM     79  C   UNL A   1      42.640  26.536  27.225  1.00  0.00     0.054 A 
BRANCH  79  80
ATOM     80  S   UNL A   1      43.062  25.428  25.850  1.00  0.00     0.124 S 
ATOM     81  O   UNL A   1      44.520  25.465  25.867  1.00  0.00    -0.237 OA
ATOM     82  O   UNL A   1      42.455  24.166  26.265  1.00  0.00    -0.237 OA
ATOM     83  O   UNL A   1      42.432  26.064  24.695  1.00  0.00    -0.744 OA
ENDBRANCH  79  80
ENDBRANCH  51  74
BRANCH  63  84
ATOM     84  C   UNL A   1      45.401  29.853  35.267  1.00  0.00    -0.014 A 
ATOM     85  C   UNL A   1      46.572  30.622  35.159  1.00  0.00     0.010 A 
ATOM     86  C   UNL A   1      45.430  28.651  35.999  1.00  0.00     0.010 A 
ATOM     87  C   UNL A   1      47.759  30.186  35.753  1.00  0.00     0.020 A 
ATOM     88  C   UNL A   1      46.608  28.226  36.617  1.00  0.00     0.020 A 
ATOM     89  C   UNL A   1      47.769  28.991  36.481  1.00  0.00     0.054 A 
BRANCH  89  90
ATOM     90  S   UNL A   1      49.309  28.477  37.288  1.00  0.00     0.124 S 
ATOM     91  O   UNL A   1      49.172  27.023  37.304  1.00  0.00    -0.237 OA
ATOM     92  O   UNL A   1      50.332  29.002  36.389  1.00  0.00    -0.237 OA
ATOM     93  O   UNL A   1      49.245  29.123  38.598  1.00  0.00    -0.744 OA
ENDBRANCH  89  90
ENDBRANCH  63  84
ENDBRANCH  37  38
ENDBRANCH  29  32
ENDBRANCH  27  28
ENDBRANCH  26  27
ENDBRANCH   1  26
TORSDOF 20
ENDMDL
