MODEL 1
REMARK VINA RESULT:     -12.3      0.000      0.000
REMARK SMILES Cc1sc(NC(=O)[C@@H]2[C@@H](C(=O)NCCCCNC(=O)c3ccc(-c4c5nc(c(-c6ccc(S(=O)(=O)[O-])cc6)c6ccc([nH]6)c(-c6ccc(S(=O)(=O)[O-])cc6)c6nc(c(-c7ccc(S(=O)(=O)[O-])cc7)c7ccc4[nH]7)C=C6)C=C5)cc3)[C@@H]3C=C[C@H]2C3)c(C#N)c1C
REMARK SMILES IDX 14 1 13 2 12 3 10 4 11 5 9 7 8 8 83 9 80 10 82 11 84 12
REMARK SMILES IDX 81 13 6 14 5 15 7 17 4 18 1 19 2 20 3 21 88 22 85 23 89 24
REMARK SMILES IDX 86 25 87 26 15 27 16 28 17 29 18 30 19 32 20 33 21 34 79 35
REMARK SMILES IDX 22 36 78 37 23 38 24 39 25 40 72 41 26 42 77 43 71 44 73 45
REMARK SMILES IDX 27 46 76 47 70 48 69 49 28 51 58 52 39 53 57 54 40 55 43 56
REMARK SMILES IDX 56 57 74 58 41 59 42 60 55 62 75 63 44 64 29 65 30 66 38 67
REMARK SMILES IDX 31 68 37 69 32 70 33 71 34 72 35 73 36 74 59 75 60 76 68 77
REMARK SMILES IDX 61 78 67 79 62 80 63 81 64 82 65 83 66 84 45 85 46 86 54 87
REMARK SMILES IDX 47 88 53 89 48 90 49 91 50 92 51 93 52 94
REMARK H PARENT 12 6 5 16 17 31 73 50 43 61
REMARK Flexibility Score: inf
ROOT
ATOM      1  C   UNL A   1      36.417  20.942  24.837  1.00  0.00     0.023 C 
ENDROOT
BRANCH   1   2
ATOM      2  C   UNL A   1      36.456  22.071  25.867  1.00  0.00     0.116 C 
BRANCH   2   3
ATOM      3  N   UNL A   1      35.398  21.971  26.848  1.00  0.00    -0.356 N 
ATOM      4  C   UNL A   1      34.066  22.219  26.722  1.00  0.00     0.224 C 
ATOM      5  O   UNL A   1      33.413  22.211  27.765  1.00  0.00    -0.275 OA
ATOM      6  H   UNL A   1      35.684  21.679  27.743  1.00  0.00     0.163 HD
BRANCH   4   7
ATOM      7  C   UNL A   1      33.463  22.597  25.374  1.00  0.00     0.098 C 
ATOM      8  C   UNL A   1      33.089  24.126  25.296  1.00  0.00     0.099 C 
ATOM      9  C   UNL A   1      31.620  24.090  24.786  1.00  0.00     0.025 C 
ATOM     10  C   UNL A   1      32.082  21.930  25.109  1.00  0.00     0.025 C 
ATOM     11  C   UNL A   1      31.507  23.396  23.447  1.00  0.00    -0.027 C 
ATOM     12  C   UNL A   1      31.089  22.955  25.666  1.00  0.00     0.017 C 
ATOM     13  C   UNL A   1      31.791  22.100  23.638  1.00  0.00    -0.027 C 
BRANCH   8  14
ATOM     14  C   UNL A   1      34.026  24.943  24.418  1.00  0.00     0.229 C 
ATOM     15  N   UNL A   1      33.932  26.286  24.193  1.00  0.00    -0.316 N 
ATOM     16  H   UNL A   1      34.650  26.618  23.609  1.00  0.00     0.170 HD
ATOM     17  O   UNL A   1      35.005  24.404  23.882  1.00  0.00    -0.274 OA
BRANCH  15  18
ATOM     18  C   UNL A   1      33.067  27.293  24.592  1.00  0.00     0.113 A 
ATOM     19  C   UNL A   1      31.932  30.443  26.593  1.00  0.00     0.057 C 
ATOM     20  C   UNL A   1      32.052  29.270  25.676  1.00  0.00     0.008 A 
ATOM     21  S   UNL A   1      33.177  28.062  26.088  1.00  0.00    -0.122 S 
ATOM     22  C   UNL A   1      31.373  28.942  24.514  1.00  0.00    -0.017 A 
ATOM     23  C   UNL A   1      31.967  27.774  23.899  1.00  0.00     0.090 A 
ATOM     24  C   UNL A   1      30.214  29.693  23.942  1.00  0.00     0.047 C 
BRANCH  23  25
ATOM     25  C   UNL A   1      31.509  27.198  22.660  1.00  0.00     0.103 C 
ATOM     26  N   UNL A   1      31.142  26.727  21.676  1.00  0.00    -0.192 NA
ENDBRANCH  23  25
ENDBRANCH  15  18
ENDBRANCH   8  14
ENDBRANCH   4   7
ENDBRANCH   2   3
ENDBRANCH   1   2
BRANCH   1  27
ATOM     27  C   UNL A   1      37.510  19.873  24.949  1.00  0.00     0.023 C 
BRANCH  27  28
ATOM     28  C   UNL A   1      38.823  20.378  25.520  1.00  0.00     0.116 C 
BRANCH  28  29
ATOM     29  N   UNL A   1      39.796  19.314  25.805  1.00  0.00    -0.352 N 
ATOM     30  C   UNL A   1      41.168  19.444  26.000  1.00  0.00     0.251 C 
ATOM     31  H   UNL A   1      39.433  18.400  25.866  1.00  0.00     0.163 HD
ATOM     32  O   UNL A   1      41.923  18.488  25.873  1.00  0.00    -0.269 OA
BRANCH  30  33
ATOM     33  C   UNL A   1      41.683  20.760  26.423  1.00  0.00     0.039 A 
ATOM     34  C   UNL A   1      42.121  21.769  25.558  1.00  0.00     0.014 A 
ATOM     35  C   UNL A   1      41.622  20.991  27.783  1.00  0.00     0.014 A 
ATOM     36  C   UNL A   1      42.507  22.994  26.116  1.00  0.00     0.010 A 
ATOM     37  C   UNL A   1      41.529  22.281  28.181  1.00  0.00     0.010 A 
ATOM     38  C   UNL A   1      42.236  23.219  27.471  1.00  0.00    -0.014 A 
BRANCH  38  39
ATOM     39  C   UNL A   1      42.444  24.465  28.191  1.00  0.00     0.031 A 
ATOM     40  C   UNL A   1      41.323  25.409  27.987  1.00  0.00     0.074 A 
ATOM     41  C   UNL A   1      43.397  24.604  29.149  1.00  0.00     0.049 A 
ATOM     42  N   UNL A   1      41.316  26.411  27.177  1.00  0.00    -0.248 NA
ATOM     43  C   UNL A   1      39.988  25.073  28.521  1.00  0.00     0.031 C 
ATOM     44  C   UNL A   1      44.390  23.639  29.648  1.00  0.00     0.029 A 
ATOM     45  N   UNL A   1      43.631  25.670  29.961  1.00  0.00    -0.354 N 
ATOM     46  C   UNL A   1      40.079  27.015  27.348  1.00  0.00     0.074 A 
ATOM     47  C   UNL A   1      39.235  26.019  27.954  1.00  0.00     0.031 C 
ATOM     48  C   UNL A   1      44.933  24.084  30.811  1.00  0.00     0.029 A 
ATOM     49  C   UNL A   1      44.453  25.431  31.066  1.00  0.00     0.049 A 
ATOM     50  H   UNL A   1      43.243  26.556  29.781  1.00  0.00     0.167 HD
ATOM     51  C   UNL A   1      39.958  28.369  27.285  1.00  0.00     0.031 A 
ATOM     52  C   UNL A   1      44.700  26.296  32.095  1.00  0.00     0.031 A 
ATOM     53  C   UNL A   1      41.166  28.973  26.773  1.00  0.00     0.049 A 
ATOM     54  C   UNL A   1      44.374  27.654  31.572  1.00  0.00     0.074 A 
ATOM     55  C   UNL A   1      41.897  28.836  25.609  1.00  0.00     0.029 A 
ATOM     56  N   UNL A   1      42.033  29.496  27.709  1.00  0.00    -0.354 N 
ATOM     57  N   UNL A   1      45.059  28.210  30.609  1.00  0.00    -0.248 NA
ATOM     58  C   UNL A   1      42.995  28.105  31.707  1.00  0.00     0.031 C 
ATOM     59  C   UNL A   1      43.256  28.792  26.041  1.00  0.00     0.029 A 
ATOM     60  C   UNL A   1      43.291  29.035  27.416  1.00  0.00     0.049 A 
ATOM     61  H   UNL A   1      41.791  30.093  28.455  1.00  0.00     0.167 HD
ATOM     62  C   UNL A   1      44.101  28.732  29.751  1.00  0.00     0.074 A 
ATOM     63  C   UNL A   1      42.842  28.673  30.505  1.00  0.00     0.031 C 
ATOM     64  C   UNL A   1      44.329  28.850  28.408  1.00  0.00     0.031 A 
BRANCH  51  65
ATOM     65  C   UNL A   1      38.970  29.163  28.099  1.00  0.00    -0.014 A 
ATOM     66  C   UNL A   1      37.714  29.445  27.526  1.00  0.00     0.010 A 
ATOM     67  C   UNL A   1      39.319  29.872  29.267  1.00  0.00     0.010 A 
ATOM     68  C   UNL A   1      36.880  30.434  28.058  1.00  0.00     0.020 A 
ATOM     69  C   UNL A   1      38.476  30.833  29.828  1.00  0.00     0.020 A 
ATOM     70  C   UNL A   1      37.272  31.127  29.203  1.00  0.00     0.054 A 
BRANCH  70  71
ATOM     71  S   UNL A   1      36.212  32.446  29.839  1.00  0.00     0.124 S 
ATOM     72  O   UNL A   1      37.187  33.369  30.412  1.00  0.00    -0.237 OA
ATOM     73  O   UNL A   1      35.539  32.906  28.627  1.00  0.00    -0.237 OA
ATOM     74  O   UNL A   1      35.353  31.760  30.801  1.00  0.00    -0.744 OA
ENDBRANCH  70  71
ENDBRANCH  51  65
BRANCH  52  75
ATOM     75  C   UNL A   1      44.779  26.010  33.563  1.00  0.00    -0.014 A 
ATOM     76  C   UNL A   1      45.643  26.730  34.420  1.00  0.00     0.010 A 
ATOM     77  C   UNL A   1      43.771  25.241  34.179  1.00  0.00     0.010 A 
ATOM     78  C   UNL A   1      45.453  26.745  35.821  1.00  0.00     0.020 A 
ATOM     79  C   UNL A   1      43.573  25.251  35.570  1.00  0.00     0.020 A 
ATOM     80  C   UNL A   1      44.395  26.027  36.384  1.00  0.00     0.054 A 
BRANCH  80  81
ATOM     81  S   UNL A   1      44.001  26.220  38.156  1.00  0.00     0.124 S 
ATOM     82  O   UNL A   1      44.562  25.004  38.738  1.00  0.00    -0.237 OA
ATOM     83  O   UNL A   1      44.685  27.462  38.503  1.00  0.00    -0.237 OA
ATOM     84  O   UNL A   1      42.541  26.298  38.175  1.00  0.00    -0.744 OA
ENDBRANCH  80  81
ENDBRANCH  52  75
BRANCH  64  85
ATOM     85  C   UNL A   1      45.725  28.607  27.871  1.00  0.00    -0.014 A 
ATOM     86  C   UNL A   1      46.238  27.350  27.487  1.00  0.00     0.010 A 
ATOM     87  C   UNL A   1      46.486  29.751  27.578  1.00  0.00     0.010 A 
ATOM     88  C   UNL A   1      47.493  27.248  26.856  1.00  0.00     0.020 A 
ATOM     89  C   UNL A   1      47.720  29.659  26.936  1.00  0.00     0.020 A 
ATOM     90  C   UNL A   1      48.227  28.408  26.590  1.00  0.00     0.054 A 
BRANCH  90  91
ATOM     91  S   UNL A   1      49.844  28.292  25.769  1.00  0.00     0.124 S 
ATOM     92  O   UNL A   1      50.536  27.289  26.576  1.00  0.00    -0.237 OA
ATOM     93  O   UNL A   1      49.492  27.877  24.414  1.00  0.00    -0.237 OA
ATOM     94  O   UNL A   1      50.385  29.646  25.873  1.00  0.00    -0.744 OA
ENDBRANCH  90  91
ENDBRANCH  64  85
ENDBRANCH  38  39
ENDBRANCH  30  33
ENDBRANCH  28  29
ENDBRANCH  27  28
ENDBRANCH   1  27
TORSDOF 17
ENDMDL
MODEL 2
REMARK VINA RESULT:     -12.3      3.997      9.912
REMARK SMILES Cc1sc(NC(=O)[C@@H]2[C@@H](C(=O)NCCCCNC(=O)c3ccc(-c4c5nc(c(-c6ccc(S(=O)(=O)[O-])cc6)c6ccc([nH]6)c(-c6ccc(S(=O)(=O)[O-])cc6)c6nc(c(-c7ccc(S(=O)(=O)[O-])cc7)c7ccc4[nH]7)C=C6)C=C5)cc3)[C@@H]3C=C[C@H]2C3)c(C#N)c1C
REMARK SMILES IDX 14 1 13 2 12 3 10 4 11 5 9 7 8 8 83 9 80 10 82 11 84 12
REMARK SMILES IDX 81 13 6 14 5 15 7 17 4 18 1 19 2 20 3 21 88 22 85 23 89 24
REMARK SMILES IDX 86 25 87 26 15 27 16 28 17 29 18 30 19 32 20 33 21 34 79 35
REMARK SMILES IDX 22 36 78 37 23 38 24 39 25 40 72 41 26 42 77 43 71 44 73 45
REMARK SMILES IDX 27 46 76 47 70 48 69 49 28 51 58 52 39 53 57 54 40 55 43 56
REMARK SMILES IDX 56 57 74 58 41 59 42 60 55 62 75 63 44 64 29 65 30 66 38 67
REMARK SMILES IDX 31 68 37 69 32 70 33 71 34 72 35 73 36 74 59 75 60 76 68 77
REMARK SMILES IDX 61 78 67 79 62 80 63 81 64 82 65 83 66 84 45 85 46 86 54 87
REMARK SMILES IDX 47 88 53 89 48 90 49 91 50 92 51 93 52 94
REMARK H PARENT 12 6 5 16 17 31 73 50 43 61
REMARK Flexibility Score: inf
ROOT
ATOM      1  C   UNL A   1      31.675  30.212  25.699  1.00  0.00     0.023 C 
ENDROOT
BRANCH   1   2
ATOM      2  C   UNL A   1      33.106  29.679  25.750  1.00  0.00     0.116 C 
BRANCH   2   3
ATOM      3  N   UNL A   1      33.679  29.483  24.436  1.00  0.00    -0.356 N 
ATOM      4  C   UNL A   1      33.529  28.449  23.565  1.00  0.00     0.224 C 
ATOM      5  O   UNL A   1      34.263  28.463  22.578  1.00  0.00    -0.275 OA
ATOM      6  H   UNL A   1      34.266  30.209  24.125  1.00  0.00     0.163 HD
BRANCH   4   7
ATOM      7  C   UNL A   1      32.583  27.295  23.874  1.00  0.00     0.098 C 
ATOM      8  C   UNL A   1      33.357  25.960  24.196  1.00  0.00     0.099 C 
ATOM      9  C   UNL A   1      32.661  24.931  23.262  1.00  0.00     0.025 C 
ATOM     10  C   UNL A   1      31.721  26.861  22.653  1.00  0.00     0.025 C 
ATOM     11  C   UNL A   1      31.179  24.825  23.548  1.00  0.00    -0.027 C 
ATOM     12  C   UNL A   1      32.578  25.778  21.990  1.00  0.00     0.017 C 
ATOM     13  C   UNL A   1      30.615  25.986  23.188  1.00  0.00    -0.027 C 
BRANCH   8  14
ATOM     14  C   UNL A   1      33.330  25.575  25.668  1.00  0.00     0.229 C 
ATOM     15  N   UNL A   1      33.852  24.430  26.198  1.00  0.00    -0.316 N 
ATOM     16  H   UNL A   1      33.743  24.386  27.175  1.00  0.00     0.170 HD
ATOM     17  O   UNL A   1      32.852  26.353  26.507  1.00  0.00    -0.274 OA
BRANCH  15  18
ATOM     18  C   UNL A   1      34.501  23.316  25.689  1.00  0.00     0.113 A 
ATOM     19  C   UNL A   1      37.537  20.994  24.914  1.00  0.00     0.057 C 
ATOM     20  C   UNL A   1      36.191  21.626  25.059  1.00  0.00     0.008 A 
ATOM     21  S   UNL A   1      36.134  23.312  25.272  1.00  0.00    -0.122 S 
ATOM     22  C   UNL A   1      34.917  21.085  25.023  1.00  0.00    -0.017 A 
ATOM     23  C   UNL A   1      33.936  22.089  25.378  1.00  0.00     0.090 A 
ATOM     24  C   UNL A   1      34.583  19.663  24.701  1.00  0.00     0.047 C 
BRANCH  23  25
ATOM     25  C   UNL A   1      32.520  21.834  25.462  1.00  0.00     0.103 C 
ATOM     26  N   UNL A   1      31.392  21.621  25.538  1.00  0.00    -0.192 NA
ENDBRANCH  23  25
ENDBRANCH  15  18
ENDBRANCH   8  14
ENDBRANCH   4   7
ENDBRANCH   2   3
ENDBRANCH   1   2
BRANCH   1  27
ATOM     27  C   UNL A   1      31.392  31.495  26.489  1.00  0.00     0.023 C 
BRANCH  27  28
ATOM     28  C   UNL A   1      32.622  32.130  27.112  1.00  0.00     0.116 C 
BRANCH  28  29
ATOM     29  N   UNL A   1      32.461  33.558  27.421  1.00  0.00    -0.352 N 
ATOM     30  C   UNL A   1      33.066  34.281  28.447  1.00  0.00     0.251 C 
ATOM     31  H   UNL A   1      31.855  34.063  26.832  1.00  0.00     0.163 HD
ATOM     32  O   UNL A   1      32.602  35.347  28.833  1.00  0.00    -0.269 OA
BRANCH  30  33
ATOM     33  C   UNL A   1      34.319  33.752  29.017  1.00  0.00     0.039 A 
ATOM     34  C   UNL A   1      34.403  32.886  30.113  1.00  0.00     0.014 A 
ATOM     35  C   UNL A   1      35.459  34.102  28.322  1.00  0.00     0.014 A 
ATOM     36  C   UNL A   1      35.667  32.411  30.483  1.00  0.00     0.010 A 
ATOM     37  C   UNL A   1      36.514  33.258  28.412  1.00  0.00     0.010 A 
ATOM     38  C   UNL A   1      36.743  32.651  29.621  1.00  0.00    -0.014 A 
BRANCH  38  39
ATOM     39  C   UNL A   1      38.092  32.131  29.770  1.00  0.00     0.031 A 
ATOM     40  C   UNL A   1      38.182  30.714  29.355  1.00  0.00     0.074 A 
ATOM     41  C   UNL A   1      39.166  32.937  29.979  1.00  0.00     0.049 A 
ATOM     42  N   UNL A   1      38.195  29.695  30.143  1.00  0.00    -0.248 NA
ATOM     43  C   UNL A   1      37.972  30.361  27.937  1.00  0.00     0.031 C 
ATOM     44  C   UNL A   1      39.242  34.400  30.122  1.00  0.00     0.029 A 
ATOM     45  N   UNL A   1      40.481  32.596  30.036  1.00  0.00    -0.354 N 
ATOM     46  C   UNL A   1      38.318  28.590  29.314  1.00  0.00     0.074 A 
ATOM     47  C   UNL A   1      37.906  29.029  28.007  1.00  0.00     0.031 C 
ATOM     48  C   UNL A   1      40.530  34.816  30.006  1.00  0.00     0.029 A 
ATOM     49  C   UNL A   1      41.393  33.651  29.939  1.00  0.00     0.049 A 
ATOM     50  H   UNL A   1      40.773  31.662  30.138  1.00  0.00     0.167 HD
ATOM     51  C   UNL A   1      39.061  27.516  29.701  1.00  0.00     0.031 A 
ATOM     52  C   UNL A   1      42.750  33.541  29.815  1.00  0.00     0.031 A 
ATOM     53  C   UNL A   1      39.413  27.608  31.100  1.00  0.00     0.049 A 
ATOM     54  C   UNL A   1      43.095  32.179  30.315  1.00  0.00     0.074 A 
ATOM     55  C   UNL A   1      38.692  27.721  32.273  1.00  0.00     0.029 A 
ATOM     56  N   UNL A   1      40.678  28.078  31.382  1.00  0.00    -0.354 N 
ATOM     57  N   UNL A   1      42.930  31.835  31.564  1.00  0.00    -0.248 NA
ATOM     58  C   UNL A   1      43.057  31.087  29.351  1.00  0.00     0.031 C 
ATOM     59  C   UNL A   1      39.388  28.710  33.029  1.00  0.00     0.029 A 
ATOM     60  C   UNL A   1      40.557  29.049  32.344  1.00  0.00     0.049 A 
ATOM     61  H   UNL A   1      41.517  27.772  30.967  1.00  0.00     0.167 HD
ATOM     62  C   UNL A   1      42.330  30.584  31.509  1.00  0.00     0.074 A 
ATOM     63  C   UNL A   1      42.474  30.154  30.112  1.00  0.00     0.031 C 
ATOM     64  C   UNL A   1      41.484  30.151  32.492  1.00  0.00     0.031 A 
BRANCH  51  65
ATOM     65  C   UNL A   1      39.847  26.651  28.752  1.00  0.00    -0.014 A 
ATOM     66  C   UNL A   1      39.148  25.688  27.998  1.00  0.00     0.010 A 
ATOM     67  C   UNL A   1      41.254  26.552  28.776  1.00  0.00     0.010 A 
ATOM     68  C   UNL A   1      39.819  24.642  27.357  1.00  0.00     0.020 A 
ATOM     69  C   UNL A   1      41.936  25.535  28.107  1.00  0.00     0.020 A 
ATOM     70  C   UNL A   1      41.210  24.569  27.423  1.00  0.00     0.054 A 
BRANCH  70  71
ATOM     71  S   UNL A   1      42.055  23.175  26.643  1.00  0.00     0.124 S 
ATOM     72  O   UNL A   1      40.958  22.236  26.430  1.00  0.00    -0.237 OA
ATOM     73  O   UNL A   1      42.607  23.789  25.438  1.00  0.00    -0.237 OA
ATOM     74  O   UNL A   1      43.044  22.772  27.640  1.00  0.00    -0.744 OA
ENDBRANCH  70  71
ENDBRANCH  51  65
BRANCH  52  75
ATOM     75  C   UNL A   1      43.679  34.321  28.936  1.00  0.00    -0.014 A 
ATOM     76  C   UNL A   1      44.805  35.001  29.455  1.00  0.00     0.010 A 
ATOM     77  C   UNL A   1      43.638  34.136  27.539  1.00  0.00     0.010 A 
ATOM     78  C   UNL A   1      45.876  35.400  28.624  1.00  0.00     0.020 A 
ATOM     79  C   UNL A   1      44.697  34.529  26.706  1.00  0.00     0.020 A 
ATOM     80  C   UNL A   1      45.828  35.131  27.254  1.00  0.00     0.054 A 
BRANCH  80  81
ATOM     81  S   UNL A   1      47.294  35.434  26.210  1.00  0.00     0.124 S 
ATOM     82  O   UNL A   1      47.184  36.860  25.917  1.00  0.00    -0.237 OA
ATOM     83  O   UNL A   1      48.397  35.053  27.088  1.00  0.00    -0.237 OA
ATOM     84  O   UNL A   1      47.088  34.549  25.065  1.00  0.00    -0.744 OA
ENDBRANCH  80  81
ENDBRANCH  52  75
BRANCH  64  85
ATOM     85  C   UNL A   1      41.358  30.958  33.768  1.00  0.00    -0.014 A 
ATOM     86  C   UNL A   1      40.486  32.052  33.952  1.00  0.00     0.010 A 
ATOM     87  C   UNL A   1      42.039  30.456  34.890  1.00  0.00     0.010 A 
ATOM     88  C   UNL A   1      40.329  32.640  35.222  1.00  0.00     0.020 A 
ATOM     89  C   UNL A   1      41.874  31.022  36.154  1.00  0.00     0.020 A 
ATOM     90  C   UNL A   1      41.032  32.121  36.314  1.00  0.00     0.054 A 
BRANCH  90  91
ATOM     91  S   UNL A   1      40.834  32.865  37.960  1.00  0.00     0.124 S 
ATOM     92  O   UNL A   1      41.524  31.909  38.823  1.00  0.00    -0.237 OA
ATOM     93  O   UNL A   1      41.484  34.164  37.811  1.00  0.00    -0.237 OA
ATOM     94  O   UNL A   1      39.384  32.924  38.142  1.00  0.00    -0.744 OA
ENDBRANCH  90  91
ENDBRANCH  64  85
ENDBRANCH  38  39
ENDBRANCH  30  33
ENDBRANCH  28  29
ENDBRANCH  27  28
ENDBRANCH   1  27
TORSDOF 17
ENDMDL
MODEL 3
REMARK VINA RESULT:     -12.2      2.858      7.495
REMARK SMILES Cc1sc(NC(=O)[C@@H]2[C@@H](C(=O)NCCCCNC(=O)c3ccc(-c4c5nc(c(-c6ccc(S(=O)(=O)[O-])cc6)c6ccc([nH]6)c(-c6ccc(S(=O)(=O)[O-])cc6)c6nc(c(-c7ccc(S(=O)(=O)[O-])cc7)c7ccc4[nH]7)C=C6)C=C5)cc3)[C@@H]3C=C[C@H]2C3)c(C#N)c1C
REMARK SMILES IDX 14 1 13 2 12 3 10 4 11 5 9 7 8 8 83 9 80 10 82 11 84 12
REMARK SMILES IDX 81 13 6 14 5 15 7 17 4 18 1 19 2 20 3 21 88 22 85 23 89 24
REMARK SMILES IDX 86 25 87 26 15 27 16 28 17 29 18 30 19 32 20 33 21 34 79 35
REMARK SMILES IDX 22 36 78 37 23 38 24 39 25 40 72 41 26 42 77 43 71 44 73 45
REMARK SMILES IDX 27 46 76 47 70 48 69 49 28 51 58 52 39 53 57 54 40 55 43 56
REMARK SMILES IDX 56 57 74 58 41 59 42 60 55 62 75 63 44 64 29 65 30 66 38 67
REMARK SMILES IDX 31 68 37 69 32 70 33 71 34 72 35 73 36 74 59 75 60 76 68 77
REMARK SMILES IDX 61 78 67 79 62 80 63 81 64 82 65 83 66 84 45 85 46 86 54 87
REMARK SMILES IDX 47 88 53 89 48 90 49 91 50 92 51 93 52 94
REMARK H PARENT 12 6 5 16 17 31 73 50 43 61
REMARK Flexibility Score: inf
ROOT
ATOM      1  C   UNL A   1      38.477  22.685  26.032  1.00  0.00     0.023 C 
ENDROOT
BRANCH   1   2
ATOM      2  C   UNL A   1      37.029  22.672  25.543  1.00  0.00     0.116 C 
BRANCH   2   3
ATOM      3  N   UNL A   1      36.117  22.095  26.507  1.00  0.00    -0.356 N 
ATOM      4  C   UNL A   1      34.816  21.724  26.363  1.00  0.00     0.224 C 
ATOM      5  O   UNL A   1      34.227  21.410  27.396  1.00  0.00    -0.275 OA
ATOM      6  H   UNL A   1      36.496  21.949  27.403  1.00  0.00     0.163 HD
BRANCH   4   7
ATOM      7  C   UNL A   1      34.121  21.811  25.010  1.00  0.00     0.098 C 
ATOM      8  C   UNL A   1      33.460  23.222  24.770  1.00  0.00     0.099 C 
ATOM      9  C   UNL A   1      32.014  22.849  24.337  1.00  0.00     0.025 C 
ATOM     10  C   UNL A   1      32.886  20.871  24.889  1.00  0.00     0.025 C 
ATOM     11  C   UNL A   1      32.004  21.985  23.096  1.00  0.00    -0.027 C 
ATOM     12  C   UNL A   1      31.729  21.754  25.368  1.00  0.00     0.017 C 
ATOM     13  C   UNL A   1      32.534  20.799  23.425  1.00  0.00    -0.027 C 
BRANCH   8  14
ATOM     14  C   UNL A   1      34.204  24.084  23.759  1.00  0.00     0.229 C 
ATOM     15  N   UNL A   1      34.107  25.441  23.652  1.00  0.00    -0.316 N 
ATOM     16  H   UNL A   1      34.687  25.802  22.944  1.00  0.00     0.170 HD
ATOM     17  O   UNL A   1      35.018  23.568  22.979  1.00  0.00    -0.274 OA
BRANCH  15  18
ATOM     18  C   UNL A   1      33.389  26.432  24.303  1.00  0.00     0.113 A 
ATOM     19  C   UNL A   1      32.748  29.224  26.950  1.00  0.00     0.057 C 
ATOM     20  C   UNL A   1      32.676  28.249  25.821  1.00  0.00     0.008 A 
ATOM     21  S   UNL A   1      33.678  26.877  25.903  1.00  0.00    -0.122 S 
ATOM     22  C   UNL A   1      31.894  28.226  24.678  1.00  0.00    -0.017 A 
ATOM     23  C   UNL A   1      32.312  27.148  23.807  1.00  0.00     0.090 A 
ATOM     24  C   UNL A   1      30.796  29.188  24.355  1.00  0.00     0.047 C 
BRANCH  23  25
ATOM     25  C   UNL A   1      31.716  26.876  22.523  1.00  0.00     0.103 C 
ATOM     26  N   UNL A   1      31.252  26.661  21.493  1.00  0.00    -0.192 NA
ENDBRANCH  23  25
ENDBRANCH  15  18
ENDBRANCH   8  14
ENDBRANCH   4   7
ENDBRANCH   2   3
ENDBRANCH   1   2
BRANCH   1  27
ATOM     27  C   UNL A   1      39.284  21.399  25.820  1.00  0.00     0.023 C 
BRANCH  27  28
ATOM     28  C   UNL A   1      40.618  21.372  26.543  1.00  0.00     0.116 C 
BRANCH  28  29
ATOM     29  N   UNL A   1      41.776  21.588  25.663  1.00  0.00    -0.352 N 
ATOM     30  C   UNL A   1      42.468  22.776  25.442  1.00  0.00     0.251 C 
ATOM     31  H   UNL A   1      42.101  20.798  25.174  1.00  0.00     0.163 HD
ATOM     32  O   UNL A   1      43.165  22.930  24.447  1.00  0.00    -0.269 OA
BRANCH  30  33
ATOM     33  C   UNL A   1      42.383  23.826  26.475  1.00  0.00     0.039 A 
ATOM     34  C   UNL A   1      43.278  23.982  27.540  1.00  0.00     0.014 A 
ATOM     35  C   UNL A   1      41.377  24.750  26.274  1.00  0.00     0.014 A 
ATOM     36  C   UNL A   1      43.104  25.080  28.391  1.00  0.00     0.010 A 
ATOM     37  C   UNL A   1      41.566  25.984  26.796  1.00  0.00     0.010 A 
ATOM     38  C   UNL A   1      42.191  26.072  28.015  1.00  0.00    -0.014 A 
BRANCH  38  39
ATOM     39  C   UNL A   1      41.970  27.336  28.697  1.00  0.00     0.031 A 
ATOM     40  C   UNL A   1      43.013  28.330  28.362  1.00  0.00     0.074 A 
ATOM     41  C   UNL A   1      40.799  27.636  29.317  1.00  0.00     0.049 A 
ATOM     42  N   UNL A   1      44.028  28.637  29.094  1.00  0.00    -0.248 NA
ATOM     43  C   UNL A   1      43.104  28.845  26.981  1.00  0.00     0.031 C 
ATOM     44  C   UNL A   1      39.573  26.835  29.470  1.00  0.00     0.029 A 
ATOM     45  N   UNL A   1      40.426  28.806  29.900  1.00  0.00    -0.354 N 
ATOM     46  C   UNL A   1      44.704  29.623  28.392  1.00  0.00     0.074 A 
ATOM     47  C   UNL A   1      44.262  29.509  27.026  1.00  0.00     0.031 C 
ATOM     48  C   UNL A   1      38.546  27.623  29.880  1.00  0.00     0.029 A 
ATOM     49  C   UNL A   1      39.062  28.948  30.174  1.00  0.00     0.049 A 
ATOM     50  H   UNL A   1      41.077  29.511  30.117  1.00  0.00     0.167 HD
ATOM     51  C   UNL A   1      45.305  30.652  29.051  1.00  0.00     0.031 A 
ATOM     52  C   UNL A   1      38.436  30.084  30.607  1.00  0.00     0.031 A 
ATOM     53  C   UNL A   1      45.355  30.396  30.472  1.00  0.00     0.049 A 
ATOM     54  C   UNL A   1      39.504  30.932  31.211  1.00  0.00     0.074 A 
ATOM     55  C   UNL A   1      45.884  29.388  31.255  1.00  0.00     0.029 A 
ATOM     56  N   UNL A   1      44.382  31.003  31.237  1.00  0.00    -0.354 N 
ATOM     57  N   UNL A   1      40.147  30.573  32.290  1.00  0.00    -0.248 NA
ATOM     58  C   UNL A   1      40.221  31.834  30.319  1.00  0.00     0.031 C 
ATOM     59  C   UNL A   1      44.872  29.114  32.222  1.00  0.00     0.029 A 
ATOM     60  C   UNL A   1      43.845  30.048  32.064  1.00  0.00     0.049 A 
ATOM     61  H   UNL A   1      44.119  31.951  31.197  1.00  0.00     0.167 HD
ATOM     62  C   UNL A   1      41.482  30.829  32.005  1.00  0.00     0.074 A 
ATOM     63  C   UNL A   1      41.461  31.649  30.787  1.00  0.00     0.031 C 
ATOM     64  C   UNL A   1      42.488  30.092  32.566  1.00  0.00     0.031 A 
BRANCH  51  65
ATOM     65  C   UNL A   1      45.418  32.050  28.504  1.00  0.00    -0.014 A 
ATOM     66  C   UNL A   1      46.662  32.702  28.601  1.00  0.00     0.010 A 
ATOM     67  C   UNL A   1      44.301  32.841  28.160  1.00  0.00     0.010 A 
ATOM     68  C   UNL A   1      46.771  34.086  28.429  1.00  0.00     0.020 A 
ATOM     69  C   UNL A   1      44.407  34.217  27.947  1.00  0.00     0.020 A 
ATOM     70  C   UNL A   1      45.639  34.835  28.110  1.00  0.00     0.054 A 
BRANCH  70  71
ATOM     71  S   UNL A   1      45.787  36.629  27.954  1.00  0.00     0.124 S 
ATOM     72  O   UNL A   1      47.234  36.819  28.002  1.00  0.00    -0.237 OA
ATOM     73  O   UNL A   1      45.158  36.876  26.659  1.00  0.00    -0.237 OA
ATOM     74  O   UNL A   1      45.047  37.135  29.108  1.00  0.00    -0.744 OA
ENDBRANCH  70  71
ENDBRANCH  51  65
BRANCH  52  75
ATOM     75  C   UNL A   1      37.122  30.656  30.172  1.00  0.00    -0.014 A 
ATOM     76  C   UNL A   1      36.375  31.526  30.999  1.00  0.00     0.010 A 
ATOM     77  C   UNL A   1      36.750  30.597  28.813  1.00  0.00     0.010 A 
ATOM     78  C   UNL A   1      35.361  32.359  30.472  1.00  0.00     0.020 A 
ATOM     79  C   UNL A   1      35.746  31.422  28.281  1.00  0.00     0.020 A 
ATOM     80  C   UNL A   1      35.075  32.323  29.105  1.00  0.00     0.054 A 
BRANCH  80  81
ATOM     81  S   UNL A   1      33.936  33.549  28.377  1.00  0.00     0.124 S 
ATOM     82  O   UNL A   1      34.825  34.350  27.542  1.00  0.00    -0.237 OA
ATOM     83  O   UNL A   1      32.979  32.711  27.660  1.00  0.00    -0.237 OA
ATOM     84  O   UNL A   1      33.390  34.243  29.543  1.00  0.00    -0.744 OA
ENDBRANCH  80  81
ENDBRANCH  52  75
BRANCH  64  85
ATOM     85  C   UNL A   1      42.159  29.118  33.679  1.00  0.00    -0.014 A 
ATOM     86  C   UNL A   1      41.586  27.842  33.495  1.00  0.00     0.010 A 
ATOM     87  C   UNL A   1      42.627  29.456  34.959  1.00  0.00     0.010 A 
ATOM     88  C   UNL A   1      41.460  26.948  34.576  1.00  0.00     0.020 A 
ATOM     89  C   UNL A   1      42.523  28.570  36.030  1.00  0.00     0.020 A 
ATOM     90  C   UNL A   1      41.927  27.324  35.840  1.00  0.00     0.054 A 
BRANCH  90  91
ATOM     91  S   UNL A   1      41.779  26.178  37.242  1.00  0.00     0.124 S 
ATOM     92  O   UNL A   1      41.910  24.873  36.598  1.00  0.00    -0.237 OA
ATOM     93  O   UNL A   1      42.892  26.570  38.103  1.00  0.00    -0.237 OA
ATOM     94  O   UNL A   1      40.453  26.465  37.787  1.00  0.00    -0.744 OA
ENDBRANCH  90  91
ENDBRANCH  64  85
ENDBRANCH  38  39
ENDBRANCH  30  33
ENDBRANCH  28  29
ENDBRANCH  27  28
ENDBRANCH   1  27
TORSDOF 17
ENDMDL
