MODEL 1
REMARK VINA RESULT:     -10.5      0.000      0.000
REMARK SMILES C[C@H]1C[NH2+]C[C@@H](CC(=O)NCCCCNC(=O)c2ccc(-c3c4nc(c(-c5ccc(S(=O)(=O)[O-])cc5)c5ccc([nH]5)c(-c5ccc(S(=O)(=O)[O-])cc5)c5nc(c(-c6ccc(S(=O)(=O)[O-])cc6)c6ccc3[nH]6)C=C5)C=C4)cc2)C1
REMARK SMILES IDX 13 1 12 2 11 3 10 4 8 5 9 6 7 8 6 9 1 10 2 11 3 12 78 13
REMARK SMILES IDX 4 14 5 15 14 18 15 19 16 20 17 22 18 23 19 24 77 25 20 26
REMARK SMILES IDX 76 27 21 28 22 29 23 30 70 31 24 32 75 33 69 34 71 35 25 36
REMARK SMILES IDX 74 37 68 38 67 39 26 41 56 42 37 43 55 44 38 45 41 46 54 47
REMARK SMILES IDX 72 48 39 49 40 50 53 52 73 53 42 54 27 55 28 56 36 57 29 58
REMARK SMILES IDX 35 59 30 60 31 61 32 62 33 63 34 64 57 65 58 66 66 67 59 68
REMARK SMILES IDX 65 69 60 70 61 71 62 72 63 73 64 74 43 75 44 76 52 77 45 78
REMARK SMILES IDX 51 79 46 80 47 81 48 82 49 83 50 84
REMARK H PARENT 10 7 4 16 4 17 15 21 71 40 41 51
REMARK Flexibility Score: inf
ROOT
ATOM      1  C   UNL A   1      33.773  28.275  25.846  1.00  0.00     0.023 C 
ENDROOT
BRANCH   1   2
ATOM      2  C   UNL A   1      33.889  26.802  25.496  1.00  0.00     0.023 C 
BRANCH   2   3
ATOM      3  C   UNL A   1      33.836  26.477  23.999  1.00  0.00     0.116 C 
BRANCH   3   4
ATOM      4  N   UNL A   1      32.817  25.479  23.714  1.00  0.00    -0.356 N 
ATOM      5  C   UNL A   1      31.460  25.538  23.835  1.00  0.00     0.220 C 
ATOM      6  O   UNL A   1      30.808  24.512  23.625  1.00  0.00    -0.275 OA
ATOM      7  H   UNL A   1      33.164  24.622  23.379  1.00  0.00     0.163 HD
BRANCH   5   8
ATOM      8  C   UNL A   1      30.758  26.834  24.206  1.00  0.00     0.109 C 
BRANCH   8   9
ATOM      9  C   UNL A   1      30.330  27.687  22.993  1.00  0.00     0.054 C 
ATOM     10  C   UNL A   1      27.317  30.149  22.860  1.00  0.00     0.013 C 
ATOM     11  C   UNL A   1      28.564  29.453  22.303  1.00  0.00     0.041 C 
ATOM     12  C   UNL A   1      29.723  30.436  22.153  1.00  0.00     0.263 C 
ATOM     13  C   UNL A   1      28.949  28.298  23.224  1.00  0.00     0.019 C 
ATOM     14  N   UNL A   1      30.938  29.744  21.715  1.00  0.00    -0.346 N 
ATOM     15  C   UNL A   1      31.373  28.782  22.732  1.00  0.00     0.264 C 
ATOM     16  H   UNL A   1      31.678  30.429  21.562  1.00  0.00     0.346 HD
ATOM     17  H   UNL A   1      30.738  29.243  20.850  1.00  0.00     0.346 HD
ENDBRANCH   8   9
ENDBRANCH   5   8
ENDBRANCH   3   4
ENDBRANCH   2   3
ENDBRANCH   1   2
BRANCH   1  18
ATOM     18  C   UNL A   1      33.472  28.540  27.308  1.00  0.00     0.116 C 
BRANCH  18  19
ATOM     19  N   UNL A   1      33.489  29.954  27.662  1.00  0.00    -0.352 N 
ATOM     20  C   UNL A   1      34.541  30.698  28.154  1.00  0.00     0.251 C 
ATOM     21  H   UNL A   1      32.643  30.440  27.532  1.00  0.00     0.163 HD
ATOM     22  O   UNL A   1      34.383  31.863  28.490  1.00  0.00    -0.269 OA
BRANCH  20  23
ATOM     23  C   UNL A   1      35.850  30.034  28.314  1.00  0.00     0.039 A 
ATOM     24  C   UNL A   1      36.769  30.069  27.264  1.00  0.00     0.014 A 
ATOM     25  C   UNL A   1      36.203  29.494  29.552  1.00  0.00     0.014 A 
ATOM     26  C   UNL A   1      38.080  29.644  27.488  1.00  0.00     0.010 A 
ATOM     27  C   UNL A   1      37.529  29.181  29.802  1.00  0.00     0.010 A 
ATOM     28  C   UNL A   1      38.482  29.245  28.772  1.00  0.00    -0.014 A 
BRANCH  28  29
ATOM     29  C   UNL A   1      39.878  28.843  29.081  1.00  0.00     0.031 A 
ATOM     30  C   UNL A   1      40.809  29.861  29.686  1.00  0.00     0.074 A 
ATOM     31  C   UNL A   1      40.338  27.628  28.723  1.00  0.00     0.049 A 
ATOM     32  N   UNL A   1      42.103  29.802  29.853  1.00  0.00    -0.248 NA
ATOM     33  C   UNL A   1      40.205  31.138  30.106  1.00  0.00     0.031 C 
ATOM     34  C   UNL A   1      39.551  26.568  28.087  1.00  0.00     0.029 A 
ATOM     35  N   UNL A   1      41.593  27.084  28.833  1.00  0.00    -0.354 N 
ATOM     36  C   UNL A   1      42.472  31.048  30.345  1.00  0.00     0.074 A 
ATOM     37  C   UNL A   1      41.276  31.858  30.400  1.00  0.00     0.031 C 
ATOM     38  C   UNL A   1      40.335  25.495  27.888  1.00  0.00     0.029 A 
ATOM     39  C   UNL A   1      41.688  25.804  28.341  1.00  0.00     0.049 A 
ATOM     40  H   UNL A   1      42.356  27.568  29.226  1.00  0.00     0.167 HD
ATOM     41  C   UNL A   1      43.695  31.476  30.738  1.00  0.00     0.031 A 
ATOM     42  C   UNL A   1      42.747  24.975  28.260  1.00  0.00     0.031 A 
ATOM     43  C   UNL A   1      44.867  30.647  30.741  1.00  0.00     0.049 A 
ATOM     44  C   UNL A   1      44.083  25.448  28.765  1.00  0.00     0.074 A 
ATOM     45  C   UNL A   1      46.141  30.958  31.181  1.00  0.00     0.029 A 
ATOM     46  N   UNL A   1      44.901  29.332  30.303  1.00  0.00    -0.354 N 
ATOM     47  N   UNL A   1      44.409  26.620  29.256  1.00  0.00    -0.248 NA
ATOM     48  C   UNL A   1      45.193  24.485  28.713  1.00  0.00     0.031 C 
ATOM     49  C   UNL A   1      46.951  29.834  30.991  1.00  0.00     0.029 A 
ATOM     50  C   UNL A   1      46.172  28.813  30.469  1.00  0.00     0.049 A 
ATOM     51  H   UNL A   1      44.134  28.841  29.931  1.00  0.00     0.167 HD
ATOM     52  C   UNL A   1      45.752  26.524  29.603  1.00  0.00     0.074 A 
ATOM     53  C   UNL A   1      46.177  25.180  29.270  1.00  0.00     0.031 C 
ATOM     54  C   UNL A   1      46.562  27.464  30.149  1.00  0.00     0.031 A 
BRANCH  41  55
ATOM     55  C   UNL A   1      43.809  32.902  31.206  1.00  0.00    -0.014 A 
ATOM     56  C   UNL A   1      44.027  33.950  30.292  1.00  0.00     0.010 A 
ATOM     57  C   UNL A   1      43.699  33.199  32.575  1.00  0.00     0.010 A 
ATOM     58  C   UNL A   1      44.193  35.261  30.745  1.00  0.00     0.020 A 
ATOM     59  C   UNL A   1      43.833  34.514  33.030  1.00  0.00     0.020 A 
ATOM     60  C   UNL A   1      44.104  35.532  32.112  1.00  0.00     0.054 A 
BRANCH  60  61
ATOM     61  S   UNL A   1      44.321  37.242  32.677  1.00  0.00     0.124 S 
ATOM     62  O   UNL A   1      44.339  37.975  31.413  1.00  0.00    -0.237 OA
ATOM     63  O   UNL A   1      43.141  37.460  33.511  1.00  0.00    -0.237 OA
ATOM     64  O   UNL A   1      45.592  37.209  33.397  1.00  0.00    -0.744 OA
ENDBRANCH  60  61
ENDBRANCH  41  55
BRANCH  42  65
ATOM     65  C   UNL A   1      42.581  23.602  27.712  1.00  0.00    -0.014 A 
ATOM     66  C   UNL A   1      42.871  23.341  26.360  1.00  0.00     0.010 A 
ATOM     67  C   UNL A   1      42.151  22.546  28.535  1.00  0.00     0.010 A 
ATOM     68  C   UNL A   1      42.714  22.054  25.836  1.00  0.00     0.020 A 
ATOM     69  C   UNL A   1      42.015  21.253  28.020  1.00  0.00     0.020 A 
ATOM     70  C   UNL A   1      42.286  21.017  26.670  1.00  0.00     0.054 A 
BRANCH  70  71
ATOM     71  S   UNL A   1      42.141  19.344  25.983  1.00  0.00     0.124 S 
ATOM     72  O   UNL A   1      40.703  19.236  25.751  1.00  0.00    -0.237 OA
ATOM     73  O   UNL A   1      42.971  19.420  24.784  1.00  0.00    -0.237 OA
ATOM     74  O   UNL A   1      42.672  18.493  27.045  1.00  0.00    -0.744 OA
ENDBRANCH  70  71
ENDBRANCH  42  65
BRANCH  54  75
ATOM     75  C   UNL A   1      47.972  27.062  30.474  1.00  0.00    -0.014 A 
ATOM     76  C   UNL A   1      49.001  27.190  29.527  1.00  0.00     0.010 A 
ATOM     77  C   UNL A   1      48.281  26.630  31.777  1.00  0.00     0.010 A 
ATOM     78  C   UNL A   1      50.317  26.875  29.873  1.00  0.00     0.020 A 
ATOM     79  C   UNL A   1      49.598  26.334  32.132  1.00  0.00     0.020 A 
ATOM     80  C   UNL A   1      50.608  26.450  31.173  1.00  0.00     0.054 A 
BRANCH  80  81
ATOM     81  S   UNL A   1      52.333  26.112  31.620  1.00  0.00     0.124 S 
ATOM     82  O   UNL A   1      53.026  26.357  30.359  1.00  0.00    -0.237 OA
ATOM     83  O   UNL A   1      52.589  27.088  32.678  1.00  0.00    -0.237 OA
ATOM     84  O   UNL A   1      52.310  24.719  32.060  1.00  0.00    -0.744 OA
ENDBRANCH  80  81
ENDBRANCH  54  75
ENDBRANCH  28  29
ENDBRANCH  20  23
ENDBRANCH  18  19
ENDBRANCH   1  18
TORSDOF 15
ENDMDL
MODEL 2
REMARK VINA RESULT:     -10.4      3.137      6.136
REMARK SMILES C[C@H]1C[NH2+]C[C@@H](CC(=O)NCCCCNC(=O)c2ccc(-c3c4nc(c(-c5ccc(S(=O)(=O)[O-])cc5)c5ccc([nH]5)c(-c5ccc(S(=O)(=O)[O-])cc5)c5nc(c(-c6ccc(S(=O)(=O)[O-])cc6)c6ccc3[nH]6)C=C5)C=C4)cc2)C1
REMARK SMILES IDX 13 1 12 2 11 3 10 4 8 5 9 6 7 8 6 9 1 10 2 11 3 12 78 13
REMARK SMILES IDX 4 14 5 15 14 18 15 19 16 20 17 22 18 23 19 24 77 25 20 26
REMARK SMILES IDX 76 27 21 28 22 29 23 30 70 31 24 32 75 33 69 34 71 35 25 36
REMARK SMILES IDX 74 37 68 38 67 39 26 41 56 42 37 43 55 44 38 45 41 46 54 47
REMARK SMILES IDX 72 48 39 49 40 50 53 52 73 53 42 54 27 55 28 56 36 57 29 58
REMARK SMILES IDX 35 59 30 60 31 61 32 62 33 63 34 64 57 65 58 66 66 67 59 68
REMARK SMILES IDX 65 69 60 70 61 71 62 72 63 73 64 74 43 75 44 76 52 77 45 78
REMARK SMILES IDX 51 79 46 80 47 81 48 82 49 83 50 84
REMARK H PARENT 10 7 4 16 4 17 15 21 71 40 41 51
REMARK Flexibility Score: inf
ROOT
ATOM      1  C   UNL A   1      35.942  33.609  29.591  1.00  0.00     0.023 C 
ENDROOT
BRANCH   1   2
ATOM      2  C   UNL A   1      37.450  33.435  29.628  1.00  0.00     0.023 C 
BRANCH   2   3
ATOM      3  C   UNL A   1      38.185  34.296  30.661  1.00  0.00     0.116 C 
BRANCH   3   4
ATOM      4  N   UNL A   1      37.288  34.720  31.725  1.00  0.00    -0.356 N 
ATOM      5  C   UNL A   1      37.395  34.596  33.078  1.00  0.00     0.220 C 
ATOM      6  O   UNL A   1      36.442  34.948  33.777  1.00  0.00    -0.275 OA
ATOM      7  H   UNL A   1      36.469  35.169  31.416  1.00  0.00     0.163 HD
BRANCH   5   8
ATOM      8  C   UNL A   1      38.660  34.051  33.720  1.00  0.00     0.109 C 
BRANCH   8   9
ATOM      9  C   UNL A   1      38.771  32.512  33.685  1.00  0.00     0.054 C 
ATOM     10  C   UNL A   1      41.949  30.414  34.501  1.00  0.00     0.013 C 
ATOM     11  C   UNL A   1      40.472  30.610  34.138  1.00  0.00     0.041 C 
ATOM     12  C   UNL A   1      39.560  30.177  35.284  1.00  0.00     0.263 C 
ATOM     13  C   UNL A   1      40.233  32.074  33.779  1.00  0.00     0.019 C 
ATOM     14  N   UNL A   1      38.158  30.460  34.967  1.00  0.00    -0.346 N 
ATOM     15  C   UNL A   1      37.946  31.903  34.826  1.00  0.00     0.264 C 
ATOM     16  H   UNL A   1      37.566  30.104  35.718  1.00  0.00     0.346 HD
ATOM     17  H   UNL A   1      37.920  30.003  34.086  1.00  0.00     0.346 HD
ENDBRANCH   8   9
ENDBRANCH   5   8
ENDBRANCH   3   4
ENDBRANCH   2   3
ENDBRANCH   1   2
BRANCH   1  18
ATOM     18  C   UNL A   1      35.169  32.406  30.092  1.00  0.00     0.116 C 
BRANCH  18  19
ATOM     19  N   UNL A   1      34.313  31.797  29.080  1.00  0.00    -0.352 N 
ATOM     20  C   UNL A   1      34.598  30.735  28.249  1.00  0.00     0.251 C 
ATOM     21  H   UNL A   1      33.418  32.195  28.978  1.00  0.00     0.163 HD
ATOM     22  O   UNL A   1      33.808  30.386  27.383  1.00  0.00    -0.269 OA
BRANCH  20  23
ATOM     23  C   UNL A   1      35.904  30.062  28.399  1.00  0.00     0.039 A 
ATOM     24  C   UNL A   1      36.830  30.124  27.357  1.00  0.00     0.014 A 
ATOM     25  C   UNL A   1      36.246  29.486  29.623  1.00  0.00     0.014 A 
ATOM     26  C   UNL A   1      38.138  29.689  27.578  1.00  0.00     0.010 A 
ATOM     27  C   UNL A   1      37.570  29.162  29.874  1.00  0.00     0.010 A 
ATOM     28  C   UNL A   1      38.530  29.252  28.853  1.00  0.00    -0.014 A 
BRANCH  28  29
ATOM     29  C   UNL A   1      39.922  28.838  29.160  1.00  0.00     0.031 A 
ATOM     30  C   UNL A   1      40.860  29.842  29.776  1.00  0.00     0.074 A 
ATOM     31  C   UNL A   1      40.374  27.622  28.791  1.00  0.00     0.049 A 
ATOM     32  N   UNL A   1      42.153  29.772  29.945  1.00  0.00    -0.248 NA
ATOM     33  C   UNL A   1      40.265  31.120  30.208  1.00  0.00     0.031 C 
ATOM     34  C   UNL A   1      39.581  26.574  28.144  1.00  0.00     0.029 A 
ATOM     35  N   UNL A   1      41.625  27.069  28.898  1.00  0.00    -0.354 N 
ATOM     36  C   UNL A   1      42.531  31.011  30.449  1.00  0.00     0.074 A 
ATOM     37  C   UNL A   1      41.340  31.829  30.510  1.00  0.00     0.031 C 
ATOM     38  C   UNL A   1      40.358  25.498  27.936  1.00  0.00     0.029 A 
ATOM     39  C   UNL A   1      41.712  25.793  28.394  1.00  0.00     0.049 A 
ATOM     40  H   UNL A   1      42.391  27.543  29.297  1.00  0.00     0.167 HD
ATOM     41  C   UNL A   1      43.756  31.427  30.849  1.00  0.00     0.031 A 
ATOM     42  C   UNL A   1      42.765  24.957  28.306  1.00  0.00     0.031 A 
ATOM     43  C   UNL A   1      44.921  30.589  30.846  1.00  0.00     0.049 A 
ATOM     44  C   UNL A   1      44.104  25.416  28.818  1.00  0.00     0.074 A 
ATOM     45  C   UNL A   1      46.197  30.886  31.291  1.00  0.00     0.029 A 
ATOM     46  N   UNL A   1      44.947  29.278  30.395  1.00  0.00    -0.354 N 
ATOM     47  N   UNL A   1      44.437  26.580  29.321  1.00  0.00    -0.248 NA
ATOM     48  C   UNL A   1      45.207  24.445  28.758  1.00  0.00     0.031 C 
ATOM     49  C   UNL A   1      46.999  29.758  31.091  1.00  0.00     0.029 A 
ATOM     50  C   UNL A   1      46.213  28.749  30.558  1.00  0.00     0.049 A 
ATOM     51  H   UNL A   1      44.177  28.796  30.016  1.00  0.00     0.167 HD
ATOM     52  C   UNL A   1      45.779  26.471  29.669  1.00  0.00     0.074 A 
ATOM     53  C   UNL A   1      46.194  25.127  29.324  1.00  0.00     0.031 C 
ATOM     54  C   UNL A   1      46.595  27.400  30.226  1.00  0.00     0.031 A 
BRANCH  41  55
ATOM     55  C   UNL A   1      43.879  32.847  31.330  1.00  0.00    -0.014 A 
ATOM     56  C   UNL A   1      43.826  33.155  32.702  1.00  0.00     0.010 A 
ATOM     57  C   UNL A   1      44.045  33.888  30.400  1.00  0.00     0.010 A 
ATOM     58  C   UNL A   1      43.879  34.483  33.132  1.00  0.00     0.020 A 
ATOM     59  C   UNL A   1      44.130  35.216  30.829  1.00  0.00     0.020 A 
ATOM     60  C   UNL A   1      44.021  35.505  32.192  1.00  0.00     0.054 A 
BRANCH  60  61
ATOM     61  S   UNL A   1      44.088  37.222  32.774  1.00  0.00     0.124 S 
ATOM     62  O   UNL A   1      42.897  37.299  33.615  1.00  0.00    -0.237 OA
ATOM     63  O   UNL A   1      45.363  37.272  33.486  1.00  0.00    -0.237 OA
ATOM     64  O   UNL A   1      44.034  38.006  31.543  1.00  0.00    -0.744 OA
ENDBRANCH  60  61
ENDBRANCH  41  55
BRANCH  42  65
ATOM     65  C   UNL A   1      42.590  23.590  27.745  1.00  0.00    -0.014 A 
ATOM     66  C   UNL A   1      42.917  23.332  26.402  1.00  0.00     0.010 A 
ATOM     67  C   UNL A   1      42.113  22.538  28.547  1.00  0.00     0.010 A 
ATOM     68  C   UNL A   1      42.752  22.051  25.865  1.00  0.00     0.020 A 
ATOM     69  C   UNL A   1      41.969  21.251  28.020  1.00  0.00     0.020 A 
ATOM     70  C   UNL A   1      42.279  21.018  26.678  1.00  0.00     0.054 A 
BRANCH  70  71
ATOM     71  S   UNL A   1      42.123  19.352  25.976  1.00  0.00     0.124 S 
ATOM     72  O   UNL A   1      40.684  19.251  25.750  1.00  0.00    -0.237 OA
ATOM     73  O   UNL A   1      42.948  19.435  24.774  1.00  0.00    -0.237 OA
ATOM     74  O   UNL A   1      42.655  18.488  27.028  1.00  0.00    -0.744 OA
ENDBRANCH  70  71
ENDBRANCH  42  65
BRANCH  54  75
ATOM     75  C   UNL A   1      48.002  26.985  30.549  1.00  0.00    -0.014 A 
ATOM     76  C   UNL A   1      49.054  27.217  29.648  1.00  0.00     0.010 A 
ATOM     77  C   UNL A   1      48.282  26.429  31.811  1.00  0.00     0.010 A 
ATOM     78  C   UNL A   1      50.364  26.885  29.998  1.00  0.00     0.020 A 
ATOM     79  C   UNL A   1      49.593  26.116  32.172  1.00  0.00     0.020 A 
ATOM     80  C   UNL A   1      50.626  26.338  31.258  1.00  0.00     0.054 A 
BRANCH  80  81
ATOM     81  S   UNL A   1      52.344  25.978  31.718  1.00  0.00     0.124 S 
ATOM     82  O   UNL A   1      53.025  26.059  30.430  1.00  0.00    -0.237 OA
ATOM     83  O   UNL A   1      52.656  27.049  32.663  1.00  0.00    -0.237 OA
ATOM     84  O   UNL A   1      52.272  24.641  32.304  1.00  0.00    -0.744 OA
ENDBRANCH  80  81
ENDBRANCH  54  75
ENDBRANCH  28  29
ENDBRANCH  20  23
ENDBRANCH  18  19
ENDBRANCH   1  18
TORSDOF 15
ENDMDL
MODEL 3
REMARK VINA RESULT:     -10.3      2.840      5.492
REMARK SMILES C[C@H]1C[NH2+]C[C@@H](CC(=O)NCCCCNC(=O)c2ccc(-c3c4nc(c(-c5ccc(S(=O)(=O)[O-])cc5)c5ccc([nH]5)c(-c5ccc(S(=O)(=O)[O-])cc5)c5nc(c(-c6ccc(S(=O)(=O)[O-])cc6)c6ccc3[nH]6)C=C5)C=C4)cc2)C1
REMARK SMILES IDX 13 1 12 2 11 3 10 4 8 5 9 6 7 8 6 9 1 10 2 11 3 12 78 13
REMARK SMILES IDX 4 14 5 15 14 18 15 19 16 20 17 22 18 23 19 24 77 25 20 26
REMARK SMILES IDX 76 27 21 28 22 29 23 30 70 31 24 32 75 33 69 34 71 35 25 36
REMARK SMILES IDX 74 37 68 38 67 39 26 41 56 42 37 43 55 44 38 45 41 46 54 47
REMARK SMILES IDX 72 48 39 49 40 50 53 52 73 53 42 54 27 55 28 56 36 57 29 58
REMARK SMILES IDX 35 59 30 60 31 61 32 62 33 63 34 64 57 65 58 66 66 67 59 68
REMARK SMILES IDX 65 69 60 70 61 71 62 72 63 73 64 74 43 75 44 76 52 77 45 78
REMARK SMILES IDX 51 79 46 80 47 81 48 82 49 83 50 84
REMARK H PARENT 10 7 4 16 4 17 15 21 71 40 41 51
REMARK Flexibility Score: inf
ROOT
ATOM      1  C   UNL A   1      33.408  33.825  28.084  1.00  0.00     0.023 C 
ENDROOT
BRANCH   1   2
ATOM      2  C   UNL A   1      33.971  35.127  28.625  1.00  0.00     0.023 C 
BRANCH   2   3
ATOM      3  C   UNL A   1      32.929  36.148  29.093  1.00  0.00     0.116 C 
BRANCH   3   4
ATOM      4  N   UNL A   1      33.466  37.004  30.140  1.00  0.00    -0.356 N 
ATOM      5  C   UNL A   1      33.392  36.897  31.497  1.00  0.00     0.220 C 
ATOM      6  O   UNL A   1      33.846  37.816  32.184  1.00  0.00    -0.275 OA
ATOM      7  H   UNL A   1      33.964  37.788  29.815  1.00  0.00     0.163 HD
BRANCH   5   8
ATOM      8  C   UNL A   1      32.779  35.674  32.159  1.00  0.00     0.109 C 
BRANCH   8   9
ATOM      9  C   UNL A   1      33.813  34.696  32.755  1.00  0.00     0.054 C 
ATOM     10  C   UNL A   1      36.854  33.141  30.885  1.00  0.00     0.013 C 
ATOM     11  C   UNL A   1      35.967  33.410  32.106  1.00  0.00     0.041 C 
ATOM     12  C   UNL A   1      36.695  34.270  33.137  1.00  0.00     0.263 C 
ATOM     13  C   UNL A   1      34.676  34.085  31.651  1.00  0.00     0.019 C 
ATOM     14  N   UNL A   1      35.807  34.604  34.254  1.00  0.00    -0.346 N 
ATOM     15  C   UNL A   1      34.684  35.423  33.788  1.00  0.00     0.264 C 
ATOM     16  H   UNL A   1      36.333  35.124  34.957  1.00  0.00     0.346 HD
ATOM     17  H   UNL A   1      35.443  33.740  34.656  1.00  0.00     0.346 HD
ENDBRANCH   8   9
ENDBRANCH   5   8
ENDBRANCH   3   4
ENDBRANCH   2   3
ENDBRANCH   1   2
BRANCH   1  18
ATOM     18  C   UNL A   1      34.380  32.663  28.137  1.00  0.00     0.116 C 
BRANCH  18  19
ATOM     19  N   UNL A   1      33.788  31.387  27.751  1.00  0.00    -0.352 N 
ATOM     20  C   UNL A   1      34.381  30.142  27.733  1.00  0.00     0.251 C 
ATOM     21  H   UNL A   1      32.845  31.418  27.469  1.00  0.00     0.163 HD
ATOM     22  O   UNL A   1      33.782  29.167  27.301  1.00  0.00    -0.269 OA
BRANCH  20  23
ATOM     23  C   UNL A   1      35.776  30.027  28.203  1.00  0.00     0.039 A 
ATOM     24  C   UNL A   1      36.026  29.678  29.531  1.00  0.00     0.014 A 
ATOM     25  C   UNL A   1      36.823  30.141  27.287  1.00  0.00     0.014 A 
ATOM     26  C   UNL A   1      37.327  29.350  29.919  1.00  0.00     0.010 A 
ATOM     27  C   UNL A   1      38.089  29.706  27.646  1.00  0.00     0.010 A 
ATOM     28  C   UNL A   1      38.358  29.313  28.968  1.00  0.00    -0.014 A 
BRANCH  28  29
ATOM     29  C   UNL A   1      39.745  28.911  29.312  1.00  0.00     0.031 A 
ATOM     30  C   UNL A   1      40.647  29.913  29.983  1.00  0.00     0.074 A 
ATOM     31  C   UNL A   1      40.226  27.710  28.930  1.00  0.00     0.049 A 
ATOM     32  N   UNL A   1      41.935  29.856  30.194  1.00  0.00    -0.248 NA
ATOM     33  C   UNL A   1      40.020  31.171  30.425  1.00  0.00     0.031 C 
ATOM     34  C   UNL A   1      39.470  26.668  28.231  1.00  0.00     0.029 A 
ATOM     35  N   UNL A   1      41.481  27.171  29.065  1.00  0.00    -0.354 N 
ATOM     36  C   UNL A   1      42.278  31.087  30.740  1.00  0.00     0.074 A 
ATOM     37  C   UNL A   1      41.074  31.887  30.780  1.00  0.00     0.031 C 
ATOM     38  C   UNL A   1      40.268  25.607  28.024  1.00  0.00     0.029 A 
ATOM     39  C   UNL A   1      41.602  25.909  28.535  1.00  0.00     0.049 A 
ATOM     40  H   UNL A   1      42.226  27.646  29.501  1.00  0.00     0.167 HD
ATOM     41  C   UNL A   1      43.483  31.509  31.190  1.00  0.00     0.031 A 
ATOM     42  C   UNL A   1      42.669  25.090  28.463  1.00  0.00     0.031 A 
ATOM     43  C   UNL A   1      44.660  30.688  31.207  1.00  0.00     0.049 A 
ATOM     44  C   UNL A   1      43.984  25.554  29.030  1.00  0.00     0.074 A 
ATOM     45  C   UNL A   1      45.915  30.991  31.701  1.00  0.00     0.029 A 
ATOM     46  N   UNL A   1      44.719  29.388  30.726  1.00  0.00    -0.354 N 
ATOM     47  N   UNL A   1      44.283  26.710  29.571  1.00  0.00    -0.248 NA
ATOM     48  C   UNL A   1      45.102  24.600  28.985  1.00  0.00     0.031 C 
ATOM     49  C   UNL A   1      46.740  29.879  31.502  1.00  0.00     0.029 A 
ATOM     50  C   UNL A   1      45.986  28.872  30.919  1.00  0.00     0.049 A 
ATOM     51  H   UNL A   1      43.968  28.906  30.310  1.00  0.00     0.167 HD
ATOM     52  C   UNL A   1      45.614  26.611  29.962  1.00  0.00     0.074 A 
ATOM     53  C   UNL A   1      46.060  25.282  29.599  1.00  0.00     0.031 C 
ATOM     54  C   UNL A   1      46.398  27.537  30.568  1.00  0.00     0.031 A 
BRANCH  41  55
ATOM     55  C   UNL A   1      43.569  32.919  31.709  1.00  0.00    -0.014 A 
ATOM     56  C   UNL A   1      43.315  33.211  33.062  1.00  0.00     0.010 A 
ATOM     57  C   UNL A   1      43.906  33.966  30.834  1.00  0.00     0.010 A 
ATOM     58  C   UNL A   1      43.337  34.531  33.517  1.00  0.00     0.020 A 
ATOM     59  C   UNL A   1      43.960  35.286  31.292  1.00  0.00     0.020 A 
ATOM     60  C   UNL A   1      43.651  35.561  32.627  1.00  0.00     0.054 A 
BRANCH  60  61
ATOM     61  S   UNL A   1      43.675  37.267  33.242  1.00  0.00     0.124 S 
ATOM     62  O   UNL A   1      43.542  38.032  32.005  1.00  0.00    -0.237 OA
ATOM     63  O   UNL A   1      42.515  37.306  34.131  1.00  0.00    -0.237 OA
ATOM     64  O   UNL A   1      44.970  37.376  33.908  1.00  0.00    -0.744 OA
ENDBRANCH  60  61
ENDBRANCH  41  55
BRANCH  42  65
ATOM     65  C   UNL A   1      42.533  23.735  27.864  1.00  0.00    -0.014 A 
ATOM     66  C   UNL A   1      42.261  22.625  28.684  1.00  0.00     0.010 A 
ATOM     67  C   UNL A   1      42.656  23.546  26.476  1.00  0.00     0.010 A 
ATOM     68  C   UNL A   1      42.135  21.347  28.130  1.00  0.00     0.020 A 
ATOM     69  C   UNL A   1      42.508  22.273  25.915  1.00  0.00     0.020 A 
ATOM     70  C   UNL A   1      42.259  21.179  26.748  1.00  0.00     0.054 A 
BRANCH  70  71
ATOM     71  S   UNL A   1      42.039  19.521  26.044  1.00  0.00     0.124 S 
ATOM     72  O   UNL A   1      40.612  19.510  25.735  1.00  0.00    -0.237 OA
ATOM     73  O   UNL A   1      42.936  19.544  24.891  1.00  0.00    -0.237 OA
ATOM     74  O   UNL A   1      42.455  18.633  27.127  1.00  0.00    -0.744 OA
ENDBRANCH  70  71
ENDBRANCH  42  65
BRANCH  54  75
ATOM     75  C   UNL A   1      47.799  27.133  30.929  1.00  0.00    -0.014 A 
ATOM     76  C   UNL A   1      48.076  26.466  32.133  1.00  0.00     0.010 A 
ATOM     77  C   UNL A   1      48.837  27.355  30.006  1.00  0.00     0.010 A 
ATOM     78  C   UNL A   1      49.376  26.040  32.416  1.00  0.00     0.020 A 
ATOM     79  C   UNL A   1      50.133  26.912  30.277  1.00  0.00     0.020 A 
ATOM     80  C   UNL A   1      50.395  26.264  31.486  1.00  0.00     0.054 A 
BRANCH  80  81
ATOM     81  S   UNL A   1      52.061  25.641  31.844  1.00  0.00     0.124 S 
ATOM     82  O   UNL A   1      52.433  26.428  33.016  1.00  0.00    -0.237 OA
ATOM     83  O   UNL A   1      51.829  24.219  32.088  1.00  0.00    -0.237 OA
ATOM     84  O   UNL A   1      52.812  25.942  30.627  1.00  0.00    -0.744 OA
ENDBRANCH  80  81
ENDBRANCH  54  75
ENDBRANCH  28  29
ENDBRANCH  20  23
ENDBRANCH  18  19
ENDBRANCH   1  18
TORSDOF 15
ENDMDL
