MODEL 1
REMARK VINA RESULT:     -10.3      0.000      0.000
REMARK SMILES CSCC[C@@H](NS(=O)(=O)c1ccc(F)c(C)c1)C(=O)NCCCCNC(=O)c1ccc(-c2c3nc(c(-c4ccc(S(=O)(=O)[O-])cc4)c4ccc([nH]4)c(-c4ccc(S(=O)(=O)[O-])cc4)c4nc(c(-c5ccc(S(=O)(=O)[O-])cc5)c5ccc2[nH]5)C=C4)C=C3)cc1
REMARK SMILES IDX 22 1 21 2 20 3 18 4 19 5 5 7 4 8 3 9 2 10 1 11 6 12 7 14
REMARK SMILES IDX 8 15 9 16 10 17 11 18 17 19 12 20 15 21 13 22 16 23 14 24
REMARK SMILES IDX 23 25 24 26 25 27 26 28 27 30 28 31 29 32 87 33 30 34 86 35
REMARK SMILES IDX 31 36 32 37 33 38 80 39 34 40 85 41 79 42 81 43 35 44 84 45
REMARK SMILES IDX 78 46 77 47 36 49 66 50 47 51 65 52 48 53 51 54 64 55 82 56
REMARK SMILES IDX 49 57 50 58 63 60 83 61 52 62 37 63 38 64 46 65 39 66 45 67
REMARK SMILES IDX 40 68 41 69 42 70 43 71 44 72 67 73 68 74 76 75 69 76 75 77
REMARK SMILES IDX 70 78 71 79 72 80 73 81 74 82 53 83 54 84 62 85 55 86 61 87
REMARK SMILES IDX 56 88 57 89 58 90 59 91 60 92
REMARK H PARENT 20 6 6 13 25 29 81 48 51 59
REMARK Flexibility Score: inf
ROOT
ATOM      1  C   UNL A   1      33.088  29.321  24.899  1.00  0.00     0.023 C 
ENDROOT
BRANCH   1   2
ATOM      2  C   UNL A   1      33.165  29.113  23.390  1.00  0.00     0.116 C 
BRANCH   2   3
ATOM      3  N   UNL A   1      31.881  29.372  22.766  1.00  0.00    -0.355 N 
ATOM      4  C   UNL A   1      30.883  28.511  22.414  1.00  0.00     0.238 C 
ATOM      5  O   UNL A   1      29.871  28.991  21.898  1.00  0.00    -0.273 OA
ATOM      6  H   UNL A   1      31.702  30.319  22.565  1.00  0.00     0.163 HD
BRANCH   4   7
ATOM      7  C   UNL A   1      31.009  27.004  22.644  1.00  0.00     0.159 C 
BRANCH   7   8
ATOM      8  C   UNL A   1      29.684  26.495  23.236  1.00  0.00     0.041 C 
BRANCH   8   9
ATOM      9  C   UNL A   1      29.656  26.267  24.745  1.00  0.00     0.071 C 
BRANCH   9  10
ATOM     10  S   UNL A   1      31.255  25.779  25.465  1.00  0.00    -0.165 SA
ATOM     11  C   UNL A   1      30.790  24.224  26.267  1.00  0.00     0.085 C 
ENDBRANCH   9  10
ENDBRANCH   8   9
ENDBRANCH   7   8
BRANCH   7  12
ATOM     12  N   UNL A   1      31.382  26.302  21.388  1.00  0.00    -0.199 NA
ATOM     13  H   UNL A   1      31.208  26.956  20.624  1.00  0.00     0.142 HD
BRANCH  12  14
ATOM     14  S   UNL A   1      32.946  25.714  21.173  1.00  0.00     0.241 S 
ATOM     15  O   UNL A   1      33.025  25.019  19.908  1.00  0.00    -0.207 OA
ATOM     16  O   UNL A   1      33.775  26.870  21.444  1.00  0.00    -0.207 OA
BRANCH  14  17
ATOM     17  C   UNL A   1      33.255  24.536  22.470  1.00  0.00     0.082 A 
ATOM     18  C   UNL A   1      32.612  23.298  22.487  1.00  0.00     0.025 A 
ATOM     19  C   UNL A   1      34.223  24.832  23.445  1.00  0.00     0.028 A 
ATOM     20  C   UNL A   1      32.883  22.382  23.505  1.00  0.00     0.041 A 
ATOM     21  C   UNL A   1      34.543  23.889  24.435  1.00  0.00    -0.014 A 
ATOM     22  C   UNL A   1      33.843  22.680  24.465  1.00  0.00     0.126 A 
ATOM     23  C   UNL A   1      35.637  24.129  25.431  1.00  0.00     0.047 C 
ATOM     24  F   UNL A   1      34.116  21.771  25.410  1.00  0.00    -0.207 F 
ENDBRANCH  14  17
ENDBRANCH  12  14
ENDBRANCH   7  12
ENDBRANCH   4   7
ENDBRANCH   2   3
ENDBRANCH   1   2
BRANCH   1  25
ATOM     25  C   UNL A   1      33.965  28.357  25.701  1.00  0.00     0.023 C 
BRANCH  25  26
ATOM     26  C   UNL A   1      33.855  28.513  27.214  1.00  0.00     0.116 C 
BRANCH  26  27
ATOM     27  N   UNL A   1      33.656  29.898  27.612  1.00  0.00    -0.352 N 
ATOM     28  C   UNL A   1      34.510  30.719  28.307  1.00  0.00     0.251 C 
ATOM     29  H   UNL A   1      32.796  30.298  27.350  1.00  0.00     0.163 HD
ATOM     30  O   UNL A   1      34.116  31.805  28.721  1.00  0.00    -0.269 OA
BRANCH  28  31
ATOM     31  C   UNL A   1      35.895  30.276  28.563  1.00  0.00     0.039 A 
ATOM     32  C   UNL A   1      36.848  30.414  27.551  1.00  0.00     0.014 A 
ATOM     33  C   UNL A   1      36.247  29.727  29.799  1.00  0.00     0.014 A 
ATOM     34  C   UNL A   1      38.169  30.037  27.793  1.00  0.00     0.010 A 
ATOM     35  C   UNL A   1      37.575  29.408  30.060  1.00  0.00     0.010 A 
ATOM     36  C   UNL A   1      38.546  29.546  29.055  1.00  0.00    -0.014 A 
BRANCH  36  37
ATOM     37  C   UNL A   1      39.941  29.127  29.329  1.00  0.00     0.031 A 
ATOM     38  C   UNL A   1      40.897  30.095  29.970  1.00  0.00     0.074 A 
ATOM     39  C   UNL A   1      40.361  27.903  28.955  1.00  0.00     0.049 A 
ATOM     40  N   UNL A   1      42.168  29.943  30.239  1.00  0.00    -0.248 NA
ATOM     41  C   UNL A   1      40.360  31.417  30.332  1.00  0.00     0.031 C 
ATOM     42  C   UNL A   1      39.540  26.889  28.289  1.00  0.00     0.029 A 
ATOM     43  N   UNL A   1      41.589  27.306  29.081  1.00  0.00    -0.354 N 
ATOM     44  C   UNL A   1      42.587  31.155  30.777  1.00  0.00     0.074 A 
ATOM     45  C   UNL A   1      41.446  32.045  30.757  1.00  0.00     0.031 C 
ATOM     46  C   UNL A   1      40.283  25.788  28.085  1.00  0.00     0.029 A 
ATOM     47  C   UNL A   1      41.635  26.027  28.580  1.00  0.00     0.049 A 
ATOM     48  H   UNL A   1      42.365  27.753  29.490  1.00  0.00     0.167 HD
ATOM     49  C   UNL A   1      43.805  31.493  31.262  1.00  0.00     0.031 A 
ATOM     50  C   UNL A   1      42.651  25.146  28.530  1.00  0.00     0.031 A 
ATOM     51  C   UNL A   1      44.931  30.602  31.304  1.00  0.00     0.049 A 
ATOM     52  C   UNL A   1      43.985  25.530  29.108  1.00  0.00     0.074 A 
ATOM     53  C   UNL A   1      46.196  30.832  31.815  1.00  0.00     0.029 A 
ATOM     54  N   UNL A   1      44.924  29.300  30.824  1.00  0.00    -0.354 N 
ATOM     55  N   UNL A   1      44.350  26.666  29.654  1.00  0.00    -0.248 NA
ATOM     56  C   UNL A   1      45.038  24.506  29.081  1.00  0.00     0.031 C 
ATOM     57  C   UNL A   1      46.963  29.676  31.622  1.00  0.00     0.029 A 
ATOM     58  C   UNL A   1      46.162  28.715  31.025  1.00  0.00     0.049 A 
ATOM     59  H   UNL A   1      44.152  28.858  30.401  1.00  0.00     0.167 HD
ATOM     60  C   UNL A   1      45.667  26.484  30.059  1.00  0.00     0.074 A 
ATOM     61  C   UNL A   1      46.030  25.126  29.706  1.00  0.00     0.031 C 
ATOM     62  C   UNL A   1      46.501  27.361  30.671  1.00  0.00     0.031 A 
BRANCH  49  63
ATOM     63  C   UNL A   1      43.972  32.894  31.784  1.00  0.00    -0.014 A 
ATOM     64  C   UNL A   1      44.374  33.940  30.932  1.00  0.00     0.010 A 
ATOM     65  C   UNL A   1      43.716  33.173  33.138  1.00  0.00     0.010 A 
ATOM     66  C   UNL A   1      44.568  35.229  31.437  1.00  0.00     0.020 A 
ATOM     67  C   UNL A   1      43.883  34.467  33.641  1.00  0.00     0.020 A 
ATOM     68  C   UNL A   1      44.330  35.482  32.791  1.00  0.00     0.054 A 
BRANCH  68  69
ATOM     69  S   UNL A   1      44.584  37.162  33.423  1.00  0.00     0.124 S 
ATOM     70  O   UNL A   1      43.539  37.262  34.438  1.00  0.00    -0.237 OA
ATOM     71  O   UNL A   1      45.952  37.113  33.933  1.00  0.00    -0.237 OA
ATOM     72  O   UNL A   1      44.393  38.006  32.245  1.00  0.00    -0.744 OA
ENDBRANCH  68  69
ENDBRANCH  49  63
BRANCH  50  73
ATOM     73  C   UNL A   1      42.436  23.797  27.943  1.00  0.00    -0.014 A 
ATOM     74  C   UNL A   1      42.809  23.535  26.613  1.00  0.00     0.010 A 
ATOM     75  C   UNL A   1      41.871  22.765  28.713  1.00  0.00     0.010 A 
ATOM     76  C   UNL A   1      42.604  22.270  26.056  1.00  0.00     0.020 A 
ATOM     77  C   UNL A   1      41.685  21.493  28.166  1.00  0.00     0.020 A 
ATOM     78  C   UNL A   1      42.042  21.256  26.837  1.00  0.00     0.054 A 
BRANCH  78  79
ATOM     79  S   UNL A   1      41.834  19.604  26.115  1.00  0.00     0.124 S 
ATOM     80  O   UNL A   1      42.677  19.685  24.926  1.00  0.00    -0.237 OA
ATOM     81  O   UNL A   1      42.322  18.729  27.178  1.00  0.00    -0.237 OA
ATOM     82  O   UNL A   1      40.397  19.523  25.864  1.00  0.00    -0.744 OA
ENDBRANCH  78  79
ENDBRANCH  50  73
BRANCH  62  83
ATOM     83  C   UNL A   1      47.873  26.864  31.032  1.00  0.00    -0.014 A 
ATOM     84  C   UNL A   1      48.114  26.215  32.254  1.00  0.00     0.010 A 
ATOM     85  C   UNL A   1      48.927  27.019  30.113  1.00  0.00     0.010 A 
ATOM     86  C   UNL A   1      49.397  25.760  32.569  1.00  0.00     0.020 A 
ATOM     87  C   UNL A   1      50.207  26.548  30.416  1.00  0.00     0.020 A 
ATOM     88  C   UNL A   1      50.437  25.935  31.650  1.00  0.00     0.054 A 
BRANCH  88  89
ATOM     89  S   UNL A   1      52.089  25.313  32.065  1.00  0.00     0.124 S 
ATOM     90  O   UNL A   1      52.365  25.999  33.323  1.00  0.00    -0.237 OA
ATOM     91  O   UNL A   1      51.877  23.871  32.168  1.00  0.00    -0.237 OA
ATOM     92  O   UNL A   1      52.910  25.734  30.931  1.00  0.00    -0.744 OA
ENDBRANCH  88  89
ENDBRANCH  62  83
ENDBRANCH  36  37
ENDBRANCH  28  31
ENDBRANCH  26  27
ENDBRANCH  25  26
ENDBRANCH   1  25
TORSDOF 20
ENDMDL
MODEL 2
REMARK VINA RESULT:      -9.6      3.014      4.276
REMARK SMILES CSCC[C@@H](NS(=O)(=O)c1ccc(F)c(C)c1)C(=O)NCCCCNC(=O)c1ccc(-c2c3nc(c(-c4ccc(S(=O)(=O)[O-])cc4)c4ccc([nH]4)c(-c4ccc(S(=O)(=O)[O-])cc4)c4nc(c(-c5ccc(S(=O)(=O)[O-])cc5)c5ccc2[nH]5)C=C4)C=C3)cc1
REMARK SMILES IDX 22 1 21 2 20 3 18 4 19 5 5 7 4 8 3 9 2 10 1 11 6 12 7 14
REMARK SMILES IDX 8 15 9 16 10 17 11 18 17 19 12 20 15 21 13 22 16 23 14 24
REMARK SMILES IDX 23 25 24 26 25 27 26 28 27 30 28 31 29 32 87 33 30 34 86 35
REMARK SMILES IDX 31 36 32 37 33 38 80 39 34 40 85 41 79 42 81 43 35 44 84 45
REMARK SMILES IDX 78 46 77 47 36 49 66 50 47 51 65 52 48 53 51 54 64 55 82 56
REMARK SMILES IDX 49 57 50 58 63 60 83 61 52 62 37 63 38 64 46 65 39 66 45 67
REMARK SMILES IDX 40 68 41 69 42 70 43 71 44 72 67 73 68 74 76 75 69 76 75 77
REMARK SMILES IDX 70 78 71 79 72 80 73 81 74 82 53 83 54 84 62 85 55 86 61 87
REMARK SMILES IDX 56 88 57 89 58 90 59 91 60 92
REMARK H PARENT 20 6 6 13 25 29 81 48 51 59
REMARK Flexibility Score: inf
ROOT
ATOM      1  C   UNL A   1      33.245  26.476  26.051  1.00  0.00     0.023 C 
ENDROOT
BRANCH   1   2
ATOM      2  C   UNL A   1      31.873  25.838  25.861  1.00  0.00     0.116 C 
BRANCH   2   3
ATOM      3  N   UNL A   1      31.973  24.390  25.855  1.00  0.00    -0.355 N 
ATOM      4  C   UNL A   1      32.546  23.550  24.945  1.00  0.00     0.238 C 
ATOM      5  O   UNL A   1      32.504  22.340  25.179  1.00  0.00    -0.273 OA
ATOM      6  H   UNL A   1      31.563  23.943  26.631  1.00  0.00     0.163 HD
BRANCH   4   7
ATOM      7  C   UNL A   1      33.213  24.082  23.675  1.00  0.00     0.159 C 
BRANCH   7   8
ATOM      8  C   UNL A   1      34.051  22.948  23.060  1.00  0.00     0.041 C 
BRANCH   8   9
ATOM      9  C   UNL A   1      35.528  22.912  23.439  1.00  0.00     0.071 C 
BRANCH   9  10
ATOM     10  S   UNL A   1      35.966  23.940  24.876  1.00  0.00    -0.165 SA
ATOM     11  C   UNL A   1      37.330  22.971  25.567  1.00  0.00     0.085 C 
ENDBRANCH   9  10
ENDBRANCH   8   9
ENDBRANCH   7   8
BRANCH   7  12
ATOM     12  N   UNL A   1      32.203  24.626  22.730  1.00  0.00    -0.199 NA
ATOM     13  H   UNL A   1      31.370  24.835  23.280  1.00  0.00     0.142 HD
BRANCH  12  14
ATOM     14  S   UNL A   1      32.542  26.005  21.823  1.00  0.00     0.241 S 
ATOM     15  O   UNL A   1      33.958  26.285  21.890  1.00  0.00    -0.207 OA
ATOM     16  O   UNL A   1      31.892  25.737  20.557  1.00  0.00    -0.207 OA
BRANCH  14  17
ATOM     17  C   UNL A   1      31.674  27.365  22.576  1.00  0.00     0.082 A 
ATOM     18  C   UNL A   1      32.362  28.471  23.074  1.00  0.00     0.025 A 
ATOM     19  C   UNL A   1      30.269  27.353  22.592  1.00  0.00     0.028 A 
ATOM     20  C   UNL A   1      31.660  29.534  23.645  1.00  0.00     0.041 A 
ATOM     21  C   UNL A   1      29.557  28.447  23.110  1.00  0.00    -0.014 A 
ATOM     22  C   UNL A   1      30.271  29.516  23.657  1.00  0.00     0.126 A 
ATOM     23  C   UNL A   1      28.061  28.513  23.055  1.00  0.00     0.047 C 
ATOM     24  F   UNL A   1      29.615  30.564  24.173  1.00  0.00    -0.207 F 
ENDBRANCH  14  17
ENDBRANCH  12  14
ENDBRANCH   7  12
ENDBRANCH   4   7
ENDBRANCH   2   3
ENDBRANCH   1   2
BRANCH   1  25
ATOM     25  C   UNL A   1      33.206  27.818  26.785  1.00  0.00     0.023 C 
BRANCH  25  26
ATOM     26  C   UNL A   1      34.216  28.843  26.281  1.00  0.00     0.116 C 
BRANCH  26  27
ATOM     27  N   UNL A   1      33.828  30.206  26.607  1.00  0.00    -0.352 N 
ATOM     28  C   UNL A   1      34.361  31.044  27.556  1.00  0.00     0.251 C 
ATOM     29  H   UNL A   1      33.084  30.576  26.080  1.00  0.00     0.163 HD
ATOM     30  O   UNL A   1      33.799  32.099  27.828  1.00  0.00    -0.269 OA
BRANCH  28  31
ATOM     31  C   UNL A   1      35.604  30.654  28.251  1.00  0.00     0.039 A 
ATOM     32  C   UNL A   1      35.529  29.758  29.320  1.00  0.00     0.014 A 
ATOM     33  C   UNL A   1      36.837  31.171  27.844  1.00  0.00     0.014 A 
ATOM     34  C   UNL A   1      36.699  29.350  29.960  1.00  0.00     0.010 A 
ATOM     35  C   UNL A   1      38.008  30.717  28.442  1.00  0.00     0.010 A 
ATOM     36  C   UNL A   1      37.949  29.813  29.515  1.00  0.00    -0.014 A 
BRANCH  36  37
ATOM     37  C   UNL A   1      39.204  29.402  30.188  1.00  0.00     0.031 A 
ATOM     38  C   UNL A   1      39.645  30.111  31.439  1.00  0.00     0.074 A 
ATOM     39  C   UNL A   1      39.969  28.433  29.650  1.00  0.00     0.049 A 
ATOM     40  N   UNL A   1      40.734  29.941  32.143  1.00  0.00    -0.248 NA
ATOM     41  C   UNL A   1      38.756  31.168  31.951  1.00  0.00     0.031 C 
ATOM     42  C   UNL A   1      39.670  27.699  28.418  1.00  0.00     0.029 A 
ATOM     43  N   UNL A   1      41.162  27.903  30.071  1.00  0.00    -0.354 N 
ATOM     44  C   UNL A   1      40.674  30.884  33.164  1.00  0.00     0.074 A 
ATOM     45  C   UNL A   1      39.462  31.650  32.962  1.00  0.00     0.031 C 
ATOM     46  C   UNL A   1      40.644  26.799  28.197  1.00  0.00     0.029 A 
ATOM     47  C   UNL A   1      41.645  26.910  29.252  1.00  0.00     0.049 A 
ATOM     48  H   UNL A   1      41.629  28.207  30.883  1.00  0.00     0.167 HD
ATOM     49  C   UNL A   1      41.537  31.085  34.187  1.00  0.00     0.031 A 
ATOM     50  C   UNL A   1      42.766  26.172  29.346  1.00  0.00     0.031 A 
ATOM     51  C   UNL A   1      42.728  30.308  34.400  1.00  0.00     0.049 A 
ATOM     52  C   UNL A   1      43.692  26.385  30.511  1.00  0.00     0.074 A 
ATOM     53  C   UNL A   1      43.646  30.400  35.431  1.00  0.00     0.029 A 
ATOM     54  N   UNL A   1      43.159  29.283  33.570  1.00  0.00    -0.354 N 
ATOM     55  N   UNL A   1      43.595  27.253  31.491  1.00  0.00    -0.248 NA
ATOM     56  C   UNL A   1      44.868  25.509  30.592  1.00  0.00     0.031 C 
ATOM     57  C   UNL A   1      44.648  29.447  35.211  1.00  0.00     0.029 A 
ATOM     58  C   UNL A   1      44.331  28.736  34.064  1.00  0.00     0.049 A 
ATOM     59  H   UNL A   1      42.700  28.989  32.750  1.00  0.00     0.167 HD
ATOM     60  C   UNL A   1      44.683  27.007  32.320  1.00  0.00     0.074 A 
ATOM     61  C   UNL A   1      45.417  25.904  31.733  1.00  0.00     0.031 C 
ATOM     62  C   UNL A   1      45.042  27.636  33.467  1.00  0.00     0.031 A 
BRANCH  49  63
ATOM     63  C   UNL A   1      41.216  32.194  35.150  1.00  0.00    -0.014 A 
ATOM     64  C   UNL A   1      41.766  33.478  34.983  1.00  0.00     0.010 A 
ATOM     65  C   UNL A   1      40.348  31.955  36.230  1.00  0.00     0.010 A 
ATOM     66  C   UNL A   1      41.495  34.490  35.908  1.00  0.00     0.020 A 
ATOM     67  C   UNL A   1      40.053  32.972  37.143  1.00  0.00     0.020 A 
ATOM     68  C   UNL A   1      40.647  34.228  36.988  1.00  0.00     0.054 A 
BRANCH  68  69
ATOM     69  S   UNL A   1      40.306  35.557  38.174  1.00  0.00     0.124 S 
ATOM     70  O   UNL A   1      39.985  36.674  37.288  1.00  0.00    -0.237 OA
ATOM     71  O   UNL A   1      39.185  35.024  38.944  1.00  0.00    -0.237 OA
ATOM     72  O   UNL A   1      41.559  35.687  38.914  1.00  0.00    -0.744 OA
ENDBRANCH  68  69
ENDBRANCH  49  63
BRANCH  50  73
ATOM     73  C   UNL A   1      43.057  25.132  28.324  1.00  0.00    -0.014 A 
ATOM     74  C   UNL A   1      43.860  25.437  27.210  1.00  0.00     0.010 A 
ATOM     75  C   UNL A   1      42.546  23.830  28.464  1.00  0.00     0.010 A 
ATOM     76  C   UNL A   1      44.131  24.464  26.244  1.00  0.00     0.020 A 
ATOM     77  C   UNL A   1      42.834  22.848  27.513  1.00  0.00     0.020 A 
ATOM     78  C   UNL A   1      43.615  23.174  26.402  1.00  0.00     0.054 A 
BRANCH  78  79
ATOM     79  S   UNL A   1      44.024  21.908  25.168  1.00  0.00     0.124 S 
ATOM     80  O   UNL A   1      45.379  21.532  25.557  1.00  0.00    -0.237 OA
ATOM     81  O   UNL A   1      42.995  20.896  25.398  1.00  0.00    -0.237 OA
ATOM     82  O   UNL A   1      43.908  22.623  23.898  1.00  0.00    -0.744 OA
ENDBRANCH  78  79
ENDBRANCH  50  73
BRANCH  62  83
ATOM     83  C   UNL A   1      46.260  27.118  34.180  1.00  0.00    -0.014 A 
ATOM     84  C   UNL A   1      47.533  27.660  33.934  1.00  0.00     0.010 A 
ATOM     85  C   UNL A   1      46.118  26.098  35.138  1.00  0.00     0.010 A 
ATOM     86  C   UNL A   1      48.651  27.164  34.609  1.00  0.00     0.020 A 
ATOM     87  C   UNL A   1      47.231  25.614  35.829  1.00  0.00     0.020 A 
ATOM     88  C   UNL A   1      48.494  26.139  35.548  1.00  0.00     0.054 A 
BRANCH  88  89
ATOM     89  S   UNL A   1      49.953  25.529  36.434  1.00  0.00     0.124 S 
ATOM     90  O   UNL A   1      50.551  26.767  36.924  1.00  0.00    -0.237 OA
ATOM     91  O   UNL A   1      49.373  24.663  37.458  1.00  0.00    -0.237 OA
ATOM     92  O   UNL A   1      50.717  24.832  35.401  1.00  0.00    -0.744 OA
ENDBRANCH  88  89
ENDBRANCH  62  83
ENDBRANCH  36  37
ENDBRANCH  28  31
ENDBRANCH  26  27
ENDBRANCH  25  26
ENDBRANCH   1  25
TORSDOF 20
ENDMDL
MODEL 3
REMARK VINA RESULT:      -9.5      3.931      8.229
REMARK SMILES CSCC[C@@H](NS(=O)(=O)c1ccc(F)c(C)c1)C(=O)NCCCCNC(=O)c1ccc(-c2c3nc(c(-c4ccc(S(=O)(=O)[O-])cc4)c4ccc([nH]4)c(-c4ccc(S(=O)(=O)[O-])cc4)c4nc(c(-c5ccc(S(=O)(=O)[O-])cc5)c5ccc2[nH]5)C=C4)C=C3)cc1
REMARK SMILES IDX 22 1 21 2 20 3 18 4 19 5 5 7 4 8 3 9 2 10 1 11 6 12 7 14
REMARK SMILES IDX 8 15 9 16 10 17 11 18 17 19 12 20 15 21 13 22 16 23 14 24
REMARK SMILES IDX 23 25 24 26 25 27 26 28 27 30 28 31 29 32 87 33 30 34 86 35
REMARK SMILES IDX 31 36 32 37 33 38 80 39 34 40 85 41 79 42 81 43 35 44 84 45
REMARK SMILES IDX 78 46 77 47 36 49 66 50 47 51 65 52 48 53 51 54 64 55 82 56
REMARK SMILES IDX 49 57 50 58 63 60 83 61 52 62 37 63 38 64 46 65 39 66 45 67
REMARK SMILES IDX 40 68 41 69 42 70 43 71 44 72 67 73 68 74 76 75 69 76 75 77
REMARK SMILES IDX 70 78 71 79 72 80 73 81 74 82 53 83 54 84 62 85 55 86 61 87
REMARK SMILES IDX 56 88 57 89 58 90 59 91 60 92
REMARK H PARENT 20 6 6 13 25 29 81 48 51 59
REMARK Flexibility Score: inf
ROOT
ATOM      1  C   UNL A   1      37.153  21.906  24.816  1.00  0.00     0.023 C 
ENDROOT
BRANCH   1   2
ATOM      2  C   UNL A   1      35.830  22.118  25.543  1.00  0.00     0.116 C 
BRANCH   2   3
ATOM      3  N   UNL A   1      34.933  21.000  25.320  1.00  0.00    -0.355 N 
ATOM      4  C   UNL A   1      33.602  20.984  25.019  1.00  0.00     0.238 C 
ATOM      5  O   UNL A   1      33.064  19.885  24.868  1.00  0.00    -0.273 OA
ATOM      6  H   UNL A   1      35.350  20.111  25.396  1.00  0.00     0.163 HD
BRANCH   4   7
ATOM      7  C   UNL A   1      32.799  22.278  24.880  1.00  0.00     0.159 C 
BRANCH   7   8
ATOM      8  C   UNL A   1      32.596  22.561  23.382  1.00  0.00     0.041 C 
BRANCH   8   9
ATOM      9  C   UNL A   1      33.728  23.294  22.669  1.00  0.00     0.071 C 
BRANCH   9  10
ATOM     10  S   UNL A   1      33.643  25.109  22.783  1.00  0.00    -0.165 SA
ATOM     11  C   UNL A   1      32.115  25.422  21.865  1.00  0.00     0.085 C 
ENDBRANCH   9  10
ENDBRANCH   8   9
ENDBRANCH   7   8
BRANCH   7  12
ATOM     12  N   UNL A   1      31.516  22.192  25.626  1.00  0.00    -0.199 NA
ATOM     13  H   UNL A   1      31.481  21.262  26.043  1.00  0.00     0.142 HD
BRANCH  12  14
ATOM     14  S   UNL A   1      31.172  23.288  26.859  1.00  0.00     0.241 S 
ATOM     15  O   UNL A   1      29.836  23.044  27.355  1.00  0.00    -0.207 OA
ATOM     16  O   UNL A   1      32.324  23.179  27.730  1.00  0.00    -0.207 OA
BRANCH  14  17
ATOM     17  C   UNL A   1      31.208  24.919  26.148  1.00  0.00     0.082 A 
ATOM     18  C   UNL A   1      32.294  25.770  26.354  1.00  0.00     0.025 A 
ATOM     19  C   UNL A   1      30.160  25.318  25.303  1.00  0.00     0.028 A 
ATOM     20  C   UNL A   1      32.309  27.039  25.772  1.00  0.00     0.041 A 
ATOM     21  C   UNL A   1      30.200  26.570  24.667  1.00  0.00    -0.014 A 
ATOM     22  C   UNL A   1      31.270  27.427  24.936  1.00  0.00     0.126 A 
ATOM     23  C   UNL A   1      29.150  26.991  23.683  1.00  0.00     0.047 C 
ATOM     24  F   UNL A   1      31.322  28.634  24.356  1.00  0.00    -0.207 F 
ENDBRANCH  14  17
ENDBRANCH  12  14
ENDBRANCH   7  12
ENDBRANCH   4   7
ENDBRANCH   2   3
ENDBRANCH   1   2
BRANCH   1  25
ATOM     25  C   UNL A   1      37.937  20.686  25.303  1.00  0.00     0.023 C 
BRANCH  25  26
ATOM     26  C   UNL A   1      39.192  21.019  26.102  1.00  0.00     0.116 C 
BRANCH  26  27
ATOM     27  N   UNL A   1      40.163  19.937  26.081  1.00  0.00    -0.352 N 
ATOM     28  C   UNL A   1      41.533  20.015  26.129  1.00  0.00     0.251 C 
ATOM     29  H   UNL A   1      39.788  19.028  26.024  1.00  0.00     0.163 HD
ATOM     30  O   UNL A   1      42.213  19.016  25.919  1.00  0.00    -0.269 OA
BRANCH  28  31
ATOM     31  C   UNL A   1      42.176  21.312  26.419  1.00  0.00     0.039 A 
ATOM     32  C   UNL A   1      42.359  22.224  25.378  1.00  0.00     0.014 A 
ATOM     33  C   UNL A   1      42.591  21.624  27.717  1.00  0.00     0.014 A 
ATOM     34  C   UNL A   1      42.928  23.470  25.645  1.00  0.00     0.010 A 
ATOM     35  C   UNL A   1      43.101  22.888  27.994  1.00  0.00     0.010 A 
ATOM     36  C   UNL A   1      43.288  23.817  26.958  1.00  0.00    -0.014 A 
BRANCH  36  37
ATOM     37  C   UNL A   1      43.905  25.131  27.262  1.00  0.00     0.031 A 
ATOM     38  C   UNL A   1      43.073  26.220  27.882  1.00  0.00     0.074 A 
ATOM     39  C   UNL A   1      45.191  25.361  26.934  1.00  0.00     0.049 A 
ATOM     40  N   UNL A   1      43.407  27.451  28.170  1.00  0.00    -0.248 NA
ATOM     41  C   UNL A   1      41.672  25.888  28.194  1.00  0.00     0.031 C 
ATOM     42  C   UNL A   1      46.090  24.398  26.293  1.00  0.00     0.029 A 
ATOM     43  N   UNL A   1      45.964  26.482  27.094  1.00  0.00    -0.354 N 
ATOM     44  C   UNL A   1      42.256  28.046  28.673  1.00  0.00     0.074 A 
ATOM     45  C   UNL A   1      41.204  27.055  28.610  1.00  0.00     0.031 C 
ATOM     46  C   UNL A   1      47.298  24.966  26.134  1.00  0.00     0.029 A 
ATOM     47  C   UNL A   1      47.251  26.335  26.636  1.00  0.00     0.049 A 
ATOM     48  H   UNL A   1      45.627  27.315  27.497  1.00  0.00     0.167 HD
ATOM     49  C   UNL A   1      42.091  29.299  29.159  1.00  0.00     0.031 A 
ATOM     50  C   UNL A   1      48.279  27.205  26.627  1.00  0.00     0.031 A 
ATOM     51  C   UNL A   1      43.142  30.275  29.244  1.00  0.00     0.049 A 
ATOM     52  C   UNL A   1      48.083  28.579  27.208  1.00  0.00     0.074 A 
ATOM     53  C   UNL A   1      43.090  31.557  29.762  1.00  0.00     0.029 A 
ATOM     54  N   UNL A   1      44.443  30.072  28.807  1.00  0.00    -0.354 N 
ATOM     55  N   UNL A   1      46.997  29.109  27.720  1.00  0.00    -0.248 NA
ATOM     56  C   UNL A   1      49.256  29.463  27.226  1.00  0.00     0.031 C 
ATOM     57  C   UNL A   1      44.355  32.139  29.616  1.00  0.00     0.029 A 
ATOM     58  C   UNL A   1      45.203  31.205  29.042  1.00  0.00     0.049 A 
ATOM     59  H   UNL A   1      44.776  29.244  28.391  1.00  0.00     0.167 HD
ATOM     60  C   UNL A   1      47.364  30.381  28.145  1.00  0.00     0.074 A 
ATOM     61  C   UNL A   1      48.773  30.534  27.842  1.00  0.00     0.031 C 
ATOM     62  C   UNL A   1      46.604  31.335  28.737  1.00  0.00     0.031 A 
BRANCH  49  63
ATOM     63  C   UNL A   1      40.715  29.675  29.637  1.00  0.00    -0.014 A 
ATOM     64  C   UNL A   1      39.684  29.956  28.721  1.00  0.00     0.010 A 
ATOM     65  C   UNL A   1      40.444  29.739  31.015  1.00  0.00     0.010 A 
ATOM     66  C   UNL A   1      38.421  30.346  29.175  1.00  0.00     0.020 A 
ATOM     67  C   UNL A   1      39.174  30.104  31.473  1.00  0.00     0.020 A 
ATOM     68  C   UNL A   1      38.177  30.426  30.549  1.00  0.00     0.054 A 
BRANCH  68  69
ATOM     69  S   UNL A   1      36.530  30.931  31.115  1.00  0.00     0.124 S 
ATOM     70  O   UNL A   1      36.852  31.997  32.061  1.00  0.00    -0.237 OA
ATOM     71  O   UNL A   1      35.881  31.364  29.880  1.00  0.00    -0.237 OA
ATOM     72  O   UNL A   1      35.981  29.714  31.709  1.00  0.00    -0.744 OA
ENDBRANCH  68  69
ENDBRANCH  49  63
BRANCH  50  73
ATOM     73  C   UNL A   1      49.598  26.790  26.083  1.00  0.00    -0.014 A 
ATOM     74  C   UNL A   1      49.903  27.000  24.726  1.00  0.00     0.010 A 
ATOM     75  C   UNL A   1      50.560  26.196  26.918  1.00  0.00     0.010 A 
ATOM     76  C   UNL A   1      51.141  26.607  24.210  1.00  0.00     0.020 A 
ATOM     77  C   UNL A   1      51.807  25.822  26.410  1.00  0.00     0.020 A 
ATOM     78  C   UNL A   1      52.085  26.019  25.056  1.00  0.00     0.054 A 
BRANCH  78  79
ATOM     79  S   UNL A   1      53.708  25.565  24.380  1.00  0.00     0.124 S 
ATOM     80  O   UNL A   1      54.604  26.433  25.137  1.00  0.00    -0.237 OA
ATOM     81  O   UNL A   1      53.794  24.140  24.691  1.00  0.00    -0.237 OA
ATOM     82  O   UNL A   1      53.582  25.877  22.959  1.00  0.00    -0.744 OA
ENDBRANCH  78  79
ENDBRANCH  50  73
BRANCH  62  83
ATOM     83  C   UNL A   1      47.292  32.613  29.130  1.00  0.00    -0.014 A 
ATOM     84  C   UNL A   1      47.858  32.772  30.406  1.00  0.00     0.010 A 
ATOM     85  C   UNL A   1      47.403  33.654  28.191  1.00  0.00     0.010 A 
ATOM     86  C   UNL A   1      48.493  33.968  30.750  1.00  0.00     0.020 A 
ATOM     87  C   UNL A   1      48.056  34.843  28.525  1.00  0.00     0.020 A 
ATOM     88  C   UNL A   1      48.582  34.999  29.809  1.00  0.00     0.054 A 
BRANCH  88  89
ATOM     89  S   UNL A   1      49.436  36.532  30.264  1.00  0.00     0.124 S 
ATOM     90  O   UNL A   1      50.830  36.197  29.989  1.00  0.00    -0.237 OA
ATOM     91  O   UNL A   1      48.838  37.516  29.365  1.00  0.00    -0.237 OA
ATOM     92  O   UNL A   1      49.102  36.706  31.676  1.00  0.00    -0.744 OA
ENDBRANCH  88  89
ENDBRANCH  62  83
ENDBRANCH  36  37
ENDBRANCH  28  31
ENDBRANCH  26  27
ENDBRANCH  25  26
ENDBRANCH   1  25
TORSDOF 20
ENDMDL
