MODEL 1
REMARK VINA RESULT:     -12.5      0.000      0.000
REMARK SMILES Cc1ccc(C(=O)N2CCC3(CCC(=O)N(CC(=O)NCCCCNC(=O)c4ccc(-c5c6nc(c(-c7ccc(S(=O)(=O)[O-])cc7)c7ccc([nH]7)c(-c7ccc(S(=O)(=O)[O-])cc7)c7nc(c(-c8ccc(S(=O)(=O)[O-])cc8)c8ccc5[nH]8)C=C7)C=C6)cc4)C3)CC2)cc1O
REMARK SMILES IDX 22 1 21 2 20 3 18 4 19 5 17 7 16 8 6 9 7 10 8 11 9 12 90 13
REMARK SMILES IDX 10 14 89 15 11 16 12 17 88 18 13 19 14 20 15 21 5 22 1 23
REMARK SMILES IDX 2 24 3 25 92 26 4 27 91 28 93 29 23 31 24 32 25 33 26 34
REMARK SMILES IDX 27 36 28 37 29 38 87 39 30 40 86 41 31 42 32 43 33 44 80 45
REMARK SMILES IDX 34 46 85 47 79 48 81 49 35 50 84 51 78 52 77 53 36 55 66 56
REMARK SMILES IDX 47 57 65 58 48 59 51 60 64 61 82 62 49 63 50 64 63 66 83 67
REMARK SMILES IDX 52 68 37 69 38 70 46 71 39 72 45 73 40 74 41 75 42 76 43 77
REMARK SMILES IDX 44 78 67 79 68 80 76 81 69 82 75 83 70 84 71 85 72 86 73 87
REMARK SMILES IDX 74 88 53 89 54 90 62 91 55 92 61 93 56 94 57 95 58 96 59 97
REMARK SMILES IDX 60 98
REMARK H PARENT 20 6 93 30 25 35 81 54 51 65
REMARK Flexibility Score: inf
ROOT
ATOM      1  C   UNL A   1      39.974  21.740  26.558  1.00  0.00     0.023 C 
ENDROOT
BRANCH   1   2
ATOM      2  C   UNL A   1      38.674  22.535  26.483  1.00  0.00     0.116 C 
BRANCH   2   3
ATOM      3  N   UNL A   1      38.167  22.622  25.135  1.00  0.00    -0.355 N 
ATOM      4  C   UNL A   1      37.178  21.902  24.533  1.00  0.00     0.239 C 
ATOM      5  O   UNL A   1      36.759  22.319  23.449  1.00  0.00    -0.273 OA
ATOM      6  H   UNL A   1      38.598  23.300  24.567  1.00  0.00     0.163 HD
BRANCH   4   7
ATOM      7  C   UNL A   1      36.472  20.751  25.266  1.00  0.00     0.219 C 
BRANCH   7   8
ATOM      8  N   UNL A   1      35.028  20.848  25.517  1.00  0.00    -0.333 N 
ATOM      9  C   UNL A   1      32.363  26.520  24.294  1.00  0.00     0.253 C 
ATOM     10  O   UNL A   1      32.257  26.832  23.108  1.00  0.00    -0.269 OA
ATOM     11  N   UNL A   1      32.297  25.191  24.708  1.00  0.00    -0.339 N 
ATOM     12  C   UNL A   1      32.607  24.157  23.734  1.00  0.00     0.120 C 
ATOM     13  C   UNL A   1      31.777  24.702  25.981  1.00  0.00     0.120 C 
ATOM     14  C   UNL A   1      33.685  23.248  24.313  1.00  0.00     0.030 C 
ATOM     15  C   UNL A   1      32.750  23.716  26.633  1.00  0.00     0.030 C 
ATOM     16  C   UNL A   1      33.276  22.614  25.668  1.00  0.00    -0.008 C 
ATOM     17  C   UNL A   1      32.226  21.497  25.514  1.00  0.00     0.019 C 
ATOM     18  C   UNL A   1      34.504  21.949  26.311  1.00  0.00     0.127 C 
ATOM     19  C   UNL A   1      32.738  20.307  24.712  1.00  0.00     0.101 C 
ATOM     20  C   UNL A   1      34.203  19.938  24.881  1.00  0.00     0.223 C 
ATOM     21  O   UNL A   1      34.638  18.916  24.350  1.00  0.00    -0.275 OA
BRANCH   9  22
ATOM     22  C   UNL A   1      32.699  27.605  25.263  1.00  0.00     0.043 A 
ATOM     23  C   UNL A   1      33.988  31.045  27.552  1.00  0.00     0.048 C 
ATOM     24  C   UNL A   1      33.500  29.857  26.776  1.00  0.00    -0.009 A 
ATOM     25  C   UNL A   1      34.214  28.654  26.846  1.00  0.00     0.008 A 
ATOM     26  C   UNL A   1      32.386  29.915  25.931  1.00  0.00     0.119 A 
ATOM     27  C   UNL A   1      33.831  27.548  26.080  1.00  0.00     0.014 A 
ATOM     28  C   UNL A   1      31.978  28.802  25.194  1.00  0.00     0.060 A 
BRANCH  26  29
ATOM     29  O   UNL A   1      31.661  31.059  25.747  1.00  0.00    -0.508 OA
ATOM     30  H   UNL A   1      32.101  31.880  25.646  1.00  0.00     0.293 HD
ENDBRANCH  26  29
ENDBRANCH   9  22
ENDBRANCH   7   8
ENDBRANCH   4   7
ENDBRANCH   2   3
ENDBRANCH   1   2
BRANCH   1  31
ATOM     31  C   UNL A   1      40.896  22.118  27.719  1.00  0.00     0.023 C 
BRANCH  31  32
ATOM     32  C   UNL A   1      42.000  23.119  27.391  1.00  0.00     0.116 C 
BRANCH  32  33
ATOM     33  N   UNL A   1      41.726  23.909  26.200  1.00  0.00    -0.352 N 
ATOM     34  C   UNL A   1      41.379  25.235  26.104  1.00  0.00     0.251 C 
ATOM     35  H   UNL A   1      41.799  23.427  25.344  1.00  0.00     0.163 HD
ATOM     36  O   UNL A   1      41.087  25.712  25.011  1.00  0.00    -0.269 OA
BRANCH  34  37
ATOM     37  C   UNL A   1      41.319  26.070  27.324  1.00  0.00     0.039 A 
ATOM     38  C   UNL A   1      42.343  26.990  27.559  1.00  0.00     0.014 A 
ATOM     39  C   UNL A   1      40.250  25.964  28.220  1.00  0.00     0.014 A 
ATOM     40  C   UNL A   1      42.261  27.855  28.653  1.00  0.00     0.010 A 
ATOM     41  C   UNL A   1      40.140  26.866  29.276  1.00  0.00     0.010 A 
ATOM     42  C   UNL A   1      41.139  27.824  29.498  1.00  0.00    -0.014 A 
BRANCH  42  43
ATOM     43  C   UNL A   1      40.981  28.809  30.598  1.00  0.00     0.031 A 
ATOM     44  C   UNL A   1      41.844  28.727  31.827  1.00  0.00     0.074 A 
ATOM     45  C   UNL A   1      40.000  29.730  30.526  1.00  0.00     0.049 A 
ATOM     46  N   UNL A   1      41.816  29.469  32.903  1.00  0.00    -0.248 NA
ATOM     47  C   UNL A   1      42.852  27.655  31.860  1.00  0.00     0.031 C 
ATOM     48  C   UNL A   1      39.054  29.873  29.418  1.00  0.00     0.029 A 
ATOM     49  N   UNL A   1      39.627  30.710  31.411  1.00  0.00    -0.354 N 
ATOM     50  C   UNL A   1      42.780  28.941  33.754  1.00  0.00     0.074 A 
ATOM     51  C   UNL A   1      43.351  27.793  33.080  1.00  0.00     0.031 C 
ATOM     52  C   UNL A   1      38.218  30.891  29.682  1.00  0.00     0.029 A 
ATOM     53  C   UNL A   1      38.550  31.453  30.988  1.00  0.00     0.049 A 
ATOM     54  H   UNL A   1      40.086  30.867  32.268  1.00  0.00     0.167 HD
ATOM     55  C   UNL A   1      43.166  29.377  34.976  1.00  0.00     0.031 A 
ATOM     56  C   UNL A   1      37.897  32.470  31.583  1.00  0.00     0.031 A 
ATOM     57  C   UNL A   1      42.608  30.527  35.638  1.00  0.00     0.049 A 
ATOM     58  C   UNL A   1      38.364  32.961  32.923  1.00  0.00     0.074 A 
ATOM     59  C   UNL A   1      42.990  31.098  36.840  1.00  0.00     0.029 A 
ATOM     60  N   UNL A   1      41.546  31.278  35.158  1.00  0.00    -0.354 N 
ATOM     61  N   UNL A   1      39.340  32.506  33.671  1.00  0.00    -0.248 NA
ATOM     62  C   UNL A   1      37.651  34.113  33.492  1.00  0.00     0.031 C 
ATOM     63  C   UNL A   1      42.130  32.170  37.107  1.00  0.00     0.029 A 
ATOM     64  C   UNL A   1      41.242  32.293  36.051  1.00  0.00     0.049 A 
ATOM     65  H   UNL A   1      41.077  31.114  34.309  1.00  0.00     0.167 HD
ATOM     66  C   UNL A   1      39.369  33.324  34.793  1.00  0.00     0.074 A 
ATOM     67  C   UNL A   1      38.324  34.312  34.619  1.00  0.00     0.031 C 
ATOM     68  C   UNL A   1      40.191  33.262  35.871  1.00  0.00     0.031 A 
BRANCH  55  69
ATOM     69  C   UNL A   1      44.238  28.590  35.682  1.00  0.00    -0.014 A 
ATOM     70  C   UNL A   1      43.918  27.460  36.456  1.00  0.00     0.010 A 
ATOM     71  C   UNL A   1      45.584  28.981  35.561  1.00  0.00     0.010 A 
ATOM     72  C   UNL A   1      44.918  26.768  37.143  1.00  0.00     0.020 A 
ATOM     73  C   UNL A   1      46.591  28.276  36.227  1.00  0.00     0.020 A 
ATOM     74  C   UNL A   1      46.248  27.187  37.033  1.00  0.00     0.054 A 
BRANCH  74  75
ATOM     75  S   UNL A   1      47.528  26.279  37.942  1.00  0.00     0.124 S 
ATOM     76  O   UNL A   1      46.839  25.032  38.263  1.00  0.00    -0.237 OA
ATOM     77  O   UNL A   1      48.604  26.166  36.960  1.00  0.00    -0.237 OA
ATOM     78  O   UNL A   1      47.820  27.143  39.083  1.00  0.00    -0.744 OA
ENDBRANCH  74  75
ENDBRANCH  55  69
BRANCH  56  79
ATOM     79  C   UNL A   1      36.745  33.103  30.889  1.00  0.00    -0.014 A 
ATOM     80  C   UNL A   1      35.438  32.922  31.371  1.00  0.00     0.010 A 
ATOM     81  C   UNL A   1      36.958  33.935  29.775  1.00  0.00     0.010 A 
ATOM     82  C   UNL A   1      34.361  33.563  30.752  1.00  0.00     0.020 A 
ATOM     83  C   UNL A   1      35.886  34.594  29.166  1.00  0.00     0.020 A 
ATOM     84  C   UNL A   1      34.593  34.401  29.657  1.00  0.00     0.054 A 
BRANCH  84  85
ATOM     85  S   UNL A   1      33.193  35.296  28.926  1.00  0.00     0.124 S 
ATOM     86  O   UNL A   1      32.597  34.278  28.067  1.00  0.00    -0.237 OA
ATOM     87  O   UNL A   1      32.409  35.671  30.102  1.00  0.00    -0.237 OA
ATOM     88  O   UNL A   1      33.830  36.412  28.232  1.00  0.00    -0.744 OA
ENDBRANCH  84  85
ENDBRANCH  56  79
BRANCH  68  89
ATOM     89  C   UNL A   1      40.001  34.300  36.941  1.00  0.00    -0.014 A 
ATOM     90  C   UNL A   1      39.152  34.065  38.037  1.00  0.00     0.010 A 
ATOM     91  C   UNL A   1      40.720  35.508  36.876  1.00  0.00     0.010 A 
ATOM     92  C   UNL A   1      39.003  35.031  39.036  1.00  0.00     0.020 A 
ATOM     93  C   UNL A   1      40.590  36.467  37.884  1.00  0.00     0.020 A 
ATOM     94  C   UNL A   1      39.721  36.228  38.951  1.00  0.00     0.054 A 
BRANCH  94  95
ATOM     95  S   UNL A   1      39.547  37.453  40.279  1.00  0.00     0.124 S 
ATOM     96  O   UNL A   1      40.629  38.385  39.975  1.00  0.00    -0.237 OA
ATOM     97  O   UNL A   1      38.196  37.968  40.067  1.00  0.00    -0.237 OA
ATOM     98  O   UNL A   1      39.723  36.667  41.498  1.00  0.00    -0.744 OA
ENDBRANCH  94  95
ENDBRANCH  68  89
ENDBRANCH  42  43
ENDBRANCH  34  37
ENDBRANCH  32  33
ENDBRANCH  31  32
ENDBRANCH   1  31
TORSDOF 17
ENDMDL
MODEL 2
REMARK VINA RESULT:     -12.0      5.897     11.926
REMARK SMILES Cc1ccc(C(=O)N2CCC3(CCC(=O)N(CC(=O)NCCCCNC(=O)c4ccc(-c5c6nc(c(-c7ccc(S(=O)(=O)[O-])cc7)c7ccc([nH]7)c(-c7ccc(S(=O)(=O)[O-])cc7)c7nc(c(-c8ccc(S(=O)(=O)[O-])cc8)c8ccc5[nH]8)C=C7)C=C6)cc4)C3)CC2)cc1O
REMARK SMILES IDX 22 1 21 2 20 3 18 4 19 5 17 7 16 8 6 9 7 10 8 11 9 12 90 13
REMARK SMILES IDX 10 14 89 15 11 16 12 17 88 18 13 19 14 20 15 21 5 22 1 23
REMARK SMILES IDX 2 24 3 25 92 26 4 27 91 28 93 29 23 31 24 32 25 33 26 34
REMARK SMILES IDX 27 36 28 37 29 38 87 39 30 40 86 41 31 42 32 43 33 44 80 45
REMARK SMILES IDX 34 46 85 47 79 48 81 49 35 50 84 51 78 52 77 53 36 55 66 56
REMARK SMILES IDX 47 57 65 58 48 59 51 60 64 61 82 62 49 63 50 64 63 66 83 67
REMARK SMILES IDX 52 68 37 69 38 70 46 71 39 72 45 73 40 74 41 75 42 76 43 77
REMARK SMILES IDX 44 78 67 79 68 80 76 81 69 82 75 83 70 84 71 85 72 86 73 87
REMARK SMILES IDX 74 88 53 89 54 90 62 91 55 92 61 93 56 94 57 95 58 96 59 97
REMARK SMILES IDX 60 98
REMARK H PARENT 20 6 93 30 25 35 81 54 51 65
REMARK Flexibility Score: inf
ROOT
ATOM      1  C   UNL A   1      35.300  33.852  29.073  1.00  0.00     0.023 C 
ENDROOT
BRANCH   1   2
ATOM      2  C   UNL A   1      34.698  32.950  28.000  1.00  0.00     0.116 C 
BRANCH   2   3
ATOM      3  N   UNL A   1      35.428  31.714  27.856  1.00  0.00    -0.355 N 
ATOM      4  C   UNL A   1      34.964  30.459  27.598  1.00  0.00     0.239 C 
ATOM      5  O   UNL A   1      35.797  29.605  27.282  1.00  0.00    -0.273 OA
ATOM      6  H   UNL A   1      36.404  31.789  27.958  1.00  0.00     0.163 HD
BRANCH   4   7
ATOM      7  C   UNL A   1      33.458  30.172  27.498  1.00  0.00     0.219 C 
BRANCH   7   8
ATOM      8  N   UNL A   1      32.902  29.733  26.211  1.00  0.00    -0.333 N 
ATOM      9  C   UNL A   1      31.415  23.539  25.783  1.00  0.00     0.253 C 
ATOM     10  O   UNL A   1      30.433  23.165  26.423  1.00  0.00    -0.269 OA
ATOM     11  N   UNL A   1      31.497  24.826  25.255  1.00  0.00    -0.339 N 
ATOM     12  C   UNL A   1      30.686  25.867  25.866  1.00  0.00     0.120 C 
ATOM     13  C   UNL A   1      32.183  25.221  24.030  1.00  0.00     0.120 C 
ATOM     14  C   UNL A   1      31.591  27.033  26.243  1.00  0.00     0.030 C 
ATOM     15  C   UNL A   1      33.079  26.440  24.267  1.00  0.00     0.030 C 
ATOM     16  C   UNL A   1      32.381  27.599  25.034  1.00  0.00    -0.008 C 
ATOM     17  C   UNL A   1      31.499  28.418  24.073  1.00  0.00     0.019 C 
ATOM     18  C   UNL A   1      33.461  28.569  25.540  1.00  0.00     0.127 C 
ATOM     19  C   UNL A   1      30.912  29.666  24.721  1.00  0.00     0.101 C 
ATOM     20  C   UNL A   1      31.779  30.389  25.739  1.00  0.00     0.223 C 
ATOM     21  O   UNL A   1      31.403  31.465  26.204  1.00  0.00    -0.275 OA
BRANCH   9  22
ATOM     22  C   UNL A   1      32.579  22.608  25.704  1.00  0.00     0.043 A 
ATOM     23  C   UNL A   1      36.192  20.327  25.004  1.00  0.00     0.048 C 
ATOM     24  C   UNL A   1      34.947  21.114  25.290  1.00  0.00    -0.009 A 
ATOM     25  C   UNL A   1      33.741  20.728  24.690  1.00  0.00     0.008 A 
ATOM     26  C   UNL A   1      34.948  22.261  26.092  1.00  0.00     0.119 A 
ATOM     27  C   UNL A   1      32.576  21.481  24.876  1.00  0.00     0.014 A 
ATOM     28  C   UNL A   1      33.780  22.993  26.311  1.00  0.00     0.060 A 
BRANCH  26  29
ATOM     29  O   UNL A   1      36.084  22.753  26.670  1.00  0.00    -0.508 OA
ATOM     30  H   UNL A   1      36.375  22.413  27.494  1.00  0.00     0.293 HD
ENDBRANCH  26  29
ENDBRANCH   9  22
ENDBRANCH   7   8
ENDBRANCH   4   7
ENDBRANCH   2   3
ENDBRANCH   1   2
BRANCH   1  31
ATOM     31  C   UNL A   1      36.827  33.814  29.164  1.00  0.00     0.023 C 
BRANCH  31  32
ATOM     32  C   UNL A   1      37.402  33.288  30.476  1.00  0.00     0.116 C 
BRANCH  32  33
ATOM     33  N   UNL A   1      36.562  32.283  31.111  1.00  0.00    -0.352 N 
ATOM     34  C   UNL A   1      36.776  30.931  31.234  1.00  0.00     0.251 C 
ATOM     35  H   UNL A   1      35.724  32.618  31.506  1.00  0.00     0.163 HD
ATOM     36  O   UNL A   1      35.903  30.218  31.719  1.00  0.00    -0.269 OA
BRANCH  34  37
ATOM     37  C   UNL A   1      38.040  30.339  30.745  1.00  0.00     0.039 A 
ATOM     38  C   UNL A   1      38.282  30.317  29.369  1.00  0.00     0.014 A 
ATOM     39  C   UNL A   1      38.990  29.827  31.634  1.00  0.00     0.014 A 
ATOM     40  C   UNL A   1      39.508  29.850  28.889  1.00  0.00     0.010 A 
ATOM     41  C   UNL A   1      40.233  29.417  31.159  1.00  0.00     0.010 A 
ATOM     42  C   UNL A   1      40.507  29.431  29.783  1.00  0.00    -0.014 A 
BRANCH  42  43
ATOM     43  C   UNL A   1      41.854  29.037  29.298  1.00  0.00     0.031 A 
ATOM     44  C   UNL A   1      42.967  30.045  29.228  1.00  0.00     0.074 A 
ATOM     45  C   UNL A   1      42.052  27.785  28.840  1.00  0.00     0.049 A 
ATOM     46  N   UNL A   1      44.189  29.893  28.789  1.00  0.00    -0.248 NA
ATOM     47  C   UNL A   1      42.656  31.409  29.687  1.00  0.00     0.031 C 
ATOM     48  C   UNL A   1      41.036  26.730  28.794  1.00  0.00     0.029 A 
ATOM     49  N   UNL A   1      43.172  27.192  28.312  1.00  0.00    -0.354 N 
ATOM     50  C   UNL A   1      44.788  31.143  28.892  1.00  0.00     0.074 A 
ATOM     51  C   UNL A   1      43.781  32.050  29.403  1.00  0.00     0.031 C 
ATOM     52  C   UNL A   1      41.583  25.616  28.279  1.00  0.00     0.029 A 
ATOM     53  C   UNL A   1      42.976  25.884  27.935  1.00  0.00     0.049 A 
ATOM     54  H   UNL A   1      44.032  27.658  28.213  1.00  0.00     0.167 HD
ATOM     55  C   UNL A   1      46.061  31.502  28.602  1.00  0.00     0.031 A 
ATOM     56  C   UNL A   1      43.819  24.999  27.370  1.00  0.00     0.031 A 
ATOM     57  C   UNL A   1      47.065  30.596  28.108  1.00  0.00     0.049 A 
ATOM     58  C   UNL A   1      45.236  25.407  27.090  1.00  0.00     0.074 A 
ATOM     59  C   UNL A   1      48.404  30.846  27.864  1.00  0.00     0.029 A 
ATOM     60  N   UNL A   1      46.838  29.269  27.777  1.00  0.00    -0.354 N 
ATOM     61  N   UNL A   1      45.810  26.570  27.281  1.00  0.00    -0.248 NA
ATOM     62  C   UNL A   1      46.125  24.378  26.531  1.00  0.00     0.031 C 
ATOM     63  C   UNL A   1      48.978  29.679  27.345  1.00  0.00     0.029 A 
ATOM     64  C   UNL A   1      48.007  28.692  27.308  1.00  0.00     0.049 A 
ATOM     65  H   UNL A   1      45.974  28.805  27.862  1.00  0.00     0.167 HD
ATOM     66  C   UNL A   1      47.131  26.411  26.881  1.00  0.00     0.074 A 
ATOM     67  C   UNL A   1      47.276  25.035  26.451  1.00  0.00     0.031 C 
ATOM     68  C   UNL A   1      48.134  27.324  26.872  1.00  0.00     0.031 A 
BRANCH  55  69
ATOM     69  C   UNL A   1      46.431  32.947  28.801  1.00  0.00    -0.014 A 
ATOM     70  C   UNL A   1      46.979  33.396  30.016  1.00  0.00     0.010 A 
ATOM     71  C   UNL A   1      46.236  33.868  27.755  1.00  0.00     0.010 A 
ATOM     72  C   UNL A   1      47.274  34.749  30.202  1.00  0.00     0.020 A 
ATOM     73  C   UNL A   1      46.552  35.218  27.929  1.00  0.00     0.020 A 
ATOM     74  C   UNL A   1      47.047  35.654  29.160  1.00  0.00     0.054 A 
BRANCH  74  75
ATOM     75  S   UNL A   1      47.427  37.407  29.428  1.00  0.00     0.124 S 
ATOM     76  O   UNL A   1      46.271  38.060  28.818  1.00  0.00    -0.237 OA
ATOM     77  O   UNL A   1      47.504  37.503  30.884  1.00  0.00    -0.237 OA
ATOM     78  O   UNL A   1      48.693  37.598  28.727  1.00  0.00    -0.744 OA
ENDBRANCH  74  75
ENDBRANCH  55  69
BRANCH  56  79
ATOM     79  C   UNL A   1      43.337  23.627  27.061  1.00  0.00    -0.014 A 
ATOM     80  C   UNL A   1      43.237  23.192  25.729  1.00  0.00     0.010 A 
ATOM     81  C   UNL A   1      43.029  22.732  28.102  1.00  0.00     0.010 A 
ATOM     82  C   UNL A   1      42.837  21.884  25.441  1.00  0.00     0.020 A 
ATOM     83  C   UNL A   1      42.649  21.417  27.818  1.00  0.00     0.020 A 
ATOM     84  C   UNL A   1      42.553  21.002  26.488  1.00  0.00     0.054 A 
BRANCH  84  85
ATOM     85  S   UNL A   1      42.126  19.282  26.094  1.00  0.00     0.124 S 
ATOM     86  O   UNL A   1      40.699  19.382  25.806  1.00  0.00    -0.237 OA
ATOM     87  O   UNL A   1      42.985  18.998  24.946  1.00  0.00    -0.237 OA
ATOM     88  O   UNL A   1      42.473  18.559  27.314  1.00  0.00    -0.744 OA
ENDBRANCH  84  85
ENDBRANCH  56  79
BRANCH  68  89
ATOM     89  C   UNL A   1      49.482  26.861  26.394  1.00  0.00    -0.014 A 
ATOM     90  C   UNL A   1      50.464  26.429  27.303  1.00  0.00     0.010 A 
ATOM     91  C   UNL A   1      49.753  26.810  25.013  1.00  0.00     0.010 A 
ATOM     92  C   UNL A   1      51.704  25.980  26.842  1.00  0.00     0.020 A 
ATOM     93  C   UNL A   1      50.984  26.342  24.548  1.00  0.00     0.020 A 
ATOM     94  C   UNL A   1      51.958  25.943  25.467  1.00  0.00     0.054 A 
BRANCH  94  95
ATOM     95  S   UNL A   1      53.559  25.317  24.886  1.00  0.00     0.124 S 
ATOM     96  O   UNL A   1      54.470  25.819  25.911  1.00  0.00    -0.237 OA
ATOM     97  O   UNL A   1      53.357  23.870  24.879  1.00  0.00    -0.237 OA
ATOM     98  O   UNL A   1      53.709  25.925  23.566  1.00  0.00    -0.744 OA
ENDBRANCH  94  95
ENDBRANCH  68  89
ENDBRANCH  42  43
ENDBRANCH  34  37
ENDBRANCH  32  33
ENDBRANCH  31  32
ENDBRANCH   1  31
TORSDOF 17
ENDMDL
MODEL 3
REMARK VINA RESULT:     -12.0      4.331     10.568
REMARK SMILES Cc1ccc(C(=O)N2CCC3(CCC(=O)N(CC(=O)NCCCCNC(=O)c4ccc(-c5c6nc(c(-c7ccc(S(=O)(=O)[O-])cc7)c7ccc([nH]7)c(-c7ccc(S(=O)(=O)[O-])cc7)c7nc(c(-c8ccc(S(=O)(=O)[O-])cc8)c8ccc5[nH]8)C=C7)C=C6)cc4)C3)CC2)cc1O
REMARK SMILES IDX 22 1 21 2 20 3 18 4 19 5 17 7 16 8 6 9 7 10 8 11 9 12 90 13
REMARK SMILES IDX 10 14 89 15 11 16 12 17 88 18 13 19 14 20 15 21 5 22 1 23
REMARK SMILES IDX 2 24 3 25 92 26 4 27 91 28 93 29 23 31 24 32 25 33 26 34
REMARK SMILES IDX 27 36 28 37 29 38 87 39 30 40 86 41 31 42 32 43 33 44 80 45
REMARK SMILES IDX 34 46 85 47 79 48 81 49 35 50 84 51 78 52 77 53 36 55 66 56
REMARK SMILES IDX 47 57 65 58 48 59 51 60 64 61 82 62 49 63 50 64 63 66 83 67
REMARK SMILES IDX 52 68 37 69 38 70 46 71 39 72 45 73 40 74 41 75 42 76 43 77
REMARK SMILES IDX 44 78 67 79 68 80 76 81 69 82 75 83 70 84 71 85 72 86 73 87
REMARK SMILES IDX 74 88 53 89 54 90 62 91 55 92 61 93 56 94 57 95 58 96 59 97
REMARK SMILES IDX 60 98
REMARK H PARENT 20 6 93 30 25 35 81 54 51 65
REMARK Flexibility Score: inf
ROOT
ATOM      1  C   UNL A   1      33.434  29.324  24.728  1.00  0.00     0.023 C 
ENDROOT
BRANCH   1   2
ATOM      2  C   UNL A   1      33.425  28.938  23.252  1.00  0.00     0.116 C 
BRANCH   2   3
ATOM      3  N   UNL A   1      32.176  29.273  22.610  1.00  0.00    -0.355 N 
ATOM      4  C   UNL A   1      31.158  28.456  22.218  1.00  0.00     0.239 C 
ATOM      5  O   UNL A   1      30.091  28.994  21.910  1.00  0.00    -0.273 OA
ATOM      6  H   UNL A   1      32.040  30.230  22.430  1.00  0.00     0.163 HD
BRANCH   4   7
ATOM      7  C   UNL A   1      31.263  26.929  22.356  1.00  0.00     0.219 C 
BRANCH   7   8
ATOM      8  N   UNL A   1      30.754  26.289  23.576  1.00  0.00    -0.333 N 
ATOM      9  C   UNL A   1      34.354  21.589  25.966  1.00  0.00     0.253 C 
ATOM     10  O   UNL A   1      35.416  21.923  26.491  1.00  0.00    -0.269 OA
ATOM     11  N   UNL A   1      33.235  22.417  25.990  1.00  0.00    -0.339 N 
ATOM     12  C   UNL A   1      33.445  23.844  26.177  1.00  0.00     0.120 C 
ATOM     13  C   UNL A   1      31.839  21.991  26.023  1.00  0.00     0.120 C 
ATOM     14  C   UNL A   1      32.745  24.592  25.049  1.00  0.00     0.030 C 
ATOM     15  C   UNL A   1      31.010  22.733  24.971  1.00  0.00     0.030 C 
ATOM     16  C   UNL A   1      31.229  24.273  24.962  1.00  0.00    -0.008 C 
ATOM     17  C   UNL A   1      30.412  24.933  26.089  1.00  0.00     0.019 C 
ATOM     18  C   UNL A   1      30.664  24.839  23.649  1.00  0.00     0.127 C 
ATOM     19  C   UNL A   1      30.452  26.455  26.039  1.00  0.00     0.101 C 
ATOM     20  C   UNL A   1      30.485  27.101  24.663  1.00  0.00     0.223 C 
ATOM     21  O   UNL A   1      30.397  28.325  24.563  1.00  0.00    -0.275 OA
BRANCH   9  22
ATOM     22  C   UNL A   1      34.346  20.318  25.183  1.00  0.00     0.043 A 
ATOM     23  C   UNL A   1      34.163  16.334  23.498  1.00  0.00     0.048 C 
ATOM     24  C   UNL A   1      34.202  17.730  24.049  1.00  0.00    -0.009 A 
ATOM     25  C   UNL A   1      35.437  18.297  24.387  1.00  0.00     0.008 A 
ATOM     26  C   UNL A   1      33.043  18.475  24.294  1.00  0.00     0.119 A 
ATOM     27  C   UNL A   1      35.505  19.567  24.970  1.00  0.00     0.014 A 
ATOM     28  C   UNL A   1      33.110  19.758  24.840  1.00  0.00     0.060 A 
BRANCH  26  29
ATOM     29  O   UNL A   1      31.790  17.986  24.056  1.00  0.00    -0.508 OA
ATOM     30  H   UNL A   1      31.054  18.567  24.048  1.00  0.00     0.293 HD
ENDBRANCH  26  29
ENDBRANCH   9  22
ENDBRANCH   7   8
ENDBRANCH   4   7
ENDBRANCH   2   3
ENDBRANCH   1   2
BRANCH   1  31
ATOM     31  C   UNL A   1      33.776  28.185  25.691  1.00  0.00     0.023 C 
BRANCH  31  32
ATOM     32  C   UNL A   1      33.460  28.441  27.161  1.00  0.00     0.116 C 
BRANCH  32  33
ATOM     33  N   UNL A   1      33.405  29.855  27.501  1.00  0.00    -0.352 N 
ATOM     34  C   UNL A   1      34.382  30.649  28.053  1.00  0.00     0.251 C 
ATOM     35  H   UNL A   1      32.551  30.305  27.309  1.00  0.00     0.163 HD
ATOM     36  O   UNL A   1      34.121  31.808  28.364  1.00  0.00    -0.269 OA
BRANCH  34  37
ATOM     37  C   UNL A   1      35.728  30.091  28.307  1.00  0.00     0.039 A 
ATOM     38  C   UNL A   1      36.673  30.124  27.279  1.00  0.00     0.014 A 
ATOM     39  C   UNL A   1      36.065  29.558  29.555  1.00  0.00     0.014 A 
ATOM     40  C   UNL A   1      37.978  29.691  27.522  1.00  0.00     0.010 A 
ATOM     41  C   UNL A   1      37.381  29.181  29.814  1.00  0.00     0.010 A 
ATOM     42  C   UNL A   1      38.352  29.251  28.804  1.00  0.00    -0.014 A 
BRANCH  42  43
ATOM     43  C   UNL A   1      39.759  28.892  29.111  1.00  0.00     0.031 A 
ATOM     44  C   UNL A   1      40.695  29.908  29.704  1.00  0.00     0.074 A 
ATOM     45  C   UNL A   1      40.218  27.670  28.776  1.00  0.00     0.049 A 
ATOM     46  N   UNL A   1      41.965  29.787  29.993  1.00  0.00    -0.248 NA
ATOM     47  C   UNL A   1      40.137  31.241  29.983  1.00  0.00     0.031 C 
ATOM     48  C   UNL A   1      39.429  26.615  28.136  1.00  0.00     0.029 A 
ATOM     49  N   UNL A   1      41.466  27.114  28.915  1.00  0.00    -0.354 N 
ATOM     50  C   UNL A   1      42.367  31.032  30.463  1.00  0.00     0.074 A 
ATOM     51  C   UNL A   1      41.212  31.903  30.387  1.00  0.00     0.031 C 
ATOM     52  C   UNL A   1      40.206  25.536  27.950  1.00  0.00     0.029 A 
ATOM     53  C   UNL A   1      41.553  25.830  28.431  1.00  0.00     0.049 A 
ATOM     54  H   UNL A   1      42.225  27.590  29.321  1.00  0.00     0.167 HD
ATOM     55  C   UNL A   1      43.580  31.413  30.929  1.00  0.00     0.031 A 
ATOM     56  C   UNL A   1      42.599  24.983  28.374  1.00  0.00     0.031 A 
ATOM     57  C   UNL A   1      44.723  30.543  31.019  1.00  0.00     0.049 A 
ATOM     58  C   UNL A   1      43.926  25.413  28.929  1.00  0.00     0.074 A 
ATOM     59  C   UNL A   1      45.971  30.812  31.554  1.00  0.00     0.029 A 
ATOM     60  N   UNL A   1      44.760  29.236  30.555  1.00  0.00    -0.354 N 
ATOM     61  N   UNL A   1      44.261  26.566  29.455  1.00  0.00    -0.248 NA
ATOM     62  C   UNL A   1      45.011  24.424  28.896  1.00  0.00     0.031 C 
ATOM     63  C   UNL A   1      46.775  29.681  31.376  1.00  0.00     0.029 A 
ATOM     64  C   UNL A   1      46.015  28.693  30.771  1.00  0.00     0.049 A 
ATOM     65  H   UNL A   1      44.005  28.764  30.136  1.00  0.00     0.167 HD
ATOM     66  C   UNL A   1      45.593  26.437  29.830  1.00  0.00     0.074 A 
ATOM     67  C   UNL A   1      45.997  25.089  29.485  1.00  0.00     0.031 C 
ATOM     68  C   UNL A   1      46.407  27.354  30.410  1.00  0.00     0.031 A 
BRANCH  55  69
ATOM     69  C   UNL A   1      43.731  32.846  31.364  1.00  0.00    -0.014 A 
ATOM     70  C   UNL A   1      43.513  33.226  32.700  1.00  0.00     0.010 A 
ATOM     71  C   UNL A   1      44.105  33.825  30.425  1.00  0.00     0.010 A 
ATOM     72  C   UNL A   1      43.610  34.567  33.079  1.00  0.00     0.020 A 
ATOM     73  C   UNL A   1      44.229  35.164  30.806  1.00  0.00     0.020 A 
ATOM     74  C   UNL A   1      43.957  35.530  32.126  1.00  0.00     0.054 A 
BRANCH  74  75
ATOM     75  S   UNL A   1      44.068  37.267  32.639  1.00  0.00     0.124 S 
ATOM     76  O   UNL A   1      43.792  37.966  31.386  1.00  0.00    -0.237 OA
ATOM     77  O   UNL A   1      43.025  37.371  33.657  1.00  0.00    -0.237 OA
ATOM     78  O   UNL A   1      45.434  37.394  33.136  1.00  0.00    -0.744 OA
ENDBRANCH  74  75
ENDBRANCH  55  69
BRANCH  56  79
ATOM     79  C   UNL A   1      42.410  23.629  27.790  1.00  0.00    -0.014 A 
ATOM     80  C   UNL A   1      42.562  23.425  26.408  1.00  0.00     0.010 A 
ATOM     81  C   UNL A   1      42.133  22.529  28.621  1.00  0.00     0.010 A 
ATOM     82  C   UNL A   1      42.440  22.143  25.866  1.00  0.00     0.020 A 
ATOM     83  C   UNL A   1      42.032  21.242  28.085  1.00  0.00     0.020 A 
ATOM     84  C   UNL A   1      42.183  21.058  26.709  1.00  0.00     0.054 A 
BRANCH  84  85
ATOM     85  S   UNL A   1      42.121  19.389  25.997  1.00  0.00     0.124 S 
ATOM     86  O   UNL A   1      42.625  18.571  27.096  1.00  0.00    -0.237 OA
ATOM     87  O   UNL A   1      40.702  19.230  25.688  1.00  0.00    -0.237 OA
ATOM     88  O   UNL A   1      42.996  19.485  24.831  1.00  0.00    -0.744 OA
ENDBRANCH  84  85
ENDBRANCH  56  79
BRANCH  68  89
ATOM     89  C   UNL A   1      47.815  26.926  30.721  1.00  0.00    -0.014 A 
ATOM     90  C   UNL A   1      48.863  27.169  29.816  1.00  0.00     0.010 A 
ATOM     91  C   UNL A   1      48.102  26.316  31.957  1.00  0.00     0.010 A 
ATOM     92  C   UNL A   1      50.170  26.785  30.128  1.00  0.00     0.020 A 
ATOM     93  C   UNL A   1      49.411  25.951  32.281  1.00  0.00     0.020 A 
ATOM     94  C   UNL A   1      50.435  26.175  31.359  1.00  0.00     0.054 A 
BRANCH  94  95
ATOM     95  S   UNL A   1      52.144  25.722  31.764  1.00  0.00     0.124 S 
ATOM     96  O   UNL A   1      52.820  25.915  30.484  1.00  0.00    -0.237 OA
ATOM     97  O   UNL A   1      52.493  26.681  32.809  1.00  0.00    -0.237 OA
ATOM     98  O   UNL A   1      52.037  24.335  32.211  1.00  0.00    -0.744 OA
ENDBRANCH  94  95
ENDBRANCH  68  89
ENDBRANCH  42  43
ENDBRANCH  34  37
ENDBRANCH  32  33
ENDBRANCH  31  32
ENDBRANCH   1  31
TORSDOF 17
ENDMDL
