MODEL 1
REMARK VINA RESULT:     -12.5      0.000      0.000
REMARK SMILES Cc1c(-c2nn(-c3ccccc3)cc2/C=N/O)nnn1-c1ccc(C(=O)NCCCCNC(=O)c2ccc(-c3c4nc(c(-c5ccc(S(=O)(=O)[O-])cc5)c5ccc([nH]5)c(-c5ccc(S(=O)(=O)[O-])cc5)c5nc(c(-c6ccc(S(=O)(=O)[O-])cc6)c6ccc3[nH]6)C=C5)C=C4)cc2)cc1
REMARK SMILES IDX 29 1 28 2 27 3 25 4 26 5 24 7 21 8 22 9 96 10 23 11 95 12
REMARK SMILES IDX 20 13 1 14 2 15 3 16 18 17 19 18 4 19 5 20 14 21 6 22 13 23
REMARK SMILES IDX 15 24 16 25 17 26 7 28 8 29 12 30 9 31 11 32 10 33 30 34
REMARK SMILES IDX 31 35 32 36 33 37 34 39 35 40 36 41 94 42 37 43 93 44 38 45
REMARK SMILES IDX 39 46 40 47 87 48 41 49 92 50 86 51 88 52 42 53 91 54 85 55
REMARK SMILES IDX 84 56 43 58 73 59 54 60 72 61 55 62 58 63 71 64 89 65 56 66
REMARK SMILES IDX 57 67 70 69 90 70 59 71 44 72 45 73 53 74 46 75 52 76 47 77
REMARK SMILES IDX 48 78 49 79 50 80 51 81 74 82 75 83 83 84 76 85 82 86 77 87
REMARK SMILES IDX 78 88 79 89 80 90 81 91 60 92 61 93 69 94 62 95 68 96 63 97
REMARK SMILES IDX 64 98 65 99 66 100 67 101
REMARK H PARENT 27 6 17 27 32 38 88 57 58 68
REMARK Flexibility Score: inf
ROOT
ATOM      1  C   UNL A   1      38.771  19.830  25.321  1.00  0.00     0.023 C 
ENDROOT
BRANCH   1   2
ATOM      2  C   UNL A   1      37.498  20.558  24.876  1.00  0.00     0.116 C 
BRANCH   2   3
ATOM      3  N   UNL A   1      36.377  19.641  24.817  1.00  0.00    -0.352 N 
ATOM      4  C   UNL A   1      35.017  19.794  24.873  1.00  0.00     0.251 C 
ATOM      5  O   UNL A   1      34.345  18.759  24.853  1.00  0.00    -0.269 OA
ATOM      6  H   UNL A   1      36.654  18.701  24.714  1.00  0.00     0.163 HD
BRANCH   4   7
ATOM      7  C   UNL A   1      34.303  21.107  24.910  1.00  0.00     0.039 A 
ATOM      8  C   UNL A   1      32.972  23.565  25.258  1.00  0.00     0.067 A 
ATOM      9  C   UNL A   1      33.935  23.164  26.185  1.00  0.00     0.029 A 
ATOM     10  C   UNL A   1      32.723  22.787  24.125  1.00  0.00     0.029 A 
ATOM     11  C   UNL A   1      34.565  21.927  26.024  1.00  0.00     0.016 A 
ATOM     12  C   UNL A   1      33.426  21.587  23.934  1.00  0.00     0.016 A 
BRANCH   8  13
ATOM     13  N   UNL A   1      32.279  24.776  25.470  1.00  0.00    -0.217 N 
ATOM     14  C   UNL A   1      32.898  26.100  23.379  1.00  0.00     0.069 C 
ATOM     15  C   UNL A   1      32.307  25.943  24.730  1.00  0.00     0.071 A 
ATOM     16  C   UNL A   1      31.544  26.812  25.485  1.00  0.00     0.137 A 
ATOM     17  N   UNL A   1      31.033  26.170  26.576  1.00  0.00    -0.128 NA
ATOM     18  N   UNL A   1      31.432  24.906  26.521  1.00  0.00    -0.061 NA
BRANCH  16  19
ATOM     19  C   UNL A   1      31.173  28.190  25.193  1.00  0.00     0.124 A 
ATOM     20  N   UNL A   1      30.299  28.495  24.227  1.00  0.00    -0.165 NA
ATOM     21  C   UNL A   1      31.659  29.335  25.864  1.00  0.00     0.044 A 
ATOM     22  N   UNL A   1      30.288  29.843  24.193  1.00  0.00    -0.240 N 
ATOM     23  C   UNL A   1      31.106  30.388  25.158  1.00  0.00     0.125 A 
BRANCH  21  24
ATOM     24  C   UNL A   1      32.512  29.475  27.017  1.00  0.00     0.166 C 
ATOM     25  N   UNL A   1      33.676  28.915  27.033  1.00  0.00    -0.097 NA
BRANCH  25  26
ATOM     26  O   UNL A   1      34.291  29.160  28.266  1.00  0.00    -0.411 OA
ATOM     27  H   UNL A   1      34.443  30.042  28.547  1.00  0.00     0.330 HD
ENDBRANCH  25  26
ENDBRANCH  21  24
BRANCH  22  28
ATOM     28  C   UNL A   1      29.500  30.540  23.247  1.00  0.00     0.065 A 
ATOM     29  C   UNL A   1      29.119  31.862  23.516  1.00  0.00     0.028 A 
ATOM     30  C   UNL A   1      29.093  29.916  22.062  1.00  0.00     0.028 A 
ATOM     31  C   UNL A   1      28.355  32.566  22.585  1.00  0.00     0.002 A 
ATOM     32  C   UNL A   1      28.284  30.613  21.160  1.00  0.00     0.002 A 
ATOM     33  C   UNL A   1      27.928  31.938  21.415  1.00  0.00     0.000 A 
ENDBRANCH  22  28
ENDBRANCH  16  19
ENDBRANCH   8  13
ENDBRANCH   4   7
ENDBRANCH   2   3
ENDBRANCH   1   2
BRANCH   1  34
ATOM     34  C   UNL A   1      39.839  20.736  25.960  1.00  0.00     0.023 C 
BRANCH  34  35
ATOM     35  C   UNL A   1      40.862  20.003  26.822  1.00  0.00     0.116 C 
BRANCH  35  36
ATOM     36  N   UNL A   1      42.200  20.014  26.234  1.00  0.00    -0.352 N 
ATOM     37  C   UNL A   1      43.002  21.104  25.946  1.00  0.00     0.251 C 
ATOM     38  H   UNL A   1      42.581  19.133  26.016  1.00  0.00     0.163 HD
ATOM     39  O   UNL A   1      43.900  21.015  25.125  1.00  0.00    -0.269 OA
BRANCH  37  40
ATOM     40  C   UNL A   1      42.755  22.374  26.656  1.00  0.00     0.039 A 
ATOM     41  C   UNL A   1      43.125  22.536  27.993  1.00  0.00     0.014 A 
ATOM     42  C   UNL A   1      42.160  23.416  25.949  1.00  0.00     0.014 A 
ATOM     43  C   UNL A   1      42.977  23.789  28.587  1.00  0.00     0.010 A 
ATOM     44  C   UNL A   1      42.123  24.677  26.495  1.00  0.00     0.010 A 
ATOM     45  C   UNL A   1      42.495  24.865  27.824  1.00  0.00    -0.014 A 
BRANCH  45  46
ATOM     46  C   UNL A   1      42.511  26.227  28.356  1.00  0.00     0.031 A 
ATOM     47  C   UNL A   1      43.652  27.065  27.890  1.00  0.00     0.074 A 
ATOM     48  C   UNL A   1      41.461  26.774  29.006  1.00  0.00     0.049 A 
ATOM     49  N   UNL A   1      44.637  27.523  28.590  1.00  0.00    -0.248 NA
ATOM     50  C   UNL A   1      43.790  27.312  26.443  1.00  0.00     0.031 C 
ATOM     51  C   UNL A   1      40.144  26.175  29.260  1.00  0.00     0.029 A 
ATOM     52  N   UNL A   1      41.301  28.044  29.469  1.00  0.00    -0.354 N 
ATOM     53  C   UNL A   1      45.394  28.308  27.723  1.00  0.00     0.074 A 
ATOM     54  C   UNL A   1      44.941  27.984  26.394  1.00  0.00     0.031 C 
ATOM     55  C   UNL A   1      39.261  27.143  29.594  1.00  0.00     0.029 A 
ATOM     56  C   UNL A   1      39.983  28.390  29.755  1.00  0.00     0.049 A 
ATOM     57  H   UNL A   1      42.054  28.666  29.591  1.00  0.00     0.167 HD
ATOM     58  C   UNL A   1      46.153  29.346  28.177  1.00  0.00     0.031 A 
ATOM     59  C   UNL A   1      39.512  29.621  30.084  1.00  0.00     0.031 A 
ATOM     60  C   UNL A   1      46.291  29.310  29.610  1.00  0.00     0.049 A 
ATOM     61  C   UNL A   1      40.668  30.411  30.563  1.00  0.00     0.074 A 
ATOM     62  C   UNL A   1      46.818  28.421  30.523  1.00  0.00     0.029 A 
ATOM     63  N   UNL A   1      45.467  30.150  30.322  1.00  0.00    -0.354 N 
ATOM     64  N   UNL A   1      41.320  30.134  31.656  1.00  0.00    -0.248 NA
ATOM     65  C   UNL A   1      41.376  31.250  29.611  1.00  0.00     0.031 C 
ATOM     66  C   UNL A   1      45.936  28.477  31.642  1.00  0.00     0.029 A 
ATOM     67  C   UNL A   1      44.965  29.448  31.386  1.00  0.00     0.049 A 
ATOM     68  H   UNL A   1      45.272  31.090  30.105  1.00  0.00     0.167 HD
ATOM     69  C   UNL A   1      42.650  30.373  31.343  1.00  0.00     0.074 A 
ATOM     70  C   UNL A   1      42.609  31.171  30.119  1.00  0.00     0.031 C 
ATOM     71  C   UNL A   1      43.649  29.666  31.949  1.00  0.00     0.031 A 
BRANCH  58  72
ATOM     72  C   UNL A   1      46.405  30.620  27.398  1.00  0.00    -0.014 A 
ATOM     73  C   UNL A   1      47.735  31.068  27.245  1.00  0.00     0.010 A 
ATOM     74  C   UNL A   1      45.386  31.536  27.067  1.00  0.00     0.010 A 
ATOM     75  C   UNL A   1      48.025  32.386  26.864  1.00  0.00     0.020 A 
ATOM     76  C   UNL A   1      45.664  32.838  26.644  1.00  0.00     0.020 A 
ATOM     77  C   UNL A   1      46.982  33.266  26.582  1.00  0.00     0.054 A 
BRANCH  77  78
ATOM     78  S   UNL A   1      47.359  34.995  26.201  1.00  0.00     0.124 S 
ATOM     79  O   UNL A   1      48.490  34.861  25.290  1.00  0.00    -0.237 OA
ATOM     80  O   UNL A   1      46.111  35.458  25.602  1.00  0.00    -0.237 OA
ATOM     81  O   UNL A   1      47.669  35.572  27.507  1.00  0.00    -0.744 OA
ENDBRANCH  77  78
ENDBRANCH  58  72
BRANCH  59  82
ATOM     82  C   UNL A   1      38.199  30.242  29.783  1.00  0.00    -0.014 A 
ATOM     83  C   UNL A   1      37.508  30.978  30.763  1.00  0.00     0.010 A 
ATOM     84  C   UNL A   1      37.773  30.369  28.445  1.00  0.00     0.010 A 
ATOM     85  C   UNL A   1      36.479  31.868  30.411  1.00  0.00     0.020 A 
ATOM     86  C   UNL A   1      36.745  31.251  28.086  1.00  0.00     0.020 A 
ATOM     87  C   UNL A   1      36.121  32.018  29.068  1.00  0.00     0.054 A 
BRANCH  87  88
ATOM     88  S   UNL A   1      34.935  33.316  28.600  1.00  0.00     0.124 S 
ATOM     89  O   UNL A   1      34.917  34.164  29.788  1.00  0.00    -0.237 OA
ATOM     90  O   UNL A   1      35.556  33.901  27.415  1.00  0.00    -0.237 OA
ATOM     91  O   UNL A   1      33.699  32.576  28.347  1.00  0.00    -0.744 OA
ENDBRANCH  87  88
ENDBRANCH  59  82
BRANCH  71  92
ATOM     92  C   UNL A   1      43.310  28.874  33.191  1.00  0.00    -0.014 A 
ATOM     93  C   UNL A   1      43.356  29.393  34.502  1.00  0.00     0.010 A 
ATOM     94  C   UNL A   1      42.798  27.579  33.003  1.00  0.00     0.010 A 
ATOM     95  C   UNL A   1      42.935  28.616  35.594  1.00  0.00     0.020 A 
ATOM     96  C   UNL A   1      42.359  26.810  34.082  1.00  0.00     0.020 A 
ATOM     97  C   UNL A   1      42.441  27.327  35.375  1.00  0.00     0.054 A 
BRANCH  97  98
ATOM     98  S   UNL A   1      41.873  26.333  36.783  1.00  0.00     0.124 S 
ATOM     99  O   UNL A   1      41.581  25.044  36.165  1.00  0.00    -0.237 OA
ATOM    100  O   UNL A   1      43.024  26.355  37.683  1.00  0.00    -0.237 OA
ATOM    101  O   UNL A   1      40.703  27.062  37.273  1.00  0.00    -0.744 OA
ENDBRANCH  97  98
ENDBRANCH  71  92
ENDBRANCH  45  46
ENDBRANCH  37  40
ENDBRANCH  35  36
ENDBRANCH  34  35
ENDBRANCH   1  34
TORSDOF 19
ENDMDL
MODEL 2
REMARK VINA RESULT:     -11.5      5.094      9.834
REMARK SMILES Cc1c(-c2nn(-c3ccccc3)cc2/C=N/O)nnn1-c1ccc(C(=O)NCCCCNC(=O)c2ccc(-c3c4nc(c(-c5ccc(S(=O)(=O)[O-])cc5)c5ccc([nH]5)c(-c5ccc(S(=O)(=O)[O-])cc5)c5nc(c(-c6ccc(S(=O)(=O)[O-])cc6)c6ccc3[nH]6)C=C5)C=C4)cc2)cc1
REMARK SMILES IDX 29 1 28 2 27 3 25 4 26 5 24 7 21 8 22 9 96 10 23 11 95 12
REMARK SMILES IDX 20 13 1 14 2 15 3 16 18 17 19 18 4 19 5 20 14 21 6 22 13 23
REMARK SMILES IDX 15 24 16 25 17 26 7 28 8 29 12 30 9 31 11 32 10 33 30 34
REMARK SMILES IDX 31 35 32 36 33 37 34 39 35 40 36 41 94 42 37 43 93 44 38 45
REMARK SMILES IDX 39 46 40 47 87 48 41 49 92 50 86 51 88 52 42 53 91 54 85 55
REMARK SMILES IDX 84 56 43 58 73 59 54 60 72 61 55 62 58 63 71 64 89 65 56 66
REMARK SMILES IDX 57 67 70 69 90 70 59 71 44 72 45 73 53 74 46 75 52 76 47 77
REMARK SMILES IDX 48 78 49 79 50 80 51 81 74 82 75 83 83 84 76 85 82 86 77 87
REMARK SMILES IDX 78 88 79 89 80 90 81 91 60 92 61 93 69 94 62 95 68 96 63 97
REMARK SMILES IDX 64 98 65 99 66 100 67 101
REMARK H PARENT 27 6 17 27 32 38 88 57 58 68
REMARK Flexibility Score: inf
ROOT
ATOM      1  C   UNL A   1      44.995  21.364  24.562  1.00  0.00     0.023 C 
ENDROOT
BRANCH   1   2
ATOM      2  C   UNL A   1      46.205  22.061  25.194  1.00  0.00     0.116 C 
BRANCH   2   3
ATOM      3  N   UNL A   1      46.400  23.375  24.614  1.00  0.00    -0.352 N 
ATOM      4  C   UNL A   1      46.341  24.652  25.108  1.00  0.00     0.251 C 
ATOM      5  O   UNL A   1      46.507  25.564  24.294  1.00  0.00    -0.269 OA
ATOM      6  H   UNL A   1      46.625  23.343  23.656  1.00  0.00     0.163 HD
BRANCH   4   7
ATOM      7  C   UNL A   1      46.138  25.007  26.546  1.00  0.00     0.039 A 
ATOM      8  C   UNL A   1      45.651  25.417  29.289  1.00  0.00     0.067 A 
ATOM      9  C   UNL A   1      45.982  24.142  28.831  1.00  0.00     0.029 A 
ATOM     10  C   UNL A   1      45.633  26.498  28.405  1.00  0.00     0.029 A 
ATOM     11  C   UNL A   1      46.187  23.939  27.463  1.00  0.00     0.016 A 
ATOM     12  C   UNL A   1      45.925  26.294  27.047  1.00  0.00     0.016 A 
BRANCH   8  13
ATOM     13  N   UNL A   1      45.363  25.599  30.659  1.00  0.00    -0.217 N 
ATOM     14  C   UNL A   1      47.656  26.208  31.594  1.00  0.00     0.069 C 
ATOM     15  C   UNL A   1      46.226  25.838  31.712  1.00  0.00     0.071 A 
ATOM     16  C   UNL A   1      45.395  25.792  32.815  1.00  0.00     0.137 A 
ATOM     17  N   UNL A   1      44.100  25.609  32.427  1.00  0.00    -0.128 NA
ATOM     18  N   UNL A   1      44.081  25.561  31.101  1.00  0.00    -0.061 NA
BRANCH  16  19
ATOM     19  C   UNL A   1      45.726  26.017  34.216  1.00  0.00     0.124 A 
ATOM     20  N   UNL A   1      45.884  27.248  34.714  1.00  0.00    -0.165 NA
ATOM     21  C   UNL A   1      45.910  25.010  35.191  1.00  0.00     0.044 A 
ATOM     22  N   UNL A   1      46.272  27.050  35.991  1.00  0.00    -0.240 N 
ATOM     23  C   UNL A   1      46.312  25.711  36.314  1.00  0.00     0.125 A 
BRANCH  21  24
ATOM     24  C   UNL A   1      45.732  23.582  35.133  1.00  0.00     0.166 C 
ATOM     25  N   UNL A   1      44.545  23.074  35.171  1.00  0.00    -0.097 NA
BRANCH  25  26
ATOM     26  O   UNL A   1      44.636  21.677  35.140  1.00  0.00    -0.411 OA
ATOM     27  H   UNL A   1      43.950  21.155  35.507  1.00  0.00     0.330 HD
ENDBRANCH  25  26
ENDBRANCH  21  24
BRANCH  22  28
ATOM     28  C   UNL A   1      46.582  28.142  36.834  1.00  0.00     0.065 A 
ATOM     29  C   UNL A   1      47.674  28.962  36.516  1.00  0.00     0.028 A 
ATOM     30  C   UNL A   1      45.818  28.398  37.979  1.00  0.00     0.028 A 
ATOM     31  C   UNL A   1      47.982  30.053  37.329  1.00  0.00     0.002 A 
ATOM     32  C   UNL A   1      46.167  29.462  38.815  1.00  0.00     0.002 A 
ATOM     33  C   UNL A   1      47.237  30.294  38.483  1.00  0.00     0.000 A 
ENDBRANCH  22  28
ENDBRANCH  16  19
ENDBRANCH   8  13
ENDBRANCH   4   7
ENDBRANCH   2   3
ENDBRANCH   1   2
BRANCH   1  34
ATOM     34  C   UNL A   1      43.757  21.276  25.473  1.00  0.00     0.023 C 
BRANCH  34  35
ATOM     35  C   UNL A   1      42.782  22.441  25.333  1.00  0.00     0.116 C 
BRANCH  35  36
ATOM     36  N   UNL A   1      41.400  22.050  25.603  1.00  0.00    -0.352 N 
ATOM     37  C   UNL A   1      40.515  22.594  26.516  1.00  0.00     0.251 C 
ATOM     38  H   UNL A   1      41.053  21.302  25.065  1.00  0.00     0.163 HD
ATOM     39  O   UNL A   1      39.557  21.952  26.912  1.00  0.00    -0.269 OA
BRANCH  37  40
ATOM     40  C   UNL A   1      40.749  23.970  26.995  1.00  0.00     0.039 A 
ATOM     41  C   UNL A   1      39.854  25.000  26.696  1.00  0.00     0.014 A 
ATOM     42  C   UNL A   1      41.879  24.211  27.774  1.00  0.00     0.014 A 
ATOM     43  C   UNL A   1      40.056  26.257  27.266  1.00  0.00     0.010 A 
ATOM     44  C   UNL A   1      42.013  25.412  28.429  1.00  0.00     0.010 A 
ATOM     45  C   UNL A   1      41.127  26.451  28.153  1.00  0.00    -0.014 A 
BRANCH  45  46
ATOM     46  C   UNL A   1      41.253  27.693  28.914  1.00  0.00     0.031 A 
ATOM     47  C   UNL A   1      42.331  28.607  28.442  1.00  0.00     0.074 A 
ATOM     48  C   UNL A   1      40.323  28.107  29.803  1.00  0.00     0.049 A 
ATOM     49  N   UNL A   1      43.418  28.935  29.057  1.00  0.00    -0.248 NA
ATOM     50  C   UNL A   1      42.258  29.114  27.060  1.00  0.00     0.031 C 
ATOM     51  C   UNL A   1      39.046  27.466  30.138  1.00  0.00     0.029 A 
ATOM     52  N   UNL A   1      40.262  29.271  30.506  1.00  0.00    -0.354 N 
ATOM     53  C   UNL A   1      44.056  29.868  28.243  1.00  0.00     0.074 A 
ATOM     54  C   UNL A   1      43.404  29.790  26.961  1.00  0.00     0.031 C 
ATOM     55  C   UNL A   1      38.244  28.352  30.770  1.00  0.00     0.029 A 
ATOM     56  C   UNL A   1      39.009  29.553  31.045  1.00  0.00     0.049 A 
ATOM     57  H   UNL A   1      41.039  29.864  30.625  1.00  0.00     0.167 HD
ATOM     58  C   UNL A   1      44.897  30.811  28.759  1.00  0.00     0.031 A 
ATOM     59  C   UNL A   1      38.620  30.700  31.657  1.00  0.00     0.031 A 
ATOM     60  C   UNL A   1      45.245  30.515  30.125  1.00  0.00     0.049 A 
ATOM     61  C   UNL A   1      39.852  31.396  32.092  1.00  0.00     0.074 A 
ATOM     62  C   UNL A   1      45.881  29.476  30.772  1.00  0.00     0.029 A 
ATOM     63  N   UNL A   1      44.555  31.207  31.092  1.00  0.00    -0.354 N 
ATOM     64  N   UNL A   1      40.653  30.927  33.007  1.00  0.00    -0.248 NA
ATOM     65  C   UNL A   1      40.430  32.398  31.213  1.00  0.00     0.031 C 
ATOM     66  C   UNL A   1      45.177  29.323  32.002  1.00  0.00     0.029 A 
ATOM     67  C   UNL A   1      44.201  30.320  32.074  1.00  0.00     0.049 A 
ATOM     68  H   UNL A   1      44.352  32.170  31.080  1.00  0.00     0.167 HD
ATOM     69  C   UNL A   1      41.926  31.226  32.547  1.00  0.00     0.074 A 
ATOM     70  C   UNL A   1      41.722  32.233  31.507  1.00  0.00     0.031 C 
ATOM     71  C   UNL A   1      42.988  30.425  32.858  1.00  0.00     0.031 A 
BRANCH  58  72
ATOM     72  C   UNL A   1      45.060  32.207  28.194  1.00  0.00    -0.014 A 
ATOM     73  C   UNL A   1      46.327  32.823  28.269  1.00  0.00     0.010 A 
ATOM     74  C   UNL A   1      43.970  33.036  27.863  1.00  0.00     0.010 A 
ATOM     75  C   UNL A   1      46.478  34.208  28.107  1.00  0.00     0.020 A 
ATOM     76  C   UNL A   1      44.116  34.410  27.656  1.00  0.00     0.020 A 
ATOM     77  C   UNL A   1      45.364  34.993  27.817  1.00  0.00     0.054 A 
BRANCH  77  78
ATOM     78  S   UNL A   1      45.547  36.791  27.720  1.00  0.00     0.124 S 
ATOM     79  O   UNL A   1      45.538  37.169  29.129  1.00  0.00    -0.237 OA
ATOM     80  O   UNL A   1      46.826  36.934  27.031  1.00  0.00    -0.237 OA
ATOM     81  O   UNL A   1      44.380  37.211  26.949  1.00  0.00    -0.744 OA
ENDBRANCH  77  78
ENDBRANCH  58  72
BRANCH  59  82
ATOM     82  C   UNL A   1      37.292  31.359  31.674  1.00  0.00    -0.014 A 
ATOM     83  C   UNL A   1      36.634  31.626  32.889  1.00  0.00     0.010 A 
ATOM     84  C   UNL A   1      36.811  32.001  30.514  1.00  0.00     0.010 A 
ATOM     85  C   UNL A   1      35.585  32.559  32.957  1.00  0.00     0.020 A 
ATOM     86  C   UNL A   1      35.763  32.928  30.572  1.00  0.00     0.020 A 
ATOM     87  C   UNL A   1      35.172  33.224  31.800  1.00  0.00     0.054 A 
BRANCH  87  88
ATOM     88  S   UNL A   1      33.958  34.574  31.930  1.00  0.00     0.124 S 
ATOM     89  O   UNL A   1      34.769  35.673  32.445  1.00  0.00    -0.237 OA
ATOM     90  O   UNL A   1      33.496  34.719  30.552  1.00  0.00    -0.237 OA
ATOM     91  O   UNL A   1      32.961  34.048  32.862  1.00  0.00    -0.744 OA
ENDBRANCH  87  88
ENDBRANCH  59  82
BRANCH  71  92
ATOM     92  C   UNL A   1      42.819  29.418  33.973  1.00  0.00    -0.014 A 
ATOM     93  C   UNL A   1      42.929  29.726  35.345  1.00  0.00     0.010 A 
ATOM     94  C   UNL A   1      42.404  28.126  33.609  1.00  0.00     0.010 A 
ATOM     95  C   UNL A   1      42.665  28.751  36.320  1.00  0.00     0.020 A 
ATOM     96  C   UNL A   1      42.120  27.159  34.574  1.00  0.00     0.020 A 
ATOM     97  C   UNL A   1      42.264  27.470  35.926  1.00  0.00     0.054 A 
BRANCH  97  98
ATOM     98  S   UNL A   1      41.898  26.218  37.186  1.00  0.00     0.124 S 
ATOM     99  O   UNL A   1      43.012  26.369  38.117  1.00  0.00    -0.237 OA
ATOM    100  O   UNL A   1      40.592  26.635  37.692  1.00  0.00    -0.237 OA
ATOM    101  O   UNL A   1      41.887  24.962  36.436  1.00  0.00    -0.744 OA
ENDBRANCH  97  98
ENDBRANCH  71  92
ENDBRANCH  45  46
ENDBRANCH  37  40
ENDBRANCH  35  36
ENDBRANCH  34  35
ENDBRANCH   1  34
TORSDOF 19
ENDMDL
MODEL 3
REMARK VINA RESULT:     -11.4      4.979     10.963
REMARK SMILES Cc1c(-c2nn(-c3ccccc3)cc2/C=N/O)nnn1-c1ccc(C(=O)NCCCCNC(=O)c2ccc(-c3c4nc(c(-c5ccc(S(=O)(=O)[O-])cc5)c5ccc([nH]5)c(-c5ccc(S(=O)(=O)[O-])cc5)c5nc(c(-c6ccc(S(=O)(=O)[O-])cc6)c6ccc3[nH]6)C=C5)C=C4)cc2)cc1
REMARK SMILES IDX 29 1 28 2 27 3 25 4 26 5 24 7 21 8 22 9 96 10 23 11 95 12
REMARK SMILES IDX 20 13 1 14 2 15 3 16 18 17 19 18 4 19 5 20 14 21 6 22 13 23
REMARK SMILES IDX 15 24 16 25 17 26 7 28 8 29 12 30 9 31 11 32 10 33 30 34
REMARK SMILES IDX 31 35 32 36 33 37 34 39 35 40 36 41 94 42 37 43 93 44 38 45
REMARK SMILES IDX 39 46 40 47 87 48 41 49 92 50 86 51 88 52 42 53 91 54 85 55
REMARK SMILES IDX 84 56 43 58 73 59 54 60 72 61 55 62 58 63 71 64 89 65 56 66
REMARK SMILES IDX 57 67 70 69 90 70 59 71 44 72 45 73 53 74 46 75 52 76 47 77
REMARK SMILES IDX 48 78 49 79 50 80 51 81 74 82 75 83 83 84 76 85 82 86 77 87
REMARK SMILES IDX 78 88 79 89 80 90 81 91 60 92 61 93 69 94 62 95 68 96 63 97
REMARK SMILES IDX 64 98 65 99 66 100 67 101
REMARK H PARENT 27 6 17 27 32 38 88 57 58 68
REMARK Flexibility Score: inf
ROOT
ATOM      1  C   UNL A   1      44.305  23.278  25.565  1.00  0.00     0.023 C 
ENDROOT
BRANCH   1   2
ATOM      2  C   UNL A   1      44.060  24.374  26.610  1.00  0.00     0.116 C 
BRANCH   2   3
ATOM      3  N   UNL A   1      45.197  24.496  27.500  1.00  0.00    -0.352 N 
ATOM      4  C   UNL A   1      46.476  24.967  27.353  1.00  0.00     0.251 C 
ATOM      5  O   UNL A   1      47.217  24.861  28.334  1.00  0.00    -0.269 OA
ATOM      6  H   UNL A   1      45.010  24.170  28.411  1.00  0.00     0.163 HD
BRANCH   4   7
ATOM      7  C   UNL A   1      47.009  25.629  26.124  1.00  0.00     0.039 A 
ATOM      8  C   UNL A   1      48.179  26.653  23.776  1.00  0.00     0.067 A 
ATOM      9  C   UNL A   1      48.026  25.275  23.925  1.00  0.00     0.029 A 
ATOM     10  C   UNL A   1      47.689  27.524  24.752  1.00  0.00     0.029 A 
ATOM     11  C   UNL A   1      47.477  24.773  25.109  1.00  0.00     0.016 A 
ATOM     12  C   UNL A   1      47.063  27.007  25.897  1.00  0.00     0.016 A 
BRANCH   8  13
ATOM     13  N   UNL A   1      48.810  27.151  22.615  1.00  0.00    -0.217 N 
ATOM     14  C   UNL A   1      51.036  27.976  23.550  1.00  0.00     0.069 C 
ATOM     15  C   UNL A   1      50.008  27.831  22.492  1.00  0.00     0.071 A 
ATOM     16  C   UNL A   1      50.037  28.173  21.154  1.00  0.00     0.137 A 
ATOM     17  N   UNL A   1      48.952  27.659  20.508  1.00  0.00    -0.128 NA
ATOM     18  N   UNL A   1      48.242  26.976  21.396  1.00  0.00    -0.061 NA
BRANCH  16  19
ATOM     19  C   UNL A   1      51.082  28.868  20.414  1.00  0.00     0.124 A 
ATOM     20  N   UNL A   1      51.515  30.082  20.776  1.00  0.00    -0.165 NA
ATOM     21  C   UNL A   1      51.753  28.374  19.272  1.00  0.00     0.044 A 
ATOM     22  N   UNL A   1      52.394  30.429  19.815  1.00  0.00    -0.240 N 
ATOM     23  C   UNL A   1      52.556  29.430  18.881  1.00  0.00     0.125 A 
BRANCH  21  24
ATOM     24  C   UNL A   1      51.694  27.096  18.610  1.00  0.00     0.166 C 
ATOM     25  N   UNL A   1      51.133  26.991  17.451  1.00  0.00    -0.097 NA
BRANCH  25  26
ATOM     26  O   UNL A   1      51.166  25.654  17.039  1.00  0.00    -0.411 OA
ATOM     27  H   UNL A   1      51.899  25.113  17.261  1.00  0.00     0.330 HD
ENDBRANCH  25  26
ENDBRANCH  21  24
BRANCH  22  28
ATOM     28  C   UNL A   1      53.033  31.691  19.837  1.00  0.00     0.065 A 
ATOM     29  C   UNL A   1      52.933  32.487  20.986  1.00  0.00     0.028 A 
ATOM     30  C   UNL A   1      53.747  32.148  18.722  1.00  0.00     0.028 A 
ATOM     31  C   UNL A   1      53.572  33.727  21.028  1.00  0.00     0.002 A 
ATOM     32  C   UNL A   1      54.338  33.413  18.756  1.00  0.00     0.002 A 
ATOM     33  C   UNL A   1      54.262  34.194  19.910  1.00  0.00     0.000 A 
ENDBRANCH  22  28
ENDBRANCH  16  19
ENDBRANCH   8  13
ENDBRANCH   4   7
ENDBRANCH   2   3
ENDBRANCH   1   2
BRANCH   1  34
ATOM     34  C   UNL A   1      43.029  22.721  24.909  1.00  0.00     0.023 C 
BRANCH  34  35
ATOM     35  C   UNL A   1      42.267  21.708  25.759  1.00  0.00     0.116 C 
BRANCH  35  36
ATOM     36  N   UNL A   1      40.843  21.663  25.433  1.00  0.00    -0.352 N 
ATOM     37  C   UNL A   1      39.793  22.280  26.088  1.00  0.00     0.251 C 
ATOM     38  H   UNL A   1      40.600  21.124  24.646  1.00  0.00     0.163 HD
ATOM     39  O   UNL A   1      38.653  21.865  25.963  1.00  0.00    -0.269 OA
BRANCH  37  40
ATOM     40  C   UNL A   1      40.077  23.456  26.933  1.00  0.00     0.039 A 
ATOM     41  C   UNL A   1      40.825  23.337  28.107  1.00  0.00     0.014 A 
ATOM     42  C   UNL A   1      39.596  24.695  26.517  1.00  0.00     0.014 A 
ATOM     43  C   UNL A   1      41.165  24.492  28.811  1.00  0.00     0.010 A 
ATOM     44  C   UNL A   1      40.028  25.840  27.142  1.00  0.00     0.010 A 
ATOM     45  C   UNL A   1      40.783  25.747  28.309  1.00  0.00    -0.014 A 
BRANCH  45  46
ATOM     46  C   UNL A   1      41.286  26.979  28.913  1.00  0.00     0.031 A 
ATOM     47  C   UNL A   1      42.526  27.519  28.287  1.00  0.00     0.074 A 
ATOM     48  C   UNL A   1      40.567  27.715  29.790  1.00  0.00     0.049 A 
ATOM     49  N   UNL A   1      43.705  27.603  28.809  1.00  0.00    -0.248 NA
ATOM     50  C   UNL A   1      42.483  27.886  26.860  1.00  0.00     0.031 C 
ATOM     51  C   UNL A   1      39.196  27.476  30.258  1.00  0.00     0.029 A 
ATOM     52  N   UNL A   1      40.866  28.917  30.355  1.00  0.00    -0.354 N 
ATOM     53  C   UNL A   1      44.500  28.245  27.862  1.00  0.00     0.074 A 
ATOM     54  C   UNL A   1      43.755  28.216  26.630  1.00  0.00     0.031 C 
ATOM     55  C   UNL A   1      38.704  28.604  30.818  1.00  0.00     0.029 A 
ATOM     56  C   UNL A   1      39.775  29.577  30.914  1.00  0.00     0.049 A 
ATOM     57  H   UNL A   1      41.777  29.289  30.366  1.00  0.00     0.167 HD
ATOM     58  C   UNL A   1      45.595  28.974  28.224  1.00  0.00     0.031 A 
ATOM     59  C   UNL A   1      39.747  30.842  31.406  1.00  0.00     0.031 A 
ATOM     60  C   UNL A   1      45.957  28.734  29.597  1.00  0.00     0.049 A 
ATOM     61  C   UNL A   1      41.147  31.222  31.699  1.00  0.00     0.074 A 
ATOM     62  C   UNL A   1      46.347  27.634  30.332  1.00  0.00     0.029 A 
ATOM     63  N   UNL A   1      45.547  29.680  30.508  1.00  0.00    -0.354 N 
ATOM     64  N   UNL A   1      41.865  30.650  32.623  1.00  0.00    -0.248 NA
ATOM     65  C   UNL A   1      41.898  31.939  30.681  1.00  0.00     0.031 C 
ATOM     66  C   UNL A   1      45.723  27.799  31.602  1.00  0.00     0.029 A 
ATOM     67  C   UNL A   1      45.049  29.023  31.603  1.00  0.00     0.049 A 
ATOM     68  H   UNL A   1      45.602  30.655  30.394  1.00  0.00     0.167 HD
ATOM     69  C   UNL A   1      43.133  30.549  32.072  1.00  0.00     0.074 A 
ATOM     70  C   UNL A   1      43.121  31.464  30.933  1.00  0.00     0.031 C 
ATOM     71  C   UNL A   1      43.970  29.528  32.425  1.00  0.00     0.031 A 
BRANCH  58  72
ATOM     72  C   UNL A   1      46.074  30.211  27.493  1.00  0.00    -0.014 A 
ATOM     73  C   UNL A   1      47.461  30.401  27.321  1.00  0.00     0.010 A 
ATOM     74  C   UNL A   1      45.244  31.320  27.230  1.00  0.00     0.010 A 
ATOM     75  C   UNL A   1      47.993  31.656  26.989  1.00  0.00     0.020 A 
ATOM     76  C   UNL A   1      45.760  32.563  26.855  1.00  0.00     0.020 A 
ATOM     77  C   UNL A   1      47.135  32.733  26.774  1.00  0.00     0.054 A 
BRANCH  77  78
ATOM     78  S   UNL A   1      47.831  34.372  26.457  1.00  0.00     0.124 S 
ATOM     79  O   UNL A   1      47.417  34.613  25.079  1.00  0.00    -0.237 OA
ATOM     80  O   UNL A   1      47.171  35.190  27.471  1.00  0.00    -0.237 OA
ATOM     81  O   UNL A   1      49.265  34.178  26.658  1.00  0.00    -0.744 OA
ENDBRANCH  77  78
ENDBRANCH  58  72
BRANCH  59  82
ATOM     82  C   UNL A   1      38.642  31.831  31.407  1.00  0.00    -0.014 A 
ATOM     83  C   UNL A   1      37.948  32.139  30.221  1.00  0.00     0.010 A 
ATOM     84  C   UNL A   1      38.069  32.243  32.627  1.00  0.00     0.010 A 
ATOM     85  C   UNL A   1      36.691  32.766  30.258  1.00  0.00     0.020 A 
ATOM     86  C   UNL A   1      36.818  32.873  32.672  1.00  0.00     0.020 A 
ATOM     87  C   UNL A   1      36.121  33.106  31.487  1.00  0.00     0.054 A 
BRANCH  87  88
ATOM     88  S   UNL A   1      34.412  33.728  31.537  1.00  0.00     0.124 S 
ATOM     89  O   UNL A   1      33.779  32.822  32.491  1.00  0.00    -0.237 OA
ATOM     90  O   UNL A   1      34.588  35.104  31.993  1.00  0.00    -0.237 OA
ATOM     91  O   UNL A   1      33.957  33.591  30.155  1.00  0.00    -0.744 OA
ENDBRANCH  87  88
ENDBRANCH  59  82
BRANCH  71  92
ATOM     92  C   UNL A   1      43.629  28.720  33.657  1.00  0.00    -0.014 A 
ATOM     93  C   UNL A   1      44.051  29.046  34.963  1.00  0.00     0.010 A 
ATOM     94  C   UNL A   1      42.732  27.651  33.492  1.00  0.00     0.010 A 
ATOM     95  C   UNL A   1      43.612  28.295  36.065  1.00  0.00     0.020 A 
ATOM     96  C   UNL A   1      42.277  26.913  34.585  1.00  0.00     0.020 A 
ATOM     97  C   UNL A   1      42.728  27.229  35.866  1.00  0.00     0.054 A 
BRANCH  97  98
ATOM     98  S   UNL A   1      42.141  26.274  37.293  1.00  0.00     0.124 S 
ATOM     99  O   UNL A   1      43.116  26.611  38.324  1.00  0.00    -0.237 OA
ATOM    100  O   UNL A   1      40.793  26.798  37.504  1.00  0.00    -0.237 OA
ATOM    101  O   UNL A   1      42.189  24.888  36.826  1.00  0.00    -0.744 OA
ENDBRANCH  97  98
ENDBRANCH  71  92
ENDBRANCH  45  46
ENDBRANCH  37  40
ENDBRANCH  35  36
ENDBRANCH  34  35
ENDBRANCH   1  34
TORSDOF 19
ENDMDL
