MODEL 1
REMARK VINA RESULT:     -11.6      0.000      0.000
REMARK SMILES O=C(NCCCCNC(=O)[C@H]1CC[C@@H](CNc2cc(C(F)(F)F)ccn2)O1)c1ccc(-c2c3nc(c(-c4ccc(S(=O)(=O)[O-])cc4)c4ccc([nH]4)c(-c4ccc(S(=O)(=O)[O-])cc4)c4nc(c(-c5ccc(S(=O)(=O)[O-])cc5)c5ccc2[nH]5)C=C4)C=C3)cc1
REMARK SMILES IDX 6 1 5 2 4 3 3 4 1 5 2 6 28 8 29 9 87 10 30 11 86 12 31 13
REMARK SMILES IDX 32 14 33 15 80 16 34 17 85 18 79 19 81 20 35 21 84 22 78 23
REMARK SMILES IDX 77 24 36 26 66 27 47 28 65 29 48 30 51 31 64 32 82 33 49 34
REMARK SMILES IDX 50 35 63 37 83 38 52 39 37 40 38 41 46 42 39 43 45 44 40 45
REMARK SMILES IDX 41 46 42 47 43 48 44 49 67 50 68 51 76 52 69 53 75 54 70 55
REMARK SMILES IDX 71 56 72 57 73 58 74 59 53 60 54 61 62 62 55 63 61 64 56 65
REMARK SMILES IDX 57 66 58 67 59 68 60 69 7 70 8 71 9 72 10 74 11 75 12 76
REMARK SMILES IDX 27 77 13 78 14 79 15 80 16 81 17 83 18 84 26 85 19 86 25 87
REMARK SMILES IDX 24 88 20 89 21 90 22 91 23 92
REMARK H PARENT 3 7 81 25 51 36 8 73 16 82
REMARK Flexibility Score: inf
ROOT
ATOM      1  C   UNL A   1      32.937  30.113  27.012  1.00  0.00     0.023 C 
ENDROOT
BRANCH   1   2
ATOM      2  C   UNL A   1      34.155  29.230  27.285  1.00  0.00     0.023 C 
BRANCH   2   3
ATOM      3  C   UNL A   1      35.373  29.978  27.808  1.00  0.00     0.116 C 
BRANCH   3   4
ATOM      4  N   UNL A   1      35.367  30.126  29.256  1.00  0.00    -0.352 N 
ATOM      5  O   UNL A   1      36.167  29.927  31.357  1.00  0.00    -0.269 OA
ATOM      6  C   UNL A   1      36.381  29.872  30.149  1.00  0.00     0.251 C 
ATOM      7  H   UNL A   1      34.526  30.453  29.649  1.00  0.00     0.163 HD
BRANCH   6   8
ATOM      8  C   UNL A   1      37.719  29.502  29.641  1.00  0.00     0.039 A 
ATOM      9  C   UNL A   1      38.689  29.004  30.512  1.00  0.00     0.014 A 
ATOM     10  C   UNL A   1      38.011  29.675  28.284  1.00  0.00     0.014 A 
ATOM     11  C   UNL A   1      39.989  28.819  30.059  1.00  0.00     0.010 A 
ATOM     12  C   UNL A   1      39.299  29.402  27.811  1.00  0.00     0.010 A 
ATOM     13  C   UNL A   1      40.305  29.001  28.702  1.00  0.00    -0.014 A 
BRANCH  13  14
ATOM     14  C   UNL A   1      41.686  28.695  28.250  1.00  0.00     0.031 A 
ATOM     15  C   UNL A   1      42.774  29.732  28.291  1.00  0.00     0.074 A 
ATOM     16  C   UNL A   1      41.963  27.433  27.869  1.00  0.00     0.049 A 
ATOM     17  N   UNL A   1      44.046  29.594  28.013  1.00  0.00    -0.248 NA
ATOM     18  C   UNL A   1      42.394  31.096  28.690  1.00  0.00     0.031 C 
ATOM     19  C   UNL A   1      40.980  26.348  27.773  1.00  0.00     0.029 A 
ATOM     20  N   UNL A   1      43.149  26.834  27.532  1.00  0.00    -0.354 N 
ATOM     21  C   UNL A   1      44.615  30.850  28.185  1.00  0.00     0.074 A 
ATOM     22  C   UNL A   1      43.545  31.745  28.573  1.00  0.00     0.031 C 
ATOM     23  C   UNL A   1      41.613  25.206  27.472  1.00  0.00     0.029 A 
ATOM     24  C   UNL A   1      43.032  25.486  27.294  1.00  0.00     0.049 A 
ATOM     25  H   UNL A   1      44.001  27.323  27.467  1.00  0.00     0.167 HD
ATOM     26  C   UNL A   1      45.910  31.220  28.040  1.00  0.00     0.031 A 
ATOM     27  C   UNL A   1      43.962  24.571  26.962  1.00  0.00     0.031 A 
ATOM     28  C   UNL A   1      46.970  30.324  27.654  1.00  0.00     0.049 A 
ATOM     29  C   UNL A   1      45.389  25.005  26.823  1.00  0.00     0.074 A 
ATOM     30  C   UNL A   1      48.314  30.604  27.473  1.00  0.00     0.029 A 
ATOM     31  N   UNL A   1      46.808  28.970  27.396  1.00  0.00    -0.354 N 
ATOM     32  N   UNL A   1      45.903  26.200  26.993  1.00  0.00    -0.248 NA
ATOM     33  C   UNL A   1      46.362  23.972  26.448  1.00  0.00     0.031 C 
ATOM     34  C   UNL A   1      48.958  29.427  27.074  1.00  0.00     0.029 A 
ATOM     35  C   UNL A   1      48.024  28.404  27.050  1.00  0.00     0.049 A 
ATOM     36  H   UNL A   1      45.954  28.483  27.451  1.00  0.00     0.167 HD
ATOM     37  C   UNL A   1      47.262  26.063  26.740  1.00  0.00     0.074 A 
ATOM     38  C   UNL A   1      47.492  24.663  26.444  1.00  0.00     0.031 C 
ATOM     39  C   UNL A   1      48.229  27.012  26.741  1.00  0.00     0.031 A 
BRANCH  26  40
ATOM     40  C   UNL A   1      46.257  32.665  28.288  1.00  0.00    -0.014 A 
ATOM     41  C   UNL A   1      46.192  33.614  27.252  1.00  0.00     0.010 A 
ATOM     42  C   UNL A   1      46.599  33.091  29.585  1.00  0.00     0.010 A 
ATOM     43  C   UNL A   1      46.487  34.956  27.501  1.00  0.00     0.020 A 
ATOM     44  C   UNL A   1      46.875  34.438  29.843  1.00  0.00     0.020 A 
ATOM     45  C   UNL A   1      46.831  35.360  28.795  1.00  0.00     0.054 A 
BRANCH  45  46
ATOM     46  S   UNL A   1      47.178  37.116  29.099  1.00  0.00     0.124 S 
ATOM     47  O   UNL A   1      48.623  37.176  28.894  1.00  0.00    -0.237 OA
ATOM     48  O   UNL A   1      46.371  37.785  28.082  1.00  0.00    -0.237 OA
ATOM     49  O   UNL A   1      46.735  37.323  30.476  1.00  0.00    -0.744 OA
ENDBRANCH  45  46
ENDBRANCH  26  40
BRANCH  27  50
ATOM     50  C   UNL A   1      43.553  23.161  26.723  1.00  0.00    -0.014 A 
ATOM     51  C   UNL A   1      43.788  22.542  25.485  1.00  0.00     0.010 A 
ATOM     52  C   UNL A   1      42.955  22.421  27.760  1.00  0.00     0.010 A 
ATOM     53  C   UNL A   1      43.419  21.209  25.282  1.00  0.00     0.020 A 
ATOM     54  C   UNL A   1      42.611  21.081  27.570  1.00  0.00     0.020 A 
ATOM     55  C   UNL A   1      42.833  20.487  26.328  1.00  0.00     0.054 A 
BRANCH  55  56
ATOM     56  S   UNL A   1      42.415  18.740  26.071  1.00  0.00     0.124 S 
ATOM     57  O   UNL A   1      41.014  18.820  25.676  1.00  0.00    -0.237 OA
ATOM     58  O   UNL A   1      43.349  18.338  25.021  1.00  0.00    -0.237 OA
ATOM     59  O   UNL A   1      42.668  18.137  27.378  1.00  0.00    -0.744 OA
ENDBRANCH  55  56
ENDBRANCH  27  50
BRANCH  39  60
ATOM     60  C   UNL A   1      49.622  26.554  26.410  1.00  0.00    -0.014 A 
ATOM     61  C   UNL A   1      50.154  26.737  25.121  1.00  0.00     0.010 A 
ATOM     62  C   UNL A   1      50.409  25.941  27.401  1.00  0.00     0.010 A 
ATOM     63  C   UNL A   1      51.434  26.272  24.814  1.00  0.00     0.020 A 
ATOM     64  C   UNL A   1      51.698  25.494  27.103  1.00  0.00     0.020 A 
ATOM     65  C   UNL A   1      52.195  25.644  25.806  1.00  0.00     0.054 A 
BRANCH  65  66
ATOM     66  S   UNL A   1      53.859  25.054  25.391  1.00  0.00     0.124 S 
ATOM     67  O   UNL A   1      53.700  23.606  25.495  1.00  0.00    -0.237 OA
ATOM     68  O   UNL A   1      54.058  25.568  24.039  1.00  0.00    -0.237 OA
ATOM     69  O   UNL A   1      54.705  25.664  26.414  1.00  0.00    -0.744 OA
ENDBRANCH  65  66
ENDBRANCH  39  60
ENDBRANCH  13  14
ENDBRANCH   6   8
ENDBRANCH   3   4
ENDBRANCH   2   3
ENDBRANCH   1   2
BRANCH   1  70
ATOM     70  C   UNL A   1      32.225  29.842  25.686  1.00  0.00     0.116 C 
BRANCH  70  71
ATOM     71  N   UNL A   1      33.152  29.723  24.579  1.00  0.00    -0.354 N 
ATOM     72  C   UNL A   1      33.264  28.717  23.660  1.00  0.00     0.249 C 
ATOM     73  H   UNL A   1      33.786  30.468  24.474  1.00  0.00     0.163 HD
ATOM     74  O   UNL A   1      34.153  28.812  22.813  1.00  0.00    -0.272 OA
BRANCH  72  75
ATOM     75  C   UNL A   1      32.240  27.555  23.666  1.00  0.00     0.207 C 
ATOM     76  C   UNL A   1      32.414  26.639  22.463  1.00  0.00     0.045 C 
ATOM     77  O   UNL A   1      32.342  26.689  24.805  1.00  0.00    -0.363 OA
ATOM     78  C   UNL A   1      33.454  25.668  22.967  1.00  0.00     0.037 C 
ATOM     79  C   UNL A   1      33.046  25.486  24.422  1.00  0.00     0.138 C 
BRANCH  79  80
ATOM     80  C   UNL A   1      34.224  25.265  25.380  1.00  0.00     0.146 C 
BRANCH  80  81
ATOM     81  N   UNL A   1      34.082  24.063  26.183  1.00  0.00    -0.367 N 
ATOM     82  H   UNL A   1      33.564  24.072  27.020  1.00  0.00     0.162 HD
BRANCH  81  83
ATOM     83  C   UNL A   1      34.695  22.907  25.739  1.00  0.00     0.126 A 
ATOM     84  C   UNL A   1      33.981  21.772  25.374  1.00  0.00     0.059 A 
ATOM     85  N   UNL A   1      36.039  22.938  25.731  1.00  0.00    -0.240 NA
ATOM     86  C   UNL A   1      34.665  20.600  25.041  1.00  0.00     0.061 A 
ATOM     87  C   UNL A   1      36.691  21.800  25.409  1.00  0.00     0.114 A 
ATOM     88  C   UNL A   1      36.060  20.617  25.070  1.00  0.00     0.033 A 
BRANCH  86  89
ATOM     89  C   UNL A   1      33.924  19.343  24.673  1.00  0.00     0.416 C 
ATOM     90  F   UNL A   1      33.080  19.530  23.625  1.00  0.00    -0.166 F 
ATOM     91  F   UNL A   1      34.765  18.335  24.316  1.00  0.00    -0.166 F 
ATOM     92  F   UNL A   1      33.162  18.850  25.690  1.00  0.00    -0.166 F 
ENDBRANCH  86  89
ENDBRANCH  81  83
ENDBRANCH  80  81
ENDBRANCH  79  80
ENDBRANCH  72  75
ENDBRANCH  70  71
ENDBRANCH   1  70
TORSDOF 18
ENDMDL
MODEL 2
REMARK VINA RESULT:     -11.4      6.661      8.904
REMARK SMILES O=C(NCCCCNC(=O)[C@H]1CC[C@@H](CNc2cc(C(F)(F)F)ccn2)O1)c1ccc(-c2c3nc(c(-c4ccc(S(=O)(=O)[O-])cc4)c4ccc([nH]4)c(-c4ccc(S(=O)(=O)[O-])cc4)c4nc(c(-c5ccc(S(=O)(=O)[O-])cc5)c5ccc2[nH]5)C=C4)C=C3)cc1
REMARK SMILES IDX 6 1 5 2 4 3 3 4 1 5 2 6 28 8 29 9 87 10 30 11 86 12 31 13
REMARK SMILES IDX 32 14 33 15 80 16 34 17 85 18 79 19 81 20 35 21 84 22 78 23
REMARK SMILES IDX 77 24 36 26 66 27 47 28 65 29 48 30 51 31 64 32 82 33 49 34
REMARK SMILES IDX 50 35 63 37 83 38 52 39 37 40 38 41 46 42 39 43 45 44 40 45
REMARK SMILES IDX 41 46 42 47 43 48 44 49 67 50 68 51 76 52 69 53 75 54 70 55
REMARK SMILES IDX 71 56 72 57 73 58 74 59 53 60 54 61 62 62 55 63 61 64 56 65
REMARK SMILES IDX 57 66 58 67 59 68 60 69 7 70 8 71 9 72 10 74 11 75 12 76
REMARK SMILES IDX 27 77 13 78 14 79 15 80 16 81 17 83 18 84 26 85 19 86 25 87
REMARK SMILES IDX 24 88 20 89 21 90 22 91 23 92
REMARK H PARENT 3 7 81 25 51 36 8 73 16 82
REMARK Flexibility Score: inf
ROOT
ATOM      1  C   UNL A   1      31.683  30.617  25.911  1.00  0.00     0.023 C 
ENDROOT
BRANCH   1   2
ATOM      2  C   UNL A   1      32.236  31.007  27.283  1.00  0.00     0.023 C 
BRANCH   2   3
ATOM      3  C   UNL A   1      33.362  32.029  27.242  1.00  0.00     0.116 C 
BRANCH   3   4
ATOM      4  N   UNL A   1      32.927  33.366  27.620  1.00  0.00    -0.352 N 
ATOM      5  O   UNL A   1      32.828  35.223  28.898  1.00  0.00    -0.269 OA
ATOM      6  C   UNL A   1      33.397  34.168  28.632  1.00  0.00     0.251 C 
ATOM      7  H   UNL A   1      32.199  33.747  27.077  1.00  0.00     0.163 HD
BRANCH   6   8
ATOM      8  C   UNL A   1      34.573  33.732  29.415  1.00  0.00     0.039 A 
ATOM      9  C   UNL A   1      35.846  34.208  29.097  1.00  0.00     0.014 A 
ATOM     10  C   UNL A   1      34.402  32.822  30.463  1.00  0.00     0.014 A 
ATOM     11  C   UNL A   1      36.958  33.666  29.726  1.00  0.00     0.010 A 
ATOM     12  C   UNL A   1      35.519  32.344  31.157  1.00  0.00     0.010 A 
ATOM     13  C   UNL A   1      36.808  32.740  30.772  1.00  0.00    -0.014 A 
BRANCH  13  14
ATOM     14  C   UNL A   1      38.026  32.266  31.478  1.00  0.00     0.031 A 
ATOM     15  C   UNL A   1      38.401  32.794  32.834  1.00  0.00     0.074 A 
ATOM     16  C   UNL A   1      38.751  31.287  30.903  1.00  0.00     0.049 A 
ATOM     17  N   UNL A   1      39.384  32.417  33.614  1.00  0.00    -0.248 NA
ATOM     18  C   UNL A   1      37.581  33.881  33.389  1.00  0.00     0.031 C 
ATOM     19  C   UNL A   1      38.488  30.711  29.579  1.00  0.00     0.029 A 
ATOM     20  N   UNL A   1      39.826  30.574  31.365  1.00  0.00    -0.354 N 
ATOM     21  C   UNL A   1      39.311  33.228  34.741  1.00  0.00     0.074 A 
ATOM     22  C   UNL A   1      38.201  34.133  34.535  1.00  0.00     0.031 C 
ATOM     23  C   UNL A   1      39.331  29.692  29.368  1.00  0.00     0.029 A 
ATOM     24  C   UNL A   1      40.231  29.578  30.508  1.00  0.00     0.049 A 
ATOM     25  H   UNL A   1      40.266  30.758  32.226  1.00  0.00     0.167 HD
ATOM     26  C   UNL A   1      40.095  33.213  35.846  1.00  0.00     0.031 A 
ATOM     27  C   UNL A   1      41.221  28.674  30.622  1.00  0.00     0.031 A 
ATOM     28  C   UNL A   1      41.200  32.309  36.044  1.00  0.00     0.049 A 
ATOM     29  C   UNL A   1      42.062  28.671  31.862  1.00  0.00     0.074 A 
ATOM     30  C   UNL A   1      42.058  32.221  37.127  1.00  0.00     0.029 A 
ATOM     31  N   UNL A   1      41.594  31.332  35.143  1.00  0.00    -0.354 N 
ATOM     32  N   UNL A   1      41.973  29.448  32.916  1.00  0.00    -0.248 NA
ATOM     33  C   UNL A   1      43.136  27.673  31.931  1.00  0.00     0.031 C 
ATOM     34  C   UNL A   1      42.992  31.211  36.865  1.00  0.00     0.029 A 
ATOM     35  C   UNL A   1      42.687  30.641  35.640  1.00  0.00     0.049 A 
ATOM     36  H   UNL A   1      41.161  31.154  34.277  1.00  0.00     0.167 HD
ATOM     37  C   UNL A   1      42.985  29.035  33.772  1.00  0.00     0.074 A 
ATOM     38  C   UNL A   1      43.646  27.916  33.129  1.00  0.00     0.031 C 
ATOM     39  C   UNL A   1      43.342  29.543  34.977  1.00  0.00     0.031 A 
BRANCH  26  40
ATOM     40  C   UNL A   1      39.796  34.217  36.929  1.00  0.00    -0.014 A 
ATOM     41  C   UNL A   1      39.063  33.853  38.073  1.00  0.00     0.010 A 
ATOM     42  C   UNL A   1      40.300  35.527  36.828  1.00  0.00     0.010 A 
ATOM     43  C   UNL A   1      38.818  34.786  39.083  1.00  0.00     0.020 A 
ATOM     44  C   UNL A   1      40.075  36.458  37.847  1.00  0.00     0.020 A 
ATOM     45  C   UNL A   1      39.322  36.085  38.963  1.00  0.00     0.054 A 
BRANCH  45  46
ATOM     46  S   UNL A   1      39.018  37.269  40.305  1.00  0.00     0.124 S 
ATOM     47  O   UNL A   1      38.377  36.425  41.310  1.00  0.00    -0.237 OA
ATOM     48  O   UNL A   1      40.363  37.730  40.639  1.00  0.00    -0.237 OA
ATOM     49  O   UNL A   1      38.154  38.274  39.692  1.00  0.00    -0.744 OA
ENDBRANCH  45  46
ENDBRANCH  26  40
BRANCH  27  50
ATOM     50  C   UNL A   1      41.470  27.715  29.513  1.00  0.00    -0.014 A 
ATOM     51  C   UNL A   1      42.515  27.924  28.599  1.00  0.00     0.010 A 
ATOM     52  C   UNL A   1      40.673  26.561  29.394  1.00  0.00     0.010 A 
ATOM     53  C   UNL A   1      42.753  27.002  27.576  1.00  0.00     0.020 A 
ATOM     54  C   UNL A   1      40.924  25.624  28.390  1.00  0.00     0.020 A 
ATOM     55  C   UNL A   1      41.955  25.857  27.478  1.00  0.00     0.054 A 
BRANCH  55  56
ATOM     56  S   UNL A   1      42.312  24.638  26.183  1.00  0.00     0.124 S 
ATOM     57  O   UNL A   1      42.227  25.448  24.974  1.00  0.00    -0.237 OA
ATOM     58  O   UNL A   1      43.650  24.171  26.542  1.00  0.00    -0.237 OA
ATOM     59  O   UNL A   1      41.252  23.645  26.352  1.00  0.00    -0.744 OA
ENDBRANCH  55  56
ENDBRANCH  27  50
BRANCH  39  60
ATOM     60  C   UNL A   1      44.502  28.883  35.668  1.00  0.00    -0.014 A 
ATOM     61  C   UNL A   1      45.824  29.274  35.390  1.00  0.00     0.010 A 
ATOM     62  C   UNL A   1      44.267  27.867  36.610  1.00  0.00     0.010 A 
ATOM     63  C   UNL A   1      46.895  28.626  36.008  1.00  0.00     0.020 A 
ATOM     64  C   UNL A   1      45.336  27.233  37.248  1.00  0.00     0.020 A 
ATOM     65  C   UNL A   1      46.644  27.603  36.927  1.00  0.00     0.054 A 
BRANCH  65  66
ATOM     66  S   UNL A   1      48.048  26.779  37.727  1.00  0.00     0.124 S 
ATOM     67  O   UNL A   1      48.978  27.889  37.922  1.00  0.00    -0.237 OA
ATOM     68  O   UNL A   1      47.454  26.236  38.946  1.00  0.00    -0.237 OA
ATOM     69  O   UNL A   1      48.466  25.780  36.747  1.00  0.00    -0.744 OA
ENDBRANCH  65  66
ENDBRANCH  39  60
ENDBRANCH  13  14
ENDBRANCH   6   8
ENDBRANCH   3   4
ENDBRANCH   2   3
ENDBRANCH   1   2
BRANCH   1  70
ATOM     70  C   UNL A   1      32.250  29.323  25.327  1.00  0.00     0.116 C 
BRANCH  70  71
ATOM     71  N   UNL A   1      31.613  28.146  25.881  1.00  0.00    -0.354 N 
ATOM     72  C   UNL A   1      32.072  26.859  25.916  1.00  0.00     0.249 C 
ATOM     73  H   UNL A   1      30.729  28.293  26.289  1.00  0.00     0.163 HD
ATOM     74  O   UNL A   1      31.342  26.002  26.417  1.00  0.00    -0.272 OA
BRANCH  72  75
ATOM     75  C   UNL A   1      33.500  26.540  25.405  1.00  0.00     0.207 C 
ATOM     76  C   UNL A   1      33.788  25.046  25.422  1.00  0.00     0.045 C 
ATOM     77  O   UNL A   1      33.742  26.946  24.051  1.00  0.00    -0.363 OA
ATOM     78  C   UNL A   1      33.258  24.617  24.076  1.00  0.00     0.037 C 
ATOM     79  C   UNL A   1      33.649  25.790  23.187  1.00  0.00     0.138 C 
BRANCH  79  80
ATOM     80  C   UNL A   1      32.651  26.083  22.060  1.00  0.00     0.146 C 
BRANCH  80  81
ATOM     81  N   UNL A   1      32.237  27.475  22.018  1.00  0.00    -0.367 N 
ATOM     82  H   UNL A   1      32.848  28.175  21.695  1.00  0.00     0.162 HD
BRANCH  81  83
ATOM     83  C   UNL A   1      30.961  27.787  22.444  1.00  0.00     0.126 A 
ATOM     84  C   UNL A   1      30.445  29.077  22.386  1.00  0.00     0.059 A 
ATOM     85  N   UNL A   1      30.264  26.764  22.967  1.00  0.00    -0.240 NA
ATOM     86  C   UNL A   1      29.189  29.347  22.938  1.00  0.00     0.061 A 
ATOM     87  C   UNL A   1      29.052  27.034  23.499  1.00  0.00     0.114 A 
ATOM     88  C   UNL A   1      28.481  28.294  23.516  1.00  0.00     0.033 A 
BRANCH  86  89
ATOM     89  C   UNL A   1      28.615  30.737  22.923  1.00  0.00     0.416 C 
ATOM     90  F   UNL A   1      29.153  31.507  21.941  1.00  0.00    -0.166 F 
ATOM     91  F   UNL A   1      27.270  30.737  22.718  1.00  0.00    -0.166 F 
ATOM     92  F   UNL A   1      28.815  31.415  24.088  1.00  0.00    -0.166 F 
ENDBRANCH  86  89
ENDBRANCH  81  83
ENDBRANCH  80  81
ENDBRANCH  79  80
ENDBRANCH  72  75
ENDBRANCH  70  71
ENDBRANCH   1  70
TORSDOF 18
ENDMDL
MODEL 3
REMARK VINA RESULT:     -11.3      3.603      9.367
REMARK SMILES O=C(NCCCCNC(=O)[C@H]1CC[C@@H](CNc2cc(C(F)(F)F)ccn2)O1)c1ccc(-c2c3nc(c(-c4ccc(S(=O)(=O)[O-])cc4)c4ccc([nH]4)c(-c4ccc(S(=O)(=O)[O-])cc4)c4nc(c(-c5ccc(S(=O)(=O)[O-])cc5)c5ccc2[nH]5)C=C4)C=C3)cc1
REMARK SMILES IDX 6 1 5 2 4 3 3 4 1 5 2 6 28 8 29 9 87 10 30 11 86 12 31 13
REMARK SMILES IDX 32 14 33 15 80 16 34 17 85 18 79 19 81 20 35 21 84 22 78 23
REMARK SMILES IDX 77 24 36 26 66 27 47 28 65 29 48 30 51 31 64 32 82 33 49 34
REMARK SMILES IDX 50 35 63 37 83 38 52 39 37 40 38 41 46 42 39 43 45 44 40 45
REMARK SMILES IDX 41 46 42 47 43 48 44 49 67 50 68 51 76 52 69 53 75 54 70 55
REMARK SMILES IDX 71 56 72 57 73 58 74 59 53 60 54 61 62 62 55 63 61 64 56 65
REMARK SMILES IDX 57 66 58 67 59 68 60 69 7 70 8 71 9 72 10 74 11 75 12 76
REMARK SMILES IDX 27 77 13 78 14 79 15 80 16 81 17 83 18 84 26 85 19 86 25 87
REMARK SMILES IDX 24 88 20 89 21 90 22 91 23 92
REMARK H PARENT 3 7 81 25 51 36 8 73 16 82
REMARK Flexibility Score: inf
ROOT
ATOM      1  C   UNL A   1      32.612  25.942  25.783  1.00  0.00     0.023 C 
ENDROOT
BRANCH   1   2
ATOM      2  C   UNL A   1      32.468  27.230  26.595  1.00  0.00     0.023 C 
BRANCH   2   3
ATOM      3  C   UNL A   1      33.745  28.051  26.709  1.00  0.00     0.116 C 
BRANCH   3   4
ATOM      4  N   UNL A   1      33.494  29.443  27.051  1.00  0.00    -0.352 N 
ATOM      5  O   UNL A   1      33.901  31.437  28.026  1.00  0.00    -0.269 OA
ATOM      6  C   UNL A   1      34.320  30.330  27.700  1.00  0.00     0.251 C 
ATOM      7  H   UNL A   1      32.616  29.797  26.780  1.00  0.00     0.163 HD
BRANCH   6   8
ATOM      8  C   UNL A   1      35.703  29.925  28.029  1.00  0.00     0.039 A 
ATOM      9  C   UNL A   1      36.021  29.489  29.317  1.00  0.00     0.014 A 
ATOM     10  C   UNL A   1      36.694  30.002  27.046  1.00  0.00     0.014 A 
ATOM     11  C   UNL A   1      37.348  29.273  29.660  1.00  0.00     0.010 A 
ATOM     12  C   UNL A   1      38.020  29.696  27.372  1.00  0.00     0.010 A 
ATOM     13  C   UNL A   1      38.361  29.359  28.690  1.00  0.00    -0.014 A 
BRANCH  13  14
ATOM     14  C   UNL A   1      39.752  29.021  29.085  1.00  0.00     0.031 A 
ATOM     15  C   UNL A   1      40.369  27.697  28.731  1.00  0.00     0.074 A 
ATOM     16  C   UNL A   1      40.480  29.967  29.709  1.00  0.00     0.049 A 
ATOM     17  N   UNL A   1      41.597  27.288  28.931  1.00  0.00    -0.248 NA
ATOM     18  C   UNL A   1      39.506  26.702  28.076  1.00  0.00     0.031 C 
ATOM     19  C   UNL A   1      39.978  31.284  30.118  1.00  0.00     0.029 A 
ATOM     20  N   UNL A   1      41.801  29.992  30.072  1.00  0.00    -0.354 N 
ATOM     21  C   UNL A   1      41.652  25.988  28.442  1.00  0.00     0.074 A 
ATOM     22  C   UNL A   1      40.327  25.667  27.956  1.00  0.00     0.031 C 
ATOM     23  C   UNL A   1      40.992  32.008  30.610  1.00  0.00     0.029 A 
ATOM     24  C   UNL A   1      42.199  31.193  30.608  1.00  0.00     0.049 A 
ATOM     25  H   UNL A   1      42.406  29.222  29.961  1.00  0.00     0.167 HD
ATOM     26  C   UNL A   1      42.711  25.145  28.399  1.00  0.00     0.031 A 
ATOM     27  C   UNL A   1      43.402  31.597  31.056  1.00  0.00     0.031 A 
ATOM     28  C   UNL A   1      44.028  25.471  28.886  1.00  0.00     0.049 A 
ATOM     29  C   UNL A   1      44.560  30.648  30.982  1.00  0.00     0.074 A 
ATOM     30  C   UNL A   1      45.165  24.682  28.893  1.00  0.00     0.029 A 
ATOM     31  N   UNL A   1      44.386  26.689  29.445  1.00  0.00    -0.354 N 
ATOM     32  N   UNL A   1      44.587  29.423  30.514  1.00  0.00    -0.248 NA
ATOM     33  C   UNL A   1      45.847  31.133  31.494  1.00  0.00     0.031 C 
ATOM     34  C   UNL A   1      46.203  25.412  29.486  1.00  0.00     0.029 A 
ATOM     35  C   UNL A   1      45.722  26.671  29.808  1.00  0.00     0.049 A 
ATOM     36  H   UNL A   1      43.778  27.455  29.567  1.00  0.00     0.167 HD
ATOM     37  C   UNL A   1      45.895  28.987  30.682  1.00  0.00     0.074 A 
ATOM     38  C   UNL A   1      46.634  30.094  31.257  1.00  0.00     0.031 C 
ATOM     39  C   UNL A   1      46.434  27.777  30.396  1.00  0.00     0.031 A 
BRANCH  26  40
ATOM     40  C   UNL A   1      42.490  23.774  27.815  1.00  0.00    -0.014 A 
ATOM     41  C   UNL A   1      42.749  23.514  26.457  1.00  0.00     0.010 A 
ATOM     42  C   UNL A   1      42.072  22.718  28.646  1.00  0.00     0.010 A 
ATOM     43  C   UNL A   1      42.568  22.230  25.935  1.00  0.00     0.020 A 
ATOM     44  C   UNL A   1      41.910  21.427  28.131  1.00  0.00     0.020 A 
ATOM     45  C   UNL A   1      42.145  21.195  26.775  1.00  0.00     0.054 A 
BRANCH  45  46
ATOM     46  S   UNL A   1      41.950  19.530  26.079  1.00  0.00     0.124 S 
ATOM     47  O   UNL A   1      40.508  19.469  25.847  1.00  0.00    -0.237 OA
ATOM     48  O   UNL A   1      42.776  19.584  24.876  1.00  0.00    -0.237 OA
ATOM     49  O   UNL A   1      42.449  18.652  27.134  1.00  0.00    -0.744 OA
ENDBRANCH  45  46
ENDBRANCH  26  40
BRANCH  27  50
ATOM     50  C   UNL A   1      43.553  32.961  31.629  1.00  0.00    -0.014 A 
ATOM     51  C   UNL A   1      43.800  34.068  30.800  1.00  0.00     0.010 A 
ATOM     52  C   UNL A   1      43.410  33.158  33.014  1.00  0.00     0.010 A 
ATOM     53  C   UNL A   1      43.916  35.348  31.349  1.00  0.00     0.020 A 
ATOM     54  C   UNL A   1      43.497  34.439  33.563  1.00  0.00     0.020 A 
ATOM     55  C   UNL A   1      43.763  35.525  32.729  1.00  0.00     0.054 A 
BRANCH  55  56
ATOM     56  S   UNL A   1      43.854  37.199  33.421  1.00  0.00     0.124 S 
ATOM     57  O   UNL A   1      45.103  37.148  34.172  1.00  0.00    -0.237 OA
ATOM     58  O   UNL A   1      43.865  38.040  32.226  1.00  0.00    -0.237 OA
ATOM     59  O   UNL A   1      42.638  37.298  34.227  1.00  0.00    -0.744 OA
ENDBRANCH  55  56
ENDBRANCH  27  50
BRANCH  39  60
ATOM     60  C   UNL A   1      47.894  27.599  30.706  1.00  0.00    -0.014 A 
ATOM     61  C   UNL A   1      48.877  27.934  29.758  1.00  0.00     0.010 A 
ATOM     62  C   UNL A   1      48.286  27.099  31.959  1.00  0.00     0.010 A 
ATOM     63  C   UNL A   1      50.229  27.727  30.041  1.00  0.00     0.020 A 
ATOM     64  C   UNL A   1      49.638  26.912  32.255  1.00  0.00     0.020 A 
ATOM     65  C   UNL A   1      50.600  27.208  31.286  1.00  0.00     0.054 A 
BRANCH  65  66
ATOM     66  S   UNL A   1      52.361  26.954  31.640  1.00  0.00     0.124 S 
ATOM     67  O   UNL A   1      52.449  25.498  31.702  1.00  0.00    -0.237 OA
ATOM     68  O   UNL A   1      53.015  27.575  30.491  1.00  0.00    -0.237 OA
ATOM     69  O   UNL A   1      52.560  27.646  32.911  1.00  0.00    -0.744 OA
ENDBRANCH  65  66
ENDBRANCH  39  60
ENDBRANCH  13  14
ENDBRANCH   6   8
ENDBRANCH   3   4
ENDBRANCH   2   3
ENDBRANCH   1   2
BRANCH   1  70
ATOM     70  C   UNL A   1      33.903  25.161  26.030  1.00  0.00     0.116 C 
BRANCH  70  71
ATOM     71  N   UNL A   1      33.666  23.921  26.742  1.00  0.00    -0.354 N 
ATOM     72  C   UNL A   1      33.854  22.637  26.312  1.00  0.00     0.249 C 
ATOM     73  H   UNL A   1      33.324  24.017  27.660  1.00  0.00     0.163 HD
ATOM     74  O   UNL A   1      33.556  21.725  27.085  1.00  0.00    -0.272 OA
BRANCH  72  75
ATOM     75  C   UNL A   1      34.497  22.378  24.926  1.00  0.00     0.207 C 
ATOM     76  C   UNL A   1      34.113  21.016  24.368  1.00  0.00     0.045 C 
ATOM     77  O   UNL A   1      34.104  23.315  23.914  1.00  0.00    -0.363 OA
ATOM     78  C   UNL A   1      32.817  21.331  23.660  1.00  0.00     0.037 C 
ATOM     79  C   UNL A   1      33.098  22.707  23.073  1.00  0.00     0.138 C 
BRANCH  79  80
ATOM     80  C   UNL A   1      31.870  23.625  23.012  1.00  0.00     0.146 C 
BRANCH  80  81
ATOM     81  N   UNL A   1      31.942  24.596  21.936  1.00  0.00    -0.367 N 
ATOM     82  H   UNL A   1      31.866  24.317  20.995  1.00  0.00     0.162 HD
BRANCH  81  83
ATOM     83  C   UNL A   1      32.120  25.925  22.269  1.00  0.00     0.126 A 
ATOM     84  C   UNL A   1      31.056  26.798  22.466  1.00  0.00     0.059 A 
ATOM     85  N   UNL A   1      33.399  26.331  22.344  1.00  0.00    -0.240 NA
ATOM     86  C   UNL A   1      31.306  28.155  22.690  1.00  0.00     0.061 A 
ATOM     87  C   UNL A   1      33.630  27.644  22.560  1.00  0.00     0.114 A 
ATOM     88  C   UNL A   1      32.632  28.586  22.729  1.00  0.00     0.033 A 
BRANCH  86  89
ATOM     89  C   UNL A   1      30.178  29.135  22.873  1.00  0.00     0.416 C 
ATOM     90  F   UNL A   1      30.133  30.060  21.879  1.00  0.00    -0.166 F 
ATOM     91  F   UNL A   1      28.963  28.524  22.887  1.00  0.00    -0.166 F 
ATOM     92  F   UNL A   1      30.257  29.835  24.039  1.00  0.00    -0.166 F 
ENDBRANCH  86  89
ENDBRANCH  81  83
ENDBRANCH  80  81
ENDBRANCH  79  80
ENDBRANCH  72  75
ENDBRANCH  70  71
ENDBRANCH   1  70
TORSDOF 18
ENDMDL
