MODEL 1
REMARK VINA RESULT:     -11.8      0.000      0.000
REMARK SMILES Cc1c(NC(=O)CCCO)cccc1C(=O)NCCCCNC(=O)c1ccc(-c2c3nc(c(-c4ccc(S(=O)(=O)[O-])cc4)c4ccc([nH]4)c(-c4ccc(S(=O)(=O)[O-])cc4)c4nc(c(-c5ccc(S(=O)(=O)[O-])cc5)c5ccc2[nH]5)C=C4)C=C3)cc1
REMARK SMILES IDX 18 1 17 2 15 3 16 4 14 6 1 7 2 8 3 9 11 10 13 11 12 12 4 13
REMARK SMILES IDX 5 14 6 16 7 17 8 18 9 19 10 20 19 22 20 23 21 24 22 25 23 26
REMARK SMILES IDX 24 28 25 29 26 30 84 31 27 32 83 33 28 34 29 35 30 36 77 37
REMARK SMILES IDX 31 38 82 39 76 40 78 41 32 42 81 43 75 44 74 45 33 47 63 48
REMARK SMILES IDX 44 49 62 50 45 51 48 52 61 53 79 54 46 55 47 56 60 58 80 59
REMARK SMILES IDX 49 60 34 61 35 62 43 63 36 64 42 65 37 66 38 67 39 68 40 69
REMARK SMILES IDX 41 70 64 71 65 72 73 73 66 74 72 75 67 76 68 77 69 78 70 79
REMARK SMILES IDX 71 80 50 81 51 82 59 83 52 84 58 85 53 86 54 87 55 88 56 89
REMARK SMILES IDX 57 90
REMARK H PARENT 17 5 4 15 10 21 22 27 78 46 48 57
REMARK Flexibility Score: inf
ROOT
ATOM      1  C   UNL A   1      35.807  20.474  25.340  1.00  0.00     0.116 C 
ENDROOT
BRANCH   1   2
ATOM      2  N   UNL A   1      34.574  20.146  24.656  1.00  0.00    -0.352 N 
ATOM      3  C   UNL A   1      33.296  20.609  24.576  1.00  0.00     0.251 C 
ATOM      4  O   UNL A   1      32.589  19.877  23.863  1.00  0.00    -0.269 OA
ATOM      5  H   UNL A   1      34.696  19.358  24.080  1.00  0.00     0.163 HD
BRANCH   3   6
ATOM      6  C   UNL A   1      32.635  21.844  25.172  1.00  0.00     0.044 A 
ATOM      7  C   UNL A   1      31.801  23.184  23.140  1.00  0.00     0.047 C 
ATOM      8  C   UNL A   1      31.893  22.921  24.611  1.00  0.00    -0.015 A 
ATOM      9  C   UNL A   1      31.260  23.881  25.468  1.00  0.00     0.044 A 
ATOM     10  C   UNL A   1      31.637  23.949  26.803  1.00  0.00     0.026 A 
ATOM     11  C   UNL A   1      32.845  21.897  26.574  1.00  0.00     0.014 A 
ATOM     12  C   UNL A   1      32.415  22.954  27.365  1.00  0.00     0.003 A 
BRANCH   9  13
ATOM     13  N   UNL A   1      30.278  24.740  24.923  1.00  0.00    -0.326 N 
ATOM     14  C   UNL A   1      30.077  26.078  24.849  1.00  0.00     0.224 C 
ATOM     15  H   UNL A   1      29.555  24.236  24.485  1.00  0.00     0.169 HD
ATOM     16  O   UNL A   1      29.081  26.447  24.211  1.00  0.00    -0.275 OA
BRANCH  14  17
ATOM     17  C   UNL A   1      30.902  27.122  25.561  1.00  0.00     0.103 C 
BRANCH  17  18
ATOM     18  C   UNL A   1      32.043  27.645  24.685  1.00  0.00     0.038 C 
BRANCH  18  19
ATOM     19  C   UNL A   1      33.278  26.759  24.642  1.00  0.00     0.156 C 
BRANCH  19  20
ATOM     20  O   UNL A   1      34.044  26.941  25.826  1.00  0.00    -0.396 OA
ATOM     21  H   UNL A   1      33.538  27.475  26.459  1.00  0.00     0.210 HD
ENDBRANCH  19  20
ENDBRANCH  18  19
ENDBRANCH  17  18
ENDBRANCH  14  17
ENDBRANCH   9  13
ENDBRANCH   3   6
ENDBRANCH   1   2
BRANCH   1  22
ATOM     22  C   UNL A   1      36.226  21.931  25.082  1.00  0.00     0.023 C 
BRANCH  22  23
ATOM     23  C   UNL A   1      37.724  22.200  25.096  1.00  0.00     0.023 C 
BRANCH  23  24
ATOM     24  C   UNL A   1      38.111  23.305  26.056  1.00  0.00     0.116 C 
BRANCH  24  25
ATOM     25  N   UNL A   1      39.210  22.996  26.955  1.00  0.00    -0.352 N 
ATOM     26  C   UNL A   1      40.053  23.914  27.562  1.00  0.00     0.251 C 
ATOM     27  H   UNL A   1      39.370  22.045  27.154  1.00  0.00     0.163 HD
ATOM     28  O   UNL A   1      41.149  23.601  28.014  1.00  0.00    -0.269 OA
BRANCH  26  29
ATOM     29  C   UNL A   1      39.506  25.272  27.782  1.00  0.00     0.039 A 
ATOM     30  C   UNL A   1      39.967  26.284  26.930  1.00  0.00     0.014 A 
ATOM     31  C   UNL A   1      38.891  25.582  28.990  1.00  0.00     0.014 A 
ATOM     32  C   UNL A   1      40.004  27.598  27.388  1.00  0.00     0.010 A 
ATOM     33  C   UNL A   1      39.068  26.854  29.495  1.00  0.00     0.010 A 
ATOM     34  C   UNL A   1      39.661  27.855  28.712  1.00  0.00    -0.014 A 
BRANCH  34  35
ATOM     35  C   UNL A   1      39.923  29.117  29.400  1.00  0.00     0.031 A 
ATOM     36  C   UNL A   1      38.937  30.220  29.284  1.00  0.00     0.074 A 
ATOM     37  C   UNL A   1      40.981  29.244  30.235  1.00  0.00     0.049 A 
ATOM     38  N   UNL A   1      39.177  31.458  29.560  1.00  0.00    -0.248 NA
ATOM     39  C   UNL A   1      37.587  30.008  28.766  1.00  0.00     0.031 C 
ATOM     40  C   UNL A   1      41.174  30.283  31.243  1.00  0.00     0.029 A 
ATOM     41  N   UNL A   1      42.210  28.581  30.204  1.00  0.00    -0.354 N 
ATOM     42  C   UNL A   1      37.965  32.115  29.588  1.00  0.00     0.074 A 
ATOM     43  C   UNL A   1      37.034  31.203  28.974  1.00  0.00     0.031 C 
ATOM     44  C   UNL A   1      42.487  30.397  31.498  1.00  0.00     0.029 A 
ATOM     45  C   UNL A   1      43.180  29.536  30.556  1.00  0.00     0.049 A 
ATOM     46  H   UNL A   1      42.367  27.634  29.980  1.00  0.00     0.167 HD
ATOM     47  C   UNL A   1      37.855  33.288  30.274  1.00  0.00     0.031 A 
ATOM     48  C   UNL A   1      44.201  29.931  29.738  1.00  0.00     0.031 A 
ATOM     49  C   UNL A   1      39.168  33.792  30.681  1.00  0.00     0.049 A 
ATOM     50  C   UNL A   1      44.180  31.417  29.440  1.00  0.00     0.074 A 
ATOM     51  C   UNL A   1      39.845  33.818  31.888  1.00  0.00     0.029 A 
ATOM     52  N   UNL A   1      40.101  34.112  29.699  1.00  0.00    -0.354 N 
ATOM     53  N   UNL A   1      43.171  32.196  29.710  1.00  0.00    -0.248 NA
ATOM     54  C   UNL A   1      45.265  32.134  28.773  1.00  0.00     0.031 C 
ATOM     55  C   UNL A   1      41.220  34.049  31.612  1.00  0.00     0.029 A 
ATOM     56  C   UNL A   1      41.368  34.200  30.243  1.00  0.00     0.049 A 
ATOM     57  H   UNL A   1      39.888  34.256  28.749  1.00  0.00     0.167 HD
ATOM     58  C   UNL A   1      43.427  33.465  29.263  1.00  0.00     0.074 A 
ATOM     59  C   UNL A   1      44.761  33.379  28.696  1.00  0.00     0.031 C 
ATOM     60  C   UNL A   1      42.515  34.473  29.385  1.00  0.00     0.031 A 
BRANCH  47  61
ATOM     61  C   UNL A   1      36.541  33.816  30.830  1.00  0.00    -0.014 A 
ATOM     62  C   UNL A   1      35.427  33.949  29.973  1.00  0.00     0.010 A 
ATOM     63  C   UNL A   1      36.357  34.296  32.140  1.00  0.00     0.010 A 
ATOM     64  C   UNL A   1      34.248  34.606  30.372  1.00  0.00     0.020 A 
ATOM     65  C   UNL A   1      35.197  34.969  32.550  1.00  0.00     0.020 A 
ATOM     66  C   UNL A   1      34.152  35.138  31.656  1.00  0.00     0.054 A 
BRANCH  66  67
ATOM     67  S   UNL A   1      32.669  36.058  32.138  1.00  0.00     0.124 S 
ATOM     68  O   UNL A   1      32.332  36.775  30.911  1.00  0.00    -0.237 OA
ATOM     69  O   UNL A   1      31.749  34.993  32.522  1.00  0.00    -0.237 OA
ATOM     70  O   UNL A   1      33.130  36.905  33.237  1.00  0.00    -0.744 OA
ENDBRANCH  66  67
ENDBRANCH  47  61
BRANCH  48  71
ATOM     71  C   UNL A   1      44.687  28.872  28.811  1.00  0.00    -0.014 A 
ATOM     72  C   UNL A   1      44.002  28.737  27.585  1.00  0.00     0.010 A 
ATOM     73  C   UNL A   1      46.004  28.390  28.914  1.00  0.00     0.010 A 
ATOM     74  C   UNL A   1      44.682  28.331  26.436  1.00  0.00     0.020 A 
ATOM     75  C   UNL A   1      46.686  27.974  27.762  1.00  0.00     0.020 A 
ATOM     76  C   UNL A   1      46.042  28.029  26.522  1.00  0.00     0.054 A 
BRANCH  76  77
ATOM     77  S   UNL A   1      46.991  27.943  24.973  1.00  0.00     0.124 S 
ATOM     78  O   UNL A   1      48.369  27.887  25.450  1.00  0.00    -0.237 OA
ATOM     79  O   UNL A   1      46.476  26.709  24.382  1.00  0.00    -0.237 OA
ATOM     80  O   UNL A   1      46.613  29.173  24.284  1.00  0.00    -0.744 OA
ENDBRANCH  76  77
ENDBRANCH  48  71
BRANCH  60  81
ATOM     81  C   UNL A   1      42.631  35.845  28.768  1.00  0.00    -0.014 A 
ATOM     82  C   UNL A   1      41.953  36.246  27.606  1.00  0.00     0.010 A 
ATOM     83  C   UNL A   1      43.358  36.840  29.463  1.00  0.00     0.010 A 
ATOM     84  C   UNL A   1      42.045  37.562  27.128  1.00  0.00     0.020 A 
ATOM     85  C   UNL A   1      43.423  38.164  29.020  1.00  0.00     0.020 A 
ATOM     86  C   UNL A   1      42.783  38.510  27.836  1.00  0.00     0.054 A 
BRANCH  86  87
ATOM     87  S   UNL A   1      42.846  40.224  27.252  1.00  0.00     0.124 S 
ATOM     88  O   UNL A   1      41.692  40.280  26.360  1.00  0.00    -0.237 OA
ATOM     89  O   UNL A   1      42.721  40.998  28.486  1.00  0.00    -0.237 OA
ATOM     90  O   UNL A   1      44.149  40.315  26.601  1.00  0.00    -0.744 OA
ENDBRANCH  86  87
ENDBRANCH  60  81
ENDBRANCH  34  35
ENDBRANCH  26  29
ENDBRANCH  24  25
ENDBRANCH  23  24
ENDBRANCH  22  23
ENDBRANCH   1  22
TORSDOF 19
ENDMDL
MODEL 2
REMARK VINA RESULT:     -10.3      7.539     11.147
REMARK SMILES Cc1c(NC(=O)CCCO)cccc1C(=O)NCCCCNC(=O)c1ccc(-c2c3nc(c(-c4ccc(S(=O)(=O)[O-])cc4)c4ccc([nH]4)c(-c4ccc(S(=O)(=O)[O-])cc4)c4nc(c(-c5ccc(S(=O)(=O)[O-])cc5)c5ccc2[nH]5)C=C4)C=C3)cc1
REMARK SMILES IDX 18 1 17 2 15 3 16 4 14 6 1 7 2 8 3 9 11 10 13 11 12 12 4 13
REMARK SMILES IDX 5 14 6 16 7 17 8 18 9 19 10 20 19 22 20 23 21 24 22 25 23 26
REMARK SMILES IDX 24 28 25 29 26 30 84 31 27 32 83 33 28 34 29 35 30 36 77 37
REMARK SMILES IDX 31 38 82 39 76 40 78 41 32 42 81 43 75 44 74 45 33 47 63 48
REMARK SMILES IDX 44 49 62 50 45 51 48 52 61 53 79 54 46 55 47 56 60 58 80 59
REMARK SMILES IDX 49 60 34 61 35 62 43 63 36 64 42 65 37 66 38 67 39 68 40 69
REMARK SMILES IDX 41 70 64 71 65 72 73 73 66 74 72 75 67 76 68 77 69 78 70 79
REMARK SMILES IDX 71 80 50 81 51 82 59 83 52 84 58 85 53 86 54 87 55 88 56 89
REMARK SMILES IDX 57 90
REMARK H PARENT 17 5 4 15 10 21 22 27 78 46 48 57
REMARK Flexibility Score: inf
ROOT
ATOM      1  C   UNL A   1      42.588  28.944  28.160  1.00  0.00     0.116 C 
ENDROOT
BRANCH   1   2
ATOM      2  N   UNL A   1      42.439  28.894  26.721  1.00  0.00    -0.352 N 
ATOM      3  C   UNL A   1      42.465  27.969  25.722  1.00  0.00     0.251 C 
ATOM      4  O   UNL A   1      42.347  28.501  24.605  1.00  0.00    -0.269 OA
ATOM      5  H   UNL A   1      42.267  29.793  26.359  1.00  0.00     0.163 HD
BRANCH   3   6
ATOM      6  C   UNL A   1      42.581  26.452  25.761  1.00  0.00     0.044 A 
ATOM      7  C   UNL A   1      40.458  25.667  26.985  1.00  0.00     0.047 C 
ATOM      8  C   UNL A   1      41.705  25.417  26.195  1.00  0.00    -0.015 A 
ATOM      9  C   UNL A   1      42.046  24.043  25.963  1.00  0.00     0.044 A 
ATOM     10  C   UNL A   1      43.352  23.718  25.621  1.00  0.00     0.026 A 
ATOM     11  C   UNL A   1      43.843  26.033  25.269  1.00  0.00     0.014 A 
ATOM     12  C   UNL A   1      44.250  24.705  25.258  1.00  0.00     0.003 A 
BRANCH   9  13
ATOM     13  N   UNL A   1      41.042  23.058  26.105  1.00  0.00    -0.326 N 
ATOM     14  C   UNL A   1      40.904  21.885  26.770  1.00  0.00     0.224 C 
ATOM     15  H   UNL A   1      40.235  23.282  25.586  1.00  0.00     0.169 HD
ATOM     16  O   UNL A   1      39.802  21.328  26.674  1.00  0.00    -0.275 OA
BRANCH  14  17
ATOM     17  C   UNL A   1      42.007  21.174  27.516  1.00  0.00     0.103 C 
BRANCH  17  18
ATOM     18  C   UNL A   1      41.843  19.654  27.469  1.00  0.00     0.038 C 
BRANCH  18  19
ATOM     19  C   UNL A   1      42.511  18.972  26.285  1.00  0.00     0.156 C 
BRANCH  19  20
ATOM     20  O   UNL A   1      42.754  17.604  26.591  1.00  0.00    -0.396 OA
ATOM     21  H   UNL A   1      42.503  17.430  27.512  1.00  0.00     0.210 HD
ENDBRANCH  19  20
ENDBRANCH  18  19
ENDBRANCH  17  18
ENDBRANCH  14  17
ENDBRANCH   9  13
ENDBRANCH   3   6
ENDBRANCH   1   2
BRANCH   1  22
ATOM     22  C   UNL A   1      43.684  29.937  28.581  1.00  0.00     0.023 C 
BRANCH  22  23
ATOM     23  C   UNL A   1      45.065  29.686  27.993  1.00  0.00     0.023 C 
BRANCH  23  24
ATOM     24  C   UNL A   1      45.669  28.376  28.456  1.00  0.00     0.116 C 
BRANCH  24  25
ATOM     25  N   UNL A   1      46.225  27.538  27.407  1.00  0.00    -0.352 N 
ATOM     26  C   UNL A   1      46.880  26.329  27.587  1.00  0.00     0.251 C 
ATOM     27  H   UNL A   1      46.126  27.858  26.481  1.00  0.00     0.163 HD
ATOM     28  O   UNL A   1      47.619  25.849  26.734  1.00  0.00    -0.269 OA
BRANCH  26  29
ATOM     29  C   UNL A   1      46.526  25.559  28.801  1.00  0.00     0.039 A 
ATOM     30  C   UNL A   1      45.284  24.911  28.797  1.00  0.00     0.014 A 
ATOM     31  C   UNL A   1      47.203  25.797  29.991  1.00  0.00     0.014 A 
ATOM     32  C   UNL A   1      44.623  24.694  30.002  1.00  0.00     0.010 A 
ATOM     33  C   UNL A   1      46.485  25.719  31.167  1.00  0.00     0.010 A 
ATOM     34  C   UNL A   1      45.179  25.206  31.172  1.00  0.00    -0.014 A 
BRANCH  34  35
ATOM     35  C   UNL A   1      44.471  25.304  32.445  1.00  0.00     0.031 A 
ATOM     36  C   UNL A   1      43.967  26.627  32.890  1.00  0.00     0.074 A 
ATOM     37  C   UNL A   1      44.163  24.193  33.154  1.00  0.00     0.049 A 
ATOM     38  N   UNL A   1      43.617  26.917  34.098  1.00  0.00    -0.248 NA
ATOM     39  C   UNL A   1      43.883  27.773  31.986  1.00  0.00     0.031 C 
ATOM     40  C   UNL A   1      43.177  24.091  34.228  1.00  0.00     0.029 A 
ATOM     41  N   UNL A   1      44.828  22.965  33.199  1.00  0.00    -0.354 N 
ATOM     42  C   UNL A   1      42.963  28.130  34.057  1.00  0.00     0.074 A 
ATOM     43  C   UNL A   1      43.261  28.669  32.754  1.00  0.00     0.031 C 
ATOM     44  C   UNL A   1      43.495  23.044  35.006  1.00  0.00     0.029 A 
ATOM     45  C   UNL A   1      44.773  22.537  34.537  1.00  0.00     0.049 A 
ATOM     46  H   UNL A   1      45.252  22.494  32.445  1.00  0.00     0.167 HD
ATOM     47  C   UNL A   1      42.111  28.466  35.067  1.00  0.00     0.031 A 
ATOM     48  C   UNL A   1      45.870  22.332  35.324  1.00  0.00     0.031 A 
ATOM     49  C   UNL A   1      42.229  27.539  36.193  1.00  0.00     0.049 A 
ATOM     50  C   UNL A   1      45.878  23.198  36.568  1.00  0.00     0.074 A 
ATOM     51  C   UNL A   1      41.444  26.496  36.654  1.00  0.00     0.029 A 
ATOM     52  N   UNL A   1      43.447  27.438  36.858  1.00  0.00    -0.354 N 
ATOM     53  N   UNL A   1      45.075  24.208  36.753  1.00  0.00    -0.248 NA
ATOM     54  C   UNL A   1      46.817  23.030  37.677  1.00  0.00     0.031 C 
ATOM     55  C   UNL A   1      42.241  25.701  37.521  1.00  0.00     0.029 A 
ATOM     56  C   UNL A   1      43.493  26.282  37.615  1.00  0.00     0.049 A 
ATOM     57  H   UNL A   1      44.175  28.097  36.798  1.00  0.00     0.167 HD
ATOM     58  C   UNL A   1      45.370  24.828  37.938  1.00  0.00     0.074 A 
ATOM     59  C   UNL A   1      46.461  24.043  38.489  1.00  0.00     0.031 C 
ATOM     60  C   UNL A   1      44.702  25.942  38.357  1.00  0.00     0.031 A 
BRANCH  47  61
ATOM     61  C   UNL A   1      40.966  29.455  34.906  1.00  0.00    -0.014 A 
ATOM     62  C   UNL A   1      40.188  29.432  33.729  1.00  0.00     0.010 A 
ATOM     63  C   UNL A   1      40.666  30.491  35.810  1.00  0.00     0.010 A 
ATOM     64  C   UNL A   1      39.245  30.434  33.433  1.00  0.00     0.020 A 
ATOM     65  C   UNL A   1      39.743  31.508  35.525  1.00  0.00     0.020 A 
ATOM     66  C   UNL A   1      39.049  31.485  34.326  1.00  0.00     0.054 A 
BRANCH  66  67
ATOM     67  S   UNL A   1      37.899  32.819  33.903  1.00  0.00     0.124 S 
ATOM     68  O   UNL A   1      38.469  33.961  34.612  1.00  0.00    -0.237 OA
ATOM     69  O   UNL A   1      37.994  32.866  32.448  1.00  0.00    -0.237 OA
ATOM     70  O   UNL A   1      36.617  32.349  34.426  1.00  0.00    -0.744 OA
ENDBRANCH  66  67
ENDBRANCH  47  61
BRANCH  48  71
ATOM     71  C   UNL A   1      47.079  21.878  34.582  1.00  0.00    -0.014 A 
ATOM     72  C   UNL A   1      48.202  22.732  34.612  1.00  0.00     0.010 A 
ATOM     73  C   UNL A   1      47.266  20.513  34.301  1.00  0.00     0.010 A 
ATOM     74  C   UNL A   1      49.493  22.204  34.578  1.00  0.00     0.020 A 
ATOM     75  C   UNL A   1      48.563  19.982  34.258  1.00  0.00     0.020 A 
ATOM     76  C   UNL A   1      49.659  20.822  34.480  1.00  0.00     0.054 A 
BRANCH  76  77
ATOM     77  S   UNL A   1      51.294  20.133  34.884  1.00  0.00     0.124 S 
ATOM     78  O   UNL A   1      51.865  21.162  35.748  1.00  0.00    -0.237 OA
ATOM     79  O   UNL A   1      50.929  18.882  35.547  1.00  0.00    -0.237 OA
ATOM     80  O   UNL A   1      51.925  19.988  33.576  1.00  0.00    -0.744 OA
ENDBRANCH  76  77
ENDBRANCH  48  71
BRANCH  60  81
ATOM     81  C   UNL A   1      45.071  26.795  39.546  1.00  0.00    -0.014 A 
ATOM     82  C   UNL A   1      45.859  27.953  39.470  1.00  0.00     0.010 A 
ATOM     83  C   UNL A   1      44.485  26.497  40.800  1.00  0.00     0.010 A 
ATOM     84  C   UNL A   1      46.100  28.744  40.604  1.00  0.00     0.020 A 
ATOM     85  C   UNL A   1      44.683  27.300  41.926  1.00  0.00     0.020 A 
ATOM     86  C   UNL A   1      45.514  28.409  41.825  1.00  0.00     0.054 A 
BRANCH  86  87
ATOM     87  S   UNL A   1      45.774  29.468  43.271  1.00  0.00     0.124 S 
ATOM     88  O   UNL A   1      45.559  28.532  44.371  1.00  0.00    -0.237 OA
ATOM     89  O   UNL A   1      47.151  29.928  43.101  1.00  0.00    -0.237 OA
ATOM     90  O   UNL A   1      44.758  30.506  43.122  1.00  0.00    -0.744 OA
ENDBRANCH  86  87
ENDBRANCH  60  81
ENDBRANCH  34  35
ENDBRANCH  26  29
ENDBRANCH  24  25
ENDBRANCH  23  24
ENDBRANCH  22  23
ENDBRANCH   1  22
TORSDOF 19
ENDMDL
MODEL 3
REMARK VINA RESULT:     -10.2      4.645      7.913
REMARK SMILES Cc1c(NC(=O)CCCO)cccc1C(=O)NCCCCNC(=O)c1ccc(-c2c3nc(c(-c4ccc(S(=O)(=O)[O-])cc4)c4ccc([nH]4)c(-c4ccc(S(=O)(=O)[O-])cc4)c4nc(c(-c5ccc(S(=O)(=O)[O-])cc5)c5ccc2[nH]5)C=C4)C=C3)cc1
REMARK SMILES IDX 18 1 17 2 15 3 16 4 14 6 1 7 2 8 3 9 11 10 13 11 12 12 4 13
REMARK SMILES IDX 5 14 6 16 7 17 8 18 9 19 10 20 19 22 20 23 21 24 22 25 23 26
REMARK SMILES IDX 24 28 25 29 26 30 84 31 27 32 83 33 28 34 29 35 30 36 77 37
REMARK SMILES IDX 31 38 82 39 76 40 78 41 32 42 81 43 75 44 74 45 33 47 63 48
REMARK SMILES IDX 44 49 62 50 45 51 48 52 61 53 79 54 46 55 47 56 60 58 80 59
REMARK SMILES IDX 49 60 34 61 35 62 43 63 36 64 42 65 37 66 38 67 39 68 40 69
REMARK SMILES IDX 41 70 64 71 65 72 73 73 66 74 72 75 67 76 68 77 69 78 70 79
REMARK SMILES IDX 71 80 50 81 51 82 59 83 52 84 58 85 53 86 54 87 55 88 56 89
REMARK SMILES IDX 57 90
REMARK H PARENT 17 5 4 15 10 21 22 27 78 46 48 57
REMARK Flexibility Score: inf
ROOT
ATOM      1  C   UNL A   1      46.128  26.428  26.659  1.00  0.00     0.116 C 
ENDROOT
BRANCH   1   2
ATOM      2  N   UNL A   1      46.364  27.523  25.742  1.00  0.00    -0.352 N 
ATOM      3  C   UNL A   1      46.114  28.860  25.661  1.00  0.00     0.251 C 
ATOM      4  O   UNL A   1      46.485  29.327  24.571  1.00  0.00    -0.269 OA
ATOM      5  H   UNL A   1      46.847  27.210  24.944  1.00  0.00     0.163 HD
BRANCH   3   6
ATOM      6  C   UNL A   1      45.507  29.830  26.664  1.00  0.00     0.044 A 
ATOM      7  C   UNL A   1      47.513  31.143  27.599  1.00  0.00     0.047 C 
ATOM      8  C   UNL A   1      46.045  30.895  27.440  1.00  0.00    -0.015 A 
ATOM      9  C   UNL A   1      45.172  31.742  28.201  1.00  0.00     0.044 A 
ATOM     10  C   UNL A   1      43.867  31.331  28.437  1.00  0.00     0.026 A 
ATOM     11  C   UNL A   1      44.123  29.571  26.838  1.00  0.00     0.014 A 
ATOM     12  C   UNL A   1      43.332  30.258  27.749  1.00  0.00     0.003 A 
BRANCH   9  13
ATOM     13  N   UNL A   1      45.673  32.966  28.699  1.00  0.00    -0.326 N 
ATOM     14  C   UNL A   1      45.417  34.283  28.506  1.00  0.00     0.224 C 
ATOM     15  H   UNL A   1      46.395  32.826  29.354  1.00  0.00     0.169 HD
ATOM     16  O   UNL A   1      46.066  35.075  29.205  1.00  0.00    -0.275 OA
BRANCH  14  17
ATOM     17  C   UNL A   1      44.496  34.844  27.450  1.00  0.00     0.103 C 
BRANCH  17  18
ATOM     18  C   UNL A   1      43.108  35.162  28.010  1.00  0.00     0.038 C 
BRANCH  18  19
ATOM     19  C   UNL A   1      42.124  35.735  27.002  1.00  0.00     0.156 C 
BRANCH  19  20
ATOM     20  O   UNL A   1      42.754  36.759  26.244  1.00  0.00    -0.396 OA
ATOM     21  H   UNL A   1      42.081  37.374  25.909  1.00  0.00     0.210 HD
ENDBRANCH  19  20
ENDBRANCH  18  19
ENDBRANCH  17  18
ENDBRANCH  14  17
ENDBRANCH   9  13
ENDBRANCH   3   6
ENDBRANCH   1   2
BRANCH   1  22
ATOM     22  C   UNL A   1      44.628  26.238  26.939  1.00  0.00     0.023 C 
BRANCH  22  23
ATOM     23  C   UNL A   1      44.236  26.153  28.407  1.00  0.00     0.023 C 
BRANCH  23  24
ATOM     24  C   UNL A   1      42.947  25.390  28.625  1.00  0.00     0.116 C 
BRANCH  24  25
ATOM     25  N   UNL A   1      42.333  24.842  27.427  1.00  0.00    -0.352 N 
ATOM     26  C   UNL A   1      40.997  24.949  27.070  1.00  0.00     0.251 C 
ATOM     27  H   UNL A   1      42.921  24.350  26.810  1.00  0.00     0.163 HD
ATOM     28  O   UNL A   1      40.471  24.195  26.259  1.00  0.00    -0.269 OA
BRANCH  26  29
ATOM     29  C   UNL A   1      40.262  26.121  27.600  1.00  0.00     0.039 A 
ATOM     30  C   UNL A   1      40.742  27.384  27.233  1.00  0.00     0.014 A 
ATOM     31  C   UNL A   1      39.414  25.968  28.690  1.00  0.00     0.014 A 
ATOM     32  C   UNL A   1      40.542  28.465  28.087  1.00  0.00     0.010 A 
ATOM     33  C   UNL A   1      39.347  27.001  29.603  1.00  0.00     0.010 A 
ATOM     34  C   UNL A   1      39.945  28.238  29.324  1.00  0.00    -0.014 A 
BRANCH  34  35
ATOM     35  C   UNL A   1      39.931  29.203  30.420  1.00  0.00     0.031 A 
ATOM     36  C   UNL A   1      39.148  30.455  30.270  1.00  0.00     0.074 A 
ATOM     37  C   UNL A   1      40.515  28.913  31.607  1.00  0.00     0.049 A 
ATOM     38  N   UNL A   1      39.295  31.511  30.997  1.00  0.00    -0.248 NA
ATOM     39  C   UNL A   1      38.159  30.633  29.209  1.00  0.00     0.031 C 
ATOM     40  C   UNL A   1      40.288  29.595  32.879  1.00  0.00     0.029 A 
ATOM     41  N   UNL A   1      41.600  28.074  31.870  1.00  0.00    -0.354 N 
ATOM     42  C   UNL A   1      38.226  32.343  30.736  1.00  0.00     0.074 A 
ATOM     43  C   UNL A   1      37.624  31.809  29.541  1.00  0.00     0.031 C 
ATOM     44  C   UNL A   1      41.356  29.400  33.668  1.00  0.00     0.029 A 
ATOM     45  C   UNL A   1      42.356  28.712  32.870  1.00  0.00     0.049 A 
ATOM     46  H   UNL A   1      41.798  27.209  31.443  1.00  0.00     0.167 HD
ATOM     47  C   UNL A   1      37.876  33.291  31.651  1.00  0.00     0.031 A 
ATOM     48  C   UNL A   1      43.649  29.122  32.711  1.00  0.00     0.031 A 
ATOM     49  C   UNL A   1      38.895  33.426  32.694  1.00  0.00     0.049 A 
ATOM     50  C   UNL A   1      43.828  30.612  32.919  1.00  0.00     0.074 A 
ATOM     51  C   UNL A   1      38.969  33.009  34.011  1.00  0.00     0.029 A 
ATOM     52  N   UNL A   1      40.179  33.824  32.335  1.00  0.00    -0.354 N 
ATOM     53  N   UNL A   1      42.839  31.459  32.987  1.00  0.00    -0.248 NA
ATOM     54  C   UNL A   1      45.127  31.276  33.017  1.00  0.00     0.031 C 
ATOM     55  C   UNL A   1      40.332  33.055  34.408  1.00  0.00     0.029 A 
ATOM     56  C   UNL A   1      41.077  33.536  33.345  1.00  0.00     0.049 A 
ATOM     57  H   UNL A   1      40.415  34.251  31.480  1.00  0.00     0.167 HD
ATOM     58  C   UNL A   1      43.323  32.734  33.111  1.00  0.00     0.074 A 
ATOM     59  C   UNL A   1      44.765  32.566  33.141  1.00  0.00     0.031 C 
ATOM     60  C   UNL A   1      42.496  33.819  33.164  1.00  0.00     0.031 A 
BRANCH  47  61
ATOM     61  C   UNL A   1      36.477  33.878  31.758  1.00  0.00    -0.014 A 
ATOM     62  C   UNL A   1      35.648  33.914  30.617  1.00  0.00     0.010 A 
ATOM     63  C   UNL A   1      35.953  34.501  32.907  1.00  0.00     0.010 A 
ATOM     64  C   UNL A   1      34.425  34.611  30.599  1.00  0.00     0.020 A 
ATOM     65  C   UNL A   1      34.746  35.215  32.904  1.00  0.00     0.020 A 
ATOM     66  C   UNL A   1      33.995  35.283  31.741  1.00  0.00     0.054 A 
BRANCH  66  67
ATOM     67  S   UNL A   1      32.466  36.251  31.689  1.00  0.00     0.124 S 
ATOM     68  O   UNL A   1      32.177  36.307  30.259  1.00  0.00    -0.237 OA
ATOM     69  O   UNL A   1      31.553  35.441  32.489  1.00  0.00    -0.237 OA
ATOM     70  O   UNL A   1      32.846  37.530  32.289  1.00  0.00    -0.744 OA
ENDBRANCH  66  67
ENDBRANCH  47  61
BRANCH  48  71
ATOM     71  C   UNL A   1      44.448  28.279  31.779  1.00  0.00    -0.014 A 
ATOM     72  C   UNL A   1      45.070  28.940  30.699  1.00  0.00     0.010 A 
ATOM     73  C   UNL A   1      44.956  27.039  32.205  1.00  0.00     0.010 A 
ATOM     74  C   UNL A   1      46.290  28.484  30.198  1.00  0.00     0.020 A 
ATOM     75  C   UNL A   1      46.178  26.575  31.697  1.00  0.00     0.020 A 
ATOM     76  C   UNL A   1      46.872  27.346  30.760  1.00  0.00     0.054 A 
BRANCH  76  77
ATOM     77  S   UNL A   1      48.631  27.035  30.415  1.00  0.00     0.124 S 
ATOM     78  O   UNL A   1      48.844  25.724  31.020  1.00  0.00    -0.237 OA
ATOM     79  O   UNL A   1      48.653  27.068  28.954  1.00  0.00    -0.237 OA
ATOM     80  O   UNL A   1      49.301  28.150  31.077  1.00  0.00    -0.744 OA
ENDBRANCH  76  77
ENDBRANCH  48  71
BRANCH  60  81
ATOM     81  C   UNL A   1      42.934  35.262  33.118  1.00  0.00    -0.014 A 
ATOM     82  C   UNL A   1      43.490  35.881  31.987  1.00  0.00     0.010 A 
ATOM     83  C   UNL A   1      42.651  36.091  34.231  1.00  0.00     0.010 A 
ATOM     84  C   UNL A   1      43.804  37.249  31.988  1.00  0.00     0.020 A 
ATOM     85  C   UNL A   1      42.921  37.461  34.228  1.00  0.00     0.020 A 
ATOM     86  C   UNL A   1      43.521  38.028  33.110  1.00  0.00     0.054 A 
BRANCH  86  87
ATOM     87  S   UNL A   1      43.867  39.807  33.084  1.00  0.00     0.124 S 
ATOM     88  O   UNL A   1      45.081  39.864  32.274  1.00  0.00    -0.237 OA
ATOM     89  O   UNL A   1      42.671  40.366  32.458  1.00  0.00    -0.237 OA
ATOM     90  O   UNL A   1      44.036  40.142  34.494  1.00  0.00    -0.744 OA
ENDBRANCH  86  87
ENDBRANCH  60  81
ENDBRANCH  34  35
ENDBRANCH  26  29
ENDBRANCH  24  25
ENDBRANCH  23  24
ENDBRANCH  22  23
ENDBRANCH   1  22
TORSDOF 19
ENDMDL
