MODEL 1
REMARK VINA RESULT:     -11.6      0.000      0.000
REMARK SMILES CC(C)(C)c1cc2c(cc1Cl)C=C(C(=O)NCCCCNC(=O)c1ccc(-c3c4nc(c(-c5ccc(S(=O)(=O)[O-])cc5)c5ccc([nH]5)c(-c5ccc(S(=O)(=O)[O-])cc5)c5nc(c(-c6ccc(S(=O)(=O)[O-])cc6)c6ccc3[nH]6)C=C5)C=C4)cc1)[C@@H](C(F)(F)F)O2
REMARK SMILES IDX 19 1 18 2 17 3 16 4 14 5 15 6 13 8 5 9 6 10 10 11 7 12 9 13
REMARK SMILES IDX 11 14 8 15 89 16 12 17 84 18 2 19 1 20 3 21 4 22 85 23 86 24
REMARK SMILES IDX 87 25 88 26 20 27 21 28 22 29 23 31 24 32 25 33 83 34 26 35
REMARK SMILES IDX 82 36 27 37 28 38 29 39 76 40 30 41 81 42 75 43 77 44 31 45
REMARK SMILES IDX 80 46 74 47 73 48 32 50 62 51 43 52 61 53 44 54 47 55 60 56
REMARK SMILES IDX 78 57 45 58 46 59 59 61 79 62 48 63 33 64 34 65 42 66 35 67
REMARK SMILES IDX 41 68 36 69 37 70 38 71 39 72 40 73 63 74 64 75 72 76 65 77
REMARK SMILES IDX 71 78 66 79 67 80 68 81 69 82 70 83 49 84 50 85 58 86 51 87
REMARK SMILES IDX 57 88 52 89 53 90 54 91 55 92 56 93
REMARK H PARENT 16 7 21 30 77 49 47 60
REMARK Flexibility Score: inf
ROOT
ATOM      1  C   UNL A   1      32.657  28.791  27.126  1.00  0.00     0.023 C 
ENDROOT
BRANCH   1   2
ATOM      2  C   UNL A   1      31.647  29.892  26.794  1.00  0.00     0.023 C 
BRANCH   2   3
ATOM      3  C   UNL A   1      31.611  30.297  25.322  1.00  0.00     0.116 C 
BRANCH   3   4
ATOM      4  N   UNL A   1      30.639  29.528  24.563  1.00  0.00    -0.352 N 
ATOM      5  C   UNL A   1      30.599  28.325  23.944  1.00  0.00     0.251 C 
ATOM      6  O   UNL A   1      29.524  28.041  23.406  1.00  0.00    -0.270 OA
ATOM      7  H   UNL A   1      29.784  30.010  24.474  1.00  0.00     0.163 HD
BRANCH   5   8
ATOM      8  C   UNL A   1      31.731  27.355  23.869  1.00  0.00     0.067 C 
ATOM      9  C   UNL A   1      34.997  23.549  24.761  1.00  0.00    -0.020 A 
ATOM     10  C   UNL A   1      34.653  24.358  23.653  1.00  0.00     0.053 A 
ATOM     11  C   UNL A   1      34.270  23.793  25.950  1.00  0.00     0.045 A 
ATOM     12  C   UNL A   1      33.644  25.322  23.718  1.00  0.00     0.128 A 
ATOM     13  C   UNL A   1      33.224  24.736  25.994  1.00  0.00     0.032 A 
ATOM     14  Cl  UNL A   1      34.599  23.024  27.465  1.00  0.00    -0.084 Cl
ATOM     15  C   UNL A   1      32.905  25.503  24.877  1.00  0.00     0.019 A 
ATOM     16  O   UNL A   1      33.410  26.045  22.582  1.00  0.00    -0.475 OA
ATOM     17  C   UNL A   1      31.813  26.468  24.881  1.00  0.00     0.025 C 
ATOM     18  C   UNL A   1      32.773  27.340  22.785  1.00  0.00     0.314 C 
BRANCH   9  19
ATOM     19  C   UNL A   1      36.149  22.522  24.611  1.00  0.00    -0.012 C 
ATOM     20  C   UNL A   1      35.704  21.057  24.831  1.00  0.00     0.016 C 
ATOM     21  C   UNL A   1      37.268  22.882  25.608  1.00  0.00     0.016 C 
ATOM     22  C   UNL A   1      36.789  22.530  23.192  1.00  0.00     0.016 C 
ENDBRANCH   9  19
BRANCH  18  23
ATOM     23  C   UNL A   1      33.852  28.420  22.993  1.00  0.00     0.429 C 
ATOM     24  F   UNL A   1      34.320  28.382  24.266  1.00  0.00    -0.167 F 
ATOM     25  F   UNL A   1      34.922  28.248  22.183  1.00  0.00    -0.167 F 
ATOM     26  F   UNL A   1      33.389  29.672  22.773  1.00  0.00    -0.167 F 
ENDBRANCH  18  23
ENDBRANCH   5   8
ENDBRANCH   3   4
ENDBRANCH   2   3
ENDBRANCH   1   2
BRANCH   1  27
ATOM     27  C   UNL A   1      34.070  29.269  27.459  1.00  0.00     0.116 C 
BRANCH  27  28
ATOM     28  N   UNL A   1      34.124  30.477  28.275  1.00  0.00    -0.352 N 
ATOM     29  C   UNL A   1      35.202  30.955  28.989  1.00  0.00     0.251 C 
ATOM     30  H   UNL A   1      33.298  31.010  28.321  1.00  0.00     0.163 HD
ATOM     31  O   UNL A   1      35.101  31.956  29.691  1.00  0.00    -0.269 OA
BRANCH  29  32
ATOM     32  C   UNL A   1      36.465  30.190  28.940  1.00  0.00     0.039 A 
ATOM     33  C   UNL A   1      36.991  29.641  30.111  1.00  0.00     0.014 A 
ATOM     34  C   UNL A   1      37.190  30.157  27.747  1.00  0.00     0.014 A 
ATOM     35  C   UNL A   1      38.320  29.238  30.132  1.00  0.00     0.010 A 
ATOM     36  C   UNL A   1      38.502  29.679  27.756  1.00  0.00     0.010 A 
ATOM     37  C   UNL A   1      39.100  29.287  28.963  1.00  0.00    -0.014 A 
BRANCH  37  38
ATOM     38  C   UNL A   1      40.553  28.990  29.052  1.00  0.00     0.031 A 
ATOM     39  C   UNL A   1      41.088  27.653  28.609  1.00  0.00     0.074 A 
ATOM     40  C   UNL A   1      41.403  29.962  29.434  1.00  0.00     0.049 A 
ATOM     41  N   UNL A   1      42.331  27.247  28.544  1.00  0.00    -0.248 NA
ATOM     42  C   UNL A   1      40.108  26.639  28.183  1.00  0.00     0.031 C 
ATOM     43  C   UNL A   1      41.005  31.307  29.853  1.00  0.00     0.029 A 
ATOM     44  N   UNL A   1      42.774  29.986  29.489  1.00  0.00    -0.354 N 
ATOM     45  C   UNL A   1      42.281  25.933  28.094  1.00  0.00     0.074 A 
ATOM     46  C   UNL A   1      40.885  25.598  27.920  1.00  0.00     0.031 C 
ATOM     47  C   UNL A   1      42.106  32.047  30.049  1.00  0.00     0.029 A 
ATOM     48  C   UNL A   1      43.287  31.216  29.825  1.00  0.00     0.049 A 
ATOM     49  H   UNL A   1      43.335  29.198  29.305  1.00  0.00     0.167 HD
ATOM     50  C   UNL A   1      43.305  25.085  27.838  1.00  0.00     0.031 A 
ATOM     51  C   UNL A   1      44.561  31.638  29.933  1.00  0.00     0.031 A 
ATOM     52  C   UNL A   1      44.695  25.426  27.994  1.00  0.00     0.049 A 
ATOM     53  C   UNL A   1      45.682  30.681  29.651  1.00  0.00     0.074 A 
ATOM     54  C   UNL A   1      45.803  24.626  27.773  1.00  0.00     0.029 A 
ATOM     55  N   UNL A   1      45.168  26.667  28.390  1.00  0.00    -0.354 N 
ATOM     56  N   UNL A   1      45.610  29.431  29.259  1.00  0.00    -0.248 NA
ATOM     57  C   UNL A   1      47.050  31.185  29.824  1.00  0.00     0.031 C 
ATOM     58  C   UNL A   1      46.946  25.373  28.072  1.00  0.00     0.029 A 
ATOM     59  C   UNL A   1      46.551  26.653  28.426  1.00  0.00     0.049 A 
ATOM     60  H   UNL A   1      44.604  27.441  28.612  1.00  0.00     0.167 HD
ATOM     61  C   UNL A   1      46.925  29.001  29.133  1.00  0.00     0.074 A 
ATOM     62  C   UNL A   1      47.772  30.125  29.473  1.00  0.00     0.031 C 
ATOM     63  C   UNL A   1      47.384  27.778  28.770  1.00  0.00     0.031 A 
BRANCH  50  64
ATOM     64  C   UNL A   1      42.972  23.692  27.376  1.00  0.00    -0.014 A 
ATOM     65  C   UNL A   1      42.658  22.699  28.322  1.00  0.00     0.010 A 
ATOM     66  C   UNL A   1      43.047  23.342  26.016  1.00  0.00     0.010 A 
ATOM     67  C   UNL A   1      42.436  21.380  27.921  1.00  0.00     0.020 A 
ATOM     68  C   UNL A   1      42.803  22.027  25.608  1.00  0.00     0.020 A 
ATOM     69  C   UNL A   1      42.516  21.050  26.566  1.00  0.00     0.054 A 
BRANCH  69  70
ATOM     70  S   UNL A   1      42.205  19.338  26.052  1.00  0.00     0.124 S 
ATOM     71  O   UNL A   1      42.657  18.580  27.214  1.00  0.00    -0.237 OA
ATOM     72  O   UNL A   1      40.764  19.328  25.812  1.00  0.00    -0.237 OA
ATOM     73  O   UNL A   1      43.025  19.194  24.850  1.00  0.00    -0.744 OA
ENDBRANCH  69  70
ENDBRANCH  50  64
BRANCH  51  74
ATOM     74  C   UNL A   1      44.813  33.058  30.292  1.00  0.00    -0.014 A 
ATOM     75  C   UNL A   1      44.949  33.436  31.639  1.00  0.00     0.010 A 
ATOM     76  C   UNL A   1      44.791  34.052  29.298  1.00  0.00     0.010 A 
ATOM     77  C   UNL A   1      44.994  34.786  31.995  1.00  0.00     0.020 A 
ATOM     78  C   UNL A   1      44.859  35.404  29.649  1.00  0.00     0.020 A 
ATOM     79  C   UNL A   1      44.926  35.761  30.998  1.00  0.00     0.054 A 
BRANCH  79  80
ATOM     80  S   UNL A   1      44.904  37.509  31.480  1.00  0.00     0.124 S 
ATOM     81  O   UNL A   1      46.244  37.942  31.093  1.00  0.00    -0.237 OA
ATOM     82  O   UNL A   1      43.811  38.053  30.678  1.00  0.00    -0.237 OA
ATOM     83  O   UNL A   1      44.652  37.461  32.918  1.00  0.00    -0.744 OA
ENDBRANCH  79  80
ENDBRANCH  51  74
BRANCH  63  84
ATOM     84  C   UNL A   1      48.872  27.570  28.709  1.00  0.00    -0.014 A 
ATOM     85  C   UNL A   1      49.573  27.898  27.535  1.00  0.00     0.010 A 
ATOM     86  C   UNL A   1      49.552  26.934  29.763  1.00  0.00     0.010 A 
ATOM     87  C   UNL A   1      50.923  27.569  27.402  1.00  0.00     0.020 A 
ATOM     88  C   UNL A   1      50.908  26.623  29.641  1.00  0.00     0.020 A 
ATOM     89  C   UNL A   1      51.580  26.922  28.453  1.00  0.00     0.054 A 
BRANCH  89  90
ATOM     90  S   UNL A   1      53.328  26.477  28.258  1.00  0.00     0.124 S 
ATOM     91  O   UNL A   1      53.899  27.706  27.718  1.00  0.00    -0.237 OA
ATOM     92  O   UNL A   1      53.732  26.141  29.621  1.00  0.00    -0.237 OA
ATOM     93  O   UNL A   1      53.288  25.345  27.334  1.00  0.00    -0.744 OA
ENDBRANCH  89  90
ENDBRANCH  63  84
ENDBRANCH  37  38
ENDBRANCH  29  32
ENDBRANCH  27  28
ENDBRANCH   1  27
TORSDOF 16
ENDMDL
MODEL 2
REMARK VINA RESULT:     -10.9      4.760     11.229
REMARK SMILES CC(C)(C)c1cc2c(cc1Cl)C=C(C(=O)NCCCCNC(=O)c1ccc(-c3c4nc(c(-c5ccc(S(=O)(=O)[O-])cc5)c5ccc([nH]5)c(-c5ccc(S(=O)(=O)[O-])cc5)c5nc(c(-c6ccc(S(=O)(=O)[O-])cc6)c6ccc3[nH]6)C=C5)C=C4)cc1)[C@@H](C(F)(F)F)O2
REMARK SMILES IDX 19 1 18 2 17 3 16 4 14 5 15 6 13 8 5 9 6 10 10 11 7 12 9 13
REMARK SMILES IDX 11 14 8 15 89 16 12 17 84 18 2 19 1 20 3 21 4 22 85 23 86 24
REMARK SMILES IDX 87 25 88 26 20 27 21 28 22 29 23 31 24 32 25 33 83 34 26 35
REMARK SMILES IDX 82 36 27 37 28 38 29 39 76 40 30 41 81 42 75 43 77 44 31 45
REMARK SMILES IDX 80 46 74 47 73 48 32 50 62 51 43 52 61 53 44 54 47 55 60 56
REMARK SMILES IDX 78 57 45 58 46 59 59 61 79 62 48 63 33 64 34 65 42 66 35 67
REMARK SMILES IDX 41 68 36 69 37 70 38 71 39 72 40 73 63 74 64 75 72 76 65 77
REMARK SMILES IDX 71 78 66 79 67 80 68 81 69 82 70 83 49 84 50 85 58 86 51 87
REMARK SMILES IDX 57 88 52 89 53 90 54 91 55 92 56 93
REMARK H PARENT 16 7 21 30 77 49 47 60
REMARK Flexibility Score: inf
ROOT
ATOM      1  C   UNL A   1      42.684  21.768  27.072  1.00  0.00     0.023 C 
ENDROOT
BRANCH   1   2
ATOM      2  C   UNL A   1      42.888  22.406  25.696  1.00  0.00     0.023 C 
BRANCH   2   3
ATOM      3  C   UNL A   1      43.703  23.697  25.710  1.00  0.00     0.116 C 
BRANCH   3   4
ATOM      4  N   UNL A   1      44.496  23.836  26.919  1.00  0.00    -0.352 N 
ATOM      5  C   UNL A   1      45.690  24.377  27.260  1.00  0.00     0.251 C 
ATOM      6  O   UNL A   1      45.992  24.282  28.454  1.00  0.00    -0.270 OA
ATOM      7  H   UNL A   1      44.048  23.428  27.696  1.00  0.00     0.163 HD
BRANCH   5   8
ATOM      8  C   UNL A   1      46.631  25.052  26.319  1.00  0.00     0.067 C 
ATOM      9  C   UNL A   1      50.772  26.974  24.059  1.00  0.00    -0.020 A 
ATOM     10  C   UNL A   1      49.461  26.624  23.658  1.00  0.00     0.053 A 
ATOM     11  C   UNL A   1      51.084  26.733  25.419  1.00  0.00     0.045 A 
ATOM     12  C   UNL A   1      48.538  26.055  24.538  1.00  0.00     0.128 A 
ATOM     13  C   UNL A   1      50.161  26.118  26.289  1.00  0.00     0.032 A 
ATOM     14  Cl  UNL A   1      52.571  27.196  26.171  1.00  0.00    -0.084 Cl
ATOM     15  C   UNL A   1      48.886  25.774  25.851  1.00  0.00     0.019 A 
ATOM     16  O   UNL A   1      47.302  25.768  24.032  1.00  0.00    -0.475 OA
ATOM     17  C   UNL A   1      47.918  25.113  26.717  1.00  0.00     0.025 C 
ATOM     18  C   UNL A   1      46.229  25.682  25.014  1.00  0.00     0.314 C 
BRANCH   9  19
ATOM     19  C   UNL A   1      51.724  27.628  23.025  1.00  0.00    -0.012 C 
ATOM     20  C   UNL A   1      53.009  26.806  22.763  1.00  0.00     0.016 C 
ATOM     21  C   UNL A   1      52.100  29.039  23.518  1.00  0.00     0.016 C 
ATOM     22  C   UNL A   1      51.072  27.798  21.622  1.00  0.00     0.016 C 
ENDBRANCH   9  19
BRANCH  18  23
ATOM     23  C   UNL A   1      45.591  27.072  25.206  1.00  0.00     0.429 C 
ATOM     24  F   UNL A   1      46.113  27.958  24.319  1.00  0.00    -0.167 F 
ATOM     25  F   UNL A   1      44.253  27.063  25.001  1.00  0.00    -0.167 F 
ATOM     26  F   UNL A   1      45.796  27.576  26.444  1.00  0.00    -0.167 F 
ENDBRANCH  18  23
ENDBRANCH   5   8
ENDBRANCH   3   4
ENDBRANCH   2   3
ENDBRANCH   1   2
BRANCH   1  27
ATOM     27  C   UNL A   1      41.283  21.912  27.666  1.00  0.00     0.116 C 
BRANCH  27  28
ATOM     28  N   UNL A   1      40.198  21.617  26.738  1.00  0.00    -0.352 N 
ATOM     29  C   UNL A   1      39.240  22.489  26.267  1.00  0.00     0.251 C 
ATOM     30  H   UNL A   1      40.142  20.690  26.411  1.00  0.00     0.163 HD
ATOM     31  O   UNL A   1      38.337  22.100  25.534  1.00  0.00    -0.269 OA
BRANCH  29  32
ATOM     32  C   UNL A   1      39.291  23.892  26.725  1.00  0.00     0.039 A 
ATOM     33  C   UNL A   1      40.037  24.831  26.010  1.00  0.00     0.014 A 
ATOM     34  C   UNL A   1      38.714  24.225  27.953  1.00  0.00     0.014 A 
ATOM     35  C   UNL A   1      40.369  26.036  26.616  1.00  0.00     0.010 A 
ATOM     36  C   UNL A   1      38.988  25.469  28.525  1.00  0.00     0.010 A 
ATOM     37  C   UNL A   1      39.878  26.352  27.894  1.00  0.00    -0.014 A 
BRANCH  37  38
ATOM     38  C   UNL A   1      40.369  27.578  28.574  1.00  0.00     0.031 A 
ATOM     39  C   UNL A   1      41.834  27.743  28.888  1.00  0.00     0.074 A 
ATOM     40  C   UNL A   1      39.512  28.588  28.816  1.00  0.00     0.049 A 
ATOM     41  N   UNL A   1      42.451  28.774  29.407  1.00  0.00    -0.248 NA
ATOM     42  C   UNL A   1      42.723  26.609  28.581  1.00  0.00     0.031 C 
ATOM     43  C   UNL A   1      38.078  28.558  28.524  1.00  0.00     0.029 A 
ATOM     44  N   UNL A   1      39.726  29.847  29.316  1.00  0.00    -0.354 N 
ATOM     45  C   UNL A   1      43.789  28.407  29.509  1.00  0.00     0.074 A 
ATOM     46  C   UNL A   1      43.895  27.052  29.017  1.00  0.00     0.031 C 
ATOM     47  C   UNL A   1      37.555  29.766  28.780  1.00  0.00     0.029 A 
ATOM     48  C   UNL A   1      38.603  30.639  29.305  1.00  0.00     0.049 A 
ATOM     49  H   UNL A   1      40.600  30.154  29.650  1.00  0.00     0.167 HD
ATOM     50  C   UNL A   1      44.835  29.138  29.961  1.00  0.00     0.031 A 
ATOM     51  C   UNL A   1      38.428  31.925  29.666  1.00  0.00     0.031 A 
ATOM     52  C   UNL A   1      44.732  30.494  30.432  1.00  0.00     0.049 A 
ATOM     53  C   UNL A   1      39.600  32.715  30.169  1.00  0.00     0.074 A 
ATOM     54  C   UNL A   1      45.737  31.308  30.924  1.00  0.00     0.029 A 
ATOM     55  N   UNL A   1      43.563  31.238  30.455  1.00  0.00    -0.354 N 
ATOM     56  N   UNL A   1      40.850  32.337  30.289  1.00  0.00    -0.248 NA
ATOM     57  C   UNL A   1      39.343  34.100  30.586  1.00  0.00     0.031 C 
ATOM     58  C   UNL A   1      45.168  32.535  31.279  1.00  0.00     0.029 A 
ATOM     59  C   UNL A   1      43.820  32.502  30.958  1.00  0.00     0.049 A 
ATOM     60  H   UNL A   1      42.683  30.916  30.157  1.00  0.00     0.167 HD
ATOM     61  C   UNL A   1      41.531  33.440  30.789  1.00  0.00     0.074 A 
ATOM     62  C   UNL A   1      40.560  34.504  30.935  1.00  0.00     0.031 C 
ATOM     63  C   UNL A   1      42.845  33.553  31.102  1.00  0.00     0.031 A 
BRANCH  50  64
ATOM     64  C   UNL A   1      46.193  28.488  29.986  1.00  0.00    -0.014 A 
ATOM     65  C   UNL A   1      46.608  27.784  31.132  1.00  0.00     0.010 A 
ATOM     66  C   UNL A   1      47.089  28.638  28.913  1.00  0.00     0.010 A 
ATOM     67  C   UNL A   1      47.897  27.253  31.212  1.00  0.00     0.020 A 
ATOM     68  C   UNL A   1      48.373  28.089  28.980  1.00  0.00     0.020 A 
ATOM     69  C   UNL A   1      48.775  27.414  30.137  1.00  0.00     0.054 A 
BRANCH  69  70
ATOM     70  S   UNL A   1      50.441  26.702  30.241  1.00  0.00     0.124 S 
ATOM     71  O   UNL A   1      51.203  27.569  29.348  1.00  0.00    -0.237 OA
ATOM     72  O   UNL A   1      50.757  26.823  31.662  1.00  0.00    -0.237 OA
ATOM     73  O   UNL A   1      50.249  25.330  29.773  1.00  0.00    -0.744 OA
ENDBRANCH  69  70
ENDBRANCH  50  64
BRANCH  51  74
ATOM     74  C   UNL A   1      37.080  32.531  29.512  1.00  0.00    -0.014 A 
ATOM     75  C   UNL A   1      36.688  33.088  28.282  1.00  0.00     0.010 A 
ATOM     76  C   UNL A   1      36.234  32.664  30.627  1.00  0.00     0.010 A 
ATOM     77  C   UNL A   1      35.507  33.825  28.182  1.00  0.00     0.020 A 
ATOM     78  C   UNL A   1      35.038  33.381  30.525  1.00  0.00     0.020 A 
ATOM     79  C   UNL A   1      34.701  33.985  29.311  1.00  0.00     0.054 A 
BRANCH  79  80
ATOM     80  S   UNL A   1      33.210  35.012  29.187  1.00  0.00     0.124 S 
ATOM     81  O   UNL A   1      33.769  36.298  28.780  1.00  0.00    -0.237 OA
ATOM     82  O   UNL A   1      32.423  34.319  28.171  1.00  0.00    -0.237 OA
ATOM     83  O   UNL A   1      32.655  34.969  30.537  1.00  0.00    -0.744 OA
ENDBRANCH  79  80
ENDBRANCH  51  74
BRANCH  63  84
ATOM     84  C   UNL A   1      43.335  34.872  31.632  1.00  0.00    -0.014 A 
ATOM     85  C   UNL A   1      43.208  35.160  33.003  1.00  0.00     0.010 A 
ATOM     86  C   UNL A   1      43.799  35.869  30.758  1.00  0.00     0.010 A 
ATOM     87  C   UNL A   1      43.513  36.434  33.489  1.00  0.00     0.020 A 
ATOM     88  C   UNL A   1      44.124  37.138  31.244  1.00  0.00     0.020 A 
ATOM     89  C   UNL A   1      43.957  37.419  32.603  1.00  0.00     0.054 A 
BRANCH  89  90
ATOM     90  S   UNL A   1      44.324  39.077  33.242  1.00  0.00     0.124 S 
ATOM     91  O   UNL A   1      45.302  39.569  32.277  1.00  0.00    -0.237 OA
ATOM     92  O   UNL A   1      43.019  39.736  33.206  1.00  0.00    -0.237 OA
ATOM     93  O   UNL A   1      44.842  38.816  34.583  1.00  0.00    -0.744 OA
ENDBRANCH  89  90
ENDBRANCH  63  84
ENDBRANCH  37  38
ENDBRANCH  29  32
ENDBRANCH  27  28
ENDBRANCH   1  27
TORSDOF 16
ENDMDL
MODEL 3
REMARK VINA RESULT:     -10.9      2.993      8.291
REMARK SMILES CC(C)(C)c1cc2c(cc1Cl)C=C(C(=O)NCCCCNC(=O)c1ccc(-c3c4nc(c(-c5ccc(S(=O)(=O)[O-])cc5)c5ccc([nH]5)c(-c5ccc(S(=O)(=O)[O-])cc5)c5nc(c(-c6ccc(S(=O)(=O)[O-])cc6)c6ccc3[nH]6)C=C5)C=C4)cc1)[C@@H](C(F)(F)F)O2
REMARK SMILES IDX 19 1 18 2 17 3 16 4 14 5 15 6 13 8 5 9 6 10 10 11 7 12 9 13
REMARK SMILES IDX 11 14 8 15 89 16 12 17 84 18 2 19 1 20 3 21 4 22 85 23 86 24
REMARK SMILES IDX 87 25 88 26 20 27 21 28 22 29 23 31 24 32 25 33 83 34 26 35
REMARK SMILES IDX 82 36 27 37 28 38 29 39 76 40 30 41 81 42 75 43 77 44 31 45
REMARK SMILES IDX 80 46 74 47 73 48 32 50 62 51 43 52 61 53 44 54 47 55 60 56
REMARK SMILES IDX 78 57 45 58 46 59 59 61 79 62 48 63 33 64 34 65 42 66 35 67
REMARK SMILES IDX 41 68 36 69 37 70 38 71 39 72 40 73 63 74 64 75 72 76 65 77
REMARK SMILES IDX 71 78 66 79 67 80 68 81 69 82 70 83 49 84 50 85 58 86 51 87
REMARK SMILES IDX 57 88 52 89 53 90 54 91 55 92 56 93
REMARK H PARENT 16 7 21 30 77 49 47 60
REMARK Flexibility Score: inf
ROOT
ATOM      1  C   UNL A   1      39.192  19.963  25.107  1.00  0.00     0.023 C 
ENDROOT
BRANCH   1   2
ATOM      2  C   UNL A   1      37.714  19.590  24.969  1.00  0.00     0.023 C 
BRANCH   2   3
ATOM      3  C   UNL A   1      36.756  20.779  24.980  1.00  0.00     0.116 C 
BRANCH   3   4
ATOM      4  N   UNL A   1      35.391  20.385  25.287  1.00  0.00    -0.352 N 
ATOM      5  C   UNL A   1      34.167  20.964  25.261  1.00  0.00     0.251 C 
ATOM      6  O   UNL A   1      33.230  20.237  25.604  1.00  0.00    -0.270 OA
ATOM      7  H   UNL A   1      35.344  19.452  25.597  1.00  0.00     0.163 HD
BRANCH   5   8
ATOM      8  C   UNL A   1      33.889  22.376  24.862  1.00  0.00     0.067 C 
ATOM      9  C   UNL A   1      32.692  27.327  24.854  1.00  0.00    -0.020 A 
ATOM     10  C   UNL A   1      33.372  26.441  23.986  1.00  0.00     0.053 A 
ATOM     11  C   UNL A   1      32.218  26.760  26.062  1.00  0.00     0.045 A 
ATOM     12  C   UNL A   1      33.584  25.098  24.306  1.00  0.00     0.128 A 
ATOM     13  C   UNL A   1      32.474  25.416  26.397  1.00  0.00     0.032 A 
ATOM     14  Cl  UNL A   1      31.249  27.608  27.218  1.00  0.00    -0.084 Cl
ATOM     15  C   UNL A   1      33.161  24.580  25.521  1.00  0.00     0.019 A 
ATOM     16  O   UNL A   1      34.247  24.343  23.381  1.00  0.00    -0.475 OA
ATOM     17  C   UNL A   1      33.466  23.193  25.847  1.00  0.00     0.025 C 
ATOM     18  C   UNL A   1      34.012  22.907  23.461  1.00  0.00     0.314 C 
BRANCH   9  19
ATOM     19  C   UNL A   1      32.475  28.796  24.409  1.00  0.00    -0.012 C 
ATOM     20  C   UNL A   1      32.907  29.834  25.472  1.00  0.00     0.016 C 
ATOM     21  C   UNL A   1      30.986  28.995  24.062  1.00  0.00     0.016 C 
ATOM     22  C   UNL A   1      33.290  29.171  23.137  1.00  0.00     0.016 C 
ENDBRANCH   9  19
BRANCH  18  23
ATOM     23  C   UNL A   1      32.802  22.532  22.582  1.00  0.00     0.429 C 
ATOM     24  F   UNL A   1      32.642  21.184  22.548  1.00  0.00    -0.167 F 
ATOM     25  F   UNL A   1      31.641  23.047  23.049  1.00  0.00    -0.167 F 
ATOM     26  F   UNL A   1      32.933  22.953  21.304  1.00  0.00    -0.167 F 
ENDBRANCH  18  23
ENDBRANCH   5   8
ENDBRANCH   3   4
ENDBRANCH   2   3
ENDBRANCH   1   2
BRANCH   1  27
ATOM     27  C   UNL A   1      39.904  19.398  26.335  1.00  0.00     0.116 C 
BRANCH  27  28
ATOM     28  N   UNL A   1      41.216  18.822  26.062  1.00  0.00    -0.352 N 
ATOM     29  C   UNL A   1      42.438  19.458  26.123  1.00  0.00     0.251 C 
ATOM     30  H   UNL A   1      41.232  17.872  25.805  1.00  0.00     0.163 HD
ATOM     31  O   UNL A   1      43.470  18.876  25.808  1.00  0.00    -0.269 OA
BRANCH  29  32
ATOM     32  C   UNL A   1      42.462  20.882  26.515  1.00  0.00     0.039 A 
ATOM     33  C   UNL A   1      42.503  21.873  25.532  1.00  0.00     0.014 A 
ATOM     34  C   UNL A   1      42.596  21.211  27.866  1.00  0.00     0.014 A 
ATOM     35  C   UNL A   1      42.876  23.163  25.886  1.00  0.00     0.010 A 
ATOM     36  C   UNL A   1      42.896  22.527  28.225  1.00  0.00     0.010 A 
ATOM     37  C   UNL A   1      43.111  23.495  27.231  1.00  0.00    -0.014 A 
BRANCH  37  38
ATOM     38  C   UNL A   1      43.649  24.840  27.561  1.00  0.00     0.031 A 
ATOM     39  C   UNL A   1      45.082  25.186  27.248  1.00  0.00     0.074 A 
ATOM     40  C   UNL A   1      42.820  25.783  28.047  1.00  0.00     0.049 A 
ATOM     41  N   UNL A   1      45.701  26.331  27.396  1.00  0.00    -0.248 NA
ATOM     42  C   UNL A   1      45.933  24.116  26.700  1.00  0.00     0.031 C 
ATOM     43  C   UNL A   1      41.405  25.575  28.357  1.00  0.00     0.029 A 
ATOM     44  N   UNL A   1      43.032  27.110  28.321  1.00  0.00    -0.354 N 
ATOM     45  C   UNL A   1      47.010  26.114  26.982  1.00  0.00     0.074 A 
ATOM     46  C   UNL A   1      47.107  24.724  26.595  1.00  0.00     0.031 C 
ATOM     47  C   UNL A   1      40.857  26.748  28.707  1.00  0.00     0.029 A 
ATOM     48  C   UNL A   1      41.893  27.779  28.699  1.00  0.00     0.049 A 
ATOM     49  H   UNL A   1      43.914  27.542  28.252  1.00  0.00     0.167 HD
ATOM     50  C   UNL A   1      48.036  26.995  26.918  1.00  0.00     0.031 A 
ATOM     51  C   UNL A   1      41.692  29.077  28.999  1.00  0.00     0.031 A 
ATOM     52  C   UNL A   1      47.934  28.383  27.286  1.00  0.00     0.049 A 
ATOM     53  C   UNL A   1      42.844  30.037  28.928  1.00  0.00     0.074 A 
ATOM     54  C   UNL A   1      48.925  29.348  27.269  1.00  0.00     0.029 A 
ATOM     55  N   UNL A   1      46.773  29.006  27.717  1.00  0.00    -0.354 N 
ATOM     56  N   UNL A   1      44.082  29.802  28.566  1.00  0.00    -0.248 NA
ATOM     57  C   UNL A   1      42.577  31.430  29.305  1.00  0.00     0.031 C 
ATOM     58  C   UNL A   1      48.372  30.548  27.726  1.00  0.00     0.029 A 
ATOM     59  C   UNL A   1      47.025  30.342  27.976  1.00  0.00     0.049 A 
ATOM     60  H   UNL A   1      45.901  28.563  27.823  1.00  0.00     0.167 HD
ATOM     61  C   UNL A   1      44.742  31.021  28.665  1.00  0.00     0.074 A 
ATOM     62  C   UNL A   1      43.763  31.994  29.105  1.00  0.00     0.031 C 
ATOM     63  C   UNL A   1      46.044  31.301  28.416  1.00  0.00     0.031 A 
BRANCH  50  64
ATOM     64  C   UNL A   1      49.374  26.490  26.448  1.00  0.00    -0.014 A 
ATOM     65  C   UNL A   1      50.237  25.851  27.357  1.00  0.00     0.010 A 
ATOM     66  C   UNL A   1      49.813  26.718  25.132  1.00  0.00     0.010 A 
ATOM     67  C   UNL A   1      51.519  25.459  26.965  1.00  0.00     0.020 A 
ATOM     68  C   UNL A   1      51.087  26.306  24.729  1.00  0.00     0.020 A 
ATOM     69  C   UNL A   1      51.939  25.694  25.653  1.00  0.00     0.054 A 
BRANCH  69  70
ATOM     70  S   UNL A   1      53.597  25.161  25.146  1.00  0.00     0.124 S 
ATOM     71  O   UNL A   1      53.648  25.594  23.754  1.00  0.00    -0.237 OA
ATOM     72  O   UNL A   1      54.467  25.889  26.067  1.00  0.00    -0.237 OA
ATOM     73  O   UNL A   1      53.564  23.714  25.355  1.00  0.00    -0.744 OA
ENDBRANCH  69  70
ENDBRANCH  50  64
BRANCH  51  74
ATOM     74  C   UNL A   1      40.319  29.523  29.352  1.00  0.00    -0.014 A 
ATOM     75  C   UNL A   1      39.367  29.752  28.343  1.00  0.00     0.010 A 
ATOM     76  C   UNL A   1      39.999  29.839  30.684  1.00  0.00     0.010 A 
ATOM     77  C   UNL A   1      38.143  30.351  28.649  1.00  0.00     0.020 A 
ATOM     78  C   UNL A   1      38.765  30.416  30.997  1.00  0.00     0.020 A 
ATOM     79  C   UNL A   1      37.860  30.699  29.971  1.00  0.00     0.054 A 
BRANCH  79  80
ATOM     80  S   UNL A   1      36.300  31.549  30.340  1.00  0.00     0.124 S 
ATOM     81  O   UNL A   1      35.898  30.903  31.586  1.00  0.00    -0.237 OA
ATOM     82  O   UNL A   1      36.711  32.945  30.459  1.00  0.00    -0.237 OA
ATOM     83  O   UNL A   1      35.466  31.246  29.180  1.00  0.00    -0.744 OA
ENDBRANCH  79  80
ENDBRANCH  51  74
BRANCH  63  84
ATOM     84  C   UNL A   1      46.510  32.719  28.602  1.00  0.00    -0.014 A 
ATOM     85  C   UNL A   1      46.928  33.152  29.873  1.00  0.00     0.010 A 
ATOM     86  C   UNL A   1      46.413  33.650  27.554  1.00  0.00     0.010 A 
ATOM     87  C   UNL A   1      47.216  34.499  30.102  1.00  0.00     0.020 A 
ATOM     88  C   UNL A   1      46.720  34.995  27.775  1.00  0.00     0.020 A 
ATOM     89  C   UNL A   1      47.098  35.415  29.053  1.00  0.00     0.054 A 
BRANCH  89  90
ATOM     90  S   UNL A   1      47.449  37.167  29.369  1.00  0.00     0.124 S 
ATOM     91  O   UNL A   1      46.844  37.369  30.682  1.00  0.00    -0.237 OA
ATOM     92  O   UNL A   1      48.909  37.217  29.335  1.00  0.00    -0.237 OA
ATOM     93  O   UNL A   1      46.785  37.850  28.262  1.00  0.00    -0.744 OA
ENDBRANCH  89  90
ENDBRANCH  63  84
ENDBRANCH  37  38
ENDBRANCH  29  32
ENDBRANCH  27  28
ENDBRANCH   1  27
TORSDOF 16
ENDMDL
