MODEL 1
REMARK VINA RESULT:      -9.4      0.000      0.000
REMARK SMILES CC[C@@H](CCC(=O)NCCCCNC(=O)c1ccc(-c2c3nc(c(-c4ccc(S(=O)(=O)[O-])cc4)c4ccc([nH]4)c(-c4ccc(S(=O)(=O)[O-])cc4)c4nc(c(-c5ccc(S(=O)(=O)[O-])cc5)c5ccc2[nH]5)C=C4)C=C3)cc1)CC[N@H+]1CCC[C@@H]1C
REMARK SMILES IDX 9 1 8 2 6 3 7 4 5 6 4 7 3 8 2 9 1 10 76 11 77 12 78 13 79 14
REMARK SMILES IDX 82 15 80 17 81 18 83 19 10 20 11 21 12 22 13 23 14 24 15 26
REMARK SMILES IDX 16 27 17 28 75 29 18 30 74 31 19 32 20 33 21 34 68 35 22 36
REMARK SMILES IDX 73 37 67 38 69 39 23 40 72 41 66 42 65 43 24 45 54 46 35 47
REMARK SMILES IDX 53 48 36 49 39 50 52 51 70 52 37 53 38 54 51 56 71 57 40 58
REMARK SMILES IDX 25 59 26 60 34 61 27 62 33 63 28 64 29 65 30 66 31 67 32 68
REMARK SMILES IDX 55 69 56 70 64 71 57 72 63 73 58 74 59 75 60 76 61 77 62 78
REMARK SMILES IDX 41 79 42 80 50 81 43 82 49 83 44 84 45 85 46 86 47 87 48 88
REMARK H PARENT 8 5 78 16 13 25 69 44 39 55
REMARK Flexibility Score: inf
ROOT
ATOM      1  C   UNL A   1      32.044  27.484  24.829  1.00  0.00     0.116 C 
ENDROOT
BRANCH   1   2
ATOM      2  N   UNL A   1      32.424  26.873  23.569  1.00  0.00    -0.356 N 
ATOM      3  C   UNL A   1      31.914  25.810  22.895  1.00  0.00     0.220 C 
ATOM      4  O   UNL A   1      32.437  25.489  21.826  1.00  0.00    -0.275 OA
ATOM      5  H   UNL A   1      33.186  27.308  23.122  1.00  0.00     0.163 HD
BRANCH   3   6
ATOM      6  C   UNL A   1      30.729  25.044  23.441  1.00  0.00     0.100 C 
BRANCH   6   7
ATOM      7  C   UNL A   1      31.100  24.048  24.551  1.00  0.00     0.013 C 
BRANCH   7   8
ATOM      8  C   UNL A   1      32.461  23.299  24.428  1.00  0.00    -0.005 C 
BRANCH   8   9
ATOM      9  C   UNL A   1      32.432  22.194  23.352  1.00  0.00     0.000 C 
ATOM     10  C   UNL A   1      32.426  20.788  23.940  1.00  0.00     0.004 C 
ENDBRANCH   8   9
BRANCH   8  11
ATOM     11  C   UNL A   1      32.964  22.868  25.831  1.00  0.00     0.065 C 
BRANCH  11  12
ATOM     12  C   UNL A   1      34.227  23.516  26.434  1.00  0.00     0.262 C 
BRANCH  12  13
ATOM     13  N   UNL A   1      35.522  22.853  26.336  1.00  0.00    -0.333 N 
ATOM     14  C   UNL A   1      35.520  21.422  26.088  1.00  0.00     0.262 C 
ATOM     15  C   UNL A   1      36.466  23.497  25.413  1.00  0.00     0.181 C 
ATOM     16  H   UNL A   1      35.844  22.974  27.296  1.00  0.00     0.348 HD
ATOM     17  C   UNL A   1      35.936  21.265  24.641  1.00  0.00     0.067 C 
ATOM     18  C   UNL A   1      36.879  22.428  24.400  1.00  0.00     0.070 C 
ATOM     19  C   UNL A   1      37.668  24.014  26.203  1.00  0.00     0.075 C 
ENDBRANCH  12  13
ENDBRANCH  11  12
ENDBRANCH   8  11
ENDBRANCH   7   8
ENDBRANCH   6   7
ENDBRANCH   3   6
ENDBRANCH   1   2
BRANCH   1  20
ATOM     20  C   UNL A   1      32.809  26.929  26.032  1.00  0.00     0.023 C 
BRANCH  20  21
ATOM     21  C   UNL A   1      32.963  27.935  27.169  1.00  0.00     0.023 C 
BRANCH  21  22
ATOM     22  C   UNL A   1      33.771  29.154  26.777  1.00  0.00     0.116 C 
BRANCH  22  23
ATOM     23  N   UNL A   1      33.645  30.328  27.623  1.00  0.00    -0.352 N 
ATOM     24  C   UNL A   1      34.623  30.890  28.428  1.00  0.00     0.251 C 
ATOM     25  H   UNL A   1      32.767  30.775  27.625  1.00  0.00     0.163 HD
ATOM     26  O   UNL A   1      34.379  31.900  29.081  1.00  0.00    -0.269 OA
BRANCH  24  27
ATOM     27  C   UNL A   1      35.947  30.222  28.548  1.00  0.00     0.039 A 
ATOM     28  C   UNL A   1      36.858  30.303  27.491  1.00  0.00     0.014 A 
ATOM     29  C   UNL A   1      36.330  29.590  29.730  1.00  0.00     0.014 A 
ATOM     30  C   UNL A   1      38.172  29.849  27.668  1.00  0.00     0.010 A 
ATOM     31  C   UNL A   1      37.665  29.289  29.957  1.00  0.00     0.010 A 
ATOM     32  C   UNL A   1      38.604  29.394  28.925  1.00  0.00    -0.014 A 
BRANCH  32  33
ATOM     33  C   UNL A   1      40.009  28.988  29.203  1.00  0.00     0.031 A 
ATOM     34  C   UNL A   1      40.967  29.991  29.803  1.00  0.00     0.074 A 
ATOM     35  C   UNL A   1      40.457  27.775  28.817  1.00  0.00     0.049 A 
ATOM     36  N   UNL A   1      42.263  29.906  29.962  1.00  0.00    -0.248 NA
ATOM     37  C   UNL A   1      40.401  31.285  30.224  1.00  0.00     0.031 C 
ATOM     38  C   UNL A   1      39.656  26.738  28.159  1.00  0.00     0.029 A 
ATOM     39  N   UNL A   1      41.706  27.213  28.912  1.00  0.00    -0.354 N 
ATOM     40  C   UNL A   1      42.665  31.147  30.446  1.00  0.00     0.074 A 
ATOM     41  C   UNL A   1      41.492  31.987  30.491  1.00  0.00     0.031 C 
ATOM     42  C   UNL A   1      40.422  25.654  27.952  1.00  0.00     0.029 A 
ATOM     43  C   UNL A   1      41.776  25.932  28.416  1.00  0.00     0.049 A 
ATOM     44  H   UNL A   1      42.479  27.684  29.299  1.00  0.00     0.167 HD
ATOM     45  C   UNL A   1      43.894  31.546  30.851  1.00  0.00     0.031 A 
ATOM     46  C   UNL A   1      42.816  25.078  28.342  1.00  0.00     0.031 A 
ATOM     47  C   UNL A   1      45.043  30.684  30.876  1.00  0.00     0.049 A 
ATOM     48  C   UNL A   1      44.158  25.517  28.863  1.00  0.00     0.074 A 
ATOM     49  C   UNL A   1      46.314  30.956  31.352  1.00  0.00     0.029 A 
ATOM     50  N   UNL A   1      45.053  29.373  30.427  1.00  0.00    -0.354 N 
ATOM     51  N   UNL A   1      44.504  26.676  29.369  1.00  0.00    -0.248 NA
ATOM     52  C   UNL A   1      45.244  24.529  28.814  1.00  0.00     0.031 C 
ATOM     53  C   UNL A   1      47.100  29.814  31.162  1.00  0.00     0.029 A 
ATOM     54  C   UNL A   1      46.308  28.821  30.609  1.00  0.00     0.049 A 
ATOM     55  H   UNL A   1      44.280  28.904  30.036  1.00  0.00     0.167 HD
ATOM     56  C   UNL A   1      45.843  26.549  29.723  1.00  0.00     0.074 A 
ATOM     57  C   UNL A   1      46.237  25.196  29.387  1.00  0.00     0.031 C 
ATOM     58  C   UNL A   1      46.672  27.468  30.276  1.00  0.00     0.031 A 
BRANCH  45  59
ATOM     59  C   UNL A   1      44.045  32.970  31.322  1.00  0.00    -0.014 A 
ATOM     60  C   UNL A   1      44.119  34.035  30.406  1.00  0.00     0.010 A 
ATOM     61  C   UNL A   1      44.094  33.251  32.700  1.00  0.00     0.010 A 
ATOM     62  C   UNL A   1      44.297  35.346  30.855  1.00  0.00     0.020 A 
ATOM     63  C   UNL A   1      44.239  34.565  33.154  1.00  0.00     0.020 A 
ATOM     64  C   UNL A   1      44.362  35.603  32.227  1.00  0.00     0.054 A 
BRANCH  64  65
ATOM     65  S   UNL A   1      44.580  37.316  32.781  1.00  0.00     0.124 S 
ATOM     66  O   UNL A   1      45.656  37.179  33.759  1.00  0.00    -0.237 OA
ATOM     67  O   UNL A   1      44.938  38.010  31.548  1.00  0.00    -0.237 OA
ATOM     68  O   UNL A   1      43.275  37.669  33.336  1.00  0.00    -0.744 OA
ENDBRANCH  64  65
ENDBRANCH  45  59
BRANCH  46  69
ATOM     69  C   UNL A   1      42.621  23.709  27.788  1.00  0.00    -0.014 A 
ATOM     70  C   UNL A   1      42.848  23.458  26.423  1.00  0.00     0.010 A 
ATOM     71  C   UNL A   1      42.220  22.646  28.618  1.00  0.00     0.010 A 
ATOM     72  C   UNL A   1      42.659  22.179  25.894  1.00  0.00     0.020 A 
ATOM     73  C   UNL A   1      42.055  21.359  28.098  1.00  0.00     0.020 A 
ATOM     74  C   UNL A   1      42.264  21.136  26.736  1.00  0.00     0.054 A 
BRANCH  74  75
ATOM     75  S   UNL A   1      42.071  19.472  26.036  1.00  0.00     0.124 S 
ATOM     76  O   UNL A   1      40.630  19.398  25.821  1.00  0.00    -0.237 OA
ATOM     77  O   UNL A   1      42.889  19.539  24.828  1.00  0.00    -0.237 OA
ATOM     78  O   UNL A   1      42.594  18.598  27.084  1.00  0.00    -0.744 OA
ENDBRANCH  74  75
ENDBRANCH  46  69
BRANCH  58  79
ATOM     79  C   UNL A   1      48.076  27.033  30.587  1.00  0.00    -0.014 A 
ATOM     80  C   UNL A   1      49.124  27.252  29.675  1.00  0.00     0.010 A 
ATOM     81  C   UNL A   1      48.361  26.457  31.838  1.00  0.00     0.010 A 
ATOM     82  C   UNL A   1      50.429  26.878  30.000  1.00  0.00     0.020 A 
ATOM     83  C   UNL A   1      49.669  26.104  32.176  1.00  0.00     0.020 A 
ATOM     84  C   UNL A   1      50.694  26.306  31.249  1.00  0.00     0.054 A 
BRANCH  84  85
ATOM     85  S   UNL A   1      52.405  25.875  31.667  1.00  0.00     0.124 S 
ATOM     86  O   UNL A   1      52.269  24.492  32.114  1.00  0.00    -0.237 OA
ATOM     87  O   UNL A   1      53.102  26.061  30.397  1.00  0.00    -0.237 OA
ATOM     88  O   UNL A   1      52.758  26.836  32.709  1.00  0.00    -0.744 OA
ENDBRANCH  84  85
ENDBRANCH  58  79
ENDBRANCH  32  33
ENDBRANCH  24  27
ENDBRANCH  22  23
ENDBRANCH  21  22
ENDBRANCH  20  21
ENDBRANCH   1  20
TORSDOF 20
ENDMDL
MODEL 2
REMARK VINA RESULT:      -9.1      5.002      6.972
REMARK SMILES CC[C@@H](CCC(=O)NCCCCNC(=O)c1ccc(-c2c3nc(c(-c4ccc(S(=O)(=O)[O-])cc4)c4ccc([nH]4)c(-c4ccc(S(=O)(=O)[O-])cc4)c4nc(c(-c5ccc(S(=O)(=O)[O-])cc5)c5ccc2[nH]5)C=C4)C=C3)cc1)CC[N@H+]1CCC[C@@H]1C
REMARK SMILES IDX 9 1 8 2 6 3 7 4 5 6 4 7 3 8 2 9 1 10 76 11 77 12 78 13 79 14
REMARK SMILES IDX 82 15 80 17 81 18 83 19 10 20 11 21 12 22 13 23 14 24 15 26
REMARK SMILES IDX 16 27 17 28 75 29 18 30 74 31 19 32 20 33 21 34 68 35 22 36
REMARK SMILES IDX 73 37 67 38 69 39 23 40 72 41 66 42 65 43 24 45 54 46 35 47
REMARK SMILES IDX 53 48 36 49 39 50 52 51 70 52 37 53 38 54 51 56 71 57 40 58
REMARK SMILES IDX 25 59 26 60 34 61 27 62 33 63 28 64 29 65 30 66 31 67 32 68
REMARK SMILES IDX 55 69 56 70 64 71 57 72 63 73 58 74 59 75 60 76 61 77 62 78
REMARK SMILES IDX 41 79 42 80 50 81 43 82 49 83 44 84 45 85 46 86 47 87 48 88
REMARK H PARENT 8 5 78 16 13 25 69 44 39 55
REMARK Flexibility Score: inf
ROOT
ATOM      1  C   UNL A   1      34.414  29.340  27.251  1.00  0.00     0.116 C 
ENDROOT
BRANCH   1   2
ATOM      2  N   UNL A   1      33.122  28.961  27.793  1.00  0.00    -0.356 N 
ATOM      3  C   UNL A   1      32.215  28.035  27.390  1.00  0.00     0.220 C 
ATOM      4  O   UNL A   1      31.173  27.915  28.038  1.00  0.00    -0.275 OA
ATOM      5  H   UNL A   1      32.857  29.464  28.597  1.00  0.00     0.163 HD
BRANCH   3   6
ATOM      6  C   UNL A   1      32.482  27.166  26.179  1.00  0.00     0.100 C 
BRANCH   6   7
ATOM      7  C   UNL A   1      31.331  27.163  25.161  1.00  0.00     0.013 C 
BRANCH   7   8
ATOM      8  C   UNL A   1      31.702  27.091  23.648  1.00  0.00    -0.005 C 
BRANCH   8   9
ATOM      9  C   UNL A   1      33.225  27.019  23.417  1.00  0.00     0.000 C 
ATOM     10  C   UNL A   1      33.725  28.043  22.405  1.00  0.00     0.004 C 
ENDBRANCH   8   9
BRANCH   8  11
ATOM     11  C   UNL A   1      30.946  28.193  22.858  1.00  0.00     0.065 C 
BRANCH  11  12
ATOM     12  C   UNL A   1      30.617  29.540  23.532  1.00  0.00     0.262 C 
BRANCH  12  13
ATOM     13  N   UNL A   1      29.248  30.039  23.568  1.00  0.00    -0.333 N 
ATOM     14  C   UNL A   1      29.064  31.471  23.721  1.00  0.00     0.262 C 
ATOM     15  C   UNL A   1      28.399  29.563  22.467  1.00  0.00     0.181 C 
ATOM     16  H   UNL A   1      28.939  29.619  24.444  1.00  0.00     0.348 HD
ATOM     17  C   UNL A   1      28.638  31.969  22.357  1.00  0.00     0.067 C 
ATOM     18  C   UNL A   1      27.855  30.811  21.769  1.00  0.00     0.070 C 
ATOM     19  C   UNL A   1      27.271  28.704  23.036  1.00  0.00     0.075 C 
ENDBRANCH  12  13
ENDBRANCH  11  12
ENDBRANCH   8  11
ENDBRANCH   7   8
ENDBRANCH   6   7
ENDBRANCH   3   6
ENDBRANCH   1   2
BRANCH   1  20
ATOM     20  C   UNL A   1      34.827  30.771  27.602  1.00  0.00     0.023 C 
BRANCH  20  21
ATOM     21  C   UNL A   1      33.643  31.693  27.880  1.00  0.00     0.023 C 
BRANCH  21  22
ATOM     22  C   UNL A   1      34.004  33.161  27.807  1.00  0.00     0.116 C 
BRANCH  22  23
ATOM     23  N   UNL A   1      33.151  34.087  28.532  1.00  0.00    -0.352 N 
ATOM     24  C   UNL A   1      33.339  34.566  29.818  1.00  0.00     0.251 C 
ATOM     25  H   UNL A   1      32.351  34.409  28.057  1.00  0.00     0.163 HD
ATOM     26  O   UNL A   1      32.540  35.363  30.303  1.00  0.00    -0.269 OA
BRANCH  24  27
ATOM     27  C   UNL A   1      34.475  34.057  30.634  1.00  0.00     0.039 A 
ATOM     28  C   UNL A   1      34.323  32.875  31.364  1.00  0.00     0.014 A 
ATOM     29  C   UNL A   1      35.715  34.691  30.615  1.00  0.00     0.014 A 
ATOM     30  C   UNL A   1      35.438  32.285  31.974  1.00  0.00     0.010 A 
ATOM     31  C   UNL A   1      36.842  34.029  31.080  1.00  0.00     0.010 A 
ATOM     32  C   UNL A   1      36.721  32.826  31.785  1.00  0.00    -0.014 A 
BRANCH  32  33
ATOM     33  C   UNL A   1      37.956  32.196  32.327  1.00  0.00     0.031 A 
ATOM     34  C   UNL A   1      38.378  32.490  33.748  1.00  0.00     0.074 A 
ATOM     35  C   UNL A   1      38.755  31.463  31.524  1.00  0.00     0.049 A 
ATOM     36  N   UNL A   1      39.496  32.193  34.359  1.00  0.00    -0.248 NA
ATOM     37  C   UNL A   1      37.442  33.276  34.573  1.00  0.00     0.031 C 
ATOM     38  C   UNL A   1      38.505  31.163  30.111  1.00  0.00     0.029 A 
ATOM     39  N   UNL A   1      39.953  30.844  31.782  1.00  0.00    -0.354 N 
ATOM     40  C   UNL A   1      39.416  32.800  35.608  1.00  0.00     0.074 A 
ATOM     41  C   UNL A   1      38.174  33.536  35.645  1.00  0.00     0.031 C 
ATOM     42  C   UNL A   1      39.494  30.384  29.643  1.00  0.00     0.029 A 
ATOM     43  C   UNL A   1      40.471  30.167  30.703  1.00  0.00     0.049 A 
ATOM     44  H   UNL A   1      40.401  30.883  32.659  1.00  0.00     0.167 HD
ATOM     45  C   UNL A   1      40.280  32.726  36.648  1.00  0.00     0.031 A 
ATOM     46  C   UNL A   1      41.607  29.452  30.581  1.00  0.00     0.031 A 
ATOM     47  C   UNL A   1      41.476  31.931  36.635  1.00  0.00     0.049 A 
ATOM     48  C   UNL A   1      42.518  29.324  31.771  1.00  0.00     0.074 A 
ATOM     49  C   UNL A   1      42.376  31.710  37.662  1.00  0.00     0.029 A 
ATOM     50  N   UNL A   1      41.927  31.207  35.542  1.00  0.00    -0.354 N 
ATOM     51  N   UNL A   1      42.396  29.859  32.962  1.00  0.00    -0.248 NA
ATOM     52  C   UNL A   1      43.714  28.486  31.604  1.00  0.00     0.031 C 
ATOM     53  C   UNL A   1      43.388  30.874  37.180  1.00  0.00     0.029 A 
ATOM     54  C   UNL A   1      43.095  30.540  35.867  1.00  0.00     0.049 A 
ATOM     55  H   UNL A   1      41.482  31.172  34.664  1.00  0.00     0.167 HD
ATOM     56  C   UNL A   1      43.485  29.402  33.696  1.00  0.00     0.074 A 
ATOM     57  C   UNL A   1      44.246  28.535  32.819  1.00  0.00     0.031 C 
ATOM     58  C   UNL A   1      43.827  29.675  34.979  1.00  0.00     0.031 A 
BRANCH  45  59
ATOM     59  C   UNL A   1      39.941  33.506  37.892  1.00  0.00    -0.014 A 
ATOM     60  C   UNL A   1      40.398  34.825  38.070  1.00  0.00     0.010 A 
ATOM     61  C   UNL A   1      39.140  32.922  38.891  1.00  0.00     0.010 A 
ATOM     62  C   UNL A   1      40.109  35.524  39.245  1.00  0.00     0.020 A 
ATOM     63  C   UNL A   1      38.822  33.630  40.054  1.00  0.00     0.020 A 
ATOM     64  C   UNL A   1      39.327  34.920  40.232  1.00  0.00     0.054 A 
BRANCH  64  65
ATOM     65  S   UNL A   1      38.957  35.855  41.742  1.00  0.00     0.124 S 
ATOM     66  O   UNL A   1      37.639  35.338  42.098  1.00  0.00    -0.237 OA
ATOM     67  O   UNL A   1      40.045  35.468  42.635  1.00  0.00    -0.237 OA
ATOM     68  O   UNL A   1      38.982  37.248  41.301  1.00  0.00    -0.744 OA
ENDBRANCH  64  65
ENDBRANCH  45  59
BRANCH  46  69
ATOM     69  C   UNL A   1      41.926  28.770  29.295  1.00  0.00    -0.014 A 
ATOM     70  C   UNL A   1      42.544  29.482  28.251  1.00  0.00     0.010 A 
ATOM     71  C   UNL A   1      41.629  27.408  29.109  1.00  0.00     0.010 A 
ATOM     72  C   UNL A   1      42.839  28.851  27.039  1.00  0.00     0.020 A 
ATOM     73  C   UNL A   1      41.947  26.767  27.908  1.00  0.00     0.020 A 
ATOM     74  C   UNL A   1      42.539  27.496  26.875  1.00  0.00     0.054 A 
BRANCH  74  75
ATOM     75  S   UNL A   1      42.975  26.687  25.310  1.00  0.00     0.124 S 
ATOM     76  O   UNL A   1      42.841  27.781  24.354  1.00  0.00    -0.237 OA
ATOM     77  O   UNL A   1      44.339  26.227  25.560  1.00  0.00    -0.237 OA
ATOM     78  O   UNL A   1      41.981  25.622  25.187  1.00  0.00    -0.744 OA
ENDBRANCH  74  75
ENDBRANCH  46  69
BRANCH  58  79
ATOM     79  C   UNL A   1      45.054  29.001  35.525  1.00  0.00    -0.014 A 
ATOM     80  C   UNL A   1      44.981  27.729  36.118  1.00  0.00     0.010 A 
ATOM     81  C   UNL A   1      46.307  29.623  35.380  1.00  0.00     0.010 A 
ATOM     82  C   UNL A   1      46.139  27.101  36.583  1.00  0.00     0.020 A 
ATOM     83  C   UNL A   1      47.470  28.988  35.821  1.00  0.00     0.020 A 
ATOM     84  C   UNL A   1      47.376  27.735  36.431  1.00  0.00     0.054 A 
BRANCH  84  85
ATOM     85  S   UNL A   1      48.872  26.878  36.995  1.00  0.00     0.124 S 
ATOM     86  O   UNL A   1      49.850  27.280  35.990  1.00  0.00    -0.237 OA
ATOM     87  O   UNL A   1      49.076  27.435  38.330  1.00  0.00    -0.237 OA
ATOM     88  O   UNL A   1      48.493  25.468  36.969  1.00  0.00    -0.744 OA
ENDBRANCH  84  85
ENDBRANCH  58  79
ENDBRANCH  32  33
ENDBRANCH  24  27
ENDBRANCH  22  23
ENDBRANCH  21  22
ENDBRANCH  20  21
ENDBRANCH   1  20
TORSDOF 20
ENDMDL
MODEL 3
REMARK VINA RESULT:      -9.0      3.778      9.599
REMARK SMILES CC[C@@H](CCC(=O)NCCCCNC(=O)c1ccc(-c2c3nc(c(-c4ccc(S(=O)(=O)[O-])cc4)c4ccc([nH]4)c(-c4ccc(S(=O)(=O)[O-])cc4)c4nc(c(-c5ccc(S(=O)(=O)[O-])cc5)c5ccc2[nH]5)C=C4)C=C3)cc1)CC[N@H+]1CCC[C@@H]1C
REMARK SMILES IDX 9 1 8 2 6 3 7 4 5 6 4 7 3 8 2 9 1 10 76 11 77 12 78 13 79 14
REMARK SMILES IDX 82 15 80 17 81 18 83 19 10 20 11 21 12 22 13 23 14 24 15 26
REMARK SMILES IDX 16 27 17 28 75 29 18 30 74 31 19 32 20 33 21 34 68 35 22 36
REMARK SMILES IDX 73 37 67 38 69 39 23 40 72 41 66 42 65 43 24 45 54 46 35 47
REMARK SMILES IDX 53 48 36 49 39 50 52 51 70 52 37 53 38 54 51 56 71 57 40 58
REMARK SMILES IDX 25 59 26 60 34 61 27 62 33 63 28 64 29 65 30 66 31 67 32 68
REMARK SMILES IDX 55 69 56 70 64 71 57 72 63 73 58 74 59 75 60 76 61 77 62 78
REMARK SMILES IDX 41 79 42 80 50 81 43 82 49 83 44 84 45 85 46 86 47 87 48 88
REMARK H PARENT 8 5 78 16 13 25 69 44 39 55
REMARK Flexibility Score: inf
ROOT
ATOM      1  C   UNL A   1      39.464  22.662  26.512  1.00  0.00     0.116 C 
ENDROOT
BRANCH   1   2
ATOM      2  N   UNL A   1      38.424  21.732  26.112  1.00  0.00    -0.356 N 
ATOM      3  C   UNL A   1      37.323  21.895  25.335  1.00  0.00     0.220 C 
ATOM      4  O   UNL A   1      36.585  20.924  25.155  1.00  0.00    -0.275 OA
ATOM      5  H   UNL A   1      38.538  20.820  26.468  1.00  0.00     0.163 HD
BRANCH   3   6
ATOM      6  C   UNL A   1      37.016  23.233  24.699  1.00  0.00     0.100 C 
BRANCH   6   7
ATOM      7  C   UNL A   1      36.083  24.114  25.544  1.00  0.00     0.013 C 
BRANCH   7   8
ATOM      8  C   UNL A   1      34.555  23.813  25.490  1.00  0.00    -0.005 C 
BRANCH   8   9
ATOM      9  C   UNL A   1      33.733  25.019  24.991  1.00  0.00     0.000 C 
ATOM     10  C   UNL A   1      34.022  26.300  25.763  1.00  0.00     0.004 C 
ENDBRANCH   8   9
BRANCH   8  11
ATOM     11  C   UNL A   1      34.086  23.178  26.827  1.00  0.00     0.065 C 
BRANCH  11  12
ATOM     12  C   UNL A   1      32.647  22.642  26.965  1.00  0.00     0.262 C 
BRANCH  12  13
ATOM     13  N   UNL A   1      32.114  21.685  26.004  1.00  0.00    -0.333 N 
ATOM     14  C   UNL A   1      31.206  22.193  24.991  1.00  0.00     0.262 C 
ATOM     15  C   UNL A   1      33.130  20.845  25.356  1.00  0.00     0.181 C 
ATOM     16  H   UNL A   1      31.547  21.115  26.632  1.00  0.00     0.348 HD
ATOM     17  C   UNL A   1      32.008  22.217  23.708  1.00  0.00     0.067 C 
ATOM     18  C   UNL A   1      32.964  21.049  23.849  1.00  0.00     0.070 C 
ATOM     19  C   UNL A   1      32.904  19.386  25.752  1.00  0.00     0.075 C 
ENDBRANCH  12  13
ENDBRANCH  11  12
ENDBRANCH   8  11
ENDBRANCH   7   8
ENDBRANCH   6   7
ENDBRANCH   3   6
ENDBRANCH   1   2
BRANCH   1  20
ATOM     20  C   UNL A   1      40.878  22.097  26.362  1.00  0.00     0.023 C 
BRANCH  20  21
ATOM     21  C   UNL A   1      40.906  20.595  26.097  1.00  0.00     0.023 C 
BRANCH  21  22
ATOM     22  C   UNL A   1      42.182  19.932  26.572  1.00  0.00     0.116 C 
BRANCH  22  23
ATOM     23  N   UNL A   1      42.939  19.177  25.587  1.00  0.00    -0.352 N 
ATOM     24  C   UNL A   1      44.047  19.605  24.875  1.00  0.00     0.251 C 
ATOM     25  H   UNL A   1      42.630  18.260  25.407  1.00  0.00     0.163 HD
ATOM     26  O   UNL A   1      44.601  18.849  24.082  1.00  0.00    -0.269 OA
BRANCH  24  27
ATOM     27  C   UNL A   1      44.520  21.008  25.026  1.00  0.00     0.039 A 
ATOM     28  C   UNL A   1      44.114  21.975  24.102  1.00  0.00     0.014 A 
ATOM     29  C   UNL A   1      45.292  21.394  26.120  1.00  0.00     0.014 A 
ATOM     30  C   UNL A   1      44.391  23.327  24.342  1.00  0.00     0.010 A 
ATOM     31  C   UNL A   1      45.426  22.738  26.437  1.00  0.00     0.010 A 
ATOM     32  C   UNL A   1      44.997  23.727  25.545  1.00  0.00    -0.014 A 
BRANCH  32  33
ATOM     33  C   UNL A   1      45.233  25.152  25.902  1.00  0.00     0.031 A 
ATOM     34  C   UNL A   1      46.628  25.723  25.795  1.00  0.00     0.074 A 
ATOM     35  C   UNL A   1      44.238  25.897  26.426  1.00  0.00     0.049 A 
ATOM     36  N   UNL A   1      47.087  26.874  26.216  1.00  0.00    -0.248 NA
ATOM     37  C   UNL A   1      47.658  24.860  25.189  1.00  0.00     0.031 C 
ATOM     38  C   UNL A   1      42.862  25.447  26.654  1.00  0.00     0.029 A 
ATOM     39  N   UNL A   1      44.236  27.194  26.877  1.00  0.00    -0.354 N 
ATOM     40  C   UNL A   1      48.457  26.845  25.975  1.00  0.00     0.074 A 
ATOM     41  C   UNL A   1      48.766  25.542  25.435  1.00  0.00     0.031 C 
ATOM     42  C   UNL A   1      42.142  26.463  27.157  1.00  0.00     0.029 A 
ATOM     43  C   UNL A   1      43.011  27.620  27.335  1.00  0.00     0.049 A 
ATOM     44  H   UNL A   1      45.038  27.766  26.873  1.00  0.00     0.167 HD
ATOM     45  C   UNL A   1      49.374  27.825  26.153  1.00  0.00     0.031 A 
ATOM     46  C   UNL A   1      42.631  28.809  27.843  1.00  0.00     0.031 A 
ATOM     47  C   UNL A   1      49.050  29.144  26.618  1.00  0.00     0.049 A 
ATOM     48  C   UNL A   1      43.652  29.908  27.965  1.00  0.00     0.074 A 
ATOM     49  C   UNL A   1      49.883  30.241  26.749  1.00  0.00     0.029 A 
ATOM     50  N   UNL A   1      47.783  29.553  27.007  1.00  0.00    -0.354 N 
ATOM     51  N   UNL A   1      44.932  29.878  27.679  1.00  0.00    -0.248 NA
ATOM     52  C   UNL A   1      43.175  31.203  28.469  1.00  0.00     0.031 C 
ATOM     53  C   UNL A   1      49.124  31.306  27.246  1.00  0.00     0.029 A 
ATOM     54  C   UNL A   1      47.811  30.884  27.382  1.00  0.00     0.049 A 
ATOM     55  H   UNL A   1      46.983  28.979  27.015  1.00  0.00     0.167 HD
ATOM     56  C   UNL A   1      45.408  31.157  27.942  1.00  0.00     0.074 A 
ATOM     57  C   UNL A   1      44.276  31.940  28.396  1.00  0.00     0.031 C 
ATOM     58  C   UNL A   1      46.668  31.642  27.821  1.00  0.00     0.031 A 
BRANCH  45  59
ATOM     59  C   UNL A   1      50.808  27.506  25.816  1.00  0.00    -0.014 A 
ATOM     60  C   UNL A   1      51.290  27.631  24.500  1.00  0.00     0.010 A 
ATOM     61  C   UNL A   1      51.693  27.095  26.830  1.00  0.00     0.010 A 
ATOM     62  C   UNL A   1      52.612  27.295  24.194  1.00  0.00     0.020 A 
ATOM     63  C   UNL A   1      53.025  26.790  26.533  1.00  0.00     0.020 A 
ATOM     64  C   UNL A   1      53.470  26.871  25.212  1.00  0.00     0.054 A 
BRANCH  64  65
ATOM     65  S   UNL A   1      55.183  26.455  24.787  1.00  0.00     0.124 S 
ATOM     66  O   UNL A   1      55.258  26.879  23.392  1.00  0.00    -0.237 OA
ATOM     67  O   UNL A   1      55.953  27.263  25.730  1.00  0.00    -0.237 OA
ATOM     68  O   UNL A   1      55.254  25.012  25.005  1.00  0.00    -0.744 OA
ENDBRANCH  64  65
ENDBRANCH  45  59
BRANCH  46  69
ATOM     69  C   UNL A   1      41.212  29.036  28.235  1.00  0.00    -0.014 A 
ATOM     70  C   UNL A   1      40.852  29.084  29.594  1.00  0.00     0.010 A 
ATOM     71  C   UNL A   1      40.215  29.216  27.259  1.00  0.00     0.010 A 
ATOM     72  C   UNL A   1      39.522  29.288  29.970  1.00  0.00     0.020 A 
ATOM     73  C   UNL A   1      38.887  29.447  27.631  1.00  0.00     0.020 A 
ATOM     74  C   UNL A   1      38.546  29.468  28.986  1.00  0.00     0.054 A 
BRANCH  74  75
ATOM     75  S   UNL A   1      36.833  29.780  29.498  1.00  0.00     0.124 S 
ATOM     76  O   UNL A   1      36.081  29.328  28.333  1.00  0.00    -0.237 OA
ATOM     77  O   UNL A   1      36.705  28.952  30.695  1.00  0.00    -0.237 OA
ATOM     78  O   UNL A   1      36.806  31.220  29.742  1.00  0.00    -0.744 OA
ENDBRANCH  74  75
ENDBRANCH  46  69
BRANCH  58  79
ATOM     79  C   UNL A   1      46.884  33.093  28.147  1.00  0.00    -0.014 A 
ATOM     80  C   UNL A   1      47.271  33.498  29.436  1.00  0.00     0.010 A 
ATOM     81  C   UNL A   1      46.764  34.056  27.129  1.00  0.00     0.010 A 
ATOM     82  C   UNL A   1      47.508  34.847  29.709  1.00  0.00     0.020 A 
ATOM     83  C   UNL A   1      47.023  35.403  27.392  1.00  0.00     0.020 A 
ATOM     84  C   UNL A   1      47.382  35.791  28.685  1.00  0.00     0.054 A 
BRANCH  84  85
ATOM     85  S   UNL A   1      47.744  37.530  29.051  1.00  0.00     0.124 S 
ATOM     86  O   UNL A   1      46.430  38.150  28.909  1.00  0.00    -0.237 OA
ATOM     87  O   UNL A   1      48.267  37.468  30.414  1.00  0.00    -0.237 OA
ATOM     88  O   UNL A   1      48.723  37.901  28.033  1.00  0.00    -0.744 OA
ENDBRANCH  84  85
ENDBRANCH  58  79
ENDBRANCH  32  33
ENDBRANCH  24  27
ENDBRANCH  22  23
ENDBRANCH  21  22
ENDBRANCH  20  21
ENDBRANCH   1  20
TORSDOF 20
ENDMDL
