MODEL 1
REMARK VINA RESULT:     -10.1      0.000      0.000
REMARK SMILES CCN1C[C@@H](C(=O)NCCCCNC(=O)c2ccc(-c3c4nc(c(-c5ccc(S(=O)(=O)[O-])cc5)c5ccc([nH]5)c(-c5ccc(S(=O)(=O)[O-])cc5)c5nc(c(-c6ccc(S(=O)(=O)[O-])cc6)c6ccc3[nH]6)C=C5)C=C4)cc2)CC1=O
REMARK SMILES IDX 11 1 10 2 9 3 8 4 6 5 7 6 5 8 3 9 4 10 77 11 76 12 78 13
REMARK SMILES IDX 2 14 1 15 12 16 13 17 14 18 15 20 16 21 17 22 75 23 18 24
REMARK SMILES IDX 74 25 19 26 20 27 21 28 68 29 22 30 73 31 67 32 69 33 23 34
REMARK SMILES IDX 72 35 66 36 65 37 24 39 54 40 35 41 53 42 36 43 39 44 52 45
REMARK SMILES IDX 70 46 37 47 38 48 51 50 71 51 40 52 25 53 26 54 34 55 27 56
REMARK SMILES IDX 33 57 28 58 29 59 30 60 31 61 32 62 55 63 56 64 64 65 57 66
REMARK SMILES IDX 63 67 58 68 59 69 60 70 61 71 62 72 41 73 42 74 50 75 43 76
REMARK SMILES IDX 49 77 44 78 45 79 46 80 47 81 48 82
REMARK H PARENT 8 7 13 19 69 38 39 49
REMARK Flexibility Score: inf
ROOT
ATOM      1  C   UNL A   1      33.578  27.989  25.814  1.00  0.00     0.023 C 
ENDROOT
BRANCH   1   2
ATOM      2  C   UNL A   1      33.788  26.504  25.512  1.00  0.00     0.023 C 
BRANCH   2   3
ATOM      3  C   UNL A   1      33.714  26.135  24.032  1.00  0.00     0.116 C 
BRANCH   3   4
ATOM      4  N   UNL A   1      32.502  25.401  23.715  1.00  0.00    -0.356 N 
ATOM      5  C   UNL A   1      31.218  25.815  23.557  1.00  0.00     0.225 C 
ATOM      6  O   UNL A   1      30.374  24.959  23.276  1.00  0.00    -0.275 OA
ATOM      7  H   UNL A   1      32.634  24.434  23.593  1.00  0.00     0.163 HD
BRANCH   5   8
ATOM      8  C   UNL A   1      30.802  27.264  23.685  1.00  0.00     0.107 C 
ATOM      9  N   UNL A   1      28.964  28.522  22.926  1.00  0.00    -0.342 N 
ATOM     10  C   UNL A   1      29.296  27.427  23.806  1.00  0.00     0.133 C 
ATOM     11  C   UNL A   1      30.047  28.990  22.204  1.00  0.00     0.223 C 
ATOM     12  C   UNL A   1      31.258  28.165  22.542  1.00  0.00     0.115 C 
ATOM     13  O   UNL A   1      30.034  29.912  21.402  1.00  0.00    -0.275 OA
BRANCH   9  14
ATOM     14  C   UNL A   1      27.637  29.104  22.797  1.00  0.00     0.116 C 
ATOM     15  C   UNL A   1      27.431  30.432  23.502  1.00  0.00     0.027 C 
ENDBRANCH   9  14
ENDBRANCH   5   8
ENDBRANCH   3   4
ENDBRANCH   2   3
ENDBRANCH   1   2
BRANCH   1  16
ATOM     16  C   UNL A   1      33.438  28.339  27.291  1.00  0.00     0.116 C 
BRANCH  16  17
ATOM     17  N   UNL A   1      33.379  29.772  27.532  1.00  0.00    -0.352 N 
ATOM     18  C   UNL A   1      34.342  30.607  28.049  1.00  0.00     0.251 C 
ATOM     19  H   UNL A   1      32.529  30.207  27.290  1.00  0.00     0.163 HD
ATOM     20  O   UNL A   1      34.062  31.772  28.313  1.00  0.00    -0.269 OA
BRANCH  18  21
ATOM     21  C   UNL A   1      35.700  30.086  28.313  1.00  0.00     0.039 A 
ATOM     22  C   UNL A   1      36.654  30.137  27.294  1.00  0.00     0.014 A 
ATOM     23  C   UNL A   1      36.039  29.565  29.565  1.00  0.00     0.014 A 
ATOM     24  C   UNL A   1      37.964  29.730  27.551  1.00  0.00     0.010 A 
ATOM     25  C   UNL A   1      37.363  29.237  29.843  1.00  0.00     0.010 A 
ATOM     26  C   UNL A   1      38.340  29.312  28.839  1.00  0.00    -0.014 A 
BRANCH  26  27
ATOM     27  C   UNL A   1      39.748  28.956  29.153  1.00  0.00     0.031 A 
ATOM     28  C   UNL A   1      40.661  29.964  29.800  1.00  0.00     0.074 A 
ATOM     29  C   UNL A   1      40.222  27.741  28.807  1.00  0.00     0.049 A 
ATOM     30  N   UNL A   1      41.926  29.848  30.114  1.00  0.00    -0.248 NA
ATOM     31  C   UNL A   1      40.084  31.281  30.114  1.00  0.00     0.031 C 
ATOM     32  C   UNL A   1      39.452  26.690  28.138  1.00  0.00     0.029 A 
ATOM     33  N   UNL A   1      41.468  27.186  28.967  1.00  0.00    -0.354 N 
ATOM     34  C   UNL A   1      42.298  31.077  30.647  1.00  0.00     0.074 A 
ATOM     35  C   UNL A   1      41.142  31.941  30.564  1.00  0.00     0.031 C 
ATOM     36  C   UNL A   1      40.230  25.607  27.979  1.00  0.00     0.029 A 
ATOM     37  C   UNL A   1      41.566  25.899  28.490  1.00  0.00     0.049 A 
ATOM     38  H   UNL A   1      42.220  27.664  29.385  1.00  0.00     0.167 HD
ATOM     39  C   UNL A   1      43.488  31.447  31.180  1.00  0.00     0.031 A 
ATOM     40  C   UNL A   1      42.612  25.051  28.461  1.00  0.00     0.031 A 
ATOM     41  C   UNL A   1      44.635  30.582  31.267  1.00  0.00     0.049 A 
ATOM     42  C   UNL A   1      43.929  25.492  29.041  1.00  0.00     0.074 A 
ATOM     43  C   UNL A   1      45.868  30.847  31.836  1.00  0.00     0.029 A 
ATOM     44  N   UNL A   1      44.692  29.288  30.771  1.00  0.00    -0.354 N 
ATOM     45  N   UNL A   1      44.241  26.637  29.601  1.00  0.00    -0.248 NA
ATOM     46  C   UNL A   1      45.031  24.522  28.996  1.00  0.00     0.031 C 
ATOM     47  C   UNL A   1      46.691  29.735  31.629  1.00  0.00     0.029 A 
ATOM     48  C   UNL A   1      45.949  28.751  30.996  1.00  0.00     0.049 A 
ATOM     49  H   UNL A   1      43.950  28.820  30.326  1.00  0.00     0.167 HD
ATOM     50  C   UNL A   1      45.567  26.512  30.004  1.00  0.00     0.074 A 
ATOM     51  C   UNL A   1      45.990  25.176  29.636  1.00  0.00     0.031 C 
ATOM     52  C   UNL A   1      46.359  27.420  30.624  1.00  0.00     0.031 A 
BRANCH  39  53
ATOM     53  C   UNL A   1      43.611  32.854  31.705  1.00  0.00    -0.014 A 
ATOM     54  C   UNL A   1      44.016  33.911  30.869  1.00  0.00     0.010 A 
ATOM     55  C   UNL A   1      43.272  33.134  33.042  1.00  0.00     0.010 A 
ATOM     56  C   UNL A   1      44.119  35.212  31.370  1.00  0.00     0.020 A 
ATOM     57  C   UNL A   1      43.343  34.439  33.538  1.00  0.00     0.020 A 
ATOM     58  C   UNL A   1      43.783  35.467  32.702  1.00  0.00     0.054 A 
BRANCH  58  59
ATOM     59  S   UNL A   1      43.900  37.170  33.317  1.00  0.00     0.124 S 
ATOM     60  O   UNL A   1      43.939  37.935  32.073  1.00  0.00    -0.237 OA
ATOM     61  O   UNL A   1      42.676  37.310  34.102  1.00  0.00    -0.237 OA
ATOM     62  O   UNL A   1      45.139  37.176  34.091  1.00  0.00    -0.744 OA
ENDBRANCH  58  59
ENDBRANCH  39  53
BRANCH  40  63
ATOM     63  C   UNL A   1      42.453  23.689  27.877  1.00  0.00    -0.014 A 
ATOM     64  C   UNL A   1      42.537  23.495  26.486  1.00  0.00     0.010 A 
ATOM     65  C   UNL A   1      42.222  22.579  28.709  1.00  0.00     0.010 A 
ATOM     66  C   UNL A   1      42.372  22.218  25.938  1.00  0.00     0.020 A 
ATOM     67  C   UNL A   1      42.088  21.297  28.167  1.00  0.00     0.020 A 
ATOM     68  C   UNL A   1      42.151  21.127  26.783  1.00  0.00     0.054 A 
BRANCH  68  69
ATOM     69  S   UNL A   1      41.986  19.475  26.051  1.00  0.00     0.124 S 
ATOM     70  O   UNL A   1      42.485  18.618  27.122  1.00  0.00    -0.237 OA
ATOM     71  O   UNL A   1      40.552  19.391  25.787  1.00  0.00    -0.237 OA
ATOM     72  O   UNL A   1      42.829  19.544  24.859  1.00  0.00    -0.744 OA
ENDBRANCH  68  69
ENDBRANCH  40  63
BRANCH  52  73
ATOM     73  C   UNL A   1      47.757  26.990  30.985  1.00  0.00    -0.014 A 
ATOM     74  C   UNL A   1      48.070  26.506  32.268  1.00  0.00     0.010 A 
ATOM     75  C   UNL A   1      48.766  27.026  30.003  1.00  0.00     0.010 A 
ATOM     76  C   UNL A   1      49.373  26.102  32.572  1.00  0.00     0.020 A 
ATOM     77  C   UNL A   1      50.062  26.592  30.295  1.00  0.00     0.020 A 
ATOM     78  C   UNL A   1      50.361  26.148  31.583  1.00  0.00     0.054 A 
BRANCH  78  79
ATOM     79  S   UNL A   1      52.034  25.583  31.995  1.00  0.00     0.124 S 
ATOM     80  O   UNL A   1      52.820  26.139  30.897  1.00  0.00    -0.237 OA
ATOM     81  O   UNL A   1      52.264  26.189  33.304  1.00  0.00    -0.237 OA
ATOM     82  O   UNL A   1      51.917  24.127  32.002  1.00  0.00    -0.744 OA
ENDBRANCH  78  79
ENDBRANCH  52  73
ENDBRANCH  26  27
ENDBRANCH  18  21
ENDBRANCH  16  17
ENDBRANCH   1  16
TORSDOF 15
ENDMDL
MODEL 2
REMARK VINA RESULT:     -10.0      1.847      3.220
REMARK SMILES CCN1C[C@@H](C(=O)NCCCCNC(=O)c2ccc(-c3c4nc(c(-c5ccc(S(=O)(=O)[O-])cc5)c5ccc([nH]5)c(-c5ccc(S(=O)(=O)[O-])cc5)c5nc(c(-c6ccc(S(=O)(=O)[O-])cc6)c6ccc3[nH]6)C=C5)C=C4)cc2)CC1=O
REMARK SMILES IDX 11 1 10 2 9 3 8 4 6 5 7 6 5 8 3 9 4 10 77 11 76 12 78 13
REMARK SMILES IDX 2 14 1 15 12 16 13 17 14 18 15 20 16 21 17 22 75 23 18 24
REMARK SMILES IDX 74 25 19 26 20 27 21 28 68 29 22 30 73 31 67 32 69 33 23 34
REMARK SMILES IDX 72 35 66 36 65 37 24 39 54 40 35 41 53 42 36 43 39 44 52 45
REMARK SMILES IDX 70 46 37 47 38 48 51 50 71 51 40 52 25 53 26 54 34 55 27 56
REMARK SMILES IDX 33 57 28 58 29 59 30 60 31 61 32 62 55 63 56 64 64 65 57 66
REMARK SMILES IDX 63 67 58 68 59 69 60 70 61 71 62 72 41 73 42 74 50 75 43 76
REMARK SMILES IDX 49 77 44 78 45 79 46 80 47 81 48 82
REMARK H PARENT 8 7 13 19 69 38 39 49
REMARK Flexibility Score: inf
ROOT
ATOM      1  C   UNL A   1      32.079  27.733  27.293  1.00  0.00     0.023 C 
ENDROOT
BRANCH   1   2
ATOM      2  C   UNL A   1      31.377  27.632  25.938  1.00  0.00     0.023 C 
BRANCH   2   3
ATOM      3  C   UNL A   1      31.236  26.213  25.393  1.00  0.00     0.116 C 
BRANCH   3   4
ATOM      4  N   UNL A   1      31.100  25.234  26.457  1.00  0.00    -0.356 N 
ATOM      5  C   UNL A   1      31.658  24.008  26.625  1.00  0.00     0.225 C 
ATOM      6  O   UNL A   1      31.366  23.383  27.648  1.00  0.00    -0.275 OA
ATOM      7  H   UNL A   1      30.496  25.507  27.185  1.00  0.00     0.163 HD
BRANCH   5   8
ATOM      8  C   UNL A   1      32.629  23.406  25.631  1.00  0.00     0.107 C 
ATOM      9  N   UNL A   1      33.211  21.209  25.023  1.00  0.00    -0.342 N 
ATOM     10  C   UNL A   1      32.099  22.129  25.002  1.00  0.00     0.133 C 
ATOM     11  C   UNL A   1      34.324  21.713  25.669  1.00  0.00     0.223 C 
ATOM     12  C   UNL A   1      34.008  23.085  26.198  1.00  0.00     0.115 C 
ATOM     13  O   UNL A   1      35.394  21.140  25.814  1.00  0.00    -0.275 OA
BRANCH   9  14
ATOM     14  C   UNL A   1      33.196  19.884  24.423  1.00  0.00     0.116 C 
ATOM     15  C   UNL A   1      32.828  18.745  25.357  1.00  0.00     0.027 C 
ENDBRANCH   9  14
ENDBRANCH   5   8
ENDBRANCH   3   4
ENDBRANCH   2   3
ENDBRANCH   1   2
BRANCH   1  16
ATOM     16  C   UNL A   1      33.449  28.401  27.270  1.00  0.00     0.116 C 
BRANCH  16  17
ATOM     17  N   UNL A   1      33.385  29.836  27.499  1.00  0.00    -0.352 N 
ATOM     18  C   UNL A   1      34.338  30.674  28.027  1.00  0.00     0.251 C 
ATOM     19  H   UNL A   1      32.539  30.268  27.239  1.00  0.00     0.163 HD
ATOM     20  O   UNL A   1      34.052  31.841  28.278  1.00  0.00    -0.269 OA
BRANCH  18  21
ATOM     21  C   UNL A   1      35.692  30.157  28.318  1.00  0.00     0.039 A 
ATOM     22  C   UNL A   1      36.650  30.163  27.303  1.00  0.00     0.014 A 
ATOM     23  C   UNL A   1      36.020  29.683  29.591  1.00  0.00     0.014 A 
ATOM     24  C   UNL A   1      37.957  29.758  27.583  1.00  0.00     0.010 A 
ATOM     25  C   UNL A   1      37.341  29.359  29.889  1.00  0.00     0.010 A 
ATOM     26  C   UNL A   1      38.324  29.389  28.888  1.00  0.00    -0.014 A 
BRANCH  26  27
ATOM     27  C   UNL A   1      39.728  29.037  29.224  1.00  0.00     0.031 A 
ATOM     28  C   UNL A   1      40.624  30.043  29.897  1.00  0.00     0.074 A 
ATOM     29  C   UNL A   1      40.215  27.828  28.875  1.00  0.00     0.049 A 
ATOM     30  N   UNL A   1      41.884  29.931  30.231  1.00  0.00    -0.248 NA
ATOM     31  C   UNL A   1      40.035  31.354  30.212  1.00  0.00     0.031 C 
ATOM     32  C   UNL A   1      39.462  26.779  28.183  1.00  0.00     0.029 A 
ATOM     33  N   UNL A   1      41.460  27.277  29.052  1.00  0.00    -0.354 N 
ATOM     34  C   UNL A   1      42.240  31.157  30.782  1.00  0.00     0.074 A 
ATOM     35  C   UNL A   1      41.080  32.015  30.687  1.00  0.00     0.031 C 
ATOM     36  C   UNL A   1      40.248  25.701  28.027  1.00  0.00     0.029 A 
ATOM     37  C   UNL A   1      41.574  25.996  28.565  1.00  0.00     0.049 A 
ATOM     38  H   UNL A   1      42.202  27.755  29.487  1.00  0.00     0.167 HD
ATOM     39  C   UNL A   1      43.418  31.528  31.339  1.00  0.00     0.031 A 
ATOM     40  C   UNL A   1      42.625  25.154  28.547  1.00  0.00     0.031 A 
ATOM     41  C   UNL A   1      44.568  30.668  31.438  1.00  0.00     0.049 A 
ATOM     42  C   UNL A   1      43.928  25.596  29.153  1.00  0.00     0.074 A 
ATOM     43  C   UNL A   1      45.790  30.934  32.031  1.00  0.00     0.029 A 
ATOM     44  N   UNL A   1      44.641  29.379  30.932  1.00  0.00    -0.354 N 
ATOM     45  N   UNL A   1      44.225  26.737  29.729  1.00  0.00    -0.248 NA
ATOM     46  C   UNL A   1      45.037  24.632  29.118  1.00  0.00     0.031 C 
ATOM     47  C   UNL A   1      46.622  29.829  31.829  1.00  0.00     0.029 A 
ATOM     48  C   UNL A   1      45.897  28.847  31.174  1.00  0.00     0.049 A 
ATOM     49  H   UNL A   1      43.909  28.912  30.469  1.00  0.00     0.167 HD
ATOM     50  C   UNL A   1      45.544  26.615  30.154  1.00  0.00     0.074 A 
ATOM     51  C   UNL A   1      45.980  25.285  29.782  1.00  0.00     0.031 C 
ATOM     52  C   UNL A   1      46.321  27.522  30.797  1.00  0.00     0.031 A 
BRANCH  39  53
ATOM     53  C   UNL A   1      43.524  32.931  31.880  1.00  0.00    -0.014 A 
ATOM     54  C   UNL A   1      43.820  34.017  31.034  1.00  0.00     0.010 A 
ATOM     55  C   UNL A   1      43.280  33.176  33.243  1.00  0.00     0.010 A 
ATOM     56  C   UNL A   1      43.909  35.313  31.550  1.00  0.00     0.020 A 
ATOM     57  C   UNL A   1      43.336  34.475  33.757  1.00  0.00     0.020 A 
ATOM     58  C   UNL A   1      43.667  35.533  32.909  1.00  0.00     0.054 A 
BRANCH  58  59
ATOM     59  S   UNL A   1      43.763  37.230  33.544  1.00  0.00     0.124 S 
ATOM     60  O   UNL A   1      43.830  38.009  32.310  1.00  0.00    -0.237 OA
ATOM     61  O   UNL A   1      42.519  37.357  34.300  1.00  0.00    -0.237 OA
ATOM     62  O   UNL A   1      44.982  37.232  34.349  1.00  0.00    -0.744 OA
ENDBRANCH  58  59
ENDBRANCH  39  53
BRANCH  40  63
ATOM     63  C   UNL A   1      42.483  23.797  27.947  1.00  0.00    -0.014 A 
ATOM     64  C   UNL A   1      42.682  23.601  26.568  1.00  0.00     0.010 A 
ATOM     65  C   UNL A   1      42.154  22.692  28.753  1.00  0.00     0.010 A 
ATOM     66  C   UNL A   1      42.533  22.329  26.004  1.00  0.00     0.020 A 
ATOM     67  C   UNL A   1      42.035  21.414  28.198  1.00  0.00     0.020 A 
ATOM     68  C   UNL A   1      42.213  21.243  26.824  1.00  0.00     0.054 A 
BRANCH  68  69
ATOM     69  S   UNL A   1      42.071  19.596  26.076  1.00  0.00     0.124 S 
ATOM     70  O   UNL A   1      43.012  19.686  24.965  1.00  0.00    -0.237 OA
ATOM     71  O   UNL A   1      42.469  18.718  27.174  1.00  0.00    -0.237 OA
ATOM     72  O   UNL A   1      40.662  19.512  25.700  1.00  0.00    -0.744 OA
ENDBRANCH  68  69
ENDBRANCH  40  63
BRANCH  52  73
ATOM     73  C   UNL A   1      47.714  27.095  31.178  1.00  0.00    -0.014 A 
ATOM     74  C   UNL A   1      48.804  27.284  30.310  1.00  0.00     0.010 A 
ATOM     75  C   UNL A   1      47.942  26.538  32.451  1.00  0.00     0.010 A 
ATOM     76  C   UNL A   1      50.089  26.890  30.694  1.00  0.00     0.020 A 
ATOM     77  C   UNL A   1      49.230  26.173  32.851  1.00  0.00     0.020 A 
ATOM     78  C   UNL A   1      50.294  26.336  31.962  1.00  0.00     0.054 A 
BRANCH  78  79
ATOM     79  S   UNL A   1      51.976  25.868  32.448  1.00  0.00     0.124 S 
ATOM     80  O   UNL A   1      51.961  26.130  33.885  1.00  0.00    -0.237 OA
ATOM     81  O   UNL A   1      52.041  24.460  32.066  1.00  0.00    -0.237 OA
ATOM     82  O   UNL A   1      52.826  26.759  31.662  1.00  0.00    -0.744 OA
ENDBRANCH  78  79
ENDBRANCH  52  73
ENDBRANCH  26  27
ENDBRANCH  18  21
ENDBRANCH  16  17
ENDBRANCH   1  16
TORSDOF 15
ENDMDL
MODEL 3
REMARK VINA RESULT:      -9.9      4.539     11.132
REMARK SMILES CCN1C[C@@H](C(=O)NCCCCNC(=O)c2ccc(-c3c4nc(c(-c5ccc(S(=O)(=O)[O-])cc5)c5ccc([nH]5)c(-c5ccc(S(=O)(=O)[O-])cc5)c5nc(c(-c6ccc(S(=O)(=O)[O-])cc6)c6ccc3[nH]6)C=C5)C=C4)cc2)CC1=O
REMARK SMILES IDX 11 1 10 2 9 3 8 4 6 5 7 6 5 8 3 9 4 10 77 11 76 12 78 13
REMARK SMILES IDX 2 14 1 15 12 16 13 17 14 18 15 20 16 21 17 22 75 23 18 24
REMARK SMILES IDX 74 25 19 26 20 27 21 28 68 29 22 30 73 31 67 32 69 33 23 34
REMARK SMILES IDX 72 35 66 36 65 37 24 39 54 40 35 41 53 42 36 43 39 44 52 45
REMARK SMILES IDX 70 46 37 47 38 48 51 50 71 51 40 52 25 53 26 54 34 55 27 56
REMARK SMILES IDX 33 57 28 58 29 59 30 60 31 61 32 62 55 63 56 64 64 65 57 66
REMARK SMILES IDX 63 67 58 68 59 69 60 70 61 71 62 72 41 73 42 74 50 75 43 76
REMARK SMILES IDX 49 77 44 78 45 79 46 80 47 81 48 82
REMARK H PARENT 8 7 13 19 69 38 39 49
REMARK Flexibility Score: inf
ROOT
ATOM      1  C   UNL A   1      41.783  21.686  27.532  1.00  0.00     0.023 C 
ENDROOT
BRANCH   1   2
ATOM      2  C   UNL A   1      42.440  22.708  28.461  1.00  0.00     0.023 C 
BRANCH   2   3
ATOM      3  C   UNL A   1      43.627  23.453  27.858  1.00  0.00     0.116 C 
BRANCH   3   4
ATOM      4  N   UNL A   1      44.588  22.546  27.254  1.00  0.00    -0.356 N 
ATOM      5  C   UNL A   1      45.328  22.647  26.121  1.00  0.00     0.225 C 
ATOM      6  O   UNL A   1      46.084  21.710  25.847  1.00  0.00    -0.275 OA
ATOM      7  H   UNL A   1      44.727  21.710  27.755  1.00  0.00     0.163 HD
BRANCH   5   8
ATOM      8  C   UNL A   1      45.278  23.858  25.214  1.00  0.00     0.107 C 
ATOM      9  N   UNL A   1      45.490  26.176  25.550  1.00  0.00    -0.342 N 
ATOM     10  C   UNL A   1      46.242  24.949  25.647  1.00  0.00     0.133 C 
ATOM     11  C   UNL A   1      44.164  25.979  25.211  1.00  0.00     0.223 C 
ATOM     12  C   UNL A   1      43.902  24.504  25.084  1.00  0.00     0.115 C 
ATOM     13  O   UNL A   1      43.322  26.852  25.056  1.00  0.00    -0.275 OA
BRANCH   9  14
ATOM     14  C   UNL A   1      46.044  27.503  25.770  1.00  0.00     0.116 C 
ATOM     15  C   UNL A   1      45.625  28.185  27.059  1.00  0.00     0.027 C 
ENDBRANCH   9  14
ENDBRANCH   5   8
ENDBRANCH   3   4
ENDBRANCH   2   3
ENDBRANCH   1   2
BRANCH   1  16
ATOM     16  C   UNL A   1      41.459  22.193  26.132  1.00  0.00     0.116 C 
BRANCH  16  17
ATOM     17  N   UNL A   1      40.043  22.108  25.811  1.00  0.00    -0.352 N 
ATOM     18  C   UNL A   1      39.025  22.974  26.135  1.00  0.00     0.251 C 
ATOM     19  H   UNL A   1      39.775  21.318  25.287  1.00  0.00     0.163 HD
ATOM     20  O   UNL A   1      37.862  22.664  25.899  1.00  0.00    -0.269 OA
BRANCH  18  21
ATOM     21  C   UNL A   1      39.336  24.259  26.795  1.00  0.00     0.039 A 
ATOM     22  C   UNL A   1      38.929  24.456  28.117  1.00  0.00     0.014 A 
ATOM     23  C   UNL A   1      40.040  25.261  26.121  1.00  0.00     0.014 A 
ATOM     24  C   UNL A   1      39.289  25.629  28.784  1.00  0.00     0.010 A 
ATOM     25  C   UNL A   1      40.468  26.391  26.813  1.00  0.00     0.010 A 
ATOM     26  C   UNL A   1      40.094  26.590  28.150  1.00  0.00    -0.014 A 
BRANCH  26  27
ATOM     27  C   UNL A   1      40.557  27.804  28.872  1.00  0.00     0.031 A 
ATOM     28  C   UNL A   1      41.931  27.845  29.487  1.00  0.00     0.074 A 
ATOM     29  C   UNL A   1      39.720  28.852  29.021  1.00  0.00     0.049 A 
ATOM     30  N   UNL A   1      42.494  28.799  30.184  1.00  0.00    -0.248 NA
ATOM     31  C   UNL A   1      42.774  26.651  29.316  1.00  0.00     0.031 C 
ATOM     32  C   UNL A   1      38.349  28.922  28.508  1.00  0.00     0.029 A 
ATOM     33  N   UNL A   1      39.898  30.060  29.649  1.00  0.00    -0.354 N 
ATOM     34  C   UNL A   1      43.746  28.315  30.545  1.00  0.00     0.074 A 
ATOM     35  C   UNL A   1      43.839  26.964  30.039  1.00  0.00     0.031 C 
ATOM     36  C   UNL A   1      37.826  30.121  28.811  1.00  0.00     0.029 A 
ATOM     37  C   UNL A   1      38.803  30.888  29.578  1.00  0.00     0.049 A 
ATOM     38  H   UNL A   1      40.733  30.310  30.107  1.00  0.00     0.167 HD
ATOM     39  C   UNL A   1      44.738  28.946  31.219  1.00  0.00     0.031 A 
ATOM     40  C   UNL A   1      38.602  32.124  30.077  1.00  0.00     0.031 A 
ATOM     41  C   UNL A   1      44.644  30.293  31.716  1.00  0.00     0.049 A 
ATOM     42  C   UNL A   1      39.712  32.795  30.838  1.00  0.00     0.074 A 
ATOM     43  C   UNL A   1      45.614  31.038  32.365  1.00  0.00     0.029 A 
ATOM     44  N   UNL A   1      43.517  31.096  31.624  1.00  0.00    -0.354 N 
ATOM     45  N   UNL A   1      40.914  32.345  31.112  1.00  0.00    -0.248 NA
ATOM     46  C   UNL A   1      39.444  34.147  31.347  1.00  0.00     0.031 C 
ATOM     47  C   UNL A   1      45.052  32.269  32.719  1.00  0.00     0.029 A 
ATOM     48  C   UNL A   1      43.758  32.319  32.228  1.00  0.00     0.049 A 
ATOM     49  H   UNL A   1      42.672  30.836  31.193  1.00  0.00     0.167 HD
ATOM     50  C   UNL A   1      41.555  33.372  31.797  1.00  0.00     0.074 A 
ATOM     51  C   UNL A   1      40.613  34.469  31.881  1.00  0.00     0.031 C 
ATOM     52  C   UNL A   1      42.811  33.403  32.307  1.00  0.00     0.031 A 
BRANCH  39  53
ATOM     53  C   UNL A   1      46.014  28.180  31.463  1.00  0.00    -0.014 A 
ATOM     54  C   UNL A   1      47.058  28.185  30.519  1.00  0.00     0.010 A 
ATOM     55  C   UNL A   1      46.190  27.483  32.672  1.00  0.00     0.010 A 
ATOM     56  C   UNL A   1      48.237  27.475  30.764  1.00  0.00     0.020 A 
ATOM     57  C   UNL A   1      47.381  26.797  32.933  1.00  0.00     0.020 A 
ATOM     58  C   UNL A   1      48.390  26.784  31.969  1.00  0.00     0.054 A 
BRANCH  58  59
ATOM     59  S   UNL A   1      49.942  25.894  32.269  1.00  0.00     0.124 S 
ATOM     60  O   UNL A   1      49.459  24.573  32.661  1.00  0.00    -0.237 OA
ATOM     61  O   UNL A   1      50.604  25.960  30.968  1.00  0.00    -0.237 OA
ATOM     62  O   UNL A   1      50.584  26.663  33.332  1.00  0.00    -0.744 OA
ENDBRANCH  58  59
ENDBRANCH  39  53
BRANCH  40  63
ATOM     63  C   UNL A   1      37.300  32.814  29.856  1.00  0.00    -0.014 A 
ATOM     64  C   UNL A   1      36.303  32.793  30.848  1.00  0.00     0.010 A 
ATOM     65  C   UNL A   1      37.053  33.503  28.655  1.00  0.00     0.010 A 
ATOM     66  C   UNL A   1      35.075  33.429  30.634  1.00  0.00     0.020 A 
ATOM     67  C   UNL A   1      35.839  34.166  28.449  1.00  0.00     0.020 A 
ATOM     68  C   UNL A   1      34.853  34.114  29.436  1.00  0.00     0.054 A 
BRANCH  68  69
ATOM     69  S   UNL A   1      33.270  34.970  29.201  1.00  0.00     0.124 S 
ATOM     70  O   UNL A   1      32.707  34.940  30.546  1.00  0.00    -0.237 OA
ATOM     71  O   UNL A   1      33.692  36.282  28.718  1.00  0.00    -0.237 OA
ATOM     72  O   UNL A   1      32.579  34.144  28.213  1.00  0.00    -0.744 OA
ENDBRANCH  68  69
ENDBRANCH  40  63
BRANCH  52  73
ATOM     73  C   UNL A   1      43.260  34.680  32.969  1.00  0.00    -0.014 A 
ATOM     74  C   UNL A   1      43.846  35.724  32.231  1.00  0.00     0.010 A 
ATOM     75  C   UNL A   1      43.045  34.855  34.349  1.00  0.00     0.010 A 
ATOM     76  C   UNL A   1      44.243  36.903  32.868  1.00  0.00     0.020 A 
ATOM     77  C   UNL A   1      43.410  36.046  34.983  1.00  0.00     0.020 A 
ATOM     78  C   UNL A   1      44.022  37.056  34.241  1.00  0.00     0.054 A 
BRANCH  78  79
ATOM     79  S   UNL A   1      44.512  38.611  35.035  1.00  0.00     0.124 S 
ATOM     80  O   UNL A   1      45.947  38.650  34.765  1.00  0.00    -0.237 OA
ATOM     81  O   UNL A   1      43.710  39.602  34.322  1.00  0.00    -0.237 OA
ATOM     82  O   UNL A   1      44.147  38.415  36.436  1.00  0.00    -0.744 OA
ENDBRANCH  78  79
ENDBRANCH  52  73
ENDBRANCH  26  27
ENDBRANCH  18  21
ENDBRANCH  16  17
ENDBRANCH   1  16
TORSDOF 15
ENDMDL
