MODEL 1
REMARK VINA RESULT:     -11.1      0.000      0.000
REMARK SMILES O=C1C=C/C(=C\NCc2ccc(C(=O)NCCCCNC(=O)c3ccc(-c4c5nc(c(-c6ccc(S(=O)(=O)[O-])cc6)c6ccc([nH]6)c(-c6ccc(S(=O)(=O)[O-])cc6)c6nc(c(-c7ccc(S(=O)(=O)[O-])cc7)c7ccc4[nH]7)C=C6)C=C5)cc3)cc2)C=C1[N+](=O)[O-]
REMARK SMILES IDX 17 1 16 2 15 3 13 4 14 5 12 7 9 8 10 9 84 10 11 11 83 12
REMARK SMILES IDX 8 13 7 14 6 16 1 17 2 18 3 19 86 20 4 21 85 22 5 23 87 24
REMARK SMILES IDX 88 25 89 26 18 27 19 28 20 29 21 30 22 32 23 33 24 34 82 35
REMARK SMILES IDX 25 36 81 37 26 38 27 39 28 40 75 41 29 42 80 43 74 44 76 45
REMARK SMILES IDX 30 46 79 47 73 48 72 49 31 51 61 52 42 53 60 54 43 55 46 56
REMARK SMILES IDX 59 57 77 58 44 59 45 60 58 62 78 63 47 64 32 65 33 66 41 67
REMARK SMILES IDX 34 68 40 69 35 70 36 71 37 72 38 73 39 74 62 75 63 76 71 77
REMARK SMILES IDX 64 78 70 79 65 80 66 81 67 82 68 83 69 84 48 85 49 86 57 87
REMARK SMILES IDX 50 88 56 89 51 90 52 91 53 92 54 93 55 94
REMARK H PARENT 15 6 7 15 20 31 76 50 46 61
REMARK Flexibility Score: inf
ROOT
ATOM      1  C   UNL A   1      33.416  28.954  24.618  1.00  0.00     0.023 C 
ENDROOT
BRANCH   1   2
ATOM      2  C   UNL A   1      33.361  28.411  23.189  1.00  0.00     0.116 C 
BRANCH   2   3
ATOM      3  N   UNL A   1      32.031  28.573  22.639  1.00  0.00    -0.352 N 
ATOM      4  C   UNL A   1      30.885  27.835  22.780  1.00  0.00     0.251 C 
ATOM      5  O   UNL A   1      29.877  28.224  22.189  1.00  0.00    -0.269 OA
ATOM      6  H   UNL A   1      31.933  29.359  22.055  1.00  0.00     0.163 HD
BRANCH   4   7
ATOM      7  C   UNL A   1      30.787  26.624  23.645  1.00  0.00     0.039 A 
ATOM      8  C   UNL A   1      30.592  24.457  25.448  1.00  0.00    -0.029 A 
ATOM      9  C   UNL A   1      30.501  25.773  25.912  1.00  0.00     0.006 A 
ATOM     10  C   UNL A   1      30.741  24.235  24.074  1.00  0.00     0.006 A 
ATOM     11  C   UNL A   1      30.606  26.844  25.020  1.00  0.00     0.014 A 
ATOM     12  C   UNL A   1      30.811  25.308  23.182  1.00  0.00     0.014 A 
BRANCH   8  13
ATOM     13  C   UNL A   1      30.418  23.289  26.384  1.00  0.00     0.148 C 
BRANCH  13  14
ATOM     14  N   UNL A   1      31.460  22.323  26.094  1.00  0.00    -0.386 N 
ATOM     15  H   UNL A   1      31.174  21.477  25.681  1.00  0.00     0.160 HD
BRANCH  14  16
ATOM     16  C   UNL A   1      32.805  22.467  26.337  1.00  0.00     0.086 C 
ATOM     17  O   UNL A   1      36.888  23.033  22.790  1.00  0.00    -0.282 OA
ATOM     18  C   UNL A   1      36.008  22.933  23.636  1.00  0.00     0.255 C 
ATOM     19  C   UNL A   1      34.595  22.873  23.166  1.00  0.00     0.060 C 
ATOM     20  C   UNL A   1      36.218  22.866  25.105  1.00  0.00     0.316 C 
ATOM     21  C   UNL A   1      33.579  22.735  24.026  1.00  0.00     0.014 C 
ATOM     22  C   UNL A   1      35.183  22.740  25.958  1.00  0.00     0.099 C 
ATOM     23  C   UNL A   1      33.814  22.639  25.460  1.00  0.00    -0.003 C 
BRANCH  20  24
ATOM     24  N   UNL A   1      37.559  22.914  25.667  1.00  0.00     0.067 N 
ATOM     25  O   UNL A   1      38.222  21.863  25.669  1.00  0.00    -0.258 OA
ATOM     26  O   UNL A   1      37.988  23.988  26.097  1.00  0.00    -0.258 OA
ENDBRANCH  20  24
ENDBRANCH  14  16
ENDBRANCH  13  14
ENDBRANCH   8  13
ENDBRANCH   4   7
ENDBRANCH   2   3
ENDBRANCH   1   2
BRANCH   1  27
ATOM     27  C   UNL A   1      33.941  27.949  25.647  1.00  0.00     0.023 C 
BRANCH  27  28
ATOM     28  C   UNL A   1      33.516  28.227  27.086  1.00  0.00     0.116 C 
BRANCH  28  29
ATOM     29  N   UNL A   1      33.335  29.642  27.361  1.00  0.00    -0.352 N 
ATOM     30  C   UNL A   1      34.217  30.529  27.929  1.00  0.00     0.251 C 
ATOM     31  H   UNL A   1      32.460  30.016  27.107  1.00  0.00     0.163 HD
ATOM     32  O   UNL A   1      33.847  31.662  28.207  1.00  0.00    -0.269 OA
BRANCH  30  33
ATOM     33  C   UNL A   1      35.597  30.093  28.232  1.00  0.00     0.039 A 
ATOM     34  C   UNL A   1      36.549  30.145  27.213  1.00  0.00     0.014 A 
ATOM     35  C   UNL A   1      35.953  29.649  29.509  1.00  0.00     0.014 A 
ATOM     36  C   UNL A   1      37.871  29.794  27.491  1.00  0.00     0.010 A 
ATOM     37  C   UNL A   1      37.287  29.380  29.802  1.00  0.00     0.010 A 
ATOM     38  C   UNL A   1      38.257  29.438  28.794  1.00  0.00    -0.014 A 
BRANCH  38  39
ATOM     39  C   UNL A   1      39.678  29.132  29.101  1.00  0.00     0.031 A 
ATOM     40  C   UNL A   1      40.549  30.149  29.788  1.00  0.00     0.074 A 
ATOM     41  C   UNL A   1      40.187  27.937  28.740  1.00  0.00     0.049 A 
ATOM     42  N   UNL A   1      41.792  30.034  30.181  1.00  0.00    -0.248 NA
ATOM     43  C   UNL A   1      39.960  31.473  30.047  1.00  0.00     0.031 C 
ATOM     44  C   UNL A   1      39.458  26.892  28.015  1.00  0.00     0.029 A 
ATOM     45  N   UNL A   1      41.431  27.395  28.943  1.00  0.00    -0.354 N 
ATOM     46  C   UNL A   1      42.133  31.267  30.728  1.00  0.00     0.074 A 
ATOM     47  C   UNL A   1      40.988  32.133  30.559  1.00  0.00     0.031 C 
ATOM     48  C   UNL A   1      40.252  25.817  27.879  1.00  0.00     0.029 A 
ATOM     49  C   UNL A   1      41.553  26.108  28.472  1.00  0.00     0.049 A 
ATOM     50  H   UNL A   1      42.165  27.879  29.383  1.00  0.00     0.167 HD
ATOM     51  C   UNL A   1      43.284  31.636  31.338  1.00  0.00     0.031 A 
ATOM     52  C   UNL A   1      42.593  25.254  28.519  1.00  0.00     0.031 A 
ATOM     53  C   UNL A   1      44.421  30.767  31.504  1.00  0.00     0.049 A 
ATOM     54  C   UNL A   1      43.860  25.686  29.206  1.00  0.00     0.074 A 
ATOM     55  C   UNL A   1      45.614  31.027  32.155  1.00  0.00     0.029 A 
ATOM     56  N   UNL A   1      44.508  29.474  31.011  1.00  0.00    -0.354 N 
ATOM     57  N   UNL A   1      44.133  26.829  29.790  1.00  0.00    -0.248 NA
ATOM     58  C   UNL A   1      44.951  24.704  29.257  1.00  0.00     0.031 C 
ATOM     59  C   UNL A   1      46.446  29.912  32.004  1.00  0.00     0.029 A 
ATOM     60  C   UNL A   1      45.744  28.931  31.320  1.00  0.00     0.049 A 
ATOM     61  H   UNL A   1      43.795  29.009  30.515  1.00  0.00     0.167 HD
ATOM     62  C   UNL A   1      45.419  26.692  30.302  1.00  0.00     0.074 A 
ATOM     63  C   UNL A   1      45.856  25.350  29.978  1.00  0.00     0.031 C 
ATOM     64  C   UNL A   1      46.171  27.597  30.978  1.00  0.00     0.031 A 
BRANCH  51  65
ATOM     65  C   UNL A   1      43.373  33.045  31.868  1.00  0.00    -0.014 A 
ATOM     66  C   UNL A   1      43.025  33.345  33.199  1.00  0.00     0.010 A 
ATOM     67  C   UNL A   1      43.847  34.077  31.039  1.00  0.00     0.010 A 
ATOM     68  C   UNL A   1      43.111  34.656  33.676  1.00  0.00     0.020 A 
ATOM     69  C   UNL A   1      43.965  35.384  31.522  1.00  0.00     0.020 A 
ATOM     70  C   UNL A   1      43.578  35.668  32.833  1.00  0.00     0.054 A 
BRANCH  70  71
ATOM     71  S   UNL A   1      43.701  37.355  33.489  1.00  0.00     0.124 S 
ATOM     72  O   UNL A   1      42.441  37.488  34.214  1.00  0.00    -0.237 OA
ATOM     73  O   UNL A   1      44.901  37.288  34.320  1.00  0.00    -0.237 OA
ATOM     74  O   UNL A   1      43.821  38.184  32.291  1.00  0.00    -0.744 OA
ENDBRANCH  70  71
ENDBRANCH  51  65
BRANCH  52  75
ATOM     75  C   UNL A   1      42.467  23.894  27.924  1.00  0.00    -0.014 A 
ATOM     76  C   UNL A   1      42.703  23.685  26.554  1.00  0.00     0.010 A 
ATOM     77  C   UNL A   1      42.121  22.796  28.733  1.00  0.00     0.010 A 
ATOM     78  C   UNL A   1      42.573  22.409  25.999  1.00  0.00     0.020 A 
ATOM     79  C   UNL A   1      42.021  21.513  28.188  1.00  0.00     0.020 A 
ATOM     80  C   UNL A   1      42.235  21.330  26.821  1.00  0.00     0.054 A 
BRANCH  80  81
ATOM     81  S   UNL A   1      42.120  19.673  26.088  1.00  0.00     0.124 S 
ATOM     82  O   UNL A   1      40.709  19.601  25.723  1.00  0.00    -0.237 OA
ATOM     83  O   UNL A   1      43.059  19.756  24.974  1.00  0.00    -0.237 OA
ATOM     84  O   UNL A   1      42.531  18.790  27.177  1.00  0.00    -0.744 OA
ENDBRANCH  80  81
ENDBRANCH  52  75
BRANCH  64  85
ATOM     85  C   UNL A   1      47.534  27.150  31.439  1.00  0.00    -0.014 A 
ATOM     86  C   UNL A   1      48.682  27.373  30.659  1.00  0.00     0.010 A 
ATOM     87  C   UNL A   1      47.668  26.509  32.685  1.00  0.00     0.010 A 
ATOM     88  C   UNL A   1      49.930  26.915  31.089  1.00  0.00     0.020 A 
ATOM     89  C   UNL A   1      48.919  26.080  33.136  1.00  0.00     0.020 A 
ATOM     90  C   UNL A   1      50.039  26.266  32.323  1.00  0.00     0.054 A 
BRANCH  90  91
ATOM     91  S   UNL A   1      51.669  25.686  32.863  1.00  0.00     0.124 S 
ATOM     92  O   UNL A   1      52.182  26.849  33.582  1.00  0.00    -0.237 OA
ATOM     93  O   UNL A   1      51.340  24.528  33.693  1.00  0.00    -0.237 OA
ATOM     94  O   UNL A   1      52.358  25.373  31.613  1.00  0.00    -0.744 OA
ENDBRANCH  90  91
ENDBRANCH  64  85
ENDBRANCH  38  39
ENDBRANCH  30  33
ENDBRANCH  28  29
ENDBRANCH  27  28
ENDBRANCH   1  27
TORSDOF 18
ENDMDL
MODEL 2
REMARK VINA RESULT:     -11.0      0.763      8.112
REMARK SMILES O=C1C=C/C(=C\NCc2ccc(C(=O)NCCCCNC(=O)c3ccc(-c4c5nc(c(-c6ccc(S(=O)(=O)[O-])cc6)c6ccc([nH]6)c(-c6ccc(S(=O)(=O)[O-])cc6)c6nc(c(-c7ccc(S(=O)(=O)[O-])cc7)c7ccc4[nH]7)C=C6)C=C5)cc3)cc2)C=C1[N+](=O)[O-]
REMARK SMILES IDX 17 1 16 2 15 3 13 4 14 5 12 7 9 8 10 9 84 10 11 11 83 12
REMARK SMILES IDX 8 13 7 14 6 16 1 17 2 18 3 19 86 20 4 21 85 22 5 23 87 24
REMARK SMILES IDX 88 25 89 26 18 27 19 28 20 29 21 30 22 32 23 33 24 34 82 35
REMARK SMILES IDX 25 36 81 37 26 38 27 39 28 40 75 41 29 42 80 43 74 44 76 45
REMARK SMILES IDX 30 46 79 47 73 48 72 49 31 51 61 52 42 53 60 54 43 55 46 56
REMARK SMILES IDX 59 57 77 58 44 59 45 60 58 62 78 63 47 64 32 65 33 66 41 67
REMARK SMILES IDX 34 68 40 69 35 70 36 71 37 72 38 73 39 74 62 75 63 76 71 77
REMARK SMILES IDX 64 78 70 79 65 80 66 81 67 82 68 83 69 84 48 85 49 86 57 87
REMARK SMILES IDX 50 88 56 89 51 90 52 91 53 92 54 93 55 94
REMARK H PARENT 15 6 7 15 20 31 76 50 46 61
REMARK Flexibility Score: inf
ROOT
ATOM      1  C   UNL A   1      33.569  28.753  24.319  1.00  0.00     0.023 C 
ENDROOT
BRANCH   1   2
ATOM      2  C   UNL A   1      33.400  28.194  22.905  1.00  0.00     0.116 C 
BRANCH   2   3
ATOM      3  N   UNL A   1      32.042  28.396  22.443  1.00  0.00    -0.352 N 
ATOM      4  C   UNL A   1      30.875  27.728  22.709  1.00  0.00     0.251 C 
ATOM      5  O   UNL A   1      29.846  28.137  22.169  1.00  0.00    -0.269 OA
ATOM      6  H   UNL A   1      31.939  29.153  21.822  1.00  0.00     0.163 HD
BRANCH   4   7
ATOM      7  C   UNL A   1      30.784  26.573  23.648  1.00  0.00     0.039 A 
ATOM      8  C   UNL A   1      30.603  24.521  25.582  1.00  0.00    -0.029 A 
ATOM      9  C   UNL A   1      30.524  25.865  25.966  1.00  0.00     0.006 A 
ATOM     10  C   UNL A   1      30.733  24.215  24.223  1.00  0.00     0.006 A 
ATOM     11  C   UNL A   1      30.621  26.878  25.009  1.00  0.00     0.014 A 
ATOM     12  C   UNL A   1      30.796  25.231  23.266  1.00  0.00     0.014 A 
BRANCH   8  13
ATOM     13  C   UNL A   1      30.436  23.414  26.591  1.00  0.00     0.148 C 
BRANCH  13  14
ATOM     14  N   UNL A   1      31.490  22.443  26.369  1.00  0.00    -0.386 N 
ATOM     15  H   UNL A   1      31.212  21.557  26.044  1.00  0.00     0.160 HD
BRANCH  14  16
ATOM     16  C   UNL A   1      32.837  22.633  26.565  1.00  0.00     0.086 C 
ATOM     17  O   UNL A   1      36.813  23.051  22.879  1.00  0.00    -0.282 OA
ATOM     18  C   UNL A   1      35.958  22.988  23.753  1.00  0.00     0.255 C 
ATOM     19  C   UNL A   1      34.535  22.866  23.327  1.00  0.00     0.060 C 
ATOM     20  C   UNL A   1      36.207  23.024  25.218  1.00  0.00     0.316 C 
ATOM     21  C   UNL A   1      33.545  22.763  24.222  1.00  0.00     0.014 C 
ATOM     22  C   UNL A   1      35.198  22.933  26.105  1.00  0.00     0.099 C 
ATOM     23  C   UNL A   1      33.819  22.768  25.651  1.00  0.00    -0.003 C 
BRANCH  20  24
ATOM     24  N   UNL A   1      37.560  23.140  25.738  1.00  0.00     0.067 N 
ATOM     25  O   UNL A   1      38.312  22.158  25.616  1.00  0.00    -0.258 OA
ATOM     26  O   UNL A   1      37.912  24.203  26.258  1.00  0.00    -0.258 OA
ENDBRANCH  20  24
ENDBRANCH  14  16
ENDBRANCH  13  14
ENDBRANCH   8  13
ENDBRANCH   4   7
ENDBRANCH   2   3
ENDBRANCH   1   2
BRANCH   1  27
ATOM     27  C   UNL A   1      34.073  27.726  25.338  1.00  0.00     0.023 C 
BRANCH  27  28
ATOM     28  C   UNL A   1      33.657  28.000  26.780  1.00  0.00     0.116 C 
BRANCH  28  29
ATOM     29  N   UNL A   1      33.384  29.403  27.036  1.00  0.00    -0.352 N 
ATOM     30  C   UNL A   1      34.184  30.340  27.642  1.00  0.00     0.251 C 
ATOM     31  H   UNL A   1      32.504  29.727  26.734  1.00  0.00     0.163 HD
ATOM     32  O   UNL A   1      33.738  31.452  27.892  1.00  0.00    -0.269 OA
BRANCH  30  33
ATOM     33  C   UNL A   1      35.568  29.983  28.019  1.00  0.00     0.039 A 
ATOM     34  C   UNL A   1      36.570  30.091  27.054  1.00  0.00     0.014 A 
ATOM     35  C   UNL A   1      35.880  29.558  29.314  1.00  0.00     0.014 A 
ATOM     36  C   UNL A   1      37.893  29.815  27.402  1.00  0.00     0.010 A 
ATOM     37  C   UNL A   1      37.209  29.363  29.680  1.00  0.00     0.010 A 
ATOM     38  C   UNL A   1      38.228  29.479  28.725  1.00  0.00    -0.014 A 
BRANCH  38  39
ATOM     39  C   UNL A   1      39.645  29.253  29.109  1.00  0.00     0.031 A 
ATOM     40  C   UNL A   1      40.320  27.942  28.809  1.00  0.00     0.074 A 
ATOM     41  C   UNL A   1      40.317  30.231  29.747  1.00  0.00     0.049 A 
ATOM     42  N   UNL A   1      41.563  27.590  29.021  1.00  0.00    -0.248 NA
ATOM     43  C   UNL A   1      39.491  26.880  28.216  1.00  0.00     0.031 C 
ATOM     44  C   UNL A   1      39.754  31.524  30.147  1.00  0.00     0.029 A 
ATOM     45  N   UNL A   1      41.624  30.297  30.162  1.00  0.00    -0.354 N 
ATOM     46  C   UNL A   1      41.662  26.271  28.593  1.00  0.00     0.074 A 
ATOM     47  C   UNL A   1      40.341  25.865  28.168  1.00  0.00     0.031 C 
ATOM     48  C   UNL A   1      40.721  32.272  30.703  1.00  0.00     0.029 A 
ATOM     49  C   UNL A   1      41.960  31.503  30.733  1.00  0.00     0.049 A 
ATOM     50  H   UNL A   1      42.259  29.553  30.060  1.00  0.00     0.167 HD
ATOM     51  C   UNL A   1      42.758  25.477  28.535  1.00  0.00     0.031 A 
ATOM     52  C   UNL A   1      43.136  31.944  31.219  1.00  0.00     0.031 A 
ATOM     53  C   UNL A   1      44.072  25.889  28.960  1.00  0.00     0.049 A 
ATOM     54  C   UNL A   1      44.340  31.046  31.139  1.00  0.00     0.074 A 
ATOM     55  C   UNL A   1      45.258  25.179  28.893  1.00  0.00     0.029 A 
ATOM     56  N   UNL A   1      44.371  27.115  29.535  1.00  0.00    -0.354 N 
ATOM     57  N   UNL A   1      44.431  29.829  30.654  1.00  0.00    -0.248 NA
ATOM     58  C   UNL A   1      45.603  31.589  31.654  1.00  0.00     0.031 C 
ATOM     59  C   UNL A   1      46.263  25.954  29.481  1.00  0.00     0.029 A 
ATOM     60  C   UNL A   1      45.718  27.173  29.852  1.00  0.00     0.049 A 
ATOM     61  H   UNL A   1      43.721  27.837  29.694  1.00  0.00     0.167 HD
ATOM     62  C   UNL A   1      45.769  29.472  30.782  1.00  0.00     0.074 A 
ATOM     63  C   UNL A   1      46.450  30.609  31.366  1.00  0.00     0.031 C 
ATOM     64  C   UNL A   1      46.379  28.308  30.446  1.00  0.00     0.031 A 
BRANCH  51  65
ATOM     65  C   UNL A   1      42.581  24.080  27.997  1.00  0.00    -0.014 A 
ATOM     66  C   UNL A   1      42.301  22.999  28.854  1.00  0.00     0.010 A 
ATOM     67  C   UNL A   1      42.658  23.848  26.611  1.00  0.00     0.010 A 
ATOM     68  C   UNL A   1      42.141  21.709  28.341  1.00  0.00     0.020 A 
ATOM     69  C   UNL A   1      42.466  22.564  26.092  1.00  0.00     0.020 A 
ATOM     70  C   UNL A   1      42.227  21.500  26.962  1.00  0.00     0.054 A 
BRANCH  70  71
ATOM     71  S   UNL A   1      41.991  19.818  26.324  1.00  0.00     0.124 S 
ATOM     72  O   UNL A   1      40.559  19.804  26.036  1.00  0.00    -0.237 OA
ATOM     73  O   UNL A   1      42.867  19.795  25.155  1.00  0.00    -0.237 OA
ATOM     74  O   UNL A   1      42.411  18.965  27.433  1.00  0.00    -0.744 OA
ENDBRANCH  70  71
ENDBRANCH  51  65
BRANCH  52  75
ATOM     75  C   UNL A   1      43.236  33.314  31.795  1.00  0.00    -0.014 A 
ATOM     76  C   UNL A   1      43.064  33.528  33.173  1.00  0.00     0.010 A 
ATOM     77  C   UNL A   1      43.518  34.413  30.964  1.00  0.00     0.010 A 
ATOM     78  C   UNL A   1      43.149  34.817  33.707  1.00  0.00     0.020 A 
ATOM     79  C   UNL A   1      43.635  35.700  31.498  1.00  0.00     0.020 A 
ATOM     80  C   UNL A   1      43.436  35.895  32.865  1.00  0.00     0.054 A 
BRANCH  80  81
ATOM     81  S   UNL A   1      43.591  37.553  33.587  1.00  0.00     0.124 S 
ATOM     82  O   UNL A   1      44.846  37.446  34.324  1.00  0.00    -0.237 OA
ATOM     83  O   UNL A   1      43.622  38.409  32.404  1.00  0.00    -0.237 OA
ATOM     84  O   UNL A   1      42.390  37.681  34.408  1.00  0.00    -0.744 OA
ENDBRANCH  80  81
ENDBRANCH  52  75
BRANCH  64  85
ATOM     85  C   UNL A   1      47.865  28.220  30.677  1.00  0.00    -0.014 A 
ATOM     86  C   UNL A   1      48.393  27.735  31.887  1.00  0.00     0.010 A 
ATOM     87  C   UNL A   1      48.749  28.615  29.656  1.00  0.00     0.010 A 
ATOM     88  C   UNL A   1      49.775  27.700  32.093  1.00  0.00     0.020 A 
ATOM     89  C   UNL A   1      50.132  28.548  29.843  1.00  0.00     0.020 A 
ATOM     90  C   UNL A   1      50.635  28.112  31.070  1.00  0.00     0.054 A 
BRANCH  90  91
ATOM     91  S   UNL A   1      52.424  28.051  31.358  1.00  0.00     0.124 S 
ATOM     92  O   UNL A   1      52.955  28.391  30.040  1.00  0.00    -0.237 OA
ATOM     93  O   UNL A   1      52.618  29.063  32.394  1.00  0.00    -0.237 OA
ATOM     94  O   UNL A   1      52.659  26.675  31.788  1.00  0.00    -0.744 OA
ENDBRANCH  90  91
ENDBRANCH  64  85
ENDBRANCH  38  39
ENDBRANCH  30  33
ENDBRANCH  28  29
ENDBRANCH  27  28
ENDBRANCH   1  27
TORSDOF 18
ENDMDL
MODEL 3
REMARK VINA RESULT:     -10.8      1.686      2.060
REMARK SMILES O=C1C=C/C(=C\NCc2ccc(C(=O)NCCCCNC(=O)c3ccc(-c4c5nc(c(-c6ccc(S(=O)(=O)[O-])cc6)c6ccc([nH]6)c(-c6ccc(S(=O)(=O)[O-])cc6)c6nc(c(-c7ccc(S(=O)(=O)[O-])cc7)c7ccc4[nH]7)C=C6)C=C5)cc3)cc2)C=C1[N+](=O)[O-]
REMARK SMILES IDX 17 1 16 2 15 3 13 4 14 5 12 7 9 8 10 9 84 10 11 11 83 12
REMARK SMILES IDX 8 13 7 14 6 16 1 17 2 18 3 19 86 20 4 21 85 22 5 23 87 24
REMARK SMILES IDX 88 25 89 26 18 27 19 28 20 29 21 30 22 32 23 33 24 34 82 35
REMARK SMILES IDX 25 36 81 37 26 38 27 39 28 40 75 41 29 42 80 43 74 44 76 45
REMARK SMILES IDX 30 46 79 47 73 48 72 49 31 51 61 52 42 53 60 54 43 55 46 56
REMARK SMILES IDX 59 57 77 58 44 59 45 60 58 62 78 63 47 64 32 65 33 66 41 67
REMARK SMILES IDX 34 68 40 69 35 70 36 71 37 72 38 73 39 74 62 75 63 76 71 77
REMARK SMILES IDX 64 78 70 79 65 80 66 81 67 82 68 83 69 84 48 85 49 86 57 87
REMARK SMILES IDX 50 88 56 89 51 90 52 91 53 92 54 93 55 94
REMARK H PARENT 15 6 7 15 20 31 76 50 46 61
REMARK Flexibility Score: inf
ROOT
ATOM      1  C   UNL A   1      33.289  29.300  24.569  1.00  0.00     0.023 C 
ENDROOT
BRANCH   1   2
ATOM      2  C   UNL A   1      33.358  29.109  23.052  1.00  0.00     0.116 C 
BRANCH   2   3
ATOM      3  N   UNL A   1      32.043  29.267  22.465  1.00  0.00    -0.352 N 
ATOM      4  C   UNL A   1      30.958  28.432  22.410  1.00  0.00     0.251 C 
ATOM      5  O   UNL A   1      29.947  28.844  21.840  1.00  0.00    -0.269 OA
ATOM      6  H   UNL A   1      31.904  30.135  22.022  1.00  0.00     0.163 HD
BRANCH   4   7
ATOM      7  C   UNL A   1      30.925  27.083  23.044  1.00  0.00     0.039 A 
ATOM      8  C   UNL A   1      30.770  24.612  24.408  1.00  0.00    -0.029 A 
ATOM      9  C   UNL A   1      30.193  25.762  24.958  1.00  0.00     0.006 A 
ATOM     10  C   UNL A   1      31.389  24.702  23.156  1.00  0.00     0.006 A 
ATOM     11  C   UNL A   1      30.277  26.984  24.286  1.00  0.00     0.014 A 
ATOM     12  C   UNL A   1      31.441  25.919  22.472  1.00  0.00     0.014 A 
BRANCH   8  13
ATOM     13  C   UNL A   1      30.634  23.274  25.086  1.00  0.00     0.148 C 
BRANCH  13  14
ATOM     14  N   UNL A   1      31.870  22.542  24.885  1.00  0.00    -0.386 N 
ATOM     15  H   UNL A   1      32.704  23.061  24.938  1.00  0.00     0.160 HD
BRANCH  14  16
ATOM     16  C   UNL A   1      31.996  21.198  24.626  1.00  0.00     0.086 C 
ATOM     17  O   UNL A   1      36.458  18.091  24.732  1.00  0.00    -0.282 OA
ATOM     18  C   UNL A   1      35.416  18.735  24.715  1.00  0.00     0.255 C 
ATOM     19  C   UNL A   1      35.478  20.170  25.112  1.00  0.00     0.060 C 
ATOM     20  C   UNL A   1      34.078  18.214  24.333  1.00  0.00     0.316 C 
ATOM     21  C   UNL A   1      34.389  20.947  25.092  1.00  0.00     0.014 C 
ATOM     22  C   UNL A   1      32.989  19.007  24.331  1.00  0.00     0.099 C 
ATOM     23  C   UNL A   1      33.096  20.420  24.682  1.00  0.00    -0.003 C 
BRANCH  20  24
ATOM     24  N   UNL A   1      33.909  16.827  23.927  1.00  0.00     0.067 N 
ATOM     25  O   UNL A   1      34.023  16.561  22.719  1.00  0.00    -0.258 OA
ATOM     26  O   UNL A   1      33.679  15.976  24.791  1.00  0.00    -0.258 OA
ENDBRANCH  20  24
ENDBRANCH  14  16
ENDBRANCH  13  14
ENDBRANCH   8  13
ENDBRANCH   4   7
ENDBRANCH   2   3
ENDBRANCH   1   2
BRANCH   1  27
ATOM     27  C   UNL A   1      33.703  28.063  25.371  1.00  0.00     0.023 C 
BRANCH  27  28
ATOM     28  C   UNL A   1      33.733  28.263  26.883  1.00  0.00     0.116 C 
BRANCH  28  29
ATOM     29  N   UNL A   1      33.532  29.647  27.277  1.00  0.00    -0.352 N 
ATOM     30  C   UNL A   1      34.390  30.487  27.943  1.00  0.00     0.251 C 
ATOM     31  H   UNL A   1      32.659  30.035  27.035  1.00  0.00     0.163 HD
ATOM     32  O   UNL A   1      34.002  31.588  28.309  1.00  0.00    -0.269 OA
BRANCH  30  33
ATOM     33  C   UNL A   1      35.767  30.037  28.242  1.00  0.00     0.039 A 
ATOM     34  C   UNL A   1      36.733  30.143  27.241  1.00  0.00     0.014 A 
ATOM     35  C   UNL A   1      36.106  29.526  29.498  1.00  0.00     0.014 A 
ATOM     36  C   UNL A   1      38.052  29.779  27.518  1.00  0.00     0.010 A 
ATOM     37  C   UNL A   1      37.435  29.242  29.796  1.00  0.00     0.010 A 
ATOM     38  C   UNL A   1      38.420  29.354  28.806  1.00  0.00    -0.014 A 
BRANCH  38  39
ATOM     39  C   UNL A   1      39.836  29.034  29.116  1.00  0.00     0.031 A 
ATOM     40  C   UNL A   1      40.716  30.041  29.808  1.00  0.00     0.074 A 
ATOM     41  C   UNL A   1      40.334  27.835  28.753  1.00  0.00     0.049 A 
ATOM     42  N   UNL A   1      41.957  29.912  30.205  1.00  0.00    -0.248 NA
ATOM     43  C   UNL A   1      40.139  31.369  30.069  1.00  0.00     0.031 C 
ATOM     44  C   UNL A   1      39.598  26.799  28.024  1.00  0.00     0.029 A 
ATOM     45  N   UNL A   1      41.572  27.279  28.959  1.00  0.00    -0.354 N 
ATOM     46  C   UNL A   1      42.307  31.140  30.756  1.00  0.00     0.074 A 
ATOM     47  C   UNL A   1      41.172  32.019  30.586  1.00  0.00     0.031 C 
ATOM     48  C   UNL A   1      40.381  25.716  27.888  1.00  0.00     0.029 A 
ATOM     49  C   UNL A   1      41.683  25.993  28.485  1.00  0.00     0.049 A 
ATOM     50  H   UNL A   1      42.310  27.756  29.402  1.00  0.00     0.167 HD
ATOM     51  C   UNL A   1      43.461  31.496  31.370  1.00  0.00     0.031 A 
ATOM     52  C   UNL A   1      42.715  25.128  28.533  1.00  0.00     0.031 A 
ATOM     53  C   UNL A   1      44.588  30.616  31.537  1.00  0.00     0.049 A 
ATOM     54  C   UNL A   1      43.984  25.546  29.225  1.00  0.00     0.074 A 
ATOM     55  C   UNL A   1      45.782  30.862  32.192  1.00  0.00     0.029 A 
ATOM     56  N   UNL A   1      44.664  29.323  31.041  1.00  0.00    -0.354 N 
ATOM     57  N   UNL A   1      44.266  26.685  29.813  1.00  0.00    -0.248 NA
ATOM     58  C   UNL A   1      45.064  24.553  29.276  1.00  0.00     0.031 C 
ATOM     59  C   UNL A   1      46.603  29.740  32.040  1.00  0.00     0.029 A 
ATOM     60  C   UNL A   1      45.894  28.767  31.352  1.00  0.00     0.049 A 
ATOM     61  H   UNL A   1      43.948  28.866  30.541  1.00  0.00     0.167 HD
ATOM     62  C   UNL A   1      45.550  26.534  30.328  1.00  0.00     0.074 A 
ATOM     63  C   UNL A   1      45.974  25.189  30.002  1.00  0.00     0.031 C 
ATOM     64  C   UNL A   1      46.308  27.430  31.009  1.00  0.00     0.031 A 
BRANCH  51  65
ATOM     65  C   UNL A   1      43.562  32.903  31.904  1.00  0.00    -0.014 A 
ATOM     66  C   UNL A   1      44.161  33.928  31.147  1.00  0.00     0.010 A 
ATOM     67  C   UNL A   1      43.017  33.216  33.163  1.00  0.00     0.010 A 
ATOM     68  C   UNL A   1      44.249  35.227  31.655  1.00  0.00     0.020 A 
ATOM     69  C   UNL A   1      43.075  34.521  33.661  1.00  0.00     0.020 A 
ATOM     70  C   UNL A   1      43.707  35.514  32.911  1.00  0.00     0.054 A 
BRANCH  70  71
ATOM     71  S   UNL A   1      43.816  37.215  33.533  1.00  0.00     0.124 S 
ATOM     72  O   UNL A   1      42.656  37.286  34.418  1.00  0.00    -0.237 OA
ATOM     73  O   UNL A   1      45.116  37.228  34.199  1.00  0.00    -0.237 OA
ATOM     74  O   UNL A   1      43.728  38.032  32.325  1.00  0.00    -0.744 OA
ENDBRANCH  70  71
ENDBRANCH  51  65
BRANCH  52  75
ATOM     75  C   UNL A   1      42.577  23.771  27.934  1.00  0.00    -0.014 A 
ATOM     76  C   UNL A   1      42.032  22.710  28.677  1.00  0.00     0.010 A 
ATOM     77  C   UNL A   1      42.982  23.538  26.607  1.00  0.00     0.010 A 
ATOM     78  C   UNL A   1      41.915  21.436  28.114  1.00  0.00     0.020 A 
ATOM     79  C   UNL A   1      42.837  22.274  26.029  1.00  0.00     0.020 A 
ATOM     80  C   UNL A   1      42.317  21.227  26.791  1.00  0.00     0.054 A 
BRANCH  80  81
ATOM     81  S   UNL A   1      42.110  19.578  26.063  1.00  0.00     0.124 S 
ATOM     82  O   UNL A   1      40.674  19.539  25.803  1.00  0.00    -0.237 OA
ATOM     83  O   UNL A   1      42.966  19.645  24.882  1.00  0.00    -0.237 OA
ATOM     84  O   UNL A   1      42.581  18.679  27.114  1.00  0.00    -0.744 OA
ENDBRANCH  80  81
ENDBRANCH  52  75
BRANCH  64  85
ATOM     85  C   UNL A   1      47.665  26.968  31.472  1.00  0.00    -0.014 A 
ATOM     86  C   UNL A   1      48.820  27.188  30.699  1.00  0.00     0.010 A 
ATOM     87  C   UNL A   1      47.789  26.316  32.713  1.00  0.00     0.010 A 
ATOM     88  C   UNL A   1      50.061  26.716  31.132  1.00  0.00     0.020 A 
ATOM     89  C   UNL A   1      49.034  25.874  33.167  1.00  0.00     0.020 A 
ATOM     90  C   UNL A   1      50.159  26.057  32.361  1.00  0.00     0.054 A 
BRANCH  90  91
ATOM     91  S   UNL A   1      51.782  25.459  32.904  1.00  0.00     0.124 S 
ATOM     92  O   UNL A   1      52.285  26.599  33.666  1.00  0.00    -0.237 OA
ATOM     93  O   UNL A   1      51.442  24.277  33.693  1.00  0.00    -0.237 OA
ATOM     94  O   UNL A   1      52.487  25.185  31.654  1.00  0.00    -0.744 OA
ENDBRANCH  90  91
ENDBRANCH  64  85
ENDBRANCH  38  39
ENDBRANCH  30  33
ENDBRANCH  28  29
ENDBRANCH  27  28
ENDBRANCH   1  27
TORSDOF 18
ENDMDL
