MODEL 1
REMARK VINA RESULT:     -12.6      0.000      0.000
REMARK SMILES CCCCn1c(C[N@H+]2C[C@H]3C(=O)NC[C@@]3(C(=O)NCCCCNC(=O)c3ccc(-c4c5nc(c(-c6ccc(S(=O)(=O)[O-])cc6)c6ccc([nH]6)c(-c6ccc(S(=O)(=O)[O-])cc6)c6nc(c(-c7ccc(S(=O)(=O)[O-])cc7)c7ccc4[nH]7)C=C6)C=C5)cc3)C2)nc2ccccc21
REMARK SMILES IDX 19 1 18 2 16 3 17 4 15 6 8 7 9 8 86 9 10 11 11 12 14 13
REMARK SMILES IDX 12 14 13 15 7 17 6 18 5 19 93 20 87 21 88 22 92 23 89 24
REMARK SMILES IDX 91 25 90 26 4 27 3 28 2 29 1 30 20 31 21 32 22 33 23 34
REMARK SMILES IDX 24 35 25 37 26 38 27 39 85 40 28 41 84 42 29 43 30 44 31 45
REMARK SMILES IDX 78 46 32 47 83 48 77 49 79 50 33 51 82 52 76 53 75 54 34 56
REMARK SMILES IDX 64 57 45 58 63 59 46 60 49 61 62 62 80 63 47 64 48 65 61 67
REMARK SMILES IDX 81 68 50 69 35 70 36 71 44 72 37 73 43 74 38 75 39 76 40 77
REMARK SMILES IDX 41 78 42 79 65 80 66 81 74 82 67 83 73 84 68 85 69 86 70 87
REMARK SMILES IDX 71 88 72 89 51 90 52 91 60 92 53 93 59 94 54 95 55 96 56 97
REMARK SMILES IDX 57 98 58 99
REMARK H PARENT 18 5 8 10 13 16 23 36 79 55 49 66
REMARK Flexibility Score: inf
ROOT
ATOM      1  C   UNL A   1      34.372  28.696  26.105  1.00  0.00     0.116 C 
ENDROOT
BRANCH   1   2
ATOM      2  N   UNL A   1      33.305  29.341  25.331  1.00  0.00    -0.355 N 
ATOM      3  C   UNL A   1      32.287  28.750  24.586  1.00  0.00     0.234 C 
ATOM      4  O   UNL A   1      31.671  29.435  23.771  1.00  0.00    -0.274 OA
ATOM      5  H   UNL A   1      33.309  30.325  25.340  1.00  0.00     0.163 HD
BRANCH   3   6
ATOM      6  C   UNL A   1      31.934  27.253  24.909  1.00  0.00     0.132 C 
ATOM      7  N   UNL A   1      32.068  25.549  23.223  1.00  0.00    -0.327 N 
ATOM      8  C   UNL A   1      30.813  25.300  23.932  1.00  0.00     0.277 C 
ATOM      9  C   UNL A   1      32.291  26.981  23.435  1.00  0.00     0.282 C 
ATOM     10  H   UNL A   1      31.931  25.228  22.265  1.00  0.00     0.348 HD
ATOM     11  C   UNL A   1      30.573  26.516  24.814  1.00  0.00     0.156 C 
ATOM     12  C   UNL A   1      30.246  26.023  26.202  1.00  0.00     0.230 C 
ATOM     13  C   UNL A   1      31.754  27.761  26.361  1.00  0.00     0.139 C 
ATOM     14  O   UNL A   1      29.421  25.200  26.524  1.00  0.00    -0.275 OA
ATOM     15  N   UNL A   1      31.033  26.743  27.063  1.00  0.00    -0.354 N 
ATOM     16  H   UNL A   1      31.093  26.581  28.032  1.00  0.00     0.163 HD
BRANCH   7  17
ATOM     17  C   UNL A   1      33.291  24.771  23.529  1.00  0.00     0.339 C 
BRANCH  17  18
ATOM     18  C   UNL A   1      33.053  23.457  24.162  1.00  0.00     0.165 A 
ATOM     19  N   UNL A   1      33.898  22.847  25.062  1.00  0.00    -0.323 N 
ATOM     20  C   UNL A   1      33.755  21.486  24.844  1.00  0.00     0.068 A 
ATOM     21  N   UNL A   1      32.148  22.616  23.703  1.00  0.00    -0.227 NA
ATOM     22  C   UNL A   1      32.644  21.388  24.006  1.00  0.00     0.089 A 
ATOM     23  C   UNL A   1      34.498  20.361  25.215  1.00  0.00     0.028 A 
ATOM     24  C   UNL A   1      32.233  20.148  23.506  1.00  0.00     0.030 A 
ATOM     25  C   UNL A   1      34.112  19.134  24.653  1.00  0.00     0.002 A 
ATOM     26  C   UNL A   1      33.001  19.025  23.812  1.00  0.00     0.002 A 
BRANCH  19  27
ATOM     27  C   UNL A   1      34.763  23.484  26.041  1.00  0.00     0.124 C 
BRANCH  27  28
ATOM     28  C   UNL A   1      36.179  23.935  25.635  1.00  0.00     0.022 C 
BRANCH  28  29
ATOM     29  C   UNL A   1      37.055  23.032  24.746  1.00  0.00    -0.002 C 
ATOM     30  C   UNL A   1      36.731  22.970  23.261  1.00  0.00     0.004 C 
ENDBRANCH  28  29
ENDBRANCH  27  28
ENDBRANCH  19  27
ENDBRANCH  17  18
ENDBRANCH   7  17
ENDBRANCH   3   6
ENDBRANCH   1   2
BRANCH   1  31
ATOM     31  C   UNL A   1      34.850  29.617  27.244  1.00  0.00     0.023 C 
BRANCH  31  32
ATOM     32  C   UNL A   1      33.877  30.750  27.583  1.00  0.00     0.023 C 
BRANCH  32  33
ATOM     33  C   UNL A   1      34.573  32.017  28.076  1.00  0.00     0.116 C 
BRANCH  33  34
ATOM     34  N   UNL A   1      34.415  32.216  29.501  1.00  0.00    -0.352 N 
ATOM     35  C   UNL A   1      35.175  31.941  30.601  1.00  0.00     0.251 C 
ATOM     36  H   UNL A   1      33.561  32.651  29.730  1.00  0.00     0.163 HD
ATOM     37  O   UNL A   1      34.707  32.310  31.682  1.00  0.00    -0.269 OA
BRANCH  35  38
ATOM     38  C   UNL A   1      36.465  31.202  30.590  1.00  0.00     0.039 A 
ATOM     39  C   UNL A   1      37.732  31.774  30.466  1.00  0.00     0.014 A 
ATOM     40  C   UNL A   1      36.364  29.799  30.656  1.00  0.00     0.014 A 
ATOM     41  C   UNL A   1      38.853  30.971  30.313  1.00  0.00     0.010 A 
ATOM     42  C   UNL A   1      37.483  28.990  30.523  1.00  0.00     0.010 A 
ATOM     43  C   UNL A   1      38.718  29.582  30.299  1.00  0.00    -0.014 A 
BRANCH  43  44
ATOM     44  C   UNL A   1      39.935  28.792  30.163  1.00  0.00     0.031 A 
ATOM     45  C   UNL A   1      40.659  28.595  31.446  1.00  0.00     0.074 A 
ATOM     46  C   UNL A   1      40.324  28.220  29.007  1.00  0.00     0.049 A 
ATOM     47  N   UNL A   1      41.820  29.051  31.780  1.00  0.00    -0.248 NA
ATOM     48  C   UNL A   1      39.931  27.944  32.551  1.00  0.00     0.031 C 
ATOM     49  C   UNL A   1      39.541  28.098  27.773  1.00  0.00     0.029 A 
ATOM     50  N   UNL A   1      41.459  27.521  28.718  1.00  0.00    -0.354 N 
ATOM     51  C   UNL A   1      42.069  28.545  33.054  1.00  0.00     0.074 A 
ATOM     52  C   UNL A   1      40.814  28.041  33.545  1.00  0.00     0.031 C 
ATOM     53  C   UNL A   1      40.102  27.159  26.978  1.00  0.00     0.029 A 
ATOM     54  C   UNL A   1      41.369  26.755  27.562  1.00  0.00     0.049 A 
ATOM     55  H   UNL A   1      42.269  27.556  29.278  1.00  0.00     0.167 HD
ATOM     56  C   UNL A   1      43.341  28.326  33.488  1.00  0.00     0.031 A 
ATOM     57  C   UNL A   1      42.254  25.821  27.135  1.00  0.00     0.031 A 
ATOM     58  C   UNL A   1      44.303  28.991  32.655  1.00  0.00     0.049 A 
ATOM     59  C   UNL A   1      43.559  26.123  27.766  1.00  0.00     0.074 A 
ATOM     60  C   UNL A   1      44.810  30.263  32.528  1.00  0.00     0.029 A 
ATOM     61  N   UNL A   1      44.605  28.306  31.509  1.00  0.00    -0.354 N 
ATOM     62  N   UNL A   1      44.234  27.217  27.533  1.00  0.00    -0.248 NA
ATOM     63  C   UNL A   1      43.981  25.356  28.933  1.00  0.00     0.031 C 
ATOM     64  C   UNL A   1      45.285  30.366  31.189  1.00  0.00     0.029 A 
ATOM     65  C   UNL A   1      45.106  29.141  30.547  1.00  0.00     0.049 A 
ATOM     66  H   UNL A   1      44.478  27.336  31.391  1.00  0.00     0.167 HD
ATOM     67  C   UNL A   1      44.871  27.481  28.729  1.00  0.00     0.074 A 
ATOM     68  C   UNL A   1      44.818  26.236  29.486  1.00  0.00     0.031 C 
ATOM     69  C   UNL A   1      45.104  28.755  29.148  1.00  0.00     0.031 A 
BRANCH  56  70
ATOM     70  C   UNL A   1      43.742  27.159  34.362  1.00  0.00    -0.014 A 
ATOM     71  C   UNL A   1      43.835  25.835  33.883  1.00  0.00     0.010 A 
ATOM     72  C   UNL A   1      44.302  27.411  35.632  1.00  0.00     0.010 A 
ATOM     73  C   UNL A   1      44.414  24.811  34.634  1.00  0.00     0.020 A 
ATOM     74  C   UNL A   1      44.919  26.396  36.381  1.00  0.00     0.020 A 
ATOM     75  C   UNL A   1      44.957  25.097  35.879  1.00  0.00     0.054 A 
BRANCH  75  76
ATOM     76  S   UNL A   1      45.748  23.749  36.789  1.00  0.00     0.124 S 
ATOM     77  O   UNL A   1      45.497  24.138  38.175  1.00  0.00    -0.237 OA
ATOM     78  O   UNL A   1      45.011  22.579  36.320  1.00  0.00    -0.237 OA
ATOM     79  O   UNL A   1      47.144  23.818  36.365  1.00  0.00    -0.744 OA
ENDBRANCH  75  76
ENDBRANCH  56  70
BRANCH  57  80
ATOM     80  C   UNL A   1      41.945  24.475  26.582  1.00  0.00    -0.014 A 
ATOM     81  C   UNL A   1      40.937  23.691  27.179  1.00  0.00     0.010 A 
ATOM     82  C   UNL A   1      42.847  23.836  25.711  1.00  0.00     0.010 A 
ATOM     83  C   UNL A   1      40.890  22.305  26.993  1.00  0.00     0.020 A 
ATOM     84  C   UNL A   1      42.806  22.443  25.518  1.00  0.00     0.020 A 
ATOM     85  C   UNL A   1      41.851  21.684  26.196  1.00  0.00     0.054 A 
BRANCH  85  86
ATOM     86  S   UNL A   1      41.886  19.867  26.149  1.00  0.00     0.124 S 
ATOM     87  O   UNL A   1      42.160  19.532  27.543  1.00  0.00    -0.237 OA
ATOM     88  O   UNL A   1      40.542  19.538  25.678  1.00  0.00    -0.237 OA
ATOM     89  O   UNL A   1      42.962  19.565  25.210  1.00  0.00    -0.744 OA
ENDBRANCH  85  86
ENDBRANCH  57  80
BRANCH  69  90
ATOM     90  C   UNL A   1      45.205  29.863  28.138  1.00  0.00    -0.014 A 
ATOM     91  C   UNL A   1      46.497  30.373  27.915  1.00  0.00     0.010 A 
ATOM     92  C   UNL A   1      44.104  30.528  27.568  1.00  0.00     0.010 A 
ATOM     93  C   UNL A   1      46.689  31.561  27.214  1.00  0.00     0.020 A 
ATOM     94  C   UNL A   1      44.295  31.713  26.836  1.00  0.00     0.020 A 
ATOM     95  C   UNL A   1      45.584  32.238  26.699  1.00  0.00     0.054 A 
BRANCH  95  96
ATOM     96  S   UNL A   1      45.878  33.838  25.898  1.00  0.00     0.124 S 
ATOM     97  O   UNL A   1      45.383  34.780  26.900  1.00  0.00    -0.237 OA
ATOM     98  O   UNL A   1      47.328  33.842  25.705  1.00  0.00    -0.237 OA
ATOM     99  O   UNL A   1      45.092  33.769  24.669  1.00  0.00    -0.744 OA
ENDBRANCH  95  96
ENDBRANCH  69  90
ENDBRANCH  43  44
ENDBRANCH  35  38
ENDBRANCH  33  34
ENDBRANCH  32  33
ENDBRANCH  31  32
ENDBRANCH   1  31
TORSDOF 19
ENDMDL
MODEL 2
REMARK VINA RESULT:     -12.4      1.612      2.288
REMARK SMILES CCCCn1c(C[N@H+]2C[C@H]3C(=O)NC[C@@]3(C(=O)NCCCCNC(=O)c3ccc(-c4c5nc(c(-c6ccc(S(=O)(=O)[O-])cc6)c6ccc([nH]6)c(-c6ccc(S(=O)(=O)[O-])cc6)c6nc(c(-c7ccc(S(=O)(=O)[O-])cc7)c7ccc4[nH]7)C=C6)C=C5)cc3)C2)nc2ccccc21
REMARK SMILES IDX 19 1 18 2 16 3 17 4 15 6 8 7 9 8 86 9 10 11 11 12 14 13
REMARK SMILES IDX 12 14 13 15 7 17 6 18 5 19 93 20 87 21 88 22 92 23 89 24
REMARK SMILES IDX 91 25 90 26 4 27 3 28 2 29 1 30 20 31 21 32 22 33 23 34
REMARK SMILES IDX 24 35 25 37 26 38 27 39 85 40 28 41 84 42 29 43 30 44 31 45
REMARK SMILES IDX 78 46 32 47 83 48 77 49 79 50 33 51 82 52 76 53 75 54 34 56
REMARK SMILES IDX 64 57 45 58 63 59 46 60 49 61 62 62 80 63 47 64 48 65 61 67
REMARK SMILES IDX 81 68 50 69 35 70 36 71 44 72 37 73 43 74 38 75 39 76 40 77
REMARK SMILES IDX 41 78 42 79 65 80 66 81 74 82 67 83 73 84 68 85 69 86 70 87
REMARK SMILES IDX 71 88 72 89 51 90 52 91 60 92 53 93 59 94 54 95 55 96 56 97
REMARK SMILES IDX 57 98 58 99
REMARK H PARENT 18 5 8 10 13 16 23 36 79 55 49 66
REMARK Flexibility Score: inf
ROOT
ATOM      1  C   UNL A   1      32.206  29.616  24.790  1.00  0.00     0.116 C 
ENDROOT
BRANCH   1   2
ATOM      2  N   UNL A   1      31.098  29.582  23.830  1.00  0.00    -0.355 N 
ATOM      3  C   UNL A   1      30.747  28.573  22.935  1.00  0.00     0.234 C 
ATOM      4  O   UNL A   1      29.980  28.838  22.011  1.00  0.00    -0.274 OA
ATOM      5  H   UNL A   1      30.524  30.382  23.814  1.00  0.00     0.163 HD
BRANCH   3   6
ATOM      6  C   UNL A   1      31.291  27.129  23.231  1.00  0.00     0.132 C 
ATOM      7  N   UNL A   1      33.463  26.438  22.477  1.00  0.00    -0.327 N 
ATOM      8  C   UNL A   1      32.572  25.318  22.179  1.00  0.00     0.277 C 
ATOM      9  C   UNL A   1      32.559  27.589  22.485  1.00  0.00     0.282 C 
ATOM     10  H   UNL A   1      34.201  26.420  21.772  1.00  0.00     0.348 HD
ATOM     11  C   UNL A   1      31.155  25.831  22.392  1.00  0.00     0.156 C 
ATOM     12  C   UNL A   1      30.425  24.830  23.252  1.00  0.00     0.230 C 
ATOM     13  C   UNL A   1      29.977  26.954  24.031  1.00  0.00     0.139 C 
ATOM     14  O   UNL A   1      30.333  23.636  23.089  1.00  0.00    -0.275 OA
ATOM     15  N   UNL A   1      29.814  25.549  24.247  1.00  0.00    -0.354 N 
ATOM     16  H   UNL A   1      29.330  25.151  25.007  1.00  0.00     0.163 HD
BRANCH   7  17
ATOM     17  C   UNL A   1      34.328  26.434  23.680  1.00  0.00     0.339 C 
BRANCH  17  18
ATOM     18  C   UNL A   1      34.073  25.329  24.628  1.00  0.00     0.165 A 
ATOM     19  N   UNL A   1      34.331  23.998  24.381  1.00  0.00    -0.323 N 
ATOM     20  C   UNL A   1      33.362  23.295  25.078  1.00  0.00     0.068 A 
ATOM     21  N   UNL A   1      33.307  25.483  25.688  1.00  0.00    -0.227 NA
ATOM     22  C   UNL A   1      32.761  24.256  25.892  1.00  0.00     0.089 A 
ATOM     23  C   UNL A   1      32.904  21.975  25.037  1.00  0.00     0.028 A 
ATOM     24  C   UNL A   1      31.668  23.925  26.701  1.00  0.00     0.030 A 
ATOM     25  C   UNL A   1      31.767  21.675  25.805  1.00  0.00     0.002 A 
ATOM     26  C   UNL A   1      31.157  22.630  26.623  1.00  0.00     0.002 A 
BRANCH  19  27
ATOM     27  C   UNL A   1      35.394  23.436  23.564  1.00  0.00     0.124 C 
BRANCH  27  28
ATOM     28  C   UNL A   1      36.721  23.010  24.221  1.00  0.00     0.022 C 
BRANCH  28  29
ATOM     29  C   UNL A   1      36.927  23.189  25.737  1.00  0.00    -0.002 C 
ATOM     30  C   UNL A   1      38.147  23.972  26.199  1.00  0.00     0.004 C 
ENDBRANCH  28  29
ENDBRANCH  27  28
ENDBRANCH  19  27
ENDBRANCH  17  18
ENDBRANCH   7  17
ENDBRANCH   3   6
ENDBRANCH   1   2
BRANCH   1  31
ATOM     31  C   UNL A   1      31.687  29.424  26.227  1.00  0.00     0.023 C 
BRANCH  31  32
ATOM     32  C   UNL A   1      32.773  29.051  27.241  1.00  0.00     0.023 C 
BRANCH  32  33
ATOM     33  C   UNL A   1      34.033  29.905  27.119  1.00  0.00     0.116 C 
BRANCH  33  34
ATOM     34  N   UNL A   1      34.034  31.023  28.039  1.00  0.00    -0.352 N 
ATOM     35  C   UNL A   1      34.961  31.583  28.871  1.00  0.00     0.251 C 
ATOM     36  H   UNL A   1      33.166  31.487  28.073  1.00  0.00     0.163 HD
ATOM     37  O   UNL A   1      34.590  32.586  29.488  1.00  0.00    -0.269 OA
BRANCH  35  38
ATOM     38  C   UNL A   1      36.328  31.052  29.116  1.00  0.00     0.039 A 
ATOM     39  C   UNL A   1      37.463  31.815  29.389  1.00  0.00     0.014 A 
ATOM     40  C   UNL A   1      36.467  29.655  29.000  1.00  0.00     0.014 A 
ATOM     41  C   UNL A   1      38.713  31.217  29.446  1.00  0.00     0.010 A 
ATOM     42  C   UNL A   1      37.712  29.048  29.075  1.00  0.00     0.010 A 
ATOM     43  C   UNL A   1      38.838  29.841  29.247  1.00  0.00    -0.014 A 
BRANCH  43  44
ATOM     44  C   UNL A   1      40.174  29.268  29.347  1.00  0.00     0.031 A 
ATOM     45  C   UNL A   1      40.596  28.991  30.745  1.00  0.00     0.074 A 
ATOM     46  C   UNL A   1      40.923  28.937  28.277  1.00  0.00     0.049 A 
ATOM     47  N   UNL A   1      41.542  29.557  31.416  1.00  0.00    -0.248 NA
ATOM     48  C   UNL A   1      39.755  28.083  31.547  1.00  0.00     0.031 C 
ATOM     49  C   UNL A   1      40.490  28.887  26.876  1.00  0.00     0.029 A 
ATOM     50  N   UNL A   1      42.201  28.463  28.219  1.00  0.00    -0.354 N 
ATOM     51  C   UNL A   1      41.568  28.910  32.648  1.00  0.00     0.074 A 
ATOM     52  C   UNL A   1      40.343  28.159  32.741  1.00  0.00     0.031 C 
ATOM     53  C   UNL A   1      41.384  28.169  26.158  1.00  0.00     0.029 A 
ATOM     54  C   UNL A   1      42.527  27.873  27.004  1.00  0.00     0.049 A 
ATOM     55  H   UNL A   1      42.834  28.533  28.970  1.00  0.00     0.167 HD
ATOM     56  C   UNL A   1      42.718  28.818  33.372  1.00  0.00     0.031 A 
ATOM     57  C   UNL A   1      43.641  27.153  26.724  1.00  0.00     0.031 A 
ATOM     58  C   UNL A   1      43.715  29.733  32.893  1.00  0.00     0.049 A 
ATOM     59  C   UNL A   1      44.682  27.546  27.700  1.00  0.00     0.074 A 
ATOM     60  C   UNL A   1      44.001  31.070  33.038  1.00  0.00     0.029 A 
ATOM     61  N   UNL A   1      44.399  29.278  31.797  1.00  0.00    -0.354 N 
ATOM     62  N   UNL A   1      45.185  28.749  27.768  1.00  0.00    -0.248 NA
ATOM     63  C   UNL A   1      44.945  26.685  28.847  1.00  0.00     0.031 C 
ATOM     64  C   UNL A   1      44.754  31.440  31.887  1.00  0.00     0.029 A 
ATOM     65  C   UNL A   1      44.956  30.311  31.093  1.00  0.00     0.049 A 
ATOM     66  H   UNL A   1      44.480  28.328  31.547  1.00  0.00     0.167 HD
ATOM     67  C   UNL A   1      45.463  28.923  29.109  1.00  0.00     0.074 A 
ATOM     68  C   UNL A   1      45.454  27.586  29.689  1.00  0.00     0.031 C 
ATOM     69  C   UNL A   1      45.356  30.141  29.709  1.00  0.00     0.031 A 
BRANCH  56  70
ATOM     70  C   UNL A   1      43.103  27.605  34.189  1.00  0.00    -0.014 A 
ATOM     71  C   UNL A   1      43.558  26.401  33.613  1.00  0.00     0.010 A 
ATOM     72  C   UNL A   1      43.273  27.742  35.583  1.00  0.00     0.010 A 
ATOM     73  C   UNL A   1      44.115  25.374  34.376  1.00  0.00     0.020 A 
ATOM     74  C   UNL A   1      43.866  26.730  36.356  1.00  0.00     0.020 A 
ATOM     75  C   UNL A   1      44.270  25.545  35.746  1.00  0.00     0.054 A 
BRANCH  75  76
ATOM     76  S   UNL A   1      45.050  24.210  36.684  1.00  0.00     0.124 S 
ATOM     77  O   UNL A   1      46.468  24.470  36.447  1.00  0.00    -0.237 OA
ATOM     78  O   UNL A   1      44.581  24.465  38.043  1.00  0.00    -0.237 OA
ATOM     79  O   UNL A   1      44.525  22.998  36.060  1.00  0.00    -0.744 OA
ENDBRANCH  75  76
ENDBRANCH  56  70
BRANCH  57  80
ATOM     80  C   UNL A   1      43.719  25.874  25.969  1.00  0.00    -0.014 A 
ATOM     81  C   UNL A   1      42.778  24.855  26.225  1.00  0.00     0.010 A 
ATOM     82  C   UNL A   1      44.889  25.528  25.266  1.00  0.00     0.010 A 
ATOM     83  C   UNL A   1      43.038  23.524  25.881  1.00  0.00     0.020 A 
ATOM     84  C   UNL A   1      45.157  24.193  24.917  1.00  0.00     0.020 A 
ATOM     85  C   UNL A   1      44.245  23.194  25.266  1.00  0.00     0.054 A 
BRANCH  85  86
ATOM     86  S   UNL A   1      44.638  21.436  25.027  1.00  0.00     0.124 S 
ATOM     87  O   UNL A   1      43.590  20.783  25.806  1.00  0.00    -0.237 OA
ATOM     88  O   UNL A   1      44.530  21.283  23.578  1.00  0.00    -0.237 OA
ATOM     89  O   UNL A   1      45.990  21.306  25.565  1.00  0.00    -0.744 OA
ENDBRANCH  85  86
ENDBRANCH  57  80
BRANCH  69  90
ATOM     90  C   UNL A   1      45.494  31.390  28.883  1.00  0.00    -0.014 A 
ATOM     91  C   UNL A   1      44.321  31.835  28.245  1.00  0.00     0.010 A 
ATOM     92  C   UNL A   1      46.716  32.007  28.565  1.00  0.00     0.010 A 
ATOM     93  C   UNL A   1      44.370  32.810  27.252  1.00  0.00     0.020 A 
ATOM     94  C   UNL A   1      46.768  33.012  27.584  1.00  0.00     0.020 A 
ATOM     95  C   UNL A   1      45.598  33.376  26.910  1.00  0.00     0.054 A 
BRANCH  95  96
ATOM     96  S   UNL A   1      45.623  34.556  25.532  1.00  0.00     0.124 S 
ATOM     97  O   UNL A   1      47.036  34.562  25.158  1.00  0.00    -0.237 OA
ATOM     98  O   UNL A   1      44.726  33.936  24.558  1.00  0.00    -0.237 OA
ATOM     99  O   UNL A   1      45.132  35.799  26.120  1.00  0.00    -0.744 OA
ENDBRANCH  95  96
ENDBRANCH  69  90
ENDBRANCH  43  44
ENDBRANCH  35  38
ENDBRANCH  33  34
ENDBRANCH  32  33
ENDBRANCH  31  32
ENDBRANCH   1  31
TORSDOF 19
ENDMDL
MODEL 3
REMARK VINA RESULT:     -12.3      1.498      2.486
REMARK SMILES CCCCn1c(C[N@H+]2C[C@H]3C(=O)NC[C@@]3(C(=O)NCCCCNC(=O)c3ccc(-c4c5nc(c(-c6ccc(S(=O)(=O)[O-])cc6)c6ccc([nH]6)c(-c6ccc(S(=O)(=O)[O-])cc6)c6nc(c(-c7ccc(S(=O)(=O)[O-])cc7)c7ccc4[nH]7)C=C6)C=C5)cc3)C2)nc2ccccc21
REMARK SMILES IDX 19 1 18 2 16 3 17 4 15 6 8 7 9 8 86 9 10 11 11 12 14 13
REMARK SMILES IDX 12 14 13 15 7 17 6 18 5 19 93 20 87 21 88 22 92 23 89 24
REMARK SMILES IDX 91 25 90 26 4 27 3 28 2 29 1 30 20 31 21 32 22 33 23 34
REMARK SMILES IDX 24 35 25 37 26 38 27 39 85 40 28 41 84 42 29 43 30 44 31 45
REMARK SMILES IDX 78 46 32 47 83 48 77 49 79 50 33 51 82 52 76 53 75 54 34 56
REMARK SMILES IDX 64 57 45 58 63 59 46 60 49 61 62 62 80 63 47 64 48 65 61 67
REMARK SMILES IDX 81 68 50 69 35 70 36 71 44 72 37 73 43 74 38 75 39 76 40 77
REMARK SMILES IDX 41 78 42 79 65 80 66 81 74 82 67 83 73 84 68 85 69 86 70 87
REMARK SMILES IDX 71 88 72 89 51 90 52 91 60 92 53 93 59 94 54 95 55 96 56 97
REMARK SMILES IDX 57 98 58 99
REMARK H PARENT 18 5 8 10 13 16 23 36 79 55 49 66
REMARK Flexibility Score: inf
ROOT
ATOM      1  C   UNL A   1      32.795  27.540  25.737  1.00  0.00     0.116 C 
ENDROOT
BRANCH   1   2
ATOM      2  N   UNL A   1      31.720  26.658  26.204  1.00  0.00    -0.355 N 
ATOM      3  C   UNL A   1      31.073  25.631  25.521  1.00  0.00     0.234 C 
ATOM      4  O   UNL A   1      30.007  25.203  25.960  1.00  0.00    -0.274 OA
ATOM      5  H   UNL A   1      31.413  26.814  27.127  1.00  0.00     0.163 HD
BRANCH   3   6
ATOM      6  C   UNL A   1      31.809  25.023  24.272  1.00  0.00     0.132 C 
ATOM      7  N   UNL A   1      33.391  23.233  24.508  1.00  0.00    -0.327 N 
ATOM      8  C   UNL A   1      34.003  24.175  23.572  1.00  0.00     0.277 C 
ATOM      9  C   UNL A   1      32.484  24.079  25.286  1.00  0.00     0.282 C 
ATOM     10  H   UNL A   1      34.156  22.776  25.005  1.00  0.00     0.348 HD
ATOM     11  C   UNL A   1      33.152  25.436  23.618  1.00  0.00     0.156 C 
ATOM     12  C   UNL A   1      32.842  25.836  22.198  1.00  0.00     0.230 C 
ATOM     13  C   UNL A   1      30.916  25.990  23.457  1.00  0.00     0.139 C 
ATOM     14  O   UNL A   1      33.615  25.980  21.280  1.00  0.00    -0.275 OA
ATOM     15  N   UNL A   1      31.493  26.075  22.149  1.00  0.00    -0.354 N 
ATOM     16  H   UNL A   1      30.990  26.276  21.327  1.00  0.00     0.163 HD
BRANCH   7  17
ATOM     17  C   UNL A   1      32.700  22.014  24.029  1.00  0.00     0.339 C 
BRANCH  17  18
ATOM     18  C   UNL A   1      33.117  20.759  24.688  1.00  0.00     0.165 A 
ATOM     19  N   UNL A   1      34.380  20.211  24.622  1.00  0.00    -0.323 N 
ATOM     20  C   UNL A   1      34.195  18.840  24.682  1.00  0.00     0.068 A 
ATOM     21  N   UNL A   1      32.242  19.896  25.162  1.00  0.00    -0.227 NA
ATOM     22  C   UNL A   1      32.854  18.690  25.038  1.00  0.00     0.089 A 
ATOM     23  C   UNL A   1      35.009  17.738  24.400  1.00  0.00     0.028 A 
ATOM     24  C   UNL A   1      32.276  17.419  25.124  1.00  0.00     0.030 A 
ATOM     25  C   UNL A   1      34.397  16.475  24.428  1.00  0.00     0.002 A 
ATOM     26  C   UNL A   1      33.055  16.314  24.782  1.00  0.00     0.002 A 
BRANCH  19  27
ATOM     27  C   UNL A   1      35.648  20.914  24.514  1.00  0.00     0.124 C 
BRANCH  27  28
ATOM     28  C   UNL A   1      36.270  21.568  25.762  1.00  0.00     0.022 C 
BRANCH  28  29
ATOM     29  C   UNL A   1      37.086  22.868  25.630  1.00  0.00    -0.002 C 
ATOM     30  C   UNL A   1      36.474  24.148  26.178  1.00  0.00     0.004 C 
ENDBRANCH  28  29
ENDBRANCH  27  28
ENDBRANCH  19  27
ENDBRANCH  17  18
ENDBRANCH   7  17
ENDBRANCH   3   6
ENDBRANCH   1   2
BRANCH   1  31
ATOM     31  C   UNL A   1      33.423  28.305  26.917  1.00  0.00     0.023 C 
BRANCH  31  32
ATOM     32  C   UNL A   1      32.732  29.633  27.241  1.00  0.00     0.023 C 
BRANCH  32  33
ATOM     33  C   UNL A   1      33.652  30.844  27.104  1.00  0.00     0.116 C 
BRANCH  33  34
ATOM     34  N   UNL A   1      33.802  31.568  28.349  1.00  0.00    -0.352 N 
ATOM     35  C   UNL A   1      34.814  31.733  29.250  1.00  0.00     0.251 C 
ATOM     36  H   UNL A   1      32.984  32.055  28.604  1.00  0.00     0.163 HD
ATOM     37  O   UNL A   1      34.568  32.484  30.199  1.00  0.00    -0.269 OA
BRANCH  35  38
ATOM     38  C   UNL A   1      36.132  31.050  29.196  1.00  0.00     0.039 A 
ATOM     39  C   UNL A   1      36.334  29.671  29.119  1.00  0.00     0.014 A 
ATOM     40  C   UNL A   1      37.258  31.890  29.288  1.00  0.00     0.014 A 
ATOM     41  C   UNL A   1      37.611  29.142  29.230  1.00  0.00     0.010 A 
ATOM     42  C   UNL A   1      38.540  31.368  29.381  1.00  0.00     0.010 A 
ATOM     43  C   UNL A   1      38.705  29.990  29.403  1.00  0.00    -0.014 A 
BRANCH  43  44
ATOM     44  C   UNL A   1      40.024  29.376  29.485  1.00  0.00     0.031 A 
ATOM     45  C   UNL A   1      40.473  29.121  30.879  1.00  0.00     0.074 A 
ATOM     46  C   UNL A   1      40.734  28.994  28.406  1.00  0.00     0.049 A 
ATOM     47  N   UNL A   1      41.454  29.673  31.511  1.00  0.00    -0.248 NA
ATOM     48  C   UNL A   1      39.624  28.262  31.725  1.00  0.00     0.031 C 
ATOM     49  C   UNL A   1      40.264  28.923  27.018  1.00  0.00     0.029 A 
ATOM     50  N   UNL A   1      41.994  28.477  28.328  1.00  0.00    -0.354 N 
ATOM     51  C   UNL A   1      41.491  29.057  32.759  1.00  0.00     0.074 A 
ATOM     52  C   UNL A   1      40.245  28.349  32.901  1.00  0.00     0.031 C 
ATOM     53  C   UNL A   1      41.116  28.158  26.297  1.00  0.00     0.029 A 
ATOM     54  C   UNL A   1      42.270  27.846  27.122  1.00  0.00     0.049 A 
ATOM     55  H   UNL A   1      42.649  28.545  29.061  1.00  0.00     0.167 HD
ATOM     56  C   UNL A   1      42.656  28.946  33.455  1.00  0.00     0.031 A 
ATOM     57  C   UNL A   1      43.352  27.083  26.833  1.00  0.00     0.031 A 
ATOM     58  C   UNL A   1      43.669  29.815  32.928  1.00  0.00     0.049 A 
ATOM     59  C   UNL A   1      44.430  27.466  27.772  1.00  0.00     0.074 A 
ATOM     60  C   UNL A   1      44.001  31.146  33.031  1.00  0.00     0.029 A 
ATOM     61  N   UNL A   1      44.309  29.310  31.828  1.00  0.00    -0.354 N 
ATOM     62  N   UNL A   1      44.974  28.654  27.796  1.00  0.00    -0.248 NA
ATOM     63  C   UNL A   1      44.696  26.626  28.934  1.00  0.00     0.031 C 
ATOM     64  C   UNL A   1      44.736  31.461  31.852  1.00  0.00     0.029 A 
ATOM     65  C   UNL A   1      44.881  30.306  31.084  1.00  0.00     0.049 A 
ATOM     66  H   UNL A   1      44.353  28.352  31.601  1.00  0.00     0.167 HD
ATOM     67  C   UNL A   1      45.291  28.853  29.125  1.00  0.00     0.074 A 
ATOM     68  C   UNL A   1      45.255  27.531  29.740  1.00  0.00     0.031 C 
ATOM     69  C   UNL A   1      45.239  30.088  29.694  1.00  0.00     0.031 A 
BRANCH  56  70
ATOM     70  C   UNL A   1      43.022  27.742  34.295  1.00  0.00    -0.014 A 
ATOM     71  C   UNL A   1      43.177  26.447  33.757  1.00  0.00     0.010 A 
ATOM     72  C   UNL A   1      43.488  27.939  35.612  1.00  0.00     0.010 A 
ATOM     73  C   UNL A   1      43.726  25.396  34.493  1.00  0.00     0.020 A 
ATOM     74  C   UNL A   1      44.075  26.897  36.350  1.00  0.00     0.020 A 
ATOM     75  C   UNL A   1      44.176  25.628  35.786  1.00  0.00     0.054 A 
BRANCH  75  76
ATOM     76  S   UNL A   1      44.933  24.249  36.680  1.00  0.00     0.124 S 
ATOM     77  O   UNL A   1      44.379  23.097  35.973  1.00  0.00    -0.237 OA
ATOM     78  O   UNL A   1      46.359  24.488  36.476  1.00  0.00    -0.237 OA
ATOM     79  O   UNL A   1      44.461  24.426  38.051  1.00  0.00    -0.744 OA
ENDBRANCH  75  76
ENDBRANCH  56  70
BRANCH  57  80
ATOM     80  C   UNL A   1      43.370  25.783  26.110  1.00  0.00    -0.014 A 
ATOM     81  C   UNL A   1      42.685  24.676  26.650  1.00  0.00     0.010 A 
ATOM     82  C   UNL A   1      44.317  25.541  25.096  1.00  0.00     0.010 A 
ATOM     83  C   UNL A   1      43.002  23.368  26.267  1.00  0.00     0.020 A 
ATOM     84  C   UNL A   1      44.640  24.230  24.705  1.00  0.00     0.020 A 
ATOM     85  C   UNL A   1      44.008  23.151  25.326  1.00  0.00     0.054 A 
BRANCH  85  86
ATOM     86  S   UNL A   1      44.537  21.441  25.010  1.00  0.00     0.124 S 
ATOM     87  O   UNL A   1      43.421  20.673  25.555  1.00  0.00    -0.237 OA
ATOM     88  O   UNL A   1      44.663  21.414  23.554  1.00  0.00    -0.237 OA
ATOM     89  O   UNL A   1      45.794  21.325  25.744  1.00  0.00    -0.744 OA
ENDBRANCH  85  86
ENDBRANCH  57  80
BRANCH  69  90
ATOM     90  C   UNL A   1      45.396  31.311  28.833  1.00  0.00    -0.014 A 
ATOM     91  C   UNL A   1      44.199  31.913  28.402  1.00  0.00     0.010 A 
ATOM     92  C   UNL A   1      46.615  31.757  28.294  1.00  0.00     0.010 A 
ATOM     93  C   UNL A   1      44.203  32.877  27.397  1.00  0.00     0.020 A 
ATOM     94  C   UNL A   1      46.627  32.750  27.299  1.00  0.00     0.020 A 
ATOM     95  C   UNL A   1      45.416  33.273  26.833  1.00  0.00     0.054 A 
BRANCH  95  96
ATOM     96  S   UNL A   1      45.356  34.445  25.450  1.00  0.00     0.124 S 
ATOM     97  O   UNL A   1      44.607  33.695  24.444  1.00  0.00    -0.237 OA
ATOM     98  O   UNL A   1      44.651  35.589  26.025  1.00  0.00    -0.237 OA
ATOM     99  O   UNL A   1      46.760  34.684  25.127  1.00  0.00    -0.744 OA
ENDBRANCH  95  96
ENDBRANCH  69  90
ENDBRANCH  43  44
ENDBRANCH  35  38
ENDBRANCH  33  34
ENDBRANCH  32  33
ENDBRANCH  31  32
ENDBRANCH   1  31
TORSDOF 19
ENDMDL
