MODEL 1
REMARK VINA RESULT:     -11.1      0.000      0.000
REMARK SMILES CC(=O)N[C@@H](C(=O)NCCCCNC(=O)c1ccc(-c2c3nc(c(-c4ccc(S(=O)(=O)[O-])cc4)c4ccc([nH]4)c(-c4ccc(S(=O)(=O)[O-])cc4)c4nc(c(-c5ccc(S(=O)(=O)[O-])cc5)c5ccc2[nH]5)C=C4)C=C3)cc1)C(c1ccccc1)c1ccccc1
REMARK SMILES IDX 11 1 10 2 9 3 8 4 6 5 7 6 5 8 4 9 1 10 2 11 3 12 76 14 77 15
REMARK SMILES IDX 78 16 82 17 79 18 81 19 80 20 83 21 84 22 88 23 85 24 87 25
REMARK SMILES IDX 86 26 12 27 13 28 14 29 15 31 16 32 17 33 75 34 18 35 74 36
REMARK SMILES IDX 19 37 20 38 21 39 68 40 22 41 73 42 67 43 69 44 23 45 72 46
REMARK SMILES IDX 66 47 65 48 24 50 54 51 35 52 53 53 36 54 39 55 52 56 70 57
REMARK SMILES IDX 37 58 38 59 51 61 71 62 40 63 25 64 26 65 34 66 27 67 33 68
REMARK SMILES IDX 28 69 29 70 30 71 31 72 32 73 55 74 56 75 64 76 57 77 63 78
REMARK SMILES IDX 58 79 59 80 60 81 61 82 62 83 41 84 42 85 50 86 43 87 49 88
REMARK SMILES IDX 44 89 45 90 46 91 47 92 48 93
REMARK H PARENT 8 7 4 13 13 30 69 49 39 60
REMARK Flexibility Score: inf
ROOT
ATOM      1  C   UNL A   1      36.422  23.324  23.688  1.00  0.00     0.023 C 
ENDROOT
BRANCH   1   2
ATOM      2  C   UNL A   1      35.148  22.481  23.801  1.00  0.00     0.023 C 
BRANCH   2   3
ATOM      3  C   UNL A   1      33.966  23.046  23.012  1.00  0.00     0.116 C 
BRANCH   3   4
ATOM      4  N   UNL A   1      34.293  24.360  22.496  1.00  0.00    -0.354 N 
ATOM      5  C   UNL A   1      33.570  25.511  22.651  1.00  0.00     0.243 C 
ATOM      6  O   UNL A   1      33.657  26.365  21.766  1.00  0.00    -0.273 OA
ATOM      7  H   UNL A   1      35.126  24.432  21.977  1.00  0.00     0.163 HD
BRANCH   5   8
ATOM      8  C   UNL A   1      32.604  25.653  23.844  1.00  0.00     0.183 C 
BRANCH   8   9
ATOM      9  N   UNL A   1      31.879  26.894  23.483  1.00  0.00    -0.344 N 
ATOM     10  C   UNL A   1      29.571  26.153  23.996  1.00  0.00     0.114 C 
ATOM     11  C   UNL A   1      30.549  27.174  23.486  1.00  0.00     0.217 C 
ATOM     12  O   UNL A   1      30.170  28.264  23.058  1.00  0.00    -0.275 OA
ATOM     13  H   UNL A   1      32.457  27.639  23.195  1.00  0.00     0.164 HD
ENDBRANCH   8   9
BRANCH   8  14
ATOM     14  C   UNL A   1      33.381  25.743  25.222  1.00  0.00     0.081 C 
BRANCH  14  15
ATOM     15  C   UNL A   1      33.045  27.113  25.856  1.00  0.00    -0.038 A 
ATOM     16  C   UNL A   1      33.845  28.255  25.675  1.00  0.00     0.004 A 
ATOM     17  C   UNL A   1      31.966  27.200  26.757  1.00  0.00     0.004 A 
ATOM     18  C   UNL A   1      33.545  29.454  26.328  1.00  0.00     0.000 A 
ATOM     19  C   UNL A   1      31.702  28.383  27.451  1.00  0.00     0.000 A 
ATOM     20  C   UNL A   1      32.483  29.514  27.224  1.00  0.00     0.000 A 
ENDBRANCH  14  15
BRANCH  14  21
ATOM     21  C   UNL A   1      33.210  24.512  26.163  1.00  0.00    -0.038 A 
ATOM     22  C   UNL A   1      31.946  23.943  26.415  1.00  0.00     0.004 A 
ATOM     23  C   UNL A   1      34.304  23.835  26.737  1.00  0.00     0.004 A 
ATOM     24  C   UNL A   1      31.772  22.856  27.281  1.00  0.00     0.000 A 
ATOM     25  C   UNL A   1      34.135  22.766  27.628  1.00  0.00     0.000 A 
ATOM     26  C   UNL A   1      32.865  22.286  27.913  1.00  0.00     0.000 A 
ENDBRANCH  14  21
ENDBRANCH   8  14
ENDBRANCH   5   8
ENDBRANCH   3   4
ENDBRANCH   2   3
ENDBRANCH   1   2
BRANCH   1  27
ATOM     27  C   UNL A   1      37.080  23.668  25.020  1.00  0.00     0.116 C 
BRANCH  27  28
ATOM     28  N   UNL A   1      38.066  22.684  25.438  1.00  0.00    -0.352 N 
ATOM     29  C   UNL A   1      39.180  22.871  26.220  1.00  0.00     0.251 C 
ATOM     30  H   UNL A   1      37.916  21.764  25.119  1.00  0.00     0.163 HD
ATOM     31  O   UNL A   1      39.985  21.958  26.381  1.00  0.00    -0.269 OA
BRANCH  29  32
ATOM     32  C   UNL A   1      39.417  24.194  26.829  1.00  0.00     0.039 A 
ATOM     33  C   UNL A   1      38.949  24.435  28.123  1.00  0.00     0.014 A 
ATOM     34  C   UNL A   1      40.141  25.173  26.142  1.00  0.00     0.014 A 
ATOM     35  C   UNL A   1      39.269  25.636  28.757  1.00  0.00     0.010 A 
ATOM     36  C   UNL A   1      40.517  26.340  26.802  1.00  0.00     0.010 A 
ATOM     37  C   UNL A   1      40.089  26.581  28.116  1.00  0.00    -0.014 A 
BRANCH  37  38
ATOM     38  C   UNL A   1      40.531  27.814  28.814  1.00  0.00     0.031 A 
ATOM     39  C   UNL A   1      41.881  27.870  29.474  1.00  0.00     0.074 A 
ATOM     40  C   UNL A   1      39.682  28.857  28.920  1.00  0.00     0.049 A 
ATOM     41  N   UNL A   1      42.414  28.836  30.177  1.00  0.00    -0.248 NA
ATOM     42  C   UNL A   1      42.731  26.675  29.352  1.00  0.00     0.031 C 
ATOM     43  C   UNL A   1      38.326  28.905  28.370  1.00  0.00     0.029 A 
ATOM     44  N   UNL A   1      39.832  30.073  29.538  1.00  0.00    -0.354 N 
ATOM     45  C   UNL A   1      43.649  28.359  30.599  1.00  0.00     0.074 A 
ATOM     46  C   UNL A   1      43.768  27.003  30.111  1.00  0.00     0.031 C 
ATOM     47  C   UNL A   1      37.775  30.095  28.659  1.00  0.00     0.029 A 
ATOM     48  C   UNL A   1      38.722  30.880  29.445  1.00  0.00     0.049 A 
ATOM     49  H   UNL A   1      40.655  30.344  30.004  1.00  0.00     0.167 HD
ATOM     50  C   UNL A   1      44.605  28.998  31.315  1.00  0.00     0.031 A 
ATOM     51  C   UNL A   1      38.485  32.108  29.944  1.00  0.00     0.031 A 
ATOM     52  C   UNL A   1      44.488  30.352  31.788  1.00  0.00     0.049 A 
ATOM     53  C   UNL A   1      39.564  32.802  30.728  1.00  0.00     0.074 A 
ATOM     54  C   UNL A   1      45.432  31.114  32.454  1.00  0.00     0.029 A 
ATOM     55  N   UNL A   1      43.357  31.143  31.653  1.00  0.00    -0.354 N 
ATOM     56  N   UNL A   1      40.762  32.368  31.041  1.00  0.00    -0.248 NA
ATOM     57  C   UNL A   1      39.265  34.155  31.216  1.00  0.00     0.031 C 
ATOM     58  C   UNL A   1      44.851  32.347  32.773  1.00  0.00     0.029 A 
ATOM     59  C   UNL A   1      43.567  32.375  32.252  1.00  0.00     0.049 A 
ATOM     60  H   UNL A   1      42.527  30.871  31.199  1.00  0.00     0.167 HD
ATOM     61  C   UNL A   1      41.366  33.401  31.748  1.00  0.00     0.074 A 
ATOM     62  C   UNL A   1      40.410  34.489  31.799  1.00  0.00     0.031 C 
ATOM     63  C   UNL A   1      42.603  33.444  32.303  1.00  0.00     0.031 A 
BRANCH  50  64
ATOM     64  C   UNL A   1      45.860  28.230  31.642  1.00  0.00    -0.014 A 
ATOM     65  C   UNL A   1      47.016  28.350  30.849  1.00  0.00     0.010 A 
ATOM     66  C   UNL A   1      45.892  27.400  32.777  1.00  0.00     0.010 A 
ATOM     67  C   UNL A   1      48.165  27.618  31.157  1.00  0.00     0.020 A 
ATOM     68  C   UNL A   1      47.049  26.688  33.105  1.00  0.00     0.020 A 
ATOM     69  C   UNL A   1      48.172  26.787  32.281  1.00  0.00     0.054 A 
BRANCH  69  70
ATOM     70  S   UNL A   1      49.680  25.855  32.664  1.00  0.00     0.124 S 
ATOM     71  O   UNL A   1      50.276  26.668  33.721  1.00  0.00    -0.237 OA
ATOM     72  O   UNL A   1      49.157  24.558  33.090  1.00  0.00    -0.237 OA
ATOM     73  O   UNL A   1      50.412  25.843  31.400  1.00  0.00    -0.744 OA
ENDBRANCH  69  70
ENDBRANCH  50  64
BRANCH  51  74
ATOM     74  C   UNL A   1      37.169  32.762  29.704  1.00  0.00    -0.014 A 
ATOM     75  C   UNL A   1      36.169  32.741  30.691  1.00  0.00     0.010 A 
ATOM     76  C   UNL A   1      36.922  33.436  28.493  1.00  0.00     0.010 A 
ATOM     77  C   UNL A   1      34.942  33.373  30.469  1.00  0.00     0.020 A 
ATOM     78  C   UNL A   1      35.706  34.091  28.278  1.00  0.00     0.020 A 
ATOM     79  C   UNL A   1      34.720  34.048  29.265  1.00  0.00     0.054 A 
BRANCH  79  80
ATOM     80  S   UNL A   1      33.145  34.918  29.026  1.00  0.00     0.124 S 
ATOM     81  O   UNL A   1      33.591  36.238  28.591  1.00  0.00    -0.237 OA
ATOM     82  O   UNL A   1      32.487  34.104  28.007  1.00  0.00    -0.237 OA
ATOM     83  O   UNL A   1      32.525  34.869  30.348  1.00  0.00    -0.744 OA
ENDBRANCH  79  80
ENDBRANCH  51  74
BRANCH  63  84
ATOM     84  C   UNL A   1      43.004  34.717  33.000  1.00  0.00    -0.014 A 
ATOM     85  C   UNL A   1      42.758  34.904  34.372  1.00  0.00     0.010 A 
ATOM     86  C   UNL A   1      43.691  35.715  32.284  1.00  0.00     0.010 A 
ATOM     87  C   UNL A   1      43.167  36.080  35.009  1.00  0.00     0.020 A 
ATOM     88  C   UNL A   1      44.126  36.879  32.923  1.00  0.00     0.020 A 
ATOM     89  C   UNL A   1      43.849  37.059  34.280  1.00  0.00     0.054 A 
BRANCH  89  90
ATOM     90  S   UNL A   1      44.412  38.553  35.140  1.00  0.00     0.124 S 
ATOM     91  O   UNL A   1      44.023  38.274  36.520  1.00  0.00    -0.237 OA
ATOM     92  O   UNL A   1      45.849  38.552  34.879  1.00  0.00    -0.237 OA
ATOM     93  O   UNL A   1      43.667  39.629  34.489  1.00  0.00    -0.744 OA
ENDBRANCH  89  90
ENDBRANCH  63  84
ENDBRANCH  37  38
ENDBRANCH  29  32
ENDBRANCH  27  28
ENDBRANCH   1  27
TORSDOF 18
ENDMDL
MODEL 2
REMARK VINA RESULT:     -10.9      2.598      9.043
REMARK SMILES CC(=O)N[C@@H](C(=O)NCCCCNC(=O)c1ccc(-c2c3nc(c(-c4ccc(S(=O)(=O)[O-])cc4)c4ccc([nH]4)c(-c4ccc(S(=O)(=O)[O-])cc4)c4nc(c(-c5ccc(S(=O)(=O)[O-])cc5)c5ccc2[nH]5)C=C4)C=C3)cc1)C(c1ccccc1)c1ccccc1
REMARK SMILES IDX 11 1 10 2 9 3 8 4 6 5 7 6 5 8 4 9 1 10 2 11 3 12 76 14 77 15
REMARK SMILES IDX 78 16 82 17 79 18 81 19 80 20 83 21 84 22 88 23 85 24 87 25
REMARK SMILES IDX 86 26 12 27 13 28 14 29 15 31 16 32 17 33 75 34 18 35 74 36
REMARK SMILES IDX 19 37 20 38 21 39 68 40 22 41 73 42 67 43 69 44 23 45 72 46
REMARK SMILES IDX 66 47 65 48 24 50 54 51 35 52 53 53 36 54 39 55 52 56 70 57
REMARK SMILES IDX 37 58 38 59 51 61 71 62 40 63 25 64 26 65 34 66 27 67 33 68
REMARK SMILES IDX 28 69 29 70 30 71 31 72 32 73 55 74 56 75 64 76 57 77 63 78
REMARK SMILES IDX 58 79 59 80 60 81 61 82 62 83 41 84 42 85 50 86 43 87 49 88
REMARK SMILES IDX 44 89 45 90 46 91 47 92 48 93
REMARK H PARENT 8 7 4 13 13 30 69 49 39 60
REMARK Flexibility Score: inf
ROOT
ATOM      1  C   UNL A   1      32.200  27.827  27.237  1.00  0.00     0.023 C 
ENDROOT
BRANCH   1   2
ATOM      2  C   UNL A   1      31.942  26.793  26.136  1.00  0.00     0.023 C 
BRANCH   2   3
ATOM      3  C   UNL A   1      32.918  25.616  26.158  1.00  0.00     0.116 C 
BRANCH   3   4
ATOM      4  N   UNL A   1      32.261  24.414  25.684  1.00  0.00    -0.354 N 
ATOM      5  C   UNL A   1      32.529  23.728  24.531  1.00  0.00     0.243 C 
ATOM      6  O   UNL A   1      31.603  23.102  24.010  1.00  0.00    -0.273 OA
ATOM      7  H   UNL A   1      31.544  24.053  26.253  1.00  0.00     0.163 HD
BRANCH   5   8
ATOM      8  C   UNL A   1      33.918  23.849  23.873  1.00  0.00     0.183 C 
BRANCH   8   9
ATOM      9  N   UNL A   1      33.552  24.282  22.504  1.00  0.00    -0.344 N 
ATOM     10  C   UNL A   1      33.751  26.732  22.812  1.00  0.00     0.114 C 
ATOM     11  C   UNL A   1      33.420  25.527  21.976  1.00  0.00     0.217 C 
ATOM     12  O   UNL A   1      33.018  25.643  20.819  1.00  0.00    -0.275 OA
ATOM     13  H   UNL A   1      33.378  23.546  21.872  1.00  0.00     0.164 HD
ENDBRANCH   8   9
BRANCH   8  14
ATOM     14  C   UNL A   1      34.711  22.478  23.921  1.00  0.00     0.081 C 
BRANCH  14  15
ATOM     15  C   UNL A   1      35.986  22.707  24.766  1.00  0.00    -0.038 A 
ATOM     16  C   UNL A   1      36.238  23.906  25.456  1.00  0.00     0.004 A 
ATOM     17  C   UNL A   1      37.000  21.731  24.748  1.00  0.00     0.004 A 
ATOM     18  C   UNL A   1      37.438  24.099  26.147  1.00  0.00     0.000 A 
ATOM     19  C   UNL A   1      38.220  21.949  25.393  1.00  0.00     0.000 A 
ATOM     20  C   UNL A   1      38.432  23.127  26.105  1.00  0.00     0.000 A 
ENDBRANCH  14  15
BRANCH  14  21
ATOM     21  C   UNL A   1      33.862  21.233  24.320  1.00  0.00    -0.038 A 
ATOM     22  C   UNL A   1      33.157  20.479  23.361  1.00  0.00     0.004 A 
ATOM     23  C   UNL A   1      33.825  20.727  25.635  1.00  0.00     0.004 A 
ATOM     24  C   UNL A   1      32.367  19.375  23.707  1.00  0.00     0.000 A 
ATOM     25  C   UNL A   1      33.014  19.641  25.993  1.00  0.00     0.000 A 
ATOM     26  C   UNL A   1      32.270  18.975  25.030  1.00  0.00     0.000 A 
ENDBRANCH  14  21
ENDBRANCH   8  14
ENDBRANCH   5   8
ENDBRANCH   3   4
ENDBRANCH   2   3
ENDBRANCH   1   2
BRANCH   1  27
ATOM     27  C   UNL A   1      33.546  28.538  27.143  1.00  0.00     0.116 C 
BRANCH  27  28
ATOM     28  N   UNL A   1      33.477  29.938  27.534  1.00  0.00    -0.352 N 
ATOM     29  C   UNL A   1      34.438  30.699  28.153  1.00  0.00     0.251 C 
ATOM     30  H   UNL A   1      32.632  30.400  27.327  1.00  0.00     0.163 HD
ATOM     31  O   UNL A   1      34.180  31.838  28.529  1.00  0.00    -0.269 OA
BRANCH  29  32
ATOM     32  C   UNL A   1      35.771  30.114  28.397  1.00  0.00     0.039 A 
ATOM     33  C   UNL A   1      36.706  30.109  27.359  1.00  0.00     0.014 A 
ATOM     34  C   UNL A   1      36.110  29.619  29.660  1.00  0.00     0.014 A 
ATOM     35  C   UNL A   1      38.007  29.671  27.608  1.00  0.00     0.010 A 
ATOM     36  C   UNL A   1      37.425  29.248  29.922  1.00  0.00     0.010 A 
ATOM     37  C   UNL A   1      38.388  29.274  28.902  1.00  0.00    -0.014 A 
BRANCH  37  38
ATOM     38  C   UNL A   1      39.793  28.910  29.212  1.00  0.00     0.031 A 
ATOM     39  C   UNL A   1      40.723  29.924  29.819  1.00  0.00     0.074 A 
ATOM     40  C   UNL A   1      40.251  27.687  28.874  1.00  0.00     0.049 A 
ATOM     41  N   UNL A   1      41.995  29.807  30.104  1.00  0.00    -0.248 NA
ATOM     42  C   UNL A   1      40.159  31.250  30.118  1.00  0.00     0.031 C 
ATOM     43  C   UNL A   1      39.463  26.635  28.231  1.00  0.00     0.029 A 
ATOM     44  N   UNL A   1      41.497  27.129  29.014  1.00  0.00    -0.354 N 
ATOM     45  C   UNL A   1      42.387  31.046  30.594  1.00  0.00     0.074 A 
ATOM     46  C   UNL A   1      41.231  31.913  30.527  1.00  0.00     0.031 C 
ATOM     47  C   UNL A   1      40.237  25.553  28.049  1.00  0.00     0.029 A 
ATOM     48  C   UNL A   1      41.585  25.847  28.526  1.00  0.00     0.049 A 
ATOM     49  H   UNL A   1      42.257  27.601  29.424  1.00  0.00     0.167 HD
ATOM     50  C   UNL A   1      43.597  31.424  31.073  1.00  0.00     0.031 A 
ATOM     51  C   UNL A   1      42.632  25.002  28.459  1.00  0.00     0.031 A 
ATOM     52  C   UNL A   1      44.740  30.555  31.150  1.00  0.00     0.049 A 
ATOM     53  C   UNL A   1      43.963  25.440  29.004  1.00  0.00     0.074 A 
ATOM     54  C   UNL A   1      45.987  30.821  31.690  1.00  0.00     0.029 A 
ATOM     55  N   UNL A   1      44.782  29.255  30.667  1.00  0.00    -0.354 N 
ATOM     56  N   UNL A   1      44.292  26.589  29.546  1.00  0.00    -0.248 NA
ATOM     57  C   UNL A   1      45.061  24.466  28.940  1.00  0.00     0.031 C 
ATOM     58  C   UNL A   1      46.800  29.701  31.482  1.00  0.00     0.029 A 
ATOM     59  C   UNL A   1      46.042  28.716  30.868  1.00  0.00     0.049 A 
ATOM     60  H   UNL A   1      44.028  28.785  30.245  1.00  0.00     0.167 HD
ATOM     61  C   UNL A   1      45.630  26.468  29.904  1.00  0.00     0.074 A 
ATOM     62  C   UNL A   1      46.044  25.129  29.535  1.00  0.00     0.031 C 
ATOM     63  C   UNL A   1      46.442  27.385  30.487  1.00  0.00     0.031 A 
BRANCH  50  64
ATOM     64  C   UNL A   1      43.747  32.850  31.538  1.00  0.00    -0.014 A 
ATOM     65  C   UNL A   1      44.101  33.876  30.643  1.00  0.00     0.010 A 
ATOM     66  C   UNL A   1      43.500  33.172  32.885  1.00  0.00     0.010 A 
ATOM     67  C   UNL A   1      44.252  35.189  31.096  1.00  0.00     0.020 A 
ATOM     68  C   UNL A   1      43.621  34.489  33.336  1.00  0.00     0.020 A 
ATOM     69  C   UNL A   1      44.016  35.486  32.442  1.00  0.00     0.054 A 
BRANCH  69  70
ATOM     70  S   UNL A   1      44.210  37.201  33.001  1.00  0.00     0.124 S 
ATOM     71  O   UNL A   1      44.140  37.937  31.742  1.00  0.00    -0.237 OA
ATOM     72  O   UNL A   1      43.068  37.377  33.896  1.00  0.00    -0.237 OA
ATOM     73  O   UNL A   1      45.517  37.208  33.654  1.00  0.00    -0.744 OA
ENDBRANCH  69  70
ENDBRANCH  50  64
BRANCH  51  74
ATOM     74  C   UNL A   1      42.454  23.651  27.859  1.00  0.00    -0.014 A 
ATOM     75  C   UNL A   1      42.650  23.448  26.482  1.00  0.00     0.010 A 
ATOM     76  C   UNL A   1      42.117  22.553  28.672  1.00  0.00     0.010 A 
ATOM     77  C   UNL A   1      42.502  22.174  25.927  1.00  0.00     0.020 A 
ATOM     78  C   UNL A   1      41.994  21.273  28.124  1.00  0.00     0.020 A 
ATOM     79  C   UNL A   1      42.179  21.093  26.753  1.00  0.00     0.054 A 
BRANCH  79  80
ATOM     80  S   UNL A   1      42.057  19.437  26.020  1.00  0.00     0.124 S 
ATOM     81  O   UNL A   1      40.632  19.342  25.720  1.00  0.00    -0.237 OA
ATOM     82  O   UNL A   1      42.943  19.539  24.863  1.00  0.00    -0.237 OA
ATOM     83  O   UNL A   1      42.534  18.558  27.085  1.00  0.00    -0.744 OA
ENDBRANCH  79  80
ENDBRANCH  51  74
BRANCH  63  84
ATOM     84  C   UNL A   1      47.859  26.968  30.781  1.00  0.00    -0.014 A 
ATOM     85  C   UNL A   1      48.896  27.221  29.866  1.00  0.00     0.010 A 
ATOM     86  C   UNL A   1      48.164  26.367  32.016  1.00  0.00     0.010 A 
ATOM     87  C   UNL A   1      50.211  26.854  30.171  1.00  0.00     0.020 A 
ATOM     88  C   UNL A   1      49.480  26.025  32.336  1.00  0.00     0.020 A 
ATOM     89  C   UNL A   1      50.494  26.260  31.405  1.00  0.00     0.054 A 
BRANCH  89  90
ATOM     90  S   UNL A   1      52.214  25.838  31.796  1.00  0.00     0.124 S 
ATOM     91  O   UNL A   1      52.144  24.388  31.951  1.00  0.00    -0.237 OA
ATOM     92  O   UNL A   1      52.937  26.311  30.618  1.00  0.00    -0.237 OA
ATOM     93  O   UNL A   1      52.483  26.584  33.024  1.00  0.00    -0.744 OA
ENDBRANCH  89  90
ENDBRANCH  63  84
ENDBRANCH  37  38
ENDBRANCH  29  32
ENDBRANCH  27  28
ENDBRANCH   1  27
TORSDOF 18
ENDMDL
MODEL 3
REMARK VINA RESULT:     -10.8      0.995      2.462
REMARK SMILES CC(=O)N[C@@H](C(=O)NCCCCNC(=O)c1ccc(-c2c3nc(c(-c4ccc(S(=O)(=O)[O-])cc4)c4ccc([nH]4)c(-c4ccc(S(=O)(=O)[O-])cc4)c4nc(c(-c5ccc(S(=O)(=O)[O-])cc5)c5ccc2[nH]5)C=C4)C=C3)cc1)C(c1ccccc1)c1ccccc1
REMARK SMILES IDX 11 1 10 2 9 3 8 4 6 5 7 6 5 8 4 9 1 10 2 11 3 12 76 14 77 15
REMARK SMILES IDX 78 16 82 17 79 18 81 19 80 20 83 21 84 22 88 23 85 24 87 25
REMARK SMILES IDX 86 26 12 27 13 28 14 29 15 31 16 32 17 33 75 34 18 35 74 36
REMARK SMILES IDX 19 37 20 38 21 39 68 40 22 41 73 42 67 43 69 44 23 45 72 46
REMARK SMILES IDX 66 47 65 48 24 50 54 51 35 52 53 53 36 54 39 55 52 56 70 57
REMARK SMILES IDX 37 58 38 59 51 61 71 62 40 63 25 64 26 65 34 66 27 67 33 68
REMARK SMILES IDX 28 69 29 70 30 71 31 72 32 73 55 74 56 75 64 76 57 77 63 78
REMARK SMILES IDX 58 79 59 80 60 81 61 82 62 83 41 84 42 85 50 86 43 87 49 88
REMARK SMILES IDX 44 89 45 90 46 91 47 92 48 93
REMARK H PARENT 8 7 4 13 13 30 69 49 39 60
REMARK Flexibility Score: inf
ROOT
ATOM      1  C   UNL A   1      34.789  24.180  25.035  1.00  0.00     0.023 C 
ENDROOT
BRANCH   1   2
ATOM      2  C   UNL A   1      34.737  24.076  23.507  1.00  0.00     0.023 C 
BRANCH   2   3
ATOM      3  C   UNL A   1      33.690  24.987  22.865  1.00  0.00     0.116 C 
BRANCH   3   4
ATOM      4  N   UNL A   1      34.062  26.376  23.041  1.00  0.00    -0.354 N 
ATOM      5  C   UNL A   1      33.243  27.468  22.947  1.00  0.00     0.243 C 
ATOM      6  O   UNL A   1      33.750  28.534  22.591  1.00  0.00    -0.273 OA
ATOM      7  H   UNL A   1      35.007  26.554  23.251  1.00  0.00     0.163 HD
BRANCH   5   8
ATOM      8  C   UNL A   1      31.726  27.309  23.173  1.00  0.00     0.183 C 
BRANCH   8   9
ATOM      9  N   UNL A   1      31.195  28.446  22.384  1.00  0.00    -0.344 N 
ATOM     10  C   UNL A   1      28.811  28.286  23.038  1.00  0.00     0.114 C 
ATOM     11  C   UNL A   1      29.925  28.908  22.244  1.00  0.00     0.217 C 
ATOM     12  O   UNL A   1      29.711  29.829  21.457  1.00  0.00    -0.275 OA
ATOM     13  H   UNL A   1      31.875  28.949  21.879  1.00  0.00     0.164 HD
ENDBRANCH   8   9
BRANCH   8  14
ATOM     14  C   UNL A   1      31.352  27.368  24.711  1.00  0.00     0.081 C 
BRANCH  14  15
ATOM     15  C   UNL A   1      31.218  25.912  25.214  1.00  0.00    -0.038 A 
ATOM     16  C   UNL A   1      31.701  25.488  26.465  1.00  0.00     0.004 A 
ATOM     17  C   UNL A   1      30.707  24.933  24.340  1.00  0.00     0.004 A 
ATOM     18  C   UNL A   1      31.625  24.146  26.849  1.00  0.00     0.000 A 
ATOM     19  C   UNL A   1      30.683  23.585  24.703  1.00  0.00     0.000 A 
ATOM     20  C   UNL A   1      31.128  23.194  25.963  1.00  0.00     0.000 A 
ENDBRANCH  14  15
BRANCH  14  21
ATOM     21  C   UNL A   1      32.260  28.291  25.580  1.00  0.00    -0.038 A 
ATOM     22  C   UNL A   1      33.477  27.833  26.123  1.00  0.00     0.004 A 
ATOM     23  C   UNL A   1      31.977  29.655  25.793  1.00  0.00     0.004 A 
ATOM     24  C   UNL A   1      34.290  28.641  26.929  1.00  0.00     0.000 A 
ATOM     25  C   UNL A   1      32.769  30.460  26.622  1.00  0.00     0.000 A 
ATOM     26  C   UNL A   1      33.919  29.948  27.205  1.00  0.00     0.000 A 
ENDBRANCH  14  21
ENDBRANCH   8  14
ENDBRANCH   5   8
ENDBRANCH   3   4
ENDBRANCH   2   3
ENDBRANCH   1   2
BRANCH   1  27
ATOM     27  C   UNL A   1      36.186  24.384  25.614  1.00  0.00     0.116 C 
BRANCH  27  28
ATOM     28  N   UNL A   1      37.005  23.183  25.555  1.00  0.00    -0.352 N 
ATOM     29  C   UNL A   1      38.292  23.006  26.001  1.00  0.00     0.251 C 
ATOM     30  H   UNL A   1      36.583  22.395  25.142  1.00  0.00     0.163 HD
ATOM     31  O   UNL A   1      38.892  21.962  25.766  1.00  0.00    -0.269 OA
BRANCH  29  32
ATOM     32  C   UNL A   1      38.957  24.104  26.731  1.00  0.00     0.039 A 
ATOM     33  C   UNL A   1      39.793  24.973  26.026  1.00  0.00     0.014 A 
ATOM     34  C   UNL A   1      38.714  24.301  28.093  1.00  0.00     0.014 A 
ATOM     35  C   UNL A   1      40.332  26.085  26.675  1.00  0.00     0.010 A 
ATOM     36  C   UNL A   1      39.197  25.447  28.718  1.00  0.00     0.010 A 
ATOM     37  C   UNL A   1      40.006  26.352  28.016  1.00  0.00    -0.014 A 
BRANCH  37  38
ATOM     38  C   UNL A   1      40.480  27.586  28.690  1.00  0.00     0.031 A 
ATOM     39  C   UNL A   1      41.843  27.629  29.324  1.00  0.00     0.074 A 
ATOM     40  C   UNL A   1      39.650  28.644  28.798  1.00  0.00     0.049 A 
ATOM     41  N   UNL A   1      42.404  28.595  30.006  1.00  0.00    -0.248 NA
ATOM     42  C   UNL A   1      42.673  26.419  29.201  1.00  0.00     0.031 C 
ATOM     43  C   UNL A   1      38.285  28.706  28.273  1.00  0.00     0.029 A 
ATOM     44  N   UNL A   1      39.830  29.864  29.398  1.00  0.00    -0.354 N 
ATOM     45  C   UNL A   1      43.639  28.104  30.411  1.00  0.00     0.074 A 
ATOM     46  C   UNL A   1      43.728  26.740  29.937  1.00  0.00     0.031 C 
ATOM     47  C   UNL A   1      37.758  29.908  28.557  1.00  0.00     0.029 A 
ATOM     48  C   UNL A   1      38.731  30.687  29.316  1.00  0.00     0.049 A 
ATOM     49  H   UNL A   1      40.666  30.128  29.846  1.00  0.00     0.167 HD
ATOM     50  C   UNL A   1      44.618  28.736  31.101  1.00  0.00     0.031 A 
ATOM     51  C   UNL A   1      38.522  31.925  29.804  1.00  0.00     0.031 A 
ATOM     52  C   UNL A   1      44.530  30.097  31.559  1.00  0.00     0.049 A 
ATOM     53  C   UNL A   1      39.626  32.611  30.560  1.00  0.00     0.074 A 
ATOM     54  C   UNL A   1      45.498  30.853  32.199  1.00  0.00     0.029 A 
ATOM     55  N   UNL A   1      43.409  30.905  31.436  1.00  0.00    -0.354 N 
ATOM     56  N   UNL A   1      40.823  32.162  30.857  1.00  0.00    -0.248 NA
ATOM     57  C   UNL A   1      39.357  33.974  31.037  1.00  0.00     0.031 C 
ATOM     58  C   UNL A   1      44.942  32.098  32.513  1.00  0.00     0.029 A 
ATOM     59  C   UNL A   1      43.650  32.139  32.015  1.00  0.00     0.049 A 
ATOM     60  H   UNL A   1      42.567  30.640  31.000  1.00  0.00     0.167 HD
ATOM     61  C   UNL A   1      41.456  33.194  31.539  1.00  0.00     0.074 A 
ATOM     62  C   UNL A   1      40.517  34.297  31.594  1.00  0.00     0.031 C 
ATOM     63  C   UNL A   1      42.703  33.225  32.071  1.00  0.00     0.031 A 
BRANCH  50  64
ATOM     64  C   UNL A   1      45.867  27.953  31.414  1.00  0.00    -0.014 A 
ATOM     65  C   UNL A   1      45.949  27.138  32.558  1.00  0.00     0.010 A 
ATOM     66  C   UNL A   1      46.963  28.009  30.534  1.00  0.00     0.010 A 
ATOM     67  C   UNL A   1      47.121  26.432  32.841  1.00  0.00     0.020 A 
ATOM     68  C   UNL A   1      48.126  27.281  30.799  1.00  0.00     0.020 A 
ATOM     69  C   UNL A   1      48.204  26.513  31.962  1.00  0.00     0.054 A 
BRANCH  69  70
ATOM     70  S   UNL A   1      49.710  25.578  32.349  1.00  0.00     0.124 S 
ATOM     71  O   UNL A   1      50.049  25.003  31.050  1.00  0.00    -0.237 OA
ATOM     72  O   UNL A   1      50.618  26.618  32.831  1.00  0.00    -0.237 OA
ATOM     73  O   UNL A   1      49.274  24.619  33.360  1.00  0.00    -0.744 OA
ENDBRANCH  69  70
ENDBRANCH  50  64
BRANCH  51  74
ATOM     74  C   UNL A   1      37.212  32.596  29.580  1.00  0.00    -0.014 A 
ATOM     75  C   UNL A   1      36.278  32.708  30.624  1.00  0.00     0.010 A 
ATOM     76  C   UNL A   1      36.906  33.154  28.324  1.00  0.00     0.010 A 
ATOM     77  C   UNL A   1      35.057  33.357  30.415  1.00  0.00     0.020 A 
ATOM     78  C   UNL A   1      35.698  33.826  28.120  1.00  0.00     0.020 A 
ATOM     79  C   UNL A   1      34.777  33.915  29.164  1.00  0.00     0.054 A 
BRANCH  79  80
ATOM     80  S   UNL A   1      33.215  34.811  28.935  1.00  0.00     0.124 S 
ATOM     81  O   UNL A   1      33.673  36.088  28.399  1.00  0.00    -0.237 OA
ATOM     82  O   UNL A   1      32.494  33.952  27.998  1.00  0.00    -0.237 OA
ATOM     83  O   UNL A   1      32.651  34.861  30.281  1.00  0.00    -0.744 OA
ENDBRANCH  79  80
ENDBRANCH  51  74
BRANCH  63  84
ATOM     84  C   UNL A   1      43.137  34.499  32.745  1.00  0.00    -0.014 A 
ATOM     85  C   UNL A   1      42.963  34.687  34.127  1.00  0.00     0.010 A 
ATOM     86  C   UNL A   1      43.782  35.499  31.993  1.00  0.00     0.010 A 
ATOM     87  C   UNL A   1      43.401  35.864  34.741  1.00  0.00     0.020 A 
ATOM     88  C   UNL A   1      44.247  36.664  32.607  1.00  0.00     0.020 A 
ATOM     89  C   UNL A   1      44.041  36.845  33.977  1.00  0.00     0.054 A 
BRANCH  89  90
ATOM     90  S   UNL A   1      44.644  38.341  34.805  1.00  0.00     0.124 S 
ATOM     91  O   UNL A   1      45.927  38.559  34.143  1.00  0.00    -0.237 OA
ATOM     92  O   UNL A   1      43.603  39.319  34.498  1.00  0.00    -0.237 OA
ATOM     93  O   UNL A   1      44.727  37.950  36.210  1.00  0.00    -0.744 OA
ENDBRANCH  89  90
ENDBRANCH  63  84
ENDBRANCH  37  38
ENDBRANCH  29  32
ENDBRANCH  27  28
ENDBRANCH   1  27
TORSDOF 18
ENDMDL
