MODEL 1
REMARK VINA RESULT:      -9.2      0.000      0.000
REMARK SMILES CN(CCCC(=O)NCCCCNC(=O)c1ccc(-c2c3nc(c(-c4ccc(S(=O)(=O)[O-])cc4)c4ccc([nH]4)c(-c4ccc(S(=O)(=O)[O-])cc4)c4nc(c(-c5ccc(S(=O)(=O)[O-])cc5)c5ccc2[nH]5)C=C4)C=C3)cc1)c1cccc(F)c1C(N)=O
REMARK SMILES IDX 9 1 8 2 6 3 7 4 5 6 4 7 3 8 2 9 1 10 76 11 77 12 82 13 78 14
REMARK SMILES IDX 80 15 79 16 81 17 83 18 84 19 85 20 10 23 11 24 12 25 13 26
REMARK SMILES IDX 14 27 15 29 16 30 17 31 75 32 18 33 74 34 19 35 20 36 21 37
REMARK SMILES IDX 68 38 22 39 73 40 67 41 69 42 23 43 72 44 66 45 65 46 24 48
REMARK SMILES IDX 54 49 35 50 53 51 36 52 39 53 52 54 70 55 37 56 38 57 51 59
REMARK SMILES IDX 71 60 40 61 25 62 26 63 34 64 27 65 33 66 28 67 29 68 30 69
REMARK SMILES IDX 31 70 32 71 55 72 56 73 64 74 57 75 63 76 58 77 59 78 60 79
REMARK SMILES IDX 61 80 62 81 41 82 42 83 50 84 43 85 49 86 44 87 45 88 46 89
REMARK SMILES IDX 47 90 48 91
REMARK H PARENT 8 5 84 21 84 22 13 28 69 47 39 58
REMARK Flexibility Score: inf
ROOT
ATOM      1  C   UNL A   1      35.186  29.381  27.881  1.00  0.00     0.116 C 
ENDROOT
BRANCH   1   2
ATOM      2  N   UNL A   1      34.771  29.348  26.500  1.00  0.00    -0.356 N 
ATOM      3  C   UNL A   1      33.909  28.486  25.894  1.00  0.00     0.220 C 
ATOM      4  O   UNL A   1      33.792  28.539  24.669  1.00  0.00    -0.275 OA
ATOM      5  H   UNL A   1      35.162  30.041  25.920  1.00  0.00     0.163 HD
BRANCH   3   6
ATOM      6  C   UNL A   1      33.024  27.574  26.724  1.00  0.00     0.102 C 
BRANCH   6   7
ATOM      7  C   UNL A   1      31.620  27.204  26.228  1.00  0.00     0.031 C 
BRANCH   7   8
ATOM      8  C   UNL A   1      31.350  25.998  25.315  1.00  0.00     0.117 C 
BRANCH   8   9
ATOM      9  N   UNL A   1      30.664  26.155  23.997  1.00  0.00    -0.374 N 
ATOM     10  C   UNL A   1      30.724  24.937  23.182  1.00  0.00     0.143 C 
BRANCH   9  11
ATOM     11  C   UNL A   1      29.585  27.032  23.832  1.00  0.00     0.052 A 
ATOM     12  C   UNL A   1      28.328  26.459  24.146  1.00  0.00     0.027 A 
ATOM     13  C   UNL A   1      29.564  28.387  23.372  1.00  0.00     0.098 A 
ATOM     14  C   UNL A   1      27.107  27.056  23.827  1.00  0.00     0.005 A 
ATOM     15  C   UNL A   1      28.311  28.959  23.044  1.00  0.00     0.138 A 
ATOM     16  C   UNL A   1      27.103  28.297  23.229  1.00  0.00     0.040 A 
ATOM     17  F   UNL A   1      28.220  30.183  22.495  1.00  0.00    -0.206 F 
BRANCH  13  18
ATOM     18  C   UNL A   1      30.770  29.278  23.170  1.00  0.00     0.253 C 
ATOM     19  N   UNL A   1      31.158  30.091  24.211  1.00  0.00    -0.365 N 
ATOM     20  O   UNL A   1      31.431  29.329  22.151  1.00  0.00    -0.269 OA
ATOM     21  H   UNL A   1      30.652  30.082  25.056  1.00  0.00     0.159 HD
ATOM     22  H   UNL A   1      31.940  30.679  24.111  1.00  0.00     0.159 HD
ENDBRANCH  13  18
ENDBRANCH   9  11
ENDBRANCH   8   9
ENDBRANCH   7   8
ENDBRANCH   6   7
ENDBRANCH   3   6
ENDBRANCH   1   2
BRANCH   1  23
ATOM     23  C   UNL A   1      35.314  30.826  28.365  1.00  0.00     0.023 C 
BRANCH  23  24
ATOM     24  C   UNL A   1      34.213  31.732  27.852  1.00  0.00     0.023 C 
BRANCH  24  25
ATOM     25  C   UNL A   1      34.587  33.201  27.920  1.00  0.00     0.116 C 
BRANCH  25  26
ATOM     26  N   UNL A   1      33.540  34.052  28.476  1.00  0.00    -0.352 N 
ATOM     27  C   UNL A   1      33.444  34.486  29.781  1.00  0.00     0.251 C 
ATOM     28  H   UNL A   1      32.832  34.344  27.858  1.00  0.00     0.163 HD
ATOM     29  O   UNL A   1      32.485  35.130  30.184  1.00  0.00    -0.269 OA
BRANCH  27  30
ATOM     30  C   UNL A   1      34.540  34.109  30.695  1.00  0.00     0.039 A 
ATOM     31  C   UNL A   1      34.407  32.972  31.492  1.00  0.00     0.014 A 
ATOM     32  C   UNL A   1      35.756  34.789  30.606  1.00  0.00     0.014 A 
ATOM     33  C   UNL A   1      35.530  32.468  32.151  1.00  0.00     0.010 A 
ATOM     34  C   UNL A   1      36.888  34.225  31.175  1.00  0.00     0.010 A 
ATOM     35  C   UNL A   1      36.787  33.065  31.961  1.00  0.00    -0.014 A 
BRANCH  35  36
ATOM     36  C   UNL A   1      38.019  32.540  32.602  1.00  0.00     0.031 A 
ATOM     37  C   UNL A   1      38.784  31.443  31.910  1.00  0.00     0.074 A 
ATOM     38  C   UNL A   1      38.394  32.961  33.828  1.00  0.00     0.049 A 
ATOM     39  N   UNL A   1      39.776  30.717  32.356  1.00  0.00    -0.248 NA
ATOM     40  C   UNL A   1      38.342  31.087  30.550  1.00  0.00     0.031 C 
ATOM     41  C   UNL A   1      37.723  33.998  34.616  1.00  0.00     0.029 A 
ATOM     42  N   UNL A   1      39.428  32.552  34.633  1.00  0.00    -0.354 N 
ATOM     43  C   UNL A   1      40.047  29.799  31.348  1.00  0.00     0.074 A 
ATOM     44  C   UNL A   1      39.081  30.019  30.297  1.00  0.00     0.031 C 
ATOM     45  C   UNL A   1      38.376  34.157  35.780  1.00  0.00     0.029 A 
ATOM     46  C   UNL A   1      39.477  33.201  35.845  1.00  0.00     0.049 A 
ATOM     47  H   UNL A   1      40.074  31.858  34.368  1.00  0.00     0.167 HD
ATOM     48  C   UNL A   1      41.029  28.870  31.292  1.00  0.00     0.031 A 
ATOM     49  C   UNL A   1      40.306  33.033  36.896  1.00  0.00     0.031 A 
ATOM     50  C   UNL A   1      42.007  28.678  32.327  1.00  0.00     0.049 A 
ATOM     51  C   UNL A   1      41.389  31.989  36.814  1.00  0.00     0.074 A 
ATOM     52  C   UNL A   1      43.077  27.802  32.344  1.00  0.00     0.029 A 
ATOM     53  N   UNL A   1      42.040  29.379  33.521  1.00  0.00    -0.354 N 
ATOM     54  N   UNL A   1      41.660  31.157  35.835  1.00  0.00    -0.248 NA
ATOM     55  C   UNL A   1      42.287  31.868  37.971  1.00  0.00     0.031 C 
ATOM     56  C   UNL A   1      43.728  27.938  33.572  1.00  0.00     0.029 A 
ATOM     57  C   UNL A   1      43.104  28.946  34.292  1.00  0.00     0.049 A 
ATOM     58  H   UNL A   1      41.401  30.082  33.783  1.00  0.00     0.167 HD
ATOM     59  C   UNL A   1      42.783  30.445  36.243  1.00  0.00     0.074 A 
ATOM     60  C   UNL A   1      43.142  30.943  37.554  1.00  0.00     0.031 C 
ATOM     61  C   UNL A   1      43.460  29.471  35.585  1.00  0.00     0.031 A 
BRANCH  48  62
ATOM     62  C   UNL A   1      41.084  27.990  30.071  1.00  0.00    -0.014 A 
ATOM     63  C   UNL A   1      40.026  27.118  29.753  1.00  0.00     0.010 A 
ATOM     64  C   UNL A   1      42.199  28.051  29.218  1.00  0.00     0.010 A 
ATOM     65  C   UNL A   1      40.103  26.289  28.632  1.00  0.00     0.020 A 
ATOM     66  C   UNL A   1      42.265  27.248  28.076  1.00  0.00     0.020 A 
ATOM     67  C   UNL A   1      41.226  26.358  27.801  1.00  0.00     0.054 A 
BRANCH  67  68
ATOM     68  S   UNL A   1      41.291  25.284  26.342  1.00  0.00     0.124 S 
ATOM     69  O   UNL A   1      42.551  24.573  26.549  1.00  0.00    -0.237 OA
ATOM     70  O   UNL A   1      40.083  24.475  26.486  1.00  0.00    -0.237 OA
ATOM     71  O   UNL A   1      41.282  26.220  25.221  1.00  0.00    -0.744 OA
ENDBRANCH  67  68
ENDBRANCH  48  62
BRANCH  49  72
ATOM     72  C   UNL A   1      40.156  33.883  38.112  1.00  0.00    -0.014 A 
ATOM     73  C   UNL A   1      39.314  33.481  39.163  1.00  0.00     0.010 A 
ATOM     74  C   UNL A   1      40.859  35.097  38.228  1.00  0.00     0.010 A 
ATOM     75  C   UNL A   1      39.159  34.285  40.297  1.00  0.00     0.020 A 
ATOM     76  C   UNL A   1      40.729  35.889  39.373  1.00  0.00     0.020 A 
ATOM     77  C   UNL A   1      39.871  35.483  40.396  1.00  0.00     0.054 A 
BRANCH  77  78
ATOM     78  S   UNL A   1      39.689  36.486  41.897  1.00  0.00     0.124 S 
ATOM     79  O   UNL A   1      40.966  36.261  42.568  1.00  0.00    -0.237 OA
ATOM     80  O   UNL A   1      39.485  37.828  41.356  1.00  0.00    -0.237 OA
ATOM     81  O   UNL A   1      38.523  35.905  42.558  1.00  0.00    -0.744 OA
ENDBRANCH  77  78
ENDBRANCH  49  72
BRANCH  61  82
ATOM     82  C   UNL A   1      44.703  28.920  36.230  1.00  0.00    -0.014 A 
ATOM     83  C   UNL A   1      44.663  27.780  37.052  1.00  0.00     0.010 A 
ATOM     84  C   UNL A   1      45.948  29.502  35.921  1.00  0.00     0.010 A 
ATOM     85  C   UNL A   1      45.847  27.241  37.565  1.00  0.00     0.020 A 
ATOM     86  C   UNL A   1      47.134  28.949  36.408  1.00  0.00     0.020 A 
ATOM     87  C   UNL A   1      47.075  27.825  37.235  1.00  0.00     0.054 A 
BRANCH  87  88
ATOM     88  S   UNL A   1      48.600  27.060  37.850  1.00  0.00     0.124 S 
ATOM     89  O   UNL A   1      48.937  27.921  38.979  1.00  0.00    -0.237 OA
ATOM     90  O   UNL A   1      48.163  25.710  38.196  1.00  0.00    -0.237 OA
ATOM     91  O   UNL A   1      49.512  27.140  36.711  1.00  0.00    -0.744 OA
ENDBRANCH  87  88
ENDBRANCH  61  82
ENDBRANCH  35  36
ENDBRANCH  27  30
ENDBRANCH  25  26
ENDBRANCH  24  25
ENDBRANCH  23  24
ENDBRANCH   1  23
TORSDOF 19
ENDMDL
MODEL 2
REMARK VINA RESULT:      -9.1      2.502      3.678
REMARK SMILES CN(CCCC(=O)NCCCCNC(=O)c1ccc(-c2c3nc(c(-c4ccc(S(=O)(=O)[O-])cc4)c4ccc([nH]4)c(-c4ccc(S(=O)(=O)[O-])cc4)c4nc(c(-c5ccc(S(=O)(=O)[O-])cc5)c5ccc2[nH]5)C=C4)C=C3)cc1)c1cccc(F)c1C(N)=O
REMARK SMILES IDX 9 1 8 2 6 3 7 4 5 6 4 7 3 8 2 9 1 10 76 11 77 12 82 13 78 14
REMARK SMILES IDX 80 15 79 16 81 17 83 18 84 19 85 20 10 23 11 24 12 25 13 26
REMARK SMILES IDX 14 27 15 29 16 30 17 31 75 32 18 33 74 34 19 35 20 36 21 37
REMARK SMILES IDX 68 38 22 39 73 40 67 41 69 42 23 43 72 44 66 45 65 46 24 48
REMARK SMILES IDX 54 49 35 50 53 51 36 52 39 53 52 54 70 55 37 56 38 57 51 59
REMARK SMILES IDX 71 60 40 61 25 62 26 63 34 64 27 65 33 66 28 67 29 68 30 69
REMARK SMILES IDX 31 70 32 71 55 72 56 73 64 74 57 75 63 76 58 77 59 78 60 79
REMARK SMILES IDX 61 80 62 81 41 82 42 83 50 84 43 85 49 86 44 87 45 88 46 89
REMARK SMILES IDX 47 90 48 91
REMARK H PARENT 8 5 84 21 84 22 13 28 69 47 39 58
REMARK Flexibility Score: inf
ROOT
ATOM      1  C   UNL A   1      32.063  30.033  25.727  1.00  0.00     0.116 C 
ENDROOT
BRANCH   1   2
ATOM      2  N   UNL A   1      31.180  29.977  24.588  1.00  0.00    -0.356 N 
ATOM      3  C   UNL A   1      30.896  28.913  23.788  1.00  0.00     0.220 C 
ATOM      4  O   UNL A   1      30.219  29.105  22.777  1.00  0.00    -0.275 OA
ATOM      5  H   UNL A   1      30.723  30.818  24.361  1.00  0.00     0.163 HD
BRANCH   3   6
ATOM      6  C   UNL A   1      31.297  27.509  24.204  1.00  0.00     0.102 C 
BRANCH   6   7
ATOM      7  C   UNL A   1      32.302  26.714  23.361  1.00  0.00     0.031 C 
BRANCH   7   8
ATOM      8  C   UNL A   1      32.336  25.178  23.333  1.00  0.00     0.117 C 
BRANCH   8   9
ATOM      9  N   UNL A   1      32.446  24.377  24.590  1.00  0.00    -0.374 N 
ATOM     10  C   UNL A   1      31.143  23.913  25.078  1.00  0.00     0.143 C 
BRANCH   9  11
ATOM     11  C   UNL A   1      33.590  23.625  24.882  1.00  0.00     0.052 A 
ATOM     12  C   UNL A   1      34.653  24.388  25.424  1.00  0.00     0.027 A 
ATOM     13  C   UNL A   1      33.847  22.231  24.690  1.00  0.00     0.098 A 
ATOM     14  C   UNL A   1      35.956  23.907  25.561  1.00  0.00     0.005 A 
ATOM     15  C   UNL A   1      35.183  21.776  24.823  1.00  0.00     0.138 A 
ATOM     16  C   UNL A   1      36.230  22.602  25.213  1.00  0.00     0.040 A 
ATOM     17  F   UNL A   1      35.523  20.506  24.541  1.00  0.00    -0.206 F 
BRANCH  13  18
ATOM     18  C   UNL A   1      32.825  21.178  24.323  1.00  0.00     0.253 C 
ATOM     19  N   UNL A   1      32.324  20.383  25.330  1.00  0.00    -0.365 N 
ATOM     20  O   UNL A   1      32.405  20.980  23.200  1.00  0.00    -0.269 OA
ATOM     21  H   UNL A   1      32.634  20.508  26.256  1.00  0.00     0.159 HD
ATOM     22  H   UNL A   1      31.654  19.692  25.123  1.00  0.00     0.159 HD
ENDBRANCH  13  18
ENDBRANCH   9  11
ENDBRANCH   8   9
ENDBRANCH   7   8
ENDBRANCH   6   7
ENDBRANCH   3   6
ENDBRANCH   1   2
BRANCH   1  23
ATOM     23  C   UNL A   1      31.475  30.931  26.816  1.00  0.00     0.023 C 
BRANCH  23  24
ATOM     24  C   UNL A   1      31.708  32.408  26.567  1.00  0.00     0.023 C 
BRANCH  24  25
ATOM     25  C   UNL A   1      32.886  32.953  27.353  1.00  0.00     0.116 C 
BRANCH  25  26
ATOM     26  N   UNL A   1      32.653  34.275  27.926  1.00  0.00    -0.352 N 
ATOM     27  C   UNL A   1      33.379  34.871  28.934  1.00  0.00     0.251 C 
ATOM     28  H   UNL A   1      31.901  34.791  27.555  1.00  0.00     0.163 HD
ATOM     29  O   UNL A   1      33.063  35.951  29.413  1.00  0.00    -0.269 OA
BRANCH  27  30
ATOM     30  C   UNL A   1      34.550  34.131  29.444  1.00  0.00     0.039 A 
ATOM     31  C   UNL A   1      35.815  34.408  28.926  1.00  0.00     0.014 A 
ATOM     32  C   UNL A   1      34.393  33.310  30.563  1.00  0.00     0.014 A 
ATOM     33  C   UNL A   1      36.943  33.911  29.582  1.00  0.00     0.010 A 
ATOM     34  C   UNL A   1      35.516  32.909  31.269  1.00  0.00     0.010 A 
ATOM     35  C   UNL A   1      36.803  33.197  30.783  1.00  0.00    -0.014 A 
BRANCH  35  36
ATOM     36  C   UNL A   1      37.973  32.687  31.544  1.00  0.00     0.031 A 
ATOM     37  C   UNL A   1      38.682  31.458  31.042  1.00  0.00     0.074 A 
ATOM     38  C   UNL A   1      38.333  33.249  32.716  1.00  0.00     0.049 A 
ATOM     39  N   UNL A   1      39.604  30.739  31.625  1.00  0.00    -0.248 NA
ATOM     40  C   UNL A   1      38.264  30.946  29.724  1.00  0.00     0.031 C 
ATOM     41  C   UNL A   1      37.710  34.427  33.325  1.00  0.00     0.029 A 
ATOM     42  N   UNL A   1      39.307  32.890  33.614  1.00  0.00    -0.354 N 
ATOM     43  C   UNL A   1      39.846  29.674  30.765  1.00  0.00     0.074 A 
ATOM     44  C   UNL A   1      38.934  29.808  29.652  1.00  0.00     0.031 C 
ATOM     45  C   UNL A   1      38.331  34.703  34.484  1.00  0.00     0.029 A 
ATOM     46  C   UNL A   1      39.360  33.696  34.727  1.00  0.00     0.049 A 
ATOM     47  H   UNL A   1      39.912  32.126  33.474  1.00  0.00     0.167 HD
ATOM     48  C   UNL A   1      40.762  28.684  30.879  1.00  0.00     0.031 A 
ATOM     49  C   UNL A   1      40.137  33.623  35.826  1.00  0.00     0.031 A 
ATOM     50  C   UNL A   1      41.687  28.575  31.972  1.00  0.00     0.049 A 
ATOM     51  C   UNL A   1      41.148  32.510  35.935  1.00  0.00     0.074 A 
ATOM     52  C   UNL A   1      42.692  27.643  32.155  1.00  0.00     0.029 A 
ATOM     53  N   UNL A   1      41.728  29.432  33.060  1.00  0.00    -0.354 N 
ATOM     54  N   UNL A   1      41.393  31.534  35.092  1.00  0.00    -0.248 NA
ATOM     55  C   UNL A   1      41.994  32.492  37.136  1.00  0.00     0.031 C 
ATOM     56  C   UNL A   1      43.308  27.906  33.381  1.00  0.00     0.029 A 
ATOM     57  C   UNL A   1      42.732  29.042  33.929  1.00  0.00     0.049 A 
ATOM     58  H   UNL A   1      41.131  30.204  33.196  1.00  0.00     0.167 HD
ATOM     59  C   UNL A   1      42.448  30.814  35.641  1.00  0.00     0.074 A 
ATOM     60  C   UNL A   1      42.796  31.466  36.887  1.00  0.00     0.031 C 
ATOM     61  C   UNL A   1      43.079  29.717  35.153  1.00  0.00     0.031 A 
BRANCH  48  62
ATOM     62  C   UNL A   1      40.797  27.642  29.793  1.00  0.00    -0.014 A 
ATOM     63  C   UNL A   1      41.908  27.516  28.938  1.00  0.00     0.010 A 
ATOM     64  C   UNL A   1      39.714  26.759  29.638  1.00  0.00     0.010 A 
ATOM     65  C   UNL A   1      41.914  26.562  27.919  1.00  0.00     0.020 A 
ATOM     66  C   UNL A   1      39.730  25.780  28.642  1.00  0.00     0.020 A 
ATOM     67  C   UNL A   1      40.822  25.700  27.776  1.00  0.00     0.054 A 
BRANCH  67  68
ATOM     68  S   UNL A   1      40.865  24.458  26.456  1.00  0.00     0.124 S 
ATOM     69  O   UNL A   1      41.658  25.135  25.433  1.00  0.00    -0.237 OA
ATOM     70  O   UNL A   1      41.518  23.324  27.106  1.00  0.00    -0.237 OA
ATOM     71  O   UNL A   1      39.458  24.257  26.122  1.00  0.00    -0.744 OA
ENDBRANCH  67  68
ENDBRANCH  48  62
BRANCH  49  72
ATOM     72  C   UNL A   1      40.006  34.641  36.908  1.00  0.00    -0.014 A 
ATOM     73  C   UNL A   1      39.113  34.436  37.975  1.00  0.00     0.010 A 
ATOM     74  C   UNL A   1      40.775  35.819  36.880  1.00  0.00     0.010 A 
ATOM     75  C   UNL A   1      38.976  35.398  38.981  1.00  0.00     0.020 A 
ATOM     76  C   UNL A   1      40.662  36.769  37.900  1.00  0.00     0.020 A 
ATOM     77  C   UNL A   1      39.754  36.557  38.938  1.00  0.00     0.054 A 
BRANCH  77  78
ATOM     78  S   UNL A   1      39.591  37.768  40.280  1.00  0.00     0.124 S 
ATOM     79  O   UNL A   1      40.626  38.740  39.938  1.00  0.00    -0.237 OA
ATOM     80  O   UNL A   1      38.213  38.229  40.123  1.00  0.00    -0.237 OA
ATOM     81  O   UNL A   1      39.844  36.981  41.484  1.00  0.00    -0.744 OA
ENDBRANCH  77  78
ENDBRANCH  49  72
BRANCH  61  82
ATOM     82  C   UNL A   1      44.257  29.182  35.921  1.00  0.00    -0.014 A 
ATOM     83  C   UNL A   1      45.532  29.761  35.812  1.00  0.00     0.010 A 
ATOM     84  C   UNL A   1      44.051  28.139  36.846  1.00  0.00     0.010 A 
ATOM     85  C   UNL A   1      46.586  29.296  36.605  1.00  0.00     0.020 A 
ATOM     86  C   UNL A   1      45.094  27.693  37.659  1.00  0.00     0.020 A 
ATOM     87  C   UNL A   1      46.359  28.270  37.528  1.00  0.00     0.054 A 
BRANCH  87  88
ATOM     88  S   UNL A   1      47.723  27.739  38.599  1.00  0.00     0.124 S 
ATOM     89  O   UNL A   1      47.133  26.605  39.303  1.00  0.00    -0.237 OA
ATOM     90  O   UNL A   1      48.772  27.407  37.639  1.00  0.00    -0.237 OA
ATOM     91  O   UNL A   1      47.993  28.914  39.425  1.00  0.00    -0.744 OA
ENDBRANCH  87  88
ENDBRANCH  61  82
ENDBRANCH  35  36
ENDBRANCH  27  30
ENDBRANCH  25  26
ENDBRANCH  24  25
ENDBRANCH  23  24
ENDBRANCH   1  23
TORSDOF 19
ENDMDL
MODEL 3
REMARK VINA RESULT:      -8.6      6.487     11.497
REMARK SMILES CN(CCCC(=O)NCCCCNC(=O)c1ccc(-c2c3nc(c(-c4ccc(S(=O)(=O)[O-])cc4)c4ccc([nH]4)c(-c4ccc(S(=O)(=O)[O-])cc4)c4nc(c(-c5ccc(S(=O)(=O)[O-])cc5)c5ccc2[nH]5)C=C4)C=C3)cc1)c1cccc(F)c1C(N)=O
REMARK SMILES IDX 9 1 8 2 6 3 7 4 5 6 4 7 3 8 2 9 1 10 76 11 77 12 82 13 78 14
REMARK SMILES IDX 80 15 79 16 81 17 83 18 84 19 85 20 10 23 11 24 12 25 13 26
REMARK SMILES IDX 14 27 15 29 16 30 17 31 75 32 18 33 74 34 19 35 20 36 21 37
REMARK SMILES IDX 68 38 22 39 73 40 67 41 69 42 23 43 72 44 66 45 65 46 24 48
REMARK SMILES IDX 54 49 35 50 53 51 36 52 39 53 52 54 70 55 37 56 38 57 51 59
REMARK SMILES IDX 71 60 40 61 25 62 26 63 34 64 27 65 33 66 28 67 29 68 30 69
REMARK SMILES IDX 31 70 32 71 55 72 56 73 64 74 57 75 63 76 58 77 59 78 60 79
REMARK SMILES IDX 61 80 62 81 41 82 42 83 50 84 43 85 49 86 44 87 45 88 46 89
REMARK SMILES IDX 47 90 48 91
REMARK H PARENT 8 5 84 21 84 22 13 28 69 47 39 58
REMARK Flexibility Score: inf
ROOT
ATOM      1  C   UNL A   1      35.951  32.909  30.448  1.00  0.00     0.116 C 
ENDROOT
BRANCH   1   2
ATOM      2  N   UNL A   1      34.909  33.678  29.814  1.00  0.00    -0.356 N 
ATOM      3  C   UNL A   1      34.107  33.322  28.773  1.00  0.00     0.220 C 
ATOM      4  O   UNL A   1      33.368  34.177  28.284  1.00  0.00    -0.275 OA
ATOM      5  H   UNL A   1      34.759  34.579  30.181  1.00  0.00     0.163 HD
BRANCH   3   6
ATOM      6  C   UNL A   1      34.035  31.875  28.318  1.00  0.00     0.102 C 
BRANCH   6   7
ATOM      7  C   UNL A   1      33.192  31.494  27.094  1.00  0.00     0.031 C 
BRANCH   7   8
ATOM      8  C   UNL A   1      32.408  30.176  26.999  1.00  0.00     0.117 C 
BRANCH   8   9
ATOM      9  N   UNL A   1      32.539  29.274  25.816  1.00  0.00    -0.374 N 
ATOM     10  C   UNL A   1      33.937  28.963  25.496  1.00  0.00     0.143 C 
BRANCH   9  11
ATOM     11  C   UNL A   1      31.543  28.346  25.487  1.00  0.00     0.052 A 
ATOM     12  C   UNL A   1      31.405  27.297  26.430  1.00  0.00     0.027 A 
ATOM     13  C   UNL A   1      30.681  28.288  24.347  1.00  0.00     0.098 A 
ATOM     14  C   UNL A   1      30.658  26.142  26.193  1.00  0.00     0.005 A 
ATOM     15  C   UNL A   1      29.947  27.097  24.127  1.00  0.00     0.138 A 
ATOM     16  C   UNL A   1      29.961  26.024  25.011  1.00  0.00     0.040 A 
ATOM     17  F   UNL A   1      29.210  26.922  23.017  1.00  0.00    -0.206 F 
BRANCH  13  18
ATOM     18  C   UNL A   1      30.493  29.379  23.316  1.00  0.00     0.253 C 
ATOM     19  N   UNL A   1      29.554  30.354  23.567  1.00  0.00    -0.365 N 
ATOM     20  O   UNL A   1      31.115  29.465  22.275  1.00  0.00    -0.269 OA
ATOM     21  H   UNL A   1      29.026  30.325  24.398  1.00  0.00     0.159 HD
ATOM     22  H   UNL A   1      29.410  31.079  22.917  1.00  0.00     0.159 HD
ENDBRANCH  13  18
ENDBRANCH   9  11
ENDBRANCH   8   9
ENDBRANCH   7   8
ENDBRANCH   6   7
ENDBRANCH   3   6
ENDBRANCH   1   2
BRANCH   1  23
ATOM     23  C   UNL A   1      37.249  33.001  29.644  1.00  0.00     0.023 C 
BRANCH  23  24
ATOM     24  C   UNL A   1      38.334  32.069  30.145  1.00  0.00     0.023 C 
BRANCH  24  25
ATOM     25  C   UNL A   1      37.777  30.775  30.709  1.00  0.00     0.116 C 
BRANCH  25  26
ATOM     26  N   UNL A   1      36.686  30.209  29.921  1.00  0.00    -0.352 N 
ATOM     27  C   UNL A   1      36.810  29.378  28.829  1.00  0.00     0.251 C 
ATOM     28  H   UNL A   1      35.772  30.445  30.197  1.00  0.00     0.163 HD
ATOM     29  O   UNL A   1      35.842  29.015  28.173  1.00  0.00    -0.269 OA
BRANCH  27  30
ATOM     30  C   UNL A   1      38.176  28.964  28.452  1.00  0.00     0.039 A 
ATOM     31  C   UNL A   1      38.742  29.457  27.277  1.00  0.00     0.014 A 
ATOM     32  C   UNL A   1      38.938  28.239  29.372  1.00  0.00     0.014 A 
ATOM     33  C   UNL A   1      40.110  29.284  27.056  1.00  0.00     0.010 A 
ATOM     34  C   UNL A   1      40.311  28.164  29.198  1.00  0.00     0.010 A 
ATOM     35  C   UNL A   1      40.912  28.676  28.036  1.00  0.00    -0.014 A 
BRANCH  35  36
ATOM     36  C   UNL A   1      42.378  28.509  27.869  1.00  0.00     0.031 A 
ATOM     37  C   UNL A   1      43.276  29.686  28.145  1.00  0.00     0.074 A 
ATOM     38  C   UNL A   1      42.892  27.361  27.383  1.00  0.00     0.049 A 
ATOM     39  N   UNL A   1      44.553  29.828  27.903  1.00  0.00    -0.248 NA
ATOM     40  C   UNL A   1      42.639  30.879  28.731  1.00  0.00     0.031 C 
ATOM     41  C   UNL A   1      42.128  26.156  27.050  1.00  0.00     0.029 A 
ATOM     42  N   UNL A   1      44.186  27.027  27.068  1.00  0.00    -0.354 N 
ATOM     43  C   UNL A   1      44.859  31.132  28.270  1.00  0.00     0.074 A 
ATOM     44  C   UNL A   1      43.628  31.758  28.694  1.00  0.00     0.031 C 
ATOM     45  C   UNL A   1      42.969  25.211  26.599  1.00  0.00     0.029 A 
ATOM     46  C   UNL A   1      44.324  25.756  26.560  1.00  0.00     0.049 A 
ATOM     47  H   UNL A   1      44.946  27.641  27.193  1.00  0.00     0.167 HD
ATOM     48  C   UNL A   1      46.063  31.750  28.278  1.00  0.00     0.031 A 
ATOM     49  C   UNL A   1      45.414  25.109  26.101  1.00  0.00     0.031 A 
ATOM     50  C   UNL A   1      47.289  31.112  27.886  1.00  0.00     0.049 A 
ATOM     51  C   UNL A   1      46.744  25.816  26.113  1.00  0.00     0.074 A 
ATOM     52  C   UNL A   1      48.571  31.630  27.908  1.00  0.00     0.029 A 
ATOM     53  N   UNL A   1      47.387  29.813  27.411  1.00  0.00    -0.354 N 
ATOM     54  N   UNL A   1      47.025  27.037  26.505  1.00  0.00    -0.248 NA
ATOM     55  C   UNL A   1      47.908  25.057  25.633  1.00  0.00     0.031 C 
ATOM     56  C   UNL A   1      49.439  30.661  27.399  1.00  0.00     0.029 A 
ATOM     57  C   UNL A   1      48.707  29.517  27.121  1.00  0.00     0.049 A 
ATOM     58  H   UNL A   1      46.630  29.194  27.296  1.00  0.00     0.167 HD
ATOM     59  C   UNL A   1      48.401  27.176  26.357  1.00  0.00     0.074 A 
ATOM     60  C   UNL A   1      48.896  25.916  25.843  1.00  0.00     0.031 C 
ATOM     61  C   UNL A   1      49.184  28.248  26.633  1.00  0.00     0.031 A 
BRANCH  48  62
ATOM     62  C   UNL A   1      46.104  33.189  28.718  1.00  0.00    -0.014 A 
ATOM     63  C   UNL A   1      46.497  33.541  30.023  1.00  0.00     0.010 A 
ATOM     64  C   UNL A   1      45.767  34.206  27.809  1.00  0.00     0.010 A 
ATOM     65  C   UNL A   1      46.504  34.878  30.425  1.00  0.00     0.020 A 
ATOM     66  C   UNL A   1      45.806  35.548  28.196  1.00  0.00     0.020 A 
ATOM     67  C   UNL A   1      46.155  35.874  29.507  1.00  0.00     0.054 A 
BRANCH  67  68
ATOM     68  S   UNL A   1      46.192  37.604  30.050  1.00  0.00     0.124 S 
ATOM     69  O   UNL A   1      47.092  37.539  31.199  1.00  0.00    -0.237 OA
ATOM     70  O   UNL A   1      46.721  38.296  28.877  1.00  0.00    -0.237 OA
ATOM     71  O   UNL A   1      44.797  37.897  30.368  1.00  0.00    -0.744 OA
ENDBRANCH  67  68
ENDBRANCH  48  62
BRANCH  49  72
ATOM     72  C   UNL A   1      45.300  23.708  25.604  1.00  0.00    -0.014 A 
ATOM     73  C   UNL A   1      45.243  22.633  26.509  1.00  0.00     0.010 A 
ATOM     74  C   UNL A   1      45.244  23.440  24.223  1.00  0.00     0.010 A 
ATOM     75  C   UNL A   1      45.154  21.317  26.044  1.00  0.00     0.020 A 
ATOM     76  C   UNL A   1      45.126  22.127  23.756  1.00  0.00     0.020 A 
ATOM     77  C   UNL A   1      45.093  21.072  24.670  1.00  0.00     0.054 A 
BRANCH  77  78
ATOM     78  S   UNL A   1      44.931  19.360  24.093  1.00  0.00     0.124 S 
ATOM     79  O   UNL A   1      46.318  18.905  24.097  1.00  0.00    -0.237 OA
ATOM     80  O   UNL A   1      44.067  18.765  25.111  1.00  0.00    -0.237 OA
ATOM     81  O   UNL A   1      44.321  19.499  22.773  1.00  0.00    -0.744 OA
ENDBRANCH  77  78
ENDBRANCH  49  72
BRANCH  61  82
ATOM     82  C   UNL A   1      50.671  28.098  26.454  1.00  0.00    -0.014 A 
ATOM     83  C   UNL A   1      51.309  28.452  25.253  1.00  0.00     0.010 A 
ATOM     84  C   UNL A   1      51.452  27.688  27.552  1.00  0.00     0.010 A 
ATOM     85  C   UNL A   1      52.701  28.384  25.149  1.00  0.00     0.020 A 
ATOM     86  C   UNL A   1      52.844  27.646  27.461  1.00  0.00     0.020 A 
ATOM     87  C   UNL A   1      53.460  27.988  26.255  1.00  0.00     0.054 A 
BRANCH  87  88
ATOM     88  S   UNL A   1      55.269  27.982  26.117  1.00  0.00     0.124 S 
ATOM     89  O   UNL A   1      55.467  28.298  24.706  1.00  0.00    -0.237 OA
ATOM     90  O   UNL A   1      55.664  29.028  27.057  1.00  0.00    -0.237 OA
ATOM     91  O   UNL A   1      55.643  26.625  26.511  1.00  0.00    -0.744 OA
ENDBRANCH  87  88
ENDBRANCH  61  82
ENDBRANCH  35  36
ENDBRANCH  27  30
ENDBRANCH  25  26
ENDBRANCH  24  25
ENDBRANCH  23  24
ENDBRANCH   1  23
TORSDOF 19
ENDMDL
