MODEL 1
REMARK VINA RESULT:     -11.8      0.000      0.000
REMARK SMILES CC1(C)[C@@H](C(=O)NCCCCNC(=O)c2ccc(-c3c4nc(c(-c5ccc(S(=O)(=O)[O-])cc5)c5ccc([nH]5)c(-c5ccc(S(=O)(=O)[O-])cc5)c5nc(c(-c6ccc(S(=O)(=O)[O-])cc6)c6ccc3[nH]6)C=C5)C=C4)cc2)[C@@H]1C(=O)NCCc1ccc(S(N)(=O)=O)cc1
REMARK SMILES IDX 8 1 7 2 5 3 6 4 4 6 1 7 2 8 3 9 75 10 76 11 77 12 78 13
REMARK SMILES IDX 79 15 80 16 81 17 82 18 90 19 83 20 89 21 84 22 85 23 87 24
REMARK SMILES IDX 88 25 86 26 9 29 10 30 11 31 12 32 13 33 14 35 15 36 16 37
REMARK SMILES IDX 74 38 17 39 73 40 18 41 19 42 20 43 67 44 21 45 72 46 66 47
REMARK SMILES IDX 68 48 22 49 71 50 65 51 64 52 23 54 53 55 34 56 52 57 35 58
REMARK SMILES IDX 38 59 51 60 69 61 36 62 37 63 50 65 70 66 39 67 24 68 25 69
REMARK SMILES IDX 33 70 26 71 32 72 27 73 28 74 29 75 30 76 31 77 54 78 55 79
REMARK SMILES IDX 63 80 56 81 62 82 57 83 58 84 59 85 60 86 61 87 40 88 41 89
REMARK SMILES IDX 49 90 42 91 48 92 43 93 44 94 45 95 46 96 47 97
REMARK H PARENT 7 5 78 14 86 27 86 28 12 34 68 53 38 64
REMARK Flexibility Score: inf
ROOT
ATOM      1  C   UNL A   1      33.332  28.934  22.984  1.00  0.00     0.116 C 
ENDROOT
BRANCH   1   2
ATOM      2  N   UNL A   1      31.904  29.083  22.801  1.00  0.00    -0.356 N 
ATOM      3  C   UNL A   1      30.936  28.149  22.545  1.00  0.00     0.224 C 
ATOM      4  O   UNL A   1      29.771  28.508  22.409  1.00  0.00    -0.275 OA
ATOM      5  H   UNL A   1      31.574  30.008  22.872  1.00  0.00     0.163 HD
BRANCH   3   6
ATOM      6  C   UNL A   1      31.274  26.711  22.374  1.00  0.00     0.098 C 
ATOM      7  C   UNL A   1      30.751  26.290  24.892  1.00  0.00     0.013 C 
ATOM      8  C   UNL A   1      31.130  25.739  23.538  1.00  0.00    -0.011 C 
ATOM      9  C   UNL A   1      30.503  24.397  23.242  1.00  0.00     0.013 C 
ATOM     10  C   UNL A   1      32.507  26.072  22.969  1.00  0.00     0.098 C 
BRANCH  10  11
ATOM     11  C   UNL A   1      33.322  25.025  22.298  1.00  0.00     0.224 C 
ATOM     12  O   UNL A   1      33.198  24.871  21.086  1.00  0.00    -0.275 OA
ATOM     13  N   UNL A   1      34.164  24.191  22.984  1.00  0.00    -0.355 N 
ATOM     14  H   UNL A   1      34.649  23.557  22.407  1.00  0.00     0.163 HD
BRANCH  13  15
ATOM     15  C   UNL A   1      34.486  24.059  24.398  1.00  0.00     0.120 C 
BRANCH  15  16
ATOM     16  C   UNL A   1      33.453  23.244  25.174  1.00  0.00     0.056 C 
BRANCH  16  17
ATOM     17  C   UNL A   1      33.475  21.760  24.930  1.00  0.00    -0.046 A 
ATOM     18  C   UNL A   1      34.652  21.027  25.121  1.00  0.00     0.005 A 
ATOM     19  C   UNL A   1      32.327  21.119  24.438  1.00  0.00     0.005 A 
ATOM     20  C   UNL A   1      34.687  19.669  24.810  1.00  0.00     0.022 A 
ATOM     21  C   UNL A   1      32.360  19.764  24.119  1.00  0.00     0.022 A 
ATOM     22  C   UNL A   1      33.545  19.049  24.299  1.00  0.00     0.082 A 
BRANCH  22  23
ATOM     23  S   UNL A   1      33.619  17.344  23.850  1.00  0.00     0.238 S 
ATOM     24  O   UNL A   1      33.327  17.225  22.440  1.00  0.00    -0.207 OA
ATOM     25  O   UNL A   1      34.777  16.731  24.458  1.00  0.00    -0.207 OA
BRANCH  23  26
ATOM     26  N   UNL A   1      32.295  16.710  24.664  1.00  0.00    -0.225 NA
ATOM     27  H   UNL A   1      32.045  15.810  24.256  1.00  0.00     0.137 HD
ATOM     28  H   UNL A   1      31.507  17.352  24.582  1.00  0.00     0.137 HD
ENDBRANCH  23  26
ENDBRANCH  22  23
ENDBRANCH  16  17
ENDBRANCH  15  16
ENDBRANCH  13  15
ENDBRANCH  10  11
ENDBRANCH   3   6
ENDBRANCH   1   2
BRANCH   1  29
ATOM     29  C   UNL A   1      33.710  28.639  24.431  1.00  0.00     0.023 C 
BRANCH  29  30
ATOM     30  C   UNL A   1      32.901  29.369  25.489  1.00  0.00     0.023 C 
BRANCH  30  31
ATOM     31  C   UNL A   1      33.459  29.261  26.901  1.00  0.00     0.116 C 
BRANCH  31  32
ATOM     32  N   UNL A   1      33.539  30.539  27.603  1.00  0.00    -0.352 N 
ATOM     33  C   UNL A   1      34.556  31.043  28.381  1.00  0.00     0.251 C 
ATOM     34  H   UNL A   1      32.752  31.123  27.506  1.00  0.00     0.163 HD
ATOM     35  O   UNL A   1      34.411  32.102  28.985  1.00  0.00    -0.269 OA
BRANCH  33  36
ATOM     36  C   UNL A   1      35.804  30.266  28.518  1.00  0.00     0.039 A 
ATOM     37  C   UNL A   1      36.663  30.162  27.422  1.00  0.00     0.014 A 
ATOM     38  C   UNL A   1      36.170  29.744  29.760  1.00  0.00     0.014 A 
ATOM     39  C   UNL A   1      37.947  29.646  27.607  1.00  0.00     0.010 A 
ATOM     40  C   UNL A   1      37.479  29.327  29.962  1.00  0.00     0.010 A 
ATOM     41  C   UNL A   1      38.388  29.296  28.893  1.00  0.00    -0.014 A 
BRANCH  41  42
ATOM     42  C   UNL A   1      39.807  28.949  29.166  1.00  0.00     0.031 A 
ATOM     43  C   UNL A   1      40.746  29.991  29.705  1.00  0.00     0.074 A 
ATOM     44  C   UNL A   1      40.269  27.728  28.828  1.00  0.00     0.049 A 
ATOM     45  N   UNL A   1      42.037  29.913  29.898  1.00  0.00    -0.248 NA
ATOM     46  C   UNL A   1      40.164  31.300  30.043  1.00  0.00     0.031 C 
ATOM     47  C   UNL A   1      39.466  26.642  28.260  1.00  0.00     0.029 A 
ATOM     48  N   UNL A   1      41.533  27.195  28.901  1.00  0.00    -0.354 N 
ATOM     49  C   UNL A   1      42.423  31.163  30.366  1.00  0.00     0.074 A 
ATOM     50  C   UNL A   1      41.241  31.996  30.374  1.00  0.00     0.031 C 
ATOM     51  C   UNL A   1      40.248  25.569  28.061  1.00  0.00     0.029 A 
ATOM     52  C   UNL A   1      41.619  25.905  28.434  1.00  0.00     0.049 A 
ATOM     53  H   UNL A   1      42.306  27.693  29.255  1.00  0.00     0.167 HD
ATOM     54  C   UNL A   1      43.649  31.575  30.770  1.00  0.00     0.031 A 
ATOM     55  C   UNL A   1      42.682  25.087  28.299  1.00  0.00     0.031 A 
ATOM     56  C   UNL A   1      44.821  30.742  30.755  1.00  0.00     0.049 A 
ATOM     57  C   UNL A   1      44.041  25.583  28.707  1.00  0.00     0.074 A 
ATOM     58  C   UNL A   1      46.097  31.047  31.196  1.00  0.00     0.029 A 
ATOM     59  N   UNL A   1      44.865  29.444  30.267  1.00  0.00    -0.354 N 
ATOM     60  N   UNL A   1      44.373  26.744  29.220  1.00  0.00    -0.248 NA
ATOM     61  C   UNL A   1      45.170  24.661  28.519  1.00  0.00     0.031 C 
ATOM     62  C   UNL A   1      46.927  29.959  30.913  1.00  0.00     0.029 A 
ATOM     63  C   UNL A   1      46.156  28.950  30.358  1.00  0.00     0.049 A 
ATOM     64  H   UNL A   1      44.094  28.949  29.910  1.00  0.00     0.167 HD
ATOM     65  C   UNL A   1      45.746  26.685  29.432  1.00  0.00     0.074 A 
ATOM     66  C   UNL A   1      46.179  25.368  29.011  1.00  0.00     0.031 C 
ATOM     67  C   UNL A   1      46.572  27.639  29.928  1.00  0.00     0.031 A 
BRANCH  54  68
ATOM     68  C   UNL A   1      43.781  32.997  31.247  1.00  0.00    -0.014 A 
ATOM     69  C   UNL A   1      43.562  33.336  32.595  1.00  0.00     0.010 A 
ATOM     70  C   UNL A   1      44.164  34.006  30.343  1.00  0.00     0.010 A 
ATOM     71  C   UNL A   1      43.674  34.663  33.019  1.00  0.00     0.020 A 
ATOM     72  C   UNL A   1      44.310  35.329  30.771  1.00  0.00     0.020 A 
ATOM     73  C   UNL A   1      44.046  35.651  32.103  1.00  0.00     0.054 A 
BRANCH  73  74
ATOM     74  S   UNL A   1      44.197  37.361  32.688  1.00  0.00     0.124 S 
ATOM     75  O   UNL A   1      43.838  38.120  31.493  1.00  0.00    -0.237 OA
ATOM     76  O   UNL A   1      43.227  37.412  33.779  1.00  0.00    -0.237 OA
ATOM     77  O   UNL A   1      45.596  37.467  33.096  1.00  0.00    -0.744 OA
ENDBRANCH  73  74
ENDBRANCH  54  68
BRANCH  55  78
ATOM     78  C   UNL A   1      42.499  23.714  27.750  1.00  0.00    -0.014 A 
ATOM     79  C   UNL A   1      42.571  23.485  26.365  1.00  0.00     0.010 A 
ATOM     80  C   UNL A   1      42.271  22.624  28.611  1.00  0.00     0.010 A 
ATOM     81  C   UNL A   1      42.410  22.194  25.850  1.00  0.00     0.020 A 
ATOM     82  C   UNL A   1      42.140  21.328  28.103  1.00  0.00     0.020 A 
ATOM     83  C   UNL A   1      42.202  21.124  26.723  1.00  0.00     0.054 A 
BRANCH  83  84
ATOM     84  S   UNL A   1      42.061  19.450  26.036  1.00  0.00     0.124 S 
ATOM     85  O   UNL A   1      40.633  19.358  25.750  1.00  0.00    -0.237 OA
ATOM     86  O   UNL A   1      42.938  19.516  24.870  1.00  0.00    -0.237 OA
ATOM     87  O   UNL A   1      42.541  18.594  27.119  1.00  0.00    -0.744 OA
ENDBRANCH  83  84
ENDBRANCH  55  78
BRANCH  67  88
ATOM     88  C   UNL A   1      48.033  27.296  30.057  1.00  0.00    -0.014 A 
ATOM     89  C   UNL A   1      48.959  27.691  29.076  1.00  0.00     0.010 A 
ATOM     90  C   UNL A   1      48.497  26.648  31.217  1.00  0.00     0.010 A 
ATOM     91  C   UNL A   1      50.321  27.435  29.248  1.00  0.00     0.020 A 
ATOM     92  C   UNL A   1      49.861  26.416  31.406  1.00  0.00     0.020 A 
ATOM     93  C   UNL A   1      50.765  26.807  30.417  1.00  0.00     0.054 A 
BRANCH  93  94
ATOM     94  S   UNL A   1      52.546  26.560  30.647  1.00  0.00     0.124 S 
ATOM     95  O   UNL A   1      52.983  27.880  31.094  1.00  0.00    -0.237 OA
ATOM     96  O   UNL A   1      52.594  25.506  31.658  1.00  0.00    -0.237 OA
ATOM     97  O   UNL A   1      53.017  26.165  29.321  1.00  0.00    -0.744 OA
ENDBRANCH  93  94
ENDBRANCH  67  88
ENDBRANCH  41  42
ENDBRANCH  33  36
ENDBRANCH  31  32
ENDBRANCH  30  31
ENDBRANCH  29  30
ENDBRANCH   1  29
TORSDOF 20
ENDMDL
MODEL 2
REMARK VINA RESULT:     -11.5      0.733      8.077
REMARK SMILES CC1(C)[C@@H](C(=O)NCCCCNC(=O)c2ccc(-c3c4nc(c(-c5ccc(S(=O)(=O)[O-])cc5)c5ccc([nH]5)c(-c5ccc(S(=O)(=O)[O-])cc5)c5nc(c(-c6ccc(S(=O)(=O)[O-])cc6)c6ccc3[nH]6)C=C5)C=C4)cc2)[C@@H]1C(=O)NCCc1ccc(S(N)(=O)=O)cc1
REMARK SMILES IDX 8 1 7 2 5 3 6 4 4 6 1 7 2 8 3 9 75 10 76 11 77 12 78 13
REMARK SMILES IDX 79 15 80 16 81 17 82 18 90 19 83 20 89 21 84 22 85 23 87 24
REMARK SMILES IDX 88 25 86 26 9 29 10 30 11 31 12 32 13 33 14 35 15 36 16 37
REMARK SMILES IDX 74 38 17 39 73 40 18 41 19 42 20 43 67 44 21 45 72 46 66 47
REMARK SMILES IDX 68 48 22 49 71 50 65 51 64 52 23 54 53 55 34 56 52 57 35 58
REMARK SMILES IDX 38 59 51 60 69 61 36 62 37 63 50 65 70 66 39 67 24 68 25 69
REMARK SMILES IDX 33 70 26 71 32 72 27 73 28 74 29 75 30 76 31 77 54 78 55 79
REMARK SMILES IDX 63 80 56 81 62 82 57 83 58 84 59 85 60 86 61 87 40 88 41 89
REMARK SMILES IDX 49 90 42 91 48 92 43 93 44 94 45 95 46 96 47 97
REMARK H PARENT 7 5 78 14 86 27 86 28 12 34 68 53 38 64
REMARK Flexibility Score: inf
ROOT
ATOM      1  C   UNL A   1      33.116  28.952  23.470  1.00  0.00     0.116 C 
ENDROOT
BRANCH   1   2
ATOM      2  N   UNL A   1      31.784  29.107  22.924  1.00  0.00    -0.356 N 
ATOM      3  C   UNL A   1      30.918  28.180  22.409  1.00  0.00     0.224 C 
ATOM      4  O   UNL A   1      29.828  28.544  21.980  1.00  0.00    -0.275 OA
ATOM      5  H   UNL A   1      31.446  30.032  22.922  1.00  0.00     0.163 HD
BRANCH   3   6
ATOM      6  C   UNL A   1      31.292  26.744  22.308  1.00  0.00     0.098 C 
ATOM      7  C   UNL A   1      30.641  26.400  24.808  1.00  0.00     0.013 C 
ATOM      8  C   UNL A   1      31.103  25.810  23.497  1.00  0.00    -0.011 C 
ATOM      9  C   UNL A   1      30.519  24.446  23.216  1.00  0.00     0.013 C 
ATOM     10  C   UNL A   1      32.502  26.152  22.991  1.00  0.00     0.098 C 
BRANCH  10  11
ATOM     11  C   UNL A   1      33.372  25.099  22.402  1.00  0.00     0.224 C 
ATOM     12  O   UNL A   1      33.268  24.854  21.204  1.00  0.00    -0.275 OA
ATOM     13  N   UNL A   1      34.245  24.357  23.152  1.00  0.00    -0.355 N 
ATOM     14  H   UNL A   1      34.764  23.707  22.625  1.00  0.00     0.163 HD
BRANCH  13  15
ATOM     15  C   UNL A   1      34.557  24.340  24.574  1.00  0.00     0.120 C 
BRANCH  15  16
ATOM     16  C   UNL A   1      33.584  23.492  25.391  1.00  0.00     0.056 C 
BRANCH  16  17
ATOM     17  C   UNL A   1      33.533  22.032  25.036  1.00  0.00    -0.046 A 
ATOM     18  C   UNL A   1      32.310  21.414  24.747  1.00  0.00     0.005 A 
ATOM     19  C   UNL A   1      34.710  21.267  25.066  1.00  0.00     0.005 A 
ATOM     20  C   UNL A   1      32.261  20.043  24.504  1.00  0.00     0.022 A 
ATOM     21  C   UNL A   1      34.664  19.895  24.831  1.00  0.00     0.022 A 
ATOM     22  C   UNL A   1      33.437  19.290  24.560  1.00  0.00     0.082 A 
BRANCH  22  23
ATOM     23  S   UNL A   1      33.353  17.545  24.313  1.00  0.00     0.238 S 
ATOM     24  O   UNL A   1      34.689  17.047  24.080  1.00  0.00    -0.207 OA
ATOM     25  O   UNL A   1      32.465  16.957  25.287  1.00  0.00    -0.207 OA
BRANCH  23  26
ATOM     26  N   UNL A   1      32.545  17.438  22.846  1.00  0.00    -0.225 NA
ATOM     27  H   UNL A   1      31.952  16.609  22.844  1.00  0.00     0.137 HD
ATOM     28  H   UNL A   1      33.224  17.372  22.088  1.00  0.00     0.137 HD
ENDBRANCH  23  26
ENDBRANCH  22  23
ENDBRANCH  16  17
ENDBRANCH  15  16
ENDBRANCH  13  15
ENDBRANCH  10  11
ENDBRANCH   3   6
ENDBRANCH   1   2
BRANCH   1  29
ATOM     29  C   UNL A   1      33.198  29.353  24.938  1.00  0.00     0.023 C 
BRANCH  29  30
ATOM     30  C   UNL A   1      33.535  28.237  25.912  1.00  0.00     0.023 C 
BRANCH  30  31
ATOM     31  C   UNL A   1      33.191  28.537  27.364  1.00  0.00     0.116 C 
BRANCH  31  32
ATOM     32  N   UNL A   1      33.255  29.955  27.704  1.00  0.00    -0.352 N 
ATOM     33  C   UNL A   1      34.324  30.696  28.156  1.00  0.00     0.251 C 
ATOM     34  H   UNL A   1      32.412  30.454  27.595  1.00  0.00     0.163 HD
ATOM     35  O   UNL A   1      34.172  31.865  28.494  1.00  0.00    -0.269 OA
BRANCH  33  36
ATOM     36  C   UNL A   1      35.644  30.045  28.277  1.00  0.00     0.039 A 
ATOM     37  C   UNL A   1      36.519  30.079  27.189  1.00  0.00     0.014 A 
ATOM     38  C   UNL A   1      36.050  29.507  29.500  1.00  0.00     0.014 A 
ATOM     39  C   UNL A   1      37.848  29.690  27.370  1.00  0.00     0.010 A 
ATOM     40  C   UNL A   1      37.393  29.218  29.702  1.00  0.00     0.010 A 
ATOM     41  C   UNL A   1      38.310  29.329  28.645  1.00  0.00    -0.014 A 
BRANCH  41  42
ATOM     42  C   UNL A   1      39.755  29.117  28.923  1.00  0.00     0.031 A 
ATOM     43  C   UNL A   1      40.391  27.789  28.625  1.00  0.00     0.074 A 
ATOM     44  C   UNL A   1      40.462  30.086  29.539  1.00  0.00     0.049 A 
ATOM     45  N   UNL A   1      41.601  27.377  28.901  1.00  0.00    -0.248 NA
ATOM     46  C   UNL A   1      39.550  26.783  27.956  1.00  0.00     0.031 C 
ATOM     47  C   UNL A   1      39.947  31.406  29.916  1.00  0.00     0.029 A 
ATOM     48  N   UNL A   1      41.766  30.109  29.970  1.00  0.00    -0.354 N 
ATOM     49  C   UNL A   1      41.662  26.063  28.454  1.00  0.00     0.074 A 
ATOM     50  C   UNL A   1      40.352  25.729  27.940  1.00  0.00     0.031 C 
ATOM     51  C   UNL A   1      40.928  32.115  30.496  1.00  0.00     0.029 A 
ATOM     52  C   UNL A   1      42.126  31.285  30.585  1.00  0.00     0.049 A 
ATOM     53  H   UNL A   1      42.385  29.352  29.851  1.00  0.00     0.167 HD
ATOM     54  C   UNL A   1      42.719  25.216  28.455  1.00  0.00     0.031 A 
ATOM     55  C   UNL A   1      43.282  31.652  31.173  1.00  0.00     0.031 A 
ATOM     56  C   UNL A   1      44.019  25.554  28.970  1.00  0.00     0.049 A 
ATOM     57  C   UNL A   1      44.426  30.677  31.206  1.00  0.00     0.074 A 
ATOM     58  C   UNL A   1      45.170  24.786  28.966  1.00  0.00     0.029 A 
ATOM     59  N   UNL A   1      44.338  26.752  29.590  1.00  0.00    -0.354 N 
ATOM     60  N   UNL A   1      44.488  29.465  30.709  1.00  0.00    -0.248 NA
ATOM     61  C   UNL A   1      45.656  31.117  31.880  1.00  0.00     0.031 C 
ATOM     62  C   UNL A   1      46.167  25.493  29.644  1.00  0.00     0.029 A 
ATOM     63  C   UNL A   1      45.658  26.729  30.011  1.00  0.00     0.049 A 
ATOM     64  H   UNL A   1      43.719  27.507  29.714  1.00  0.00     0.167 HD
ATOM     65  C   UNL A   1      45.769  29.004  30.994  1.00  0.00     0.074 A 
ATOM     66  C   UNL A   1      46.454  30.075  31.689  1.00  0.00     0.031 C 
ATOM     67  C   UNL A   1      46.324  27.801  30.707  1.00  0.00     0.031 A 
BRANCH  54  68
ATOM     68  C   UNL A   1      42.504  23.836  27.891  1.00  0.00    -0.014 A 
ATOM     69  C   UNL A   1      41.974  22.801  28.682  1.00  0.00     0.010 A 
ATOM     70  C   UNL A   1      42.803  23.578  26.540  1.00  0.00     0.010 A 
ATOM     71  C   UNL A   1      41.793  21.522  28.147  1.00  0.00     0.020 A 
ATOM     72  C   UNL A   1      42.593  22.309  25.993  1.00  0.00     0.020 A 
ATOM     73  C   UNL A   1      42.106  21.284  26.806  1.00  0.00     0.054 A 
BRANCH  73  74
ATOM     74  S   UNL A   1      41.848  19.618  26.138  1.00  0.00     0.124 S 
ATOM     75  O   UNL A   1      42.288  18.778  27.250  1.00  0.00    -0.237 OA
ATOM     76  O   UNL A   1      40.412  19.601  25.870  1.00  0.00    -0.237 OA
ATOM     77  O   UNL A   1      42.702  19.581  24.954  1.00  0.00    -0.744 OA
ENDBRANCH  73  74
ENDBRANCH  54  68
BRANCH  55  78
ATOM     78  C   UNL A   1      43.410  33.007  31.781  1.00  0.00    -0.014 A 
ATOM     79  C   UNL A   1      43.084  33.216  33.132  1.00  0.00     0.010 A 
ATOM     80  C   UNL A   1      43.878  34.092  31.016  1.00  0.00     0.010 A 
ATOM     81  C   UNL A   1      43.215  34.485  33.705  1.00  0.00     0.020 A 
ATOM     82  C   UNL A   1      44.039  35.355  31.593  1.00  0.00     0.020 A 
ATOM     83  C   UNL A   1      43.698  35.545  32.933  1.00  0.00     0.054 A 
BRANCH  83  84
ATOM     84  S   UNL A   1      43.919  37.166  33.717  1.00  0.00     0.124 S 
ATOM     85  O   UNL A   1      43.851  38.069  32.572  1.00  0.00    -0.237 OA
ATOM     86  O   UNL A   1      42.788  37.224  34.640  1.00  0.00    -0.237 OA
ATOM     87  O   UNL A   1      45.229  37.061  34.356  1.00  0.00    -0.744 OA
ENDBRANCH  83  84
ENDBRANCH  55  78
BRANCH  67  88
ATOM     88  C   UNL A   1      47.750  27.573  31.132  1.00  0.00    -0.014 A 
ATOM     89  C   UNL A   1      48.051  26.852  32.301  1.00  0.00     0.010 A 
ATOM     90  C   UNL A   1      48.802  28.010  30.305  1.00  0.00     0.010 A 
ATOM     91  C   UNL A   1      49.379  26.581  32.640  1.00  0.00     0.020 A 
ATOM     92  C   UNL A   1      50.129  27.716  30.626  1.00  0.00     0.020 A 
ATOM     93  C   UNL A   1      50.409  27.007  31.795  1.00  0.00     0.054 A 
BRANCH  93  94
ATOM     94  S   UNL A   1      52.117  26.571  32.221  1.00  0.00     0.124 S 
ATOM     95  O   UNL A   1      52.367  25.426  31.350  1.00  0.00    -0.237 OA
ATOM     96  O   UNL A   1      52.850  27.789  31.886  1.00  0.00    -0.237 OA
ATOM     97  O   UNL A   1      52.051  26.263  33.649  1.00  0.00    -0.744 OA
ENDBRANCH  93  94
ENDBRANCH  67  88
ENDBRANCH  41  42
ENDBRANCH  33  36
ENDBRANCH  31  32
ENDBRANCH  30  31
ENDBRANCH  29  30
ENDBRANCH   1  29
TORSDOF 20
ENDMDL
MODEL 3
REMARK VINA RESULT:     -11.4      3.677      5.793
REMARK SMILES CC1(C)[C@@H](C(=O)NCCCCNC(=O)c2ccc(-c3c4nc(c(-c5ccc(S(=O)(=O)[O-])cc5)c5ccc([nH]5)c(-c5ccc(S(=O)(=O)[O-])cc5)c5nc(c(-c6ccc(S(=O)(=O)[O-])cc6)c6ccc3[nH]6)C=C5)C=C4)cc2)[C@@H]1C(=O)NCCc1ccc(S(N)(=O)=O)cc1
REMARK SMILES IDX 8 1 7 2 5 3 6 4 4 6 1 7 2 8 3 9 75 10 76 11 77 12 78 13
REMARK SMILES IDX 79 15 80 16 81 17 82 18 90 19 83 20 89 21 84 22 85 23 87 24
REMARK SMILES IDX 88 25 86 26 9 29 10 30 11 31 12 32 13 33 14 35 15 36 16 37
REMARK SMILES IDX 74 38 17 39 73 40 18 41 19 42 20 43 67 44 21 45 72 46 66 47
REMARK SMILES IDX 68 48 22 49 71 50 65 51 64 52 23 54 53 55 34 56 52 57 35 58
REMARK SMILES IDX 38 59 51 60 69 61 36 62 37 63 50 65 70 66 39 67 24 68 25 69
REMARK SMILES IDX 33 70 26 71 32 72 27 73 28 74 29 75 30 76 31 77 54 78 55 79
REMARK SMILES IDX 63 80 56 81 62 82 57 83 58 84 59 85 60 86 61 87 40 88 41 89
REMARK SMILES IDX 49 90 42 91 48 92 43 93 44 94 45 95 46 96 47 97
REMARK H PARENT 7 5 78 14 86 27 86 28 12 34 68 53 38 64
REMARK Flexibility Score: inf
ROOT
ATOM      1  C   UNL A   1      34.729  31.372  27.861  1.00  0.00     0.116 C 
ENDROOT
BRANCH   1   2
ATOM      2  N   UNL A   1      33.459  31.696  27.245  1.00  0.00    -0.356 N 
ATOM      3  C   UNL A   1      32.447  30.884  26.808  1.00  0.00     0.224 C 
ATOM      4  O   UNL A   1      31.452  31.383  26.295  1.00  0.00    -0.275 OA
ATOM      5  H   UNL A   1      33.296  32.659  27.121  1.00  0.00     0.163 HD
BRANCH   3   6
ATOM      6  C   UNL A   1      32.553  29.402  26.891  1.00  0.00     0.098 C 
ATOM      7  C   UNL A   1      33.401  29.327  24.428  1.00  0.00     0.013 C 
ATOM      8  C   UNL A   1      33.091  28.599  25.714  1.00  0.00    -0.011 C 
ATOM      9  C   UNL A   1      34.071  27.492  26.026  1.00  0.00     0.013 C 
ATOM     10  C   UNL A   1      31.634  28.463  26.147  1.00  0.00     0.098 C 
BRANCH  10  11
ATOM     11  C   UNL A   1      31.123  27.176  26.692  1.00  0.00     0.224 C 
ATOM     12  O   UNL A   1      30.922  27.088  27.900  1.00  0.00    -0.275 OA
ATOM     13  N   UNL A   1      30.920  26.071  25.909  1.00  0.00    -0.355 N 
ATOM     14  H   UNL A   1      30.567  25.296  26.403  1.00  0.00     0.163 HD
BRANCH  13  15
ATOM     15  C   UNL A   1      31.121  25.817  24.489  1.00  0.00     0.120 C 
BRANCH  15  16
ATOM     16  C   UNL A   1      29.822  25.841  23.686  1.00  0.00     0.056 C 
BRANCH  16  17
ATOM     17  C   UNL A   1      29.360  27.198  23.233  1.00  0.00    -0.046 A 
ATOM     18  C   UNL A   1      30.264  28.104  22.667  1.00  0.00     0.005 A 
ATOM     19  C   UNL A   1      28.027  27.587  23.446  1.00  0.00     0.005 A 
ATOM     20  C   UNL A   1      29.847  29.390  22.329  1.00  0.00     0.022 A 
ATOM     21  C   UNL A   1      27.607  28.873  23.118  1.00  0.00     0.022 A 
ATOM     22  C   UNL A   1      28.524  29.770  22.569  1.00  0.00     0.082 A 
BRANCH  22  23
ATOM     23  S   UNL A   1      28.022  31.421  22.197  1.00  0.00     0.238 S 
ATOM     24  O   UNL A   1      27.594  31.473  20.818  1.00  0.00    -0.207 OA
ATOM     25  O   UNL A   1      27.222  31.942  23.279  1.00  0.00    -0.207 OA
BRANCH  23  26
ATOM     26  N   UNL A   1      29.478  32.254  22.272  1.00  0.00    -0.225 NA
ATOM     27  H   UNL A   1      29.389  33.138  21.773  1.00  0.00     0.137 HD
ATOM     28  H   UNL A   1      30.213  31.693  21.843  1.00  0.00     0.137 HD
ENDBRANCH  23  26
ENDBRANCH  22  23
ENDBRANCH  16  17
ENDBRANCH  15  16
ENDBRANCH  13  15
ENDBRANCH  10  11
ENDBRANCH   3   6
ENDBRANCH   1   2
BRANCH   1  29
ATOM     29  C   UNL A   1      35.633  32.589  28.014  1.00  0.00     0.023 C 
BRANCH  29  30
ATOM     30  C   UNL A   1      35.465  33.382  29.299  1.00  0.00     0.023 C 
BRANCH  30  31
ATOM     31  C   UNL A   1      36.359  32.931  30.444  1.00  0.00     0.116 C 
BRANCH  31  32
ATOM     32  N   UNL A   1      35.999  31.628  30.996  1.00  0.00    -0.352 N 
ATOM     33  C   UNL A   1      36.737  30.466  31.040  1.00  0.00     0.251 C 
ATOM     34  H   UNL A   1      35.099  31.572  31.392  1.00  0.00     0.163 HD
ATOM     35  O   UNL A   1      36.234  29.426  31.453  1.00  0.00    -0.269 OA
BRANCH  33  36
ATOM     36  C   UNL A   1      38.125  30.481  30.536  1.00  0.00     0.039 A 
ATOM     37  C   UNL A   1      39.179  30.512  31.451  1.00  0.00     0.014 A 
ATOM     38  C   UNL A   1      38.374  30.349  29.169  1.00  0.00     0.014 A 
ATOM     39  C   UNL A   1      40.481  30.278  31.002  1.00  0.00     0.010 A 
ATOM     40  C   UNL A   1      39.652  30.017  28.740  1.00  0.00     0.010 A 
ATOM     41  C   UNL A   1      40.714  29.955  29.656  1.00  0.00    -0.014 A 
BRANCH  41  42
ATOM     42  C   UNL A   1      42.045  29.491  29.183  1.00  0.00     0.031 A 
ATOM     43  C   UNL A   1      43.179  30.468  29.054  1.00  0.00     0.074 A 
ATOM     44  C   UNL A   1      42.196  28.216  28.771  1.00  0.00     0.049 A 
ATOM     45  N   UNL A   1      44.373  30.280  28.555  1.00  0.00    -0.248 NA
ATOM     46  C   UNL A   1      42.931  31.842  29.521  1.00  0.00     0.031 C 
ATOM     47  C   UNL A   1      41.159  27.181  28.808  1.00  0.00     0.029 A 
ATOM     48  N   UNL A   1      43.280  27.572  28.226  1.00  0.00    -0.354 N 
ATOM     49  C   UNL A   1      45.012  31.511  28.633  1.00  0.00     0.074 A 
ATOM     50  C   UNL A   1      44.056  32.451  29.176  1.00  0.00     0.031 C 
ATOM     51  C   UNL A   1      41.663  26.031  28.334  1.00  0.00     0.029 A 
ATOM     52  C   UNL A   1      43.040  26.256  27.907  1.00  0.00     0.049 A 
ATOM     53  H   UNL A   1      44.148  28.013  28.078  1.00  0.00     0.167 HD
ATOM     54  C   UNL A   1      46.286  31.828  28.300  1.00  0.00     0.031 A 
ATOM     55  C   UNL A   1      43.830  25.336  27.317  1.00  0.00     0.031 A 
ATOM     56  C   UNL A   1      47.231  30.889  27.757  1.00  0.00     0.049 A 
ATOM     57  C   UNL A   1      45.224  25.724  26.910  1.00  0.00     0.074 A 
ATOM     58  C   UNL A   1      48.562  31.096  27.440  1.00  0.00     0.029 A 
ATOM     59  N   UNL A   1      46.945  29.568  27.442  1.00  0.00    -0.354 N 
ATOM     60  N   UNL A   1      45.836  26.875  27.063  1.00  0.00    -0.248 NA
ATOM     61  C   UNL A   1      46.036  24.692  26.250  1.00  0.00     0.031 C 
ATOM     62  C   UNL A   1      49.061  29.922  26.870  1.00  0.00     0.029 A 
ATOM     63  C   UNL A   1      48.063  28.961  26.894  1.00  0.00     0.049 A 
ATOM     64  H   UNL A   1      46.076  29.129  27.586  1.00  0.00     0.167 HD
ATOM     65  C   UNL A   1      47.110  26.699  26.535  1.00  0.00     0.074 A 
ATOM     66  C   UNL A   1      47.188  25.326  26.077  1.00  0.00     0.031 C 
ATOM     67  C   UNL A   1      48.122  27.595  26.437  1.00  0.00     0.031 A 
BRANCH  54  68
ATOM     68  C   UNL A   1      46.723  33.255  28.503  1.00  0.00    -0.014 A 
ATOM     69  C   UNL A   1      47.329  33.666  29.703  1.00  0.00     0.010 A 
ATOM     70  C   UNL A   1      46.558  34.191  27.465  1.00  0.00     0.010 A 
ATOM     71  C   UNL A   1      47.716  34.997  29.881  1.00  0.00     0.020 A 
ATOM     72  C   UNL A   1      46.974  35.516  27.627  1.00  0.00     0.020 A 
ATOM     73  C   UNL A   1      47.534  35.914  28.842  1.00  0.00     0.054 A 
BRANCH  73  74
ATOM     74  S   UNL A   1      48.060  37.631  29.099  1.00  0.00     0.124 S 
ATOM     75  O   UNL A   1      47.063  38.110  30.053  1.00  0.00    -0.237 OA
ATOM     76  O   UNL A   1      49.411  37.474  29.629  1.00  0.00    -0.237 OA
ATOM     77  O   UNL A   1      47.980  38.222  27.765  1.00  0.00    -0.744 OA
ENDBRANCH  73  74
ENDBRANCH  54  68
BRANCH  55  78
ATOM     78  C   UNL A   1      43.314  23.960  27.075  1.00  0.00    -0.014 A 
ATOM     79  C   UNL A   1      43.378  22.987  28.088  1.00  0.00     0.010 A 
ATOM     80  C   UNL A   1      42.737  23.618  25.837  1.00  0.00     0.010 A 
ATOM     81  C   UNL A   1      42.885  21.697  27.864  1.00  0.00     0.020 A 
ATOM     82  C   UNL A   1      42.216  22.340  25.621  1.00  0.00     0.020 A 
ATOM     83  C   UNL A   1      42.301  21.384  26.634  1.00  0.00     0.054 A 
BRANCH  83  84
ATOM     84  S   UNL A   1      41.609  19.724  26.392  1.00  0.00     0.124 S 
ATOM     85  O   UNL A   1      42.382  19.236  25.255  1.00  0.00    -0.237 OA
ATOM     86  O   UNL A   1      41.888  19.080  27.673  1.00  0.00    -0.237 OA
ATOM     87  O   UNL A   1      40.195  19.979  26.127  1.00  0.00    -0.744 OA
ENDBRANCH  83  84
ENDBRANCH  55  78
BRANCH  67  88
ATOM     88  C   UNL A   1      49.412  27.125  25.820  1.00  0.00    -0.014 A 
ATOM     89  C   UNL A   1      49.749  27.464  24.497  1.00  0.00     0.010 A 
ATOM     90  C   UNL A   1      50.339  26.409  26.602  1.00  0.00     0.010 A 
ATOM     91  C   UNL A   1      50.984  27.087  23.965  1.00  0.00     0.020 A 
ATOM     92  C   UNL A   1      51.586  26.056  26.082  1.00  0.00     0.020 A 
ATOM     93  C   UNL A   1      51.898  26.392  24.764  1.00  0.00     0.054 A 
BRANCH  93  94
ATOM     94  S   UNL A   1      53.524  25.987  24.071  1.00  0.00     0.124 S 
ATOM     95  O   UNL A   1      54.340  27.110  24.525  1.00  0.00    -0.237 OA
ATOM     96  O   UNL A   1      53.824  24.700  24.692  1.00  0.00    -0.237 OA
ATOM     97  O   UNL A   1      53.284  25.936  22.629  1.00  0.00    -0.744 OA
ENDBRANCH  93  94
ENDBRANCH  67  88
ENDBRANCH  41  42
ENDBRANCH  33  36
ENDBRANCH  31  32
ENDBRANCH  30  31
ENDBRANCH  29  30
ENDBRANCH   1  29
TORSDOF 20
ENDMDL
