MODEL 1
REMARK VINA RESULT:     -12.1      0.000      0.000
REMARK SMILES Cc1[nH]cnc1C[NH+]1CCC(Oc2cccc(F)c2)(C(=O)NCCCCNC(=O)c2ccc(-c3c4nc(c(-c5ccc(S(=O)(=O)[O-])cc5)c5ccc([nH]5)c(-c5ccc(S(=O)(=O)[O-])cc5)c5nc(c(-c6ccc(S(=O)(=O)[O-])cc6)c6ccc3[nH]6)C=C5)C=C4)cc2)CC1
REMARK SMILES IDX 25 1 24 2 23 3 22 4 20 5 21 6 11 8 8 9 9 10 91 11 10 13
REMARK SMILES IDX 90 14 7 15 6 16 1 17 2 18 3 19 4 20 5 22 12 23 13 24 14 25
REMARK SMILES IDX 19 26 15 27 17 28 16 29 18 30 26 31 27 32 28 33 29 35 30 36
REMARK SMILES IDX 31 37 89 38 32 39 88 40 33 41 34 42 35 43 82 44 36 45 87 46
REMARK SMILES IDX 81 47 83 48 37 49 86 50 80 51 79 52 38 54 68 55 49 56 67 57
REMARK SMILES IDX 50 58 53 59 66 60 84 61 51 62 52 63 65 65 85 66 54 67 39 68
REMARK SMILES IDX 40 69 48 70 41 71 47 72 42 73 43 74 44 75 45 76 46 77 69 78
REMARK SMILES IDX 70 79 78 80 71 81 77 82 72 83 73 84 74 85 75 86 76 87 55 88
REMARK SMILES IDX 56 89 64 90 57 91 63 92 58 93 59 94 60 95 61 96 62 97
REMARK H PARENT 22 7 8 12 3 21 27 34 83 53 53 64
REMARK Flexibility Score: inf
ROOT
ATOM      1  C   UNL A   1      39.118  22.237  26.534  1.00  0.00     0.023 C 
ENDROOT
BRANCH   1   2
ATOM      2  C   UNL A   1      38.001  22.434  25.509  1.00  0.00     0.023 C 
BRANCH   2   3
ATOM      3  C   UNL A   1      37.065  23.606  25.800  1.00  0.00     0.116 C 
BRANCH   3   4
ATOM      4  N   UNL A   1      36.059  23.255  26.784  1.00  0.00    -0.353 N 
ATOM      5  C   UNL A   1      34.703  23.130  26.662  1.00  0.00     0.264 C 
ATOM      6  O   UNL A   1      34.118  22.670  27.648  1.00  0.00    -0.270 OA
ATOM      7  H   UNL A   1      36.410  23.076  27.685  1.00  0.00     0.163 HD
BRANCH   5   8
ATOM      8  C   UNL A   1      33.955  23.528  25.353  1.00  0.00     0.197 C 
ATOM      9  N   UNL A   1      32.208  25.788  26.016  1.00  0.00    -0.330 N 
ATOM     10  C   UNL A   1      33.658  25.970  25.973  1.00  0.00     0.267 C 
ATOM     11  C   UNL A   1      31.847  24.441  26.482  1.00  0.00     0.267 C 
ATOM     12  H   UNL A   1      31.871  25.873  25.057  1.00  0.00     0.348 HD
ATOM     13  C   UNL A   1      34.246  24.988  24.966  1.00  0.00     0.120 C 
ATOM     14  C   UNL A   1      32.432  23.363  25.557  1.00  0.00     0.120 C 
BRANCH   9  15
ATOM     15  C   UNL A   1      31.518  26.853  26.777  1.00  0.00     0.321 C 
BRANCH  15  16
ATOM     16  C   UNL A   1      31.695  28.234  26.215  1.00  0.00     0.115 A 
ATOM     17  C   UNL A   1      30.623  28.153  23.814  1.00  0.00     0.066 C 
ATOM     18  C   UNL A   1      31.327  28.738  24.976  1.00  0.00     0.040 A 
ATOM     19  N   UNL A   1      31.780  30.035  24.975  1.00  0.00    -0.348 N 
ATOM     20  C   UNL A   1      32.352  30.279  26.188  1.00  0.00     0.197 A 
ATOM     21  H   UNL A   1      31.705  30.675  24.231  1.00  0.00     0.167 HD
ATOM     22  N   UNL A   1      32.286  29.227  26.968  1.00  0.00    -0.236 NA
ENDBRANCH  15  16
ENDBRANCH   9  15
BRANCH   8  23
ATOM     23  O   UNL A   1      34.492  22.541  24.430  1.00  0.00    -0.477 OA
BRANCH  23  24
ATOM     24  C   UNL A   1      33.715  21.473  24.099  1.00  0.00     0.123 A 
ATOM     25  C   UNL A   1      32.782  21.548  23.065  1.00  0.00     0.046 A 
ATOM     26  C   UNL A   1      33.985  20.253  24.711  1.00  0.00     0.085 A 
ATOM     27  C   UNL A   1      32.040  20.422  22.708  1.00  0.00     0.007 A 
ATOM     28  C   UNL A   1      33.253  19.131  24.337  1.00  0.00     0.126 A 
ATOM     29  C   UNL A   1      32.272  19.209  23.352  1.00  0.00     0.039 A 
ATOM     30  F   UNL A   1      33.500  17.954  24.926  1.00  0.00    -0.207 F 
ENDBRANCH  23  24
ENDBRANCH   8  23
ENDBRANCH   5   8
ENDBRANCH   3   4
ENDBRANCH   2   3
ENDBRANCH   1   2
BRANCH   1  31
ATOM     31  C   UNL A   1      39.756  23.517  27.060  1.00  0.00     0.116 C 
BRANCH  31  32
ATOM     32  N   UNL A   1      40.471  24.260  26.033  1.00  0.00    -0.352 N 
ATOM     33  C   UNL A   1      40.979  25.535  26.077  1.00  0.00     0.251 C 
ATOM     34  H   UNL A   1      40.612  23.778  25.185  1.00  0.00     0.163 HD
ATOM     35  O   UNL A   1      41.439  26.044  25.059  1.00  0.00    -0.269 OA
BRANCH  33  36
ATOM     36  C   UNL A   1      40.936  26.302  27.341  1.00  0.00     0.039 A 
ATOM     37  C   UNL A   1      41.941  27.238  27.591  1.00  0.00     0.014 A 
ATOM     38  C   UNL A   1      39.903  26.116  28.264  1.00  0.00     0.014 A 
ATOM     39  C   UNL A   1      41.871  28.040  28.732  1.00  0.00     0.010 A 
ATOM     40  C   UNL A   1      39.793  26.967  29.361  1.00  0.00     0.010 A 
ATOM     41  C   UNL A   1      40.774  27.940  29.605  1.00  0.00    -0.014 A 
BRANCH  41  42
ATOM     42  C   UNL A   1      40.626  28.870  30.753  1.00  0.00     0.031 A 
ATOM     43  C   UNL A   1      41.475  28.710  31.985  1.00  0.00     0.074 A 
ATOM     44  C   UNL A   1      39.681  29.831  30.707  1.00  0.00     0.049 A 
ATOM     45  N   UNL A   1      41.476  29.424  33.082  1.00  0.00    -0.248 NA
ATOM     46  C   UNL A   1      42.430  27.591  31.997  1.00  0.00     0.031 C 
ATOM     47  C   UNL A   1      38.754  30.053  29.593  1.00  0.00     0.029 A 
ATOM     48  N   UNL A   1      39.341  30.799  31.618  1.00  0.00    -0.354 N 
ATOM     49  C   UNL A   1      42.417  28.834  33.917  1.00  0.00     0.074 A 
ATOM     50  C   UNL A   1      42.930  27.675  33.221  1.00  0.00     0.031 C 
ATOM     51  C   UNL A   1      37.976  31.111  29.873  1.00  0.00     0.029 A 
ATOM     52  C   UNL A   1      38.320  31.618  31.197  1.00  0.00     0.049 A 
ATOM     53  H   UNL A   1      39.786  30.899  32.490  1.00  0.00     0.167 HD
ATOM     54  C   UNL A   1      42.831  29.232  35.145  1.00  0.00     0.031 A 
ATOM     55  C   UNL A   1      37.722  32.660  31.808  1.00  0.00     0.031 A 
ATOM     56  C   UNL A   1      42.320  30.389  35.834  1.00  0.00     0.049 A 
ATOM     57  C   UNL A   1      38.201  33.087  33.167  1.00  0.00     0.074 A 
ATOM     58  C   UNL A   1      42.720  30.911  37.052  1.00  0.00     0.029 A 
ATOM     59  N   UNL A   1      41.292  31.197  35.371  1.00  0.00    -0.354 N 
ATOM     60  N   UNL A   1      39.151  32.565  33.906  1.00  0.00    -0.248 NA
ATOM     61  C   UNL A   1      37.539  34.252  33.767  1.00  0.00     0.031 C 
ATOM     62  C   UNL A   1      41.895  32.001  37.352  1.00  0.00     0.029 A 
ATOM     63  C   UNL A   1      41.025  32.197  36.292  1.00  0.00     0.049 A 
ATOM     64  H   UNL A   1      40.823  31.078  34.515  1.00  0.00     0.167 HD
ATOM     65  C   UNL A   1      39.215  33.352  35.050  1.00  0.00     0.074 A 
ATOM     66  C   UNL A   1      38.222  34.396  34.894  1.00  0.00     0.031 C 
ATOM     67  C   UNL A   1      40.024  33.223  36.131  1.00  0.00     0.031 A 
BRANCH  54  68
ATOM     68  C   UNL A   1      43.888  28.399  35.826  1.00  0.00    -0.014 A 
ATOM     69  C   UNL A   1      45.256  28.677  35.656  1.00  0.00     0.010 A 
ATOM     70  C   UNL A   1      43.507  27.343  36.673  1.00  0.00     0.010 A 
ATOM     71  C   UNL A   1      46.223  27.885  36.281  1.00  0.00     0.020 A 
ATOM     72  C   UNL A   1      44.470  26.568  37.324  1.00  0.00     0.020 A 
ATOM     73  C   UNL A   1      45.824  26.832  37.108  1.00  0.00     0.054 A 
BRANCH  73  74
ATOM     74  S   UNL A   1      47.101  25.830  37.917  1.00  0.00     0.124 S 
ATOM     75  O   UNL A   1      46.954  26.230  39.315  1.00  0.00    -0.237 OA
ATOM     76  O   UNL A   1      46.681  24.465  37.608  1.00  0.00    -0.237 OA
ATOM     77  O   UNL A   1      48.340  26.259  37.274  1.00  0.00    -0.744 OA
ENDBRANCH  73  74
ENDBRANCH  54  68
BRANCH  55  78
ATOM     78  C   UNL A   1      36.618  33.384  31.120  1.00  0.00    -0.014 A 
ATOM     79  C   UNL A   1      36.828  33.989  29.868  1.00  0.00     0.010 A 
ATOM     80  C   UNL A   1      35.338  33.445  31.701  1.00  0.00     0.010 A 
ATOM     81  C   UNL A   1      35.783  34.649  29.215  1.00  0.00     0.020 A 
ATOM     82  C   UNL A   1      34.284  34.079  31.039  1.00  0.00     0.020 A 
ATOM     83  C   UNL A   1      34.516  34.685  29.803  1.00  0.00     0.054 A 
BRANCH  83  84
ATOM     84  S   UNL A   1      33.157  35.486  28.907  1.00  0.00     0.124 S 
ATOM     85  O   UNL A   1      33.866  36.459  28.083  1.00  0.00    -0.237 OA
ATOM     86  O   UNL A   1      32.551  34.368  28.188  1.00  0.00    -0.237 OA
ATOM     87  O   UNL A   1      32.330  36.049  29.973  1.00  0.00    -0.744 OA
ENDBRANCH  83  84
ENDBRANCH  55  78
BRANCH  67  88
ATOM     88  C   UNL A   1      39.884  34.251  37.224  1.00  0.00    -0.014 A 
ATOM     89  C   UNL A   1      40.615  35.452  37.195  1.00  0.00     0.010 A 
ATOM     90  C   UNL A   1      38.981  34.023  38.278  1.00  0.00     0.010 A 
ATOM     91  C   UNL A   1      40.477  36.386  38.225  1.00  0.00     0.020 A 
ATOM     92  C   UNL A   1      38.817  34.969  39.294  1.00  0.00     0.020 A 
ATOM     93  C   UNL A   1      39.581  36.136  39.270  1.00  0.00     0.054 A 
BRANCH  93  94
ATOM     94  S   UNL A   1      39.404  37.376  40.583  1.00  0.00     0.124 S 
ATOM     95  O   UNL A   1      40.707  38.034  40.557  1.00  0.00    -0.237 OA
ATOM     96  O   UNL A   1      38.282  38.184  40.113  1.00  0.00    -0.237 OA
ATOM     97  O   UNL A   1      39.132  36.578  41.777  1.00  0.00    -0.744 OA
ENDBRANCH  93  94
ENDBRANCH  67  88
ENDBRANCH  41  42
ENDBRANCH  33  36
ENDBRANCH  31  32
ENDBRANCH   1  31
TORSDOF 18
ENDMDL
MODEL 2
REMARK VINA RESULT:     -11.7      6.018      8.085
REMARK SMILES Cc1[nH]cnc1C[NH+]1CCC(Oc2cccc(F)c2)(C(=O)NCCCCNC(=O)c2ccc(-c3c4nc(c(-c5ccc(S(=O)(=O)[O-])cc5)c5ccc([nH]5)c(-c5ccc(S(=O)(=O)[O-])cc5)c5nc(c(-c6ccc(S(=O)(=O)[O-])cc6)c6ccc3[nH]6)C=C5)C=C4)cc2)CC1
REMARK SMILES IDX 25 1 24 2 23 3 22 4 20 5 21 6 11 8 8 9 9 10 91 11 10 13
REMARK SMILES IDX 90 14 7 15 6 16 1 17 2 18 3 19 4 20 5 22 12 23 13 24 14 25
REMARK SMILES IDX 19 26 15 27 17 28 16 29 18 30 26 31 27 32 28 33 29 35 30 36
REMARK SMILES IDX 31 37 89 38 32 39 88 40 33 41 34 42 35 43 82 44 36 45 87 46
REMARK SMILES IDX 81 47 83 48 37 49 86 50 80 51 79 52 38 54 68 55 49 56 67 57
REMARK SMILES IDX 50 58 53 59 66 60 84 61 51 62 52 63 65 65 85 66 54 67 39 68
REMARK SMILES IDX 40 69 48 70 41 71 47 72 42 73 43 74 44 75 45 76 46 77 69 78
REMARK SMILES IDX 70 79 78 80 71 81 77 82 72 83 73 84 74 85 75 86 76 87 55 88
REMARK SMILES IDX 56 89 64 90 57 91 63 92 58 93 59 94 60 95 61 96 62 97
REMARK H PARENT 22 7 8 12 3 21 27 34 83 53 53 64
REMARK Flexibility Score: inf
ROOT
ATOM      1  C   UNL A   1      38.268  19.771  25.209  1.00  0.00     0.023 C 
ENDROOT
BRANCH   1   2
ATOM      2  C   UNL A   1      37.220  20.806  24.800  1.00  0.00     0.023 C 
BRANCH   2   3
ATOM      3  C   UNL A   1      35.773  20.363  24.995  1.00  0.00     0.116 C 
BRANCH   3   4
ATOM      4  N   UNL A   1      35.207  20.908  26.214  1.00  0.00    -0.353 N 
ATOM      5  C   UNL A   1      33.946  21.366  26.482  1.00  0.00     0.264 C 
ATOM      6  O   UNL A   1      33.716  21.635  27.666  1.00  0.00    -0.270 OA
ATOM      7  H   UNL A   1      35.832  20.954  26.973  1.00  0.00     0.163 HD
BRANCH   5   8
ATOM      8  C   UNL A   1      32.872  21.516  25.362  1.00  0.00     0.197 C 
ATOM      9  N   UNL A   1      33.167  24.212  24.248  1.00  0.00    -0.330 N 
ATOM     10  C   UNL A   1      34.184  23.195  23.987  1.00  0.00     0.267 C 
ATOM     11  C   UNL A   1      32.569  24.048  25.581  1.00  0.00     0.267 C 
ATOM     12  H   UNL A   1      32.422  24.065  23.566  1.00  0.00     0.348 HD
ATOM     13  C   UNL A   1      33.522  21.822  24.003  1.00  0.00     0.120 C 
ATOM     14  C   UNL A   1      31.908  22.670  25.722  1.00  0.00     0.120 C 
BRANCH   9  15
ATOM     15  C   UNL A   1      33.657  25.588  24.013  1.00  0.00     0.321 C 
BRANCH  15  16
ATOM     16  C   UNL A   1      32.677  26.488  23.317  1.00  0.00     0.115 A 
ATOM     17  C   UNL A   1      32.504  25.565  20.859  1.00  0.00     0.066 C 
ATOM     18  C   UNL A   1      32.231  26.463  22.003  1.00  0.00     0.040 A 
ATOM     19  N   UNL A   1      31.390  27.544  21.896  1.00  0.00    -0.348 N 
ATOM     20  C   UNL A   1      31.325  28.146  23.118  1.00  0.00     0.197 A 
ATOM     21  H   UNL A   1      30.920  27.834  21.082  1.00  0.00     0.167 HD
ATOM     22  N   UNL A   1      32.059  27.514  24.002  1.00  0.00    -0.236 NA
ENDBRANCH  15  16
ENDBRANCH   9  15
BRANCH   8  23
ATOM     23  O   UNL A   1      32.222  20.217  25.442  1.00  0.00    -0.477 OA
BRANCH  23  24
ATOM     24  C   UNL A   1      32.644  19.229  24.606  1.00  0.00     0.123 A 
ATOM     25  C   UNL A   1      33.294  18.095  25.093  1.00  0.00     0.046 A 
ATOM     26  C   UNL A   1      32.270  19.300  23.267  1.00  0.00     0.085 A 
ATOM     27  C   UNL A   1      33.664  17.071  24.222  1.00  0.00     0.007 A 
ATOM     28  C   UNL A   1      32.628  18.267  22.409  1.00  0.00     0.126 A 
ATOM     29  C   UNL A   1      33.335  17.161  22.871  1.00  0.00     0.039 A 
ATOM     30  F   UNL A   1      32.279  18.331  21.116  1.00  0.00    -0.207 F 
ENDBRANCH  23  24
ENDBRANCH   8  23
ENDBRANCH   5   8
ENDBRANCH   3   4
ENDBRANCH   2   3
ENDBRANCH   1   2
BRANCH   1  31
ATOM     31  C   UNL A   1      39.386  20.292  26.105  1.00  0.00     0.116 C 
BRANCH  31  32
ATOM     32  N   UNL A   1      40.582  19.465  26.063  1.00  0.00    -0.352 N 
ATOM     33  C   UNL A   1      41.900  19.836  26.168  1.00  0.00     0.251 C 
ATOM     34  H   UNL A   1      40.423  18.500  25.942  1.00  0.00     0.163 HD
ATOM     35  O   UNL A   1      42.784  19.007  25.975  1.00  0.00    -0.269 OA
BRANCH  33  36
ATOM     36  C   UNL A   1      42.247  21.240  26.478  1.00  0.00     0.039 A 
ATOM     37  C   UNL A   1      42.513  21.588  27.804  1.00  0.00     0.014 A 
ATOM     38  C   UNL A   1      42.332  22.203  25.469  1.00  0.00     0.014 A 
ATOM     39  C   UNL A   1      42.934  22.884  28.108  1.00  0.00     0.010 A 
ATOM     40  C   UNL A   1      42.825  23.472  25.762  1.00  0.00     0.010 A 
ATOM     41  C   UNL A   1      43.134  23.825  27.084  1.00  0.00    -0.014 A 
BRANCH  41  42
ATOM     42  C   UNL A   1      43.698  25.167  27.380  1.00  0.00     0.031 A 
ATOM     43  C   UNL A   1      45.158  25.452  27.154  1.00  0.00     0.074 A 
ATOM     44  C   UNL A   1      42.900  26.116  27.909  1.00  0.00     0.049 A 
ATOM     45  N   UNL A   1      45.821  26.561  27.364  1.00  0.00    -0.248 NA
ATOM     46  C   UNL A   1      45.985  24.345  26.650  1.00  0.00     0.031 C 
ATOM     47  C   UNL A   1      41.480  25.946  28.230  1.00  0.00     0.029 A 
ATOM     48  N   UNL A   1      43.167  27.413  28.272  1.00  0.00    -0.354 N 
ATOM     49  C   UNL A   1      47.142  26.281  27.031  1.00  0.00     0.074 A 
ATOM     50  C   UNL A   1      47.195  24.886  26.655  1.00  0.00     0.031 C 
ATOM     51  C   UNL A   1      40.996  27.102  28.709  1.00  0.00     0.029 A 
ATOM     52  C   UNL A   1      42.074  28.084  28.766  1.00  0.00     0.049 A 
ATOM     53  H   UNL A   1      44.058  27.823  28.186  1.00  0.00     0.167 HD
ATOM     54  C   UNL A   1      48.210  27.115  27.021  1.00  0.00     0.031 A 
ATOM     55  C   UNL A   1      41.949  29.347  29.217  1.00  0.00     0.031 A 
ATOM     56  C   UNL A   1      48.153  28.505  27.394  1.00  0.00     0.049 A 
ATOM     57  C   UNL A   1      43.146  30.255  29.192  1.00  0.00     0.074 A 
ATOM     58  C   UNL A   1      49.165  29.448  27.357  1.00  0.00     0.029 A 
ATOM     59  N   UNL A   1      47.025  29.150  27.881  1.00  0.00    -0.354 N 
ATOM     60  N   UNL A   1      44.369  29.994  28.796  1.00  0.00    -0.248 NA
ATOM     61  C   UNL A   1      42.943  31.632  29.661  1.00  0.00     0.031 C 
ATOM     62  C   UNL A   1      48.664  30.648  27.875  1.00  0.00     0.029 A 
ATOM     63  C   UNL A   1      47.323  30.470  28.174  1.00  0.00     0.049 A 
ATOM     64  H   UNL A   1      46.143  28.731  28.000  1.00  0.00     0.167 HD
ATOM     65  C   UNL A   1      45.077  31.182  28.947  1.00  0.00     0.074 A 
ATOM     66  C   UNL A   1      44.139  32.165  29.451  1.00  0.00     0.031 C 
ATOM     67  C   UNL A   1      46.384  31.436  28.689  1.00  0.00     0.031 A 
BRANCH  54  68
ATOM     68  C   UNL A   1      49.538  26.539  26.600  1.00  0.00    -0.014 A 
ATOM     69  C   UNL A   1      50.388  25.913  27.530  1.00  0.00     0.010 A 
ATOM     70  C   UNL A   1      49.928  26.594  25.250  1.00  0.00     0.010 A 
ATOM     71  C   UNL A   1      51.624  25.399  27.127  1.00  0.00     0.020 A 
ATOM     72  C   UNL A   1      51.149  26.054  24.837  1.00  0.00     0.020 A 
ATOM     73  C   UNL A   1      51.998  25.477  25.783  1.00  0.00     0.054 A 
BRANCH  73  74
ATOM     74  S   UNL A   1      53.601  24.788  25.286  1.00  0.00     0.124 S 
ATOM     75  O   UNL A   1      53.928  25.605  24.119  1.00  0.00    -0.237 OA
ATOM     76  O   UNL A   1      54.430  25.021  26.466  1.00  0.00    -0.237 OA
ATOM     77  O   UNL A   1      53.305  23.387  25.002  1.00  0.00    -0.744 OA
ENDBRANCH  73  74
ENDBRANCH  54  68
BRANCH  55  78
ATOM     78  C   UNL A   1      40.629  29.828  29.710  1.00  0.00    -0.014 A 
ATOM     79  C   UNL A   1      39.583  30.092  28.810  1.00  0.00     0.010 A 
ATOM     80  C   UNL A   1      40.404  29.995  31.088  1.00  0.00     0.010 A 
ATOM     81  C   UNL A   1      38.337  30.523  29.278  1.00  0.00     0.020 A 
ATOM     82  C   UNL A   1      39.153  30.398  31.561  1.00  0.00     0.020 A 
ATOM     83  C   UNL A   1      38.129  30.668  30.652  1.00  0.00     0.054 A 
BRANCH  83  84
ATOM     84  S   UNL A   1      36.486  31.161  31.242  1.00  0.00     0.124 S 
ATOM     85  O   UNL A   1      36.791  32.337  32.049  1.00  0.00    -0.237 OA
ATOM     86  O   UNL A   1      35.767  31.416  29.995  1.00  0.00    -0.237 OA
ATOM     87  O   UNL A   1      36.025  29.990  31.986  1.00  0.00    -0.744 OA
ENDBRANCH  83  84
ENDBRANCH  55  78
BRANCH  67  88
ATOM     88  C   UNL A   1      46.874  32.840  28.929  1.00  0.00    -0.014 A 
ATOM     89  C   UNL A   1      47.446  33.215  30.158  1.00  0.00     0.010 A 
ATOM     90  C   UNL A   1      46.788  33.790  27.895  1.00  0.00     0.010 A 
ATOM     91  C   UNL A   1      47.883  34.526  30.362  1.00  0.00     0.020 A 
ATOM     92  C   UNL A   1      47.252  35.095  28.085  1.00  0.00     0.020 A 
ATOM     93  C   UNL A   1      47.780  35.459  29.325  1.00  0.00     0.054 A 
BRANCH  93  94
ATOM     94  S   UNL A   1      48.376  37.149  29.608  1.00  0.00     0.124 S 
ATOM     95  O   UNL A   1      49.821  36.952  29.682  1.00  0.00    -0.237 OA
ATOM     96  O   UNL A   1      47.898  37.861  28.426  1.00  0.00    -0.237 OA
ATOM     97  O   UNL A   1      47.734  37.536  30.863  1.00  0.00    -0.744 OA
ENDBRANCH  93  94
ENDBRANCH  67  88
ENDBRANCH  41  42
ENDBRANCH  33  36
ENDBRANCH  31  32
ENDBRANCH   1  31
TORSDOF 18
ENDMDL
MODEL 3
REMARK VINA RESULT:     -11.7      1.808      4.041
REMARK SMILES Cc1[nH]cnc1C[NH+]1CCC(Oc2cccc(F)c2)(C(=O)NCCCCNC(=O)c2ccc(-c3c4nc(c(-c5ccc(S(=O)(=O)[O-])cc5)c5ccc([nH]5)c(-c5ccc(S(=O)(=O)[O-])cc5)c5nc(c(-c6ccc(S(=O)(=O)[O-])cc6)c6ccc3[nH]6)C=C5)C=C4)cc2)CC1
REMARK SMILES IDX 25 1 24 2 23 3 22 4 20 5 21 6 11 8 8 9 9 10 91 11 10 13
REMARK SMILES IDX 90 14 7 15 6 16 1 17 2 18 3 19 4 20 5 22 12 23 13 24 14 25
REMARK SMILES IDX 19 26 15 27 17 28 16 29 18 30 26 31 27 32 28 33 29 35 30 36
REMARK SMILES IDX 31 37 89 38 32 39 88 40 33 41 34 42 35 43 82 44 36 45 87 46
REMARK SMILES IDX 81 47 83 48 37 49 86 50 80 51 79 52 38 54 68 55 49 56 67 57
REMARK SMILES IDX 50 58 53 59 66 60 84 61 51 62 52 63 65 65 85 66 54 67 39 68
REMARK SMILES IDX 40 69 48 70 41 71 47 72 42 73 43 74 44 75 45 76 46 77 69 78
REMARK SMILES IDX 70 79 78 80 71 81 77 82 72 83 73 84 74 85 75 86 76 87 55 88
REMARK SMILES IDX 56 89 64 90 57 91 63 92 58 93 59 94 60 95 61 96 62 97
REMARK H PARENT 22 7 8 12 3 21 27 34 83 53 53 64
REMARK Flexibility Score: inf
ROOT
ATOM      1  C   UNL A   1      37.955  22.923  25.784  1.00  0.00     0.023 C 
ENDROOT
BRANCH   1   2
ATOM      2  C   UNL A   1      37.024  23.594  24.774  1.00  0.00     0.023 C 
BRANCH   2   3
ATOM      3  C   UNL A   1      35.788  24.254  25.381  1.00  0.00     0.116 C 
BRANCH   3   4
ATOM      4  N   UNL A   1      35.251  23.474  26.479  1.00  0.00    -0.353 N 
ATOM      5  C   UNL A   1      33.989  22.990  26.692  1.00  0.00     0.264 C 
ATOM      6  O   UNL A   1      33.866  22.226  27.655  1.00  0.00    -0.270 OA
ATOM      7  H   UNL A   1      35.900  23.255  27.185  1.00  0.00     0.163 HD
BRANCH   5   8
ATOM      8  C   UNL A   1      32.796  23.371  25.763  1.00  0.00     0.197 C 
ATOM      9  N   UNL A   1      32.312  21.074  24.006  1.00  0.00    -0.330 N 
ATOM     10  C   UNL A   1      31.979  20.993  25.427  1.00  0.00     0.267 C 
ATOM     11  C   UNL A   1      33.494  21.917  23.775  1.00  0.00     0.267 C 
ATOM     12  H   UNL A   1      31.524  21.530  23.545  1.00  0.00     0.348 HD
ATOM     13  C   UNL A   1      31.625  22.388  25.929  1.00  0.00     0.120 C 
ATOM     14  C   UNL A   1      33.260  23.345  24.289  1.00  0.00     0.120 C 
BRANCH   9  15
ATOM     15  C   UNL A   1      32.432  19.744  23.368  1.00  0.00     0.321 C 
BRANCH  15  16
ATOM     16  C   UNL A   1      32.854  18.644  24.299  1.00  0.00     0.115 A 
ATOM     17  C   UNL A   1      35.442  18.972  24.641  1.00  0.00     0.066 C 
ATOM     18  C   UNL A   1      34.113  18.340  24.796  1.00  0.00     0.040 A 
ATOM     19  N   UNL A   1      33.930  17.206  25.550  1.00  0.00    -0.348 N 
ATOM     20  C   UNL A   1      32.603  16.893  25.519  1.00  0.00     0.197 A 
ATOM     21  H   UNL A   1      34.631  16.707  26.027  1.00  0.00     0.167 HD
ATOM     22  N   UNL A   1      31.925  17.758  24.805  1.00  0.00    -0.236 NA
ENDBRANCH  15  16
ENDBRANCH   9  15
BRANCH   8  23
ATOM     23  O   UNL A   1      32.520  24.722  26.225  1.00  0.00    -0.477 OA
BRANCH  23  24
ATOM     24  C   UNL A   1      31.986  25.612  25.343  1.00  0.00     0.123 A 
ATOM     25  C   UNL A   1      30.620  25.624  25.064  1.00  0.00     0.046 A 
ATOM     26  C   UNL A   1      32.812  26.616  24.847  1.00  0.00     0.085 A 
ATOM     27  C   UNL A   1      30.090  26.584  24.202  1.00  0.00     0.007 A 
ATOM     28  C   UNL A   1      32.272  27.579  24.002  1.00  0.00     0.126 A 
ATOM     29  C   UNL A   1      30.922  27.563  23.662  1.00  0.00     0.039 A 
ATOM     30  F   UNL A   1      33.061  28.546  23.512  1.00  0.00    -0.207 F 
ENDBRANCH  23  24
ENDBRANCH   8  23
ENDBRANCH   5   8
ENDBRANCH   3   4
ENDBRANCH   2   3
ENDBRANCH   1   2
BRANCH   1  31
ATOM     31  C   UNL A   1      38.818  23.872  26.607  1.00  0.00     0.116 C 
BRANCH  31  32
ATOM     32  N   UNL A   1      40.193  23.945  26.135  1.00  0.00    -0.352 N 
ATOM     33  C   UNL A   1      41.160  24.878  26.416  1.00  0.00     0.251 C 
ATOM     34  H   UNL A   1      40.468  23.219  25.528  1.00  0.00     0.163 HD
ATOM     35  O   UNL A   1      42.230  24.846  25.815  1.00  0.00    -0.269 OA
BRANCH  33  36
ATOM     36  C   UNL A   1      40.894  25.938  27.413  1.00  0.00     0.039 A 
ATOM     37  C   UNL A   1      39.917  25.714  28.385  1.00  0.00     0.014 A 
ATOM     38  C   UNL A   1      41.617  27.134  27.406  1.00  0.00     0.014 A 
ATOM     39  C   UNL A   1      39.714  26.660  29.392  1.00  0.00     0.010 A 
ATOM     40  C   UNL A   1      41.468  28.040  28.453  1.00  0.00     0.010 A 
ATOM     41  C   UNL A   1      40.517  27.811  29.459  1.00  0.00    -0.014 A 
BRANCH  41  42
ATOM     42  C   UNL A   1      40.395  28.762  30.593  1.00  0.00     0.031 A 
ATOM     43  C   UNL A   1      41.267  28.620  31.811  1.00  0.00     0.074 A 
ATOM     44  C   UNL A   1      39.453  29.725  30.548  1.00  0.00     0.049 A 
ATOM     45  N   UNL A   1      41.292  29.353  32.895  1.00  0.00    -0.248 NA
ATOM     46  C   UNL A   1      42.217  27.497  31.825  1.00  0.00     0.031 C 
ATOM     47  C   UNL A   1      38.506  29.932  29.448  1.00  0.00     0.029 A 
ATOM     48  N   UNL A   1      39.134  30.711  31.448  1.00  0.00    -0.354 N 
ATOM     49  C   UNL A   1      42.246  28.774  33.723  1.00  0.00     0.074 A 
ATOM     50  C   UNL A   1      42.742  27.601  33.037  1.00  0.00     0.031 C 
ATOM     51  C   UNL A   1      37.737  30.997  29.724  1.00  0.00     0.029 A 
ATOM     52  C   UNL A   1      38.108  31.526  31.033  1.00  0.00     0.049 A 
ATOM     53  H   UNL A   1      39.596  30.824  32.310  1.00  0.00     0.167 HD
ATOM     54  C   UNL A   1      42.685  29.192  34.935  1.00  0.00     0.031 A 
ATOM     55  C   UNL A   1      37.525  32.581  31.636  1.00  0.00     0.031 A 
ATOM     56  C   UNL A   1      42.191  30.362  35.613  1.00  0.00     0.049 A 
ATOM     57  C   UNL A   1      38.032  33.030  32.978  1.00  0.00     0.074 A 
ATOM     58  C   UNL A   1      42.616  30.904  36.814  1.00  0.00     0.029 A 
ATOM     59  N   UNL A   1      41.158  31.166  35.155  1.00  0.00    -0.354 N 
ATOM     60  N   UNL A   1      38.994  32.517  33.707  1.00  0.00    -0.248 NA
ATOM     61  C   UNL A   1      37.386  34.208  33.570  1.00  0.00     0.031 C 
ATOM     62  C   UNL A   1      41.802  32.003  37.110  1.00  0.00     0.029 A 
ATOM     63  C   UNL A   1      40.912  32.183  36.063  1.00  0.00     0.049 A 
ATOM     64  H   UNL A   1      40.672  31.034  34.311  1.00  0.00     0.167 HD
ATOM     65  C   UNL A   1      39.083  33.324  34.836  1.00  0.00     0.074 A 
ATOM     66  C   UNL A   1      38.091  34.369  34.681  1.00  0.00     0.031 C 
ATOM     67  C   UNL A   1      39.912  33.210  35.904  1.00  0.00     0.031 A 
BRANCH  54  68
ATOM     68  C   UNL A   1      43.751  28.367  35.610  1.00  0.00    -0.014 A 
ATOM     69  C   UNL A   1      45.113  28.541  35.301  1.00  0.00     0.010 A 
ATOM     70  C   UNL A   1      43.390  27.425  36.591  1.00  0.00     0.010 A 
ATOM     71  C   UNL A   1      46.087  27.757  35.924  1.00  0.00     0.020 A 
ATOM     72  C   UNL A   1      44.365  26.660  37.238  1.00  0.00     0.020 A 
ATOM     73  C   UNL A   1      45.706  26.818  36.885  1.00  0.00     0.054 A 
BRANCH  73  74
ATOM     74  S   UNL A   1      46.994  25.823  37.688  1.00  0.00     0.124 S 
ATOM     75  O   UNL A   1      48.190  26.234  36.955  1.00  0.00    -0.237 OA
ATOM     76  O   UNL A   1      46.926  26.270  39.077  1.00  0.00    -0.237 OA
ATOM     77  O   UNL A   1      46.565  24.446  37.458  1.00  0.00    -0.744 OA
ENDBRANCH  73  74
ENDBRANCH  54  68
BRANCH  55  78
ATOM     78  C   UNL A   1      36.411  33.297  30.956  1.00  0.00    -0.014 A 
ATOM     79  C   UNL A   1      35.166  33.449  31.590  1.00  0.00     0.010 A 
ATOM     80  C   UNL A   1      36.602  33.860  29.681  1.00  0.00     0.010 A 
ATOM     81  C   UNL A   1      34.128  34.141  30.958  1.00  0.00     0.020 A 
ATOM     82  C   UNL A   1      35.577  34.576  29.058  1.00  0.00     0.020 A 
ATOM     83  C   UNL A   1      34.343  34.705  29.697  1.00  0.00     0.054 A 
BRANCH  83  84
ATOM     84  S   UNL A   1      33.006  35.658  28.925  1.00  0.00     0.124 S 
ATOM     85  O   UNL A   1      32.242  36.106  30.084  1.00  0.00    -0.237 OA
ATOM     86  O   UNL A   1      33.736  36.699  28.205  1.00  0.00    -0.237 OA
ATOM     87  O   UNL A   1      32.337  34.678  28.072  1.00  0.00    -0.744 OA
ENDBRANCH  83  84
ENDBRANCH  55  78
BRANCH  67  88
ATOM     88  C   UNL A   1      39.796  34.258  36.981  1.00  0.00    -0.014 A 
ATOM     89  C   UNL A   1      40.393  35.523  36.836  1.00  0.00     0.010 A 
ATOM     90  C   UNL A   1      39.050  33.980  38.141  1.00  0.00     0.010 A 
ATOM     91  C   UNL A   1      40.282  36.475  37.853  1.00  0.00     0.020 A 
ATOM     92  C   UNL A   1      38.911  34.941  39.146  1.00  0.00     0.020 A 
ATOM     93  C   UNL A   1      39.545  36.177  39.003  1.00  0.00     0.054 A 
BRANCH  93  94
ATOM     94  S   UNL A   1      39.397  37.439  40.298  1.00  0.00     0.124 S 
ATOM     95  O   UNL A   1      38.641  36.730  41.327  1.00  0.00    -0.237 OA
ATOM     96  O   UNL A   1      40.790  37.727  40.627  1.00  0.00    -0.237 OA
ATOM     97  O   UNL A   1      38.680  38.528  39.638  1.00  0.00    -0.744 OA
ENDBRANCH  93  94
ENDBRANCH  67  88
ENDBRANCH  41  42
ENDBRANCH  33  36
ENDBRANCH  31  32
ENDBRANCH   1  31
TORSDOF 18
ENDMDL
