MODEL 1
REMARK VINA RESULT:     -11.8      0.000      0.000
REMARK SMILES O=C(NCCCCNC(=O)c1ccc(-c2c3nc(c(-c4ccc(S(=O)(=O)[O-])cc4)c4ccc([nH]4)c(-c4ccc(S(=O)(=O)[O-])cc4)c4nc(c(-c5ccc(S(=O)(=O)[O-])cc5)c5ccc2[nH]5)C=C4)C=C3)cc1)C1=Cc2c(Cl)cc(Cl)cc2O[C@@H]1C(F)(F)F
REMARK SMILES IDX 6 1 5 2 4 3 3 4 1 5 2 6 71 8 72 9 82 10 73 11 81 12 74 13
REMARK SMILES IDX 80 14 75 15 76 16 79 17 77 18 78 19 83 20 84 21 85 22 86 23
REMARK SMILES IDX 7 24 8 25 9 26 10 28 11 29 12 30 70 31 13 32 69 33 14 34
REMARK SMILES IDX 15 35 16 36 63 37 17 38 68 39 62 40 64 41 18 42 67 43 61 44
REMARK SMILES IDX 60 45 19 47 49 48 30 49 48 50 31 51 34 52 47 53 65 54 32 55
REMARK SMILES IDX 33 56 46 58 66 59 35 60 20 61 21 62 29 63 22 64 28 65 23 66
REMARK SMILES IDX 24 67 25 68 26 69 27 70 50 71 51 72 59 73 52 74 58 75 53 76
REMARK SMILES IDX 54 77 55 78 56 79 57 80 36 81 37 82 45 83 38 84 44 85 39 86
REMARK SMILES IDX 40 87 41 88 42 89 43 90
REMARK H PARENT 3 7 8 27 64 46 34 57
REMARK Flexibility Score: inf
ROOT
ATOM      1  C   UNL A   1      32.481  29.792  25.787  1.00  0.00     0.023 C 
ENDROOT
BRANCH   1   2
ATOM      2  C   UNL A   1      31.558  28.585  25.647  1.00  0.00     0.023 C 
BRANCH   2   3
ATOM      3  C   UNL A   1      31.738  27.478  26.684  1.00  0.00     0.116 C 
BRANCH   3   4
ATOM      4  N   UNL A   1      30.706  26.442  26.672  1.00  0.00    -0.352 N 
ATOM      5  O   UNL A   1      29.877  24.347  26.451  1.00  0.00    -0.270 OA
ATOM      6  C   UNL A   1      30.757  25.156  26.179  1.00  0.00     0.251 C 
ATOM      7  H   UNL A   1      29.847  26.702  27.077  1.00  0.00     0.163 HD
BRANCH   6   8
ATOM      8  C   UNL A   1      31.997  24.713  25.490  1.00  0.00     0.067 C 
ATOM      9  C   UNL A   1      32.957  23.957  26.041  1.00  0.00     0.027 C 
ATOM     10  C   UNL A   1      32.030  24.909  24.005  1.00  0.00     0.314 C 
ATOM     11  C   UNL A   1      33.105  22.666  25.315  1.00  0.00     0.036 A 
ATOM     12  O   UNL A   1      32.053  23.638  23.314  1.00  0.00    -0.475 OA
ATOM     13  C   UNL A   1      33.463  21.466  25.972  1.00  0.00     0.053 A 
ATOM     14  C   UNL A   1      32.571  22.571  24.012  1.00  0.00     0.130 A 
ATOM     15  Cl  UNL A   1      34.001  21.441  27.617  1.00  0.00    -0.083 Cl
ATOM     16  C   UNL A   1      33.269  20.225  25.353  1.00  0.00     0.042 A 
ATOM     17  C   UNL A   1      32.406  21.334  23.387  1.00  0.00     0.067 A 
ATOM     18  C   UNL A   1      32.737  20.168  24.067  1.00  0.00     0.046 A 
ATOM     19  Cl  UNL A   1      32.423  18.644  23.337  1.00  0.00    -0.084 Cl
BRANCH  10  20
ATOM     20  C   UNL A   1      33.236  25.785  23.591  1.00  0.00     0.429 C 
ATOM     21  F   UNL A   1      34.137  25.072  22.874  1.00  0.00    -0.167 F 
ATOM     22  F   UNL A   1      32.865  26.836  22.822  1.00  0.00    -0.167 F 
ATOM     23  F   UNL A   1      33.901  26.294  24.659  1.00  0.00    -0.167 F 
ENDBRANCH  10  20
ENDBRANCH   6   8
ENDBRANCH   3   4
ENDBRANCH   2   3
ENDBRANCH   1   2
BRANCH   1  24
ATOM     24  C   UNL A   1      33.587  29.695  26.839  1.00  0.00     0.116 C 
BRANCH  24  25
ATOM     25  N   UNL A   1      33.691  30.845  27.729  1.00  0.00    -0.352 N 
ATOM     26  C   UNL A   1      34.722  31.216  28.578  1.00  0.00     0.251 C 
ATOM     27  H   UNL A   1      32.913  31.448  27.728  1.00  0.00     0.163 HD
ATOM     28  O   UNL A   1      34.621  32.200  29.280  1.00  0.00    -0.269 OA
BRANCH  26  29
ATOM     29  C   UNL A   1      35.923  30.347  28.665  1.00  0.00     0.039 A 
ATOM     30  C   UNL A   1      36.784  30.292  27.566  1.00  0.00     0.014 A 
ATOM     31  C   UNL A   1      36.253  29.702  29.857  1.00  0.00     0.014 A 
ATOM     32  C   UNL A   1      38.050  29.721  27.716  1.00  0.00     0.010 A 
ATOM     33  C   UNL A   1      37.542  29.207  30.027  1.00  0.00     0.010 A 
ATOM     34  C   UNL A   1      38.468  29.254  28.973  1.00  0.00    -0.014 A 
BRANCH  34  35
ATOM     35  C   UNL A   1      39.893  28.925  29.238  1.00  0.00     0.031 A 
ATOM     36  C   UNL A   1      40.841  29.970  29.753  1.00  0.00     0.074 A 
ATOM     37  C   UNL A   1      40.358  27.707  28.893  1.00  0.00     0.049 A 
ATOM     38  N   UNL A   1      42.131  29.886  29.944  1.00  0.00    -0.248 NA
ATOM     39  C   UNL A   1      40.268  31.289  30.061  1.00  0.00     0.031 C 
ATOM     40  C   UNL A   1      39.556  26.626  28.311  1.00  0.00     0.029 A 
ATOM     41  N   UNL A   1      41.623  27.176  28.958  1.00  0.00    -0.354 N 
ATOM     42  C   UNL A   1      42.531  31.143  30.378  1.00  0.00     0.074 A 
ATOM     43  C   UNL A   1      41.351  31.983  30.378  1.00  0.00     0.031 C 
ATOM     44  C   UNL A   1      40.343  25.563  28.087  1.00  0.00     0.029 A 
ATOM     45  C   UNL A   1      41.711  25.894  28.470  1.00  0.00     0.049 A 
ATOM     46  H   UNL A   1      42.395  27.669  29.321  1.00  0.00     0.167 HD
ATOM     47  C   UNL A   1      43.764  31.559  30.755  1.00  0.00     0.031 A 
ATOM     48  C   UNL A   1      42.772  25.075  28.330  1.00  0.00     0.031 A 
ATOM     49  C   UNL A   1      44.935  30.723  30.755  1.00  0.00     0.049 A 
ATOM     50  C   UNL A   1      44.127  25.548  28.766  1.00  0.00     0.074 A 
ATOM     51  C   UNL A   1      46.213  31.030  31.187  1.00  0.00     0.029 A 
ATOM     52  N   UNL A   1      44.974  29.417  30.290  1.00  0.00    -0.354 N 
ATOM     53  N   UNL A   1      44.468  26.715  29.260  1.00  0.00    -0.248 NA
ATOM     54  C   UNL A   1      45.240  24.598  28.634  1.00  0.00     0.031 C 
ATOM     55  C   UNL A   1      47.035  29.924  30.941  1.00  0.00     0.029 A 
ATOM     56  C   UNL A   1      46.259  28.912  30.398  1.00  0.00     0.049 A 
ATOM     57  H   UNL A   1      44.201  28.920  29.935  1.00  0.00     0.167 HD
ATOM     58  C   UNL A   1      45.833  26.637  29.505  1.00  0.00     0.074 A 
ATOM     59  C   UNL A   1      46.252  25.303  29.123  1.00  0.00     0.031 C 
ATOM     60  C   UNL A   1      46.664  27.587  30.000  1.00  0.00     0.031 A 
BRANCH  47  61
ATOM     61  C   UNL A   1      43.898  32.995  31.188  1.00  0.00    -0.014 A 
ATOM     62  C   UNL A   1      43.681  33.371  32.527  1.00  0.00     0.010 A 
ATOM     63  C   UNL A   1      44.237  33.982  30.245  1.00  0.00     0.010 A 
ATOM     64  C   UNL A   1      43.733  34.715  32.900  1.00  0.00     0.020 A 
ATOM     65  C   UNL A   1      44.317  35.326  30.621  1.00  0.00     0.020 A 
ATOM     66  C   UNL A   1      44.037  35.686  31.942  1.00  0.00     0.054 A 
BRANCH  66  67
ATOM     67  S   UNL A   1      44.073  37.428  32.446  1.00  0.00     0.124 S 
ATOM     68  O   UNL A   1      45.459  37.583  32.884  1.00  0.00    -0.237 OA
ATOM     69  O   UNL A   1      43.725  38.129  31.213  1.00  0.00    -0.237 OA
ATOM     70  O   UNL A   1      43.073  37.502  33.506  1.00  0.00    -0.744 OA
ENDBRANCH  66  67
ENDBRANCH  47  61
BRANCH  48  71
ATOM     71  C   UNL A   1      42.577  23.719  27.748  1.00  0.00    -0.014 A 
ATOM     72  C   UNL A   1      42.805  23.490  26.381  1.00  0.00     0.010 A 
ATOM     73  C   UNL A   1      42.219  22.638  28.574  1.00  0.00     0.010 A 
ATOM     74  C   UNL A   1      42.684  22.203  25.849  1.00  0.00     0.020 A 
ATOM     75  C   UNL A   1      42.119  21.346  28.051  1.00  0.00     0.020 A 
ATOM     76  C   UNL A   1      42.348  21.137  26.689  1.00  0.00     0.054 A 
BRANCH  76  77
ATOM     77  S   UNL A   1      42.290  19.459  25.999  1.00  0.00     0.124 S 
ATOM     78  O   UNL A   1      40.875  19.314  25.673  1.00  0.00    -0.237 OA
ATOM     79  O   UNL A   1      43.197  19.554  24.857  1.00  0.00    -0.237 OA
ATOM     80  O   UNL A   1      42.772  18.624  27.096  1.00  0.00    -0.744 OA
ENDBRANCH  76  77
ENDBRANCH  48  71
BRANCH  60  81
ATOM     81  C   UNL A   1      48.113  27.221  30.157  1.00  0.00    -0.014 A 
ATOM     82  C   UNL A   1      49.046  27.518  29.147  1.00  0.00     0.010 A 
ATOM     83  C   UNL A   1      48.560  26.635  31.356  1.00  0.00     0.010 A 
ATOM     84  C   UNL A   1      50.399  27.219  29.328  1.00  0.00     0.020 A 
ATOM     85  C   UNL A   1      49.916  26.355  31.547  1.00  0.00     0.020 A 
ATOM     86  C   UNL A   1      50.826  26.642  30.527  1.00  0.00     0.054 A 
BRANCH  86  87
ATOM     87  S   UNL A   1      52.596  26.321  30.762  1.00  0.00     0.124 S 
ATOM     88  O   UNL A   1      53.041  26.057  29.397  1.00  0.00    -0.237 OA
ATOM     89  O   UNL A   1      53.074  27.571  31.349  1.00  0.00    -0.237 OA
ATOM     90  O   UNL A   1      52.622  25.169  31.661  1.00  0.00    -0.744 OA
ENDBRANCH  86  87
ENDBRANCH  60  81
ENDBRANCH  34  35
ENDBRANCH  26  29
ENDBRANCH  24  25
ENDBRANCH   1  24
TORSDOF 15
ENDMDL
MODEL 2
REMARK VINA RESULT:     -11.6      2.894      4.088
REMARK SMILES O=C(NCCCCNC(=O)c1ccc(-c2c3nc(c(-c4ccc(S(=O)(=O)[O-])cc4)c4ccc([nH]4)c(-c4ccc(S(=O)(=O)[O-])cc4)c4nc(c(-c5ccc(S(=O)(=O)[O-])cc5)c5ccc2[nH]5)C=C4)C=C3)cc1)C1=Cc2c(Cl)cc(Cl)cc2O[C@@H]1C(F)(F)F
REMARK SMILES IDX 6 1 5 2 4 3 3 4 1 5 2 6 71 8 72 9 82 10 73 11 81 12 74 13
REMARK SMILES IDX 80 14 75 15 76 16 79 17 77 18 78 19 83 20 84 21 85 22 86 23
REMARK SMILES IDX 7 24 8 25 9 26 10 28 11 29 12 30 70 31 13 32 69 33 14 34
REMARK SMILES IDX 15 35 16 36 63 37 17 38 68 39 62 40 64 41 18 42 67 43 61 44
REMARK SMILES IDX 60 45 19 47 49 48 30 49 48 50 31 51 34 52 47 53 65 54 32 55
REMARK SMILES IDX 33 56 46 58 66 59 35 60 20 61 21 62 29 63 22 64 28 65 23 66
REMARK SMILES IDX 24 67 25 68 26 69 27 70 50 71 51 72 59 73 52 74 58 75 53 76
REMARK SMILES IDX 54 77 55 78 56 79 57 80 36 81 37 82 45 83 38 84 44 85 39 86
REMARK SMILES IDX 40 87 41 88 42 89 43 90
REMARK H PARENT 3 7 8 27 64 46 34 57
REMARK Flexibility Score: inf
ROOT
ATOM      1  C   UNL A   1      32.865  28.848  26.894  1.00  0.00     0.023 C 
ENDROOT
BRANCH   1   2
ATOM      2  C   UNL A   1      33.507  27.486  26.645  1.00  0.00     0.023 C 
BRANCH   2   3
ATOM      3  C   UNL A   1      33.104  26.778  25.352  1.00  0.00     0.116 C 
BRANCH   3   4
ATOM      4  N   UNL A   1      33.447  27.489  24.121  1.00  0.00    -0.352 N 
ATOM      5  O   UNL A   1      33.154  28.971  22.435  1.00  0.00    -0.270 OA
ATOM      6  C   UNL A   1      32.654  28.266  23.305  1.00  0.00     0.251 C 
ATOM      7  H   UNL A   1      34.384  27.398  23.833  1.00  0.00     0.163 HD
BRANCH   6   8
ATOM      8  C   UNL A   1      31.211  28.392  23.635  1.00  0.00     0.067 C 
ATOM      9  C   UNL A   1      30.675  29.358  24.395  1.00  0.00     0.027 C 
ATOM     10  C   UNL A   1      30.276  27.533  22.841  1.00  0.00     0.314 C 
ATOM     11  C   UNL A   1      29.700  30.171  23.620  1.00  0.00     0.036 A 
ATOM     12  O   UNL A   1      29.415  28.338  22.002  1.00  0.00    -0.475 OA
ATOM     13  C   UNL A   1      29.512  31.553  23.853  1.00  0.00     0.053 A 
ATOM     14  C   UNL A   1      29.185  29.629  22.423  1.00  0.00     0.130 A 
ATOM     15  Cl  UNL A   1      30.210  32.361  25.216  1.00  0.00    -0.083 Cl
ATOM     16  C   UNL A   1      28.857  32.356  22.912  1.00  0.00     0.042 A 
ATOM     17  C   UNL A   1      28.508  30.426  21.500  1.00  0.00     0.067 A 
ATOM     18  C   UNL A   1      28.364  31.788  21.740  1.00  0.00     0.046 A 
ATOM     19  Cl  UNL A   1      27.631  32.785  20.546  1.00  0.00    -0.084 Cl
BRANCH  10  20
ATOM     20  C   UNL A   1      29.444  26.617  23.770  1.00  0.00     0.429 C 
ATOM     21  F   UNL A   1      29.877  26.696  25.051  1.00  0.00    -0.167 F 
ATOM     22  F   UNL A   1      28.132  26.952  23.777  1.00  0.00    -0.167 F 
ATOM     23  F   UNL A   1      29.515  25.310  23.413  1.00  0.00    -0.167 F 
ENDBRANCH  10  20
ENDBRANCH   6   8
ENDBRANCH   3   4
ENDBRANCH   2   3
ENDBRANCH   1   2
BRANCH   1  24
ATOM     24  C   UNL A   1      33.702  30.079  26.542  1.00  0.00     0.116 C 
BRANCH  24  25
ATOM     25  N   UNL A   1      33.718  31.122  27.561  1.00  0.00    -0.352 N 
ATOM     26  C   UNL A   1      34.668  31.394  28.533  1.00  0.00     0.251 C 
ATOM     27  H   UNL A   1      32.938  31.722  27.558  1.00  0.00     0.163 HD
ATOM     28  O   UNL A   1      34.498  32.294  29.327  1.00  0.00    -0.269 OA
BRANCH  26  29
ATOM     29  C   UNL A   1      35.863  30.520  28.627  1.00  0.00     0.039 A 
ATOM     30  C   UNL A   1      36.827  30.600  27.619  1.00  0.00     0.014 A 
ATOM     31  C   UNL A   1      36.084  29.731  29.757  1.00  0.00     0.014 A 
ATOM     32  C   UNL A   1      38.078  30.012  27.819  1.00  0.00     0.010 A 
ATOM     33  C   UNL A   1      37.355  29.216  29.989  1.00  0.00     0.010 A 
ATOM     34  C   UNL A   1      38.378  29.393  29.043  1.00  0.00    -0.014 A 
BRANCH  34  35
ATOM     35  C   UNL A   1      39.774  29.031  29.404  1.00  0.00     0.031 A 
ATOM     36  C   UNL A   1      40.694  30.041  30.026  1.00  0.00     0.074 A 
ATOM     37  C   UNL A   1      40.247  27.818  29.050  1.00  0.00     0.049 A 
ATOM     38  N   UNL A   1      41.965  29.928  30.312  1.00  0.00    -0.248 NA
ATOM     39  C   UNL A   1      40.118  31.357  30.339  1.00  0.00     0.031 C 
ATOM     40  C   UNL A   1      39.477  26.772  28.369  1.00  0.00     0.029 A 
ATOM     41  N   UNL A   1      41.496  27.265  29.191  1.00  0.00    -0.354 N 
ATOM     42  C   UNL A   1      42.348  31.162  30.821  1.00  0.00     0.074 A 
ATOM     43  C   UNL A   1      41.183  32.021  30.763  1.00  0.00     0.031 C 
ATOM     44  C   UNL A   1      40.264  25.705  28.166  1.00  0.00     0.029 A 
ATOM     45  C   UNL A   1      41.604  25.999  28.664  1.00  0.00     0.049 A 
ATOM     46  H   UNL A   1      42.245  27.731  29.629  1.00  0.00     0.167 HD
ATOM     47  C   UNL A   1      43.555  31.544  31.305  1.00  0.00     0.031 A 
ATOM     48  C   UNL A   1      42.661  25.168  28.573  1.00  0.00     0.031 A 
ATOM     49  C   UNL A   1      44.710  30.689  31.363  1.00  0.00     0.049 A 
ATOM     50  C   UNL A   1      43.985  25.604  29.128  1.00  0.00     0.074 A 
ATOM     51  C   UNL A   1      45.956  30.959  31.901  1.00  0.00     0.029 A 
ATOM     52  N   UNL A   1      44.767  29.400  30.854  1.00  0.00    -0.354 N 
ATOM     53  N   UNL A   1      44.303  26.746  29.690  1.00  0.00    -0.248 NA
ATOM     54  C   UNL A   1      45.091  24.640  29.045  1.00  0.00     0.031 C 
ATOM     55  C   UNL A   1      46.779  29.850  31.677  1.00  0.00     0.029 A 
ATOM     56  C   UNL A   1      46.033  28.871  31.040  1.00  0.00     0.049 A 
ATOM     57  H   UNL A   1      44.016  28.930  30.423  1.00  0.00     0.167 HD
ATOM     58  C   UNL A   1      45.644  26.636  30.033  1.00  0.00     0.074 A 
ATOM     59  C   UNL A   1      46.073  25.311  29.635  1.00  0.00     0.031 C 
ATOM     60  C   UNL A   1      46.449  27.555  30.624  1.00  0.00     0.031 A 
BRANCH  47  61
ATOM     61  C   UNL A   1      43.675  32.961  31.799  1.00  0.00    -0.014 A 
ATOM     62  C   UNL A   1      43.307  33.302  33.115  1.00  0.00     0.010 A 
ATOM     63  C   UNL A   1      44.153  33.965  30.939  1.00  0.00     0.010 A 
ATOM     64  C   UNL A   1      43.351  34.632  33.538  1.00  0.00     0.020 A 
ATOM     65  C   UNL A   1      44.224  35.294  31.368  1.00  0.00     0.020 A 
ATOM     66  C   UNL A   1      43.796  35.622  32.657  1.00  0.00     0.054 A 
BRANCH  66  67
ATOM     67  S   UNL A   1      43.820  37.346  33.220  1.00  0.00     0.124 S 
ATOM     68  O   UNL A   1      42.659  37.385  34.108  1.00  0.00    -0.237 OA
ATOM     69  O   UNL A   1      45.117  37.453  33.881  1.00  0.00    -0.237 OA
ATOM     70  O   UNL A   1      43.686  38.115  31.986  1.00  0.00    -0.744 OA
ENDBRANCH  66  67
ENDBRANCH  47  61
BRANCH  48  71
ATOM     71  C   UNL A   1      42.491  23.838  27.929  1.00  0.00    -0.014 A 
ATOM     72  C   UNL A   1      42.805  23.659  26.571  1.00  0.00     0.010 A 
ATOM     73  C   UNL A   1      42.073  22.730  28.688  1.00  0.00     0.010 A 
ATOM     74  C   UNL A   1      42.707  22.394  25.983  1.00  0.00     0.020 A 
ATOM     75  C   UNL A   1      41.995  21.460  28.110  1.00  0.00     0.020 A 
ATOM     76  C   UNL A   1      42.309  21.301  26.758  1.00  0.00     0.054 A 
BRANCH  76  77
ATOM     77  S   UNL A   1      42.281  19.651  26.002  1.00  0.00     0.124 S 
ATOM     78  O   UNL A   1      43.212  19.811  24.890  1.00  0.00    -0.237 OA
ATOM     79  O   UNL A   1      42.739  18.794  27.094  1.00  0.00    -0.237 OA
ATOM     80  O   UNL A   1      40.880  19.471  25.629  1.00  0.00    -0.744 OA
ENDBRANCH  76  77
ENDBRANCH  48  71
BRANCH  60  81
ATOM     81  C   UNL A   1      47.877  27.159  30.877  1.00  0.00    -0.014 A 
ATOM     82  C   UNL A   1      48.222  26.377  31.993  1.00  0.00     0.010 A 
ATOM     83  C   UNL A   1      48.875  27.518  29.952  1.00  0.00     0.010 A 
ATOM     84  C   UNL A   1      49.544  25.973  32.189  1.00  0.00     0.020 A 
ATOM     85  C   UNL A   1      50.195  27.097  30.135  1.00  0.00     0.020 A 
ATOM     86  C   UNL A   1      50.523  26.334  31.258  1.00  0.00     0.054 A 
BRANCH  86  87
ATOM     87  S   UNL A   1      52.221  25.744  31.500  1.00  0.00     0.124 S 
ATOM     88  O   UNL A   1      52.004  24.388  31.994  1.00  0.00    -0.237 OA
ATOM     89  O   UNL A   1      52.791  25.841  30.158  1.00  0.00    -0.237 OA
ATOM     90  O   UNL A   1      52.776  26.681  32.474  1.00  0.00    -0.744 OA
ENDBRANCH  86  87
ENDBRANCH  60  81
ENDBRANCH  34  35
ENDBRANCH  26  29
ENDBRANCH  24  25
ENDBRANCH   1  24
TORSDOF 15
ENDMDL
MODEL 3
REMARK VINA RESULT:     -11.5      5.114     10.496
REMARK SMILES O=C(NCCCCNC(=O)c1ccc(-c2c3nc(c(-c4ccc(S(=O)(=O)[O-])cc4)c4ccc([nH]4)c(-c4ccc(S(=O)(=O)[O-])cc4)c4nc(c(-c5ccc(S(=O)(=O)[O-])cc5)c5ccc2[nH]5)C=C4)C=C3)cc1)C1=Cc2c(Cl)cc(Cl)cc2O[C@@H]1C(F)(F)F
REMARK SMILES IDX 6 1 5 2 4 3 3 4 1 5 2 6 71 8 72 9 82 10 73 11 81 12 74 13
REMARK SMILES IDX 80 14 75 15 76 16 79 17 77 18 78 19 83 20 84 21 85 22 86 23
REMARK SMILES IDX 7 24 8 25 9 26 10 28 11 29 12 30 70 31 13 32 69 33 14 34
REMARK SMILES IDX 15 35 16 36 63 37 17 38 68 39 62 40 64 41 18 42 67 43 61 44
REMARK SMILES IDX 60 45 19 47 49 48 30 49 48 50 31 51 34 52 47 53 65 54 32 55
REMARK SMILES IDX 33 56 46 58 66 59 35 60 20 61 21 62 29 63 22 64 28 65 23 66
REMARK SMILES IDX 24 67 25 68 26 69 27 70 50 71 51 72 59 73 52 74 58 75 53 76
REMARK SMILES IDX 54 77 55 78 56 79 57 80 36 81 37 82 45 83 38 84 44 85 39 86
REMARK SMILES IDX 40 87 41 88 42 89 43 90
REMARK H PARENT 3 7 8 27 64 46 34 57
REMARK Flexibility Score: inf
ROOT
ATOM      1  C   UNL A   1      37.618  23.302  26.120  1.00  0.00     0.023 C 
ENDROOT
BRANCH   1   2
ATOM      2  C   UNL A   1      36.700  23.686  24.962  1.00  0.00     0.023 C 
BRANCH   2   3
ATOM      3  C   UNL A   1      35.268  24.065  25.337  1.00  0.00     0.116 C 
BRANCH   3   4
ATOM      4  N   UNL A   1      34.721  23.360  26.495  1.00  0.00    -0.352 N 
ATOM      5  O   UNL A   1      33.909  21.587  27.646  1.00  0.00    -0.270 OA
ATOM      6  C   UNL A   1      34.108  22.127  26.563  1.00  0.00     0.251 C 
ATOM      7  H   UNL A   1      34.803  23.836  27.352  1.00  0.00     0.163 HD
BRANCH   6   8
ATOM      8  C   UNL A   1      33.884  21.379  25.300  1.00  0.00     0.067 C 
ATOM      9  C   UNL A   1      34.776  20.563  24.718  1.00  0.00     0.027 C 
ATOM     10  C   UNL A   1      32.473  21.335  24.801  1.00  0.00     0.314 C 
ATOM     11  C   UNL A   1      34.258  19.170  24.642  1.00  0.00     0.036 A 
ATOM     12  O   UNL A   1      31.946  19.988  24.847  1.00  0.00    -0.475 OA
ATOM     13  C   UNL A   1      35.104  18.042  24.747  1.00  0.00     0.053 A 
ATOM     14  C   UNL A   1      32.869  18.969  24.787  1.00  0.00     0.130 A 
ATOM     15  Cl  UNL A   1      36.830  18.178  24.722  1.00  0.00    -0.083 Cl
ATOM     16  C   UNL A   1      34.575  16.772  25.010  1.00  0.00     0.042 A 
ATOM     17  C   UNL A   1      32.343  17.698  25.020  1.00  0.00     0.067 A 
ATOM     18  C   UNL A   1      33.199  16.610  25.151  1.00  0.00     0.046 A 
ATOM     19  Cl  UNL A   1      32.555  15.068  25.553  1.00  0.00    -0.084 Cl
BRANCH  10  20
ATOM     20  C   UNL A   1      32.374  21.919  23.372  1.00  0.00     0.429 C 
ATOM     21  F   UNL A   1      33.458  22.676  23.075  1.00  0.00    -0.167 F 
ATOM     22  F   UNL A   1      32.302  20.951  22.427  1.00  0.00    -0.167 F 
ATOM     23  F   UNL A   1      31.286  22.712  23.206  1.00  0.00    -0.167 F 
ENDBRANCH  10  20
ENDBRANCH   6   8
ENDBRANCH   3   4
ENDBRANCH   2   3
ENDBRANCH   1   2
BRANCH   1  24
ATOM     24  C   UNL A   1      38.374  24.441  26.806  1.00  0.00     0.116 C 
BRANCH  24  25
ATOM     25  N   UNL A   1      39.602  24.854  26.137  1.00  0.00    -0.352 N 
ATOM     26  C   UNL A   1      40.411  25.955  26.375  1.00  0.00     0.251 C 
ATOM     27  H   UNL A   1      39.901  24.265  25.408  1.00  0.00     0.163 HD
ATOM     28  O   UNL A   1      41.390  26.161  25.689  1.00  0.00    -0.269 OA
BRANCH  26  29
ATOM     29  C   UNL A   1      40.019  26.913  27.438  1.00  0.00     0.039 A 
ATOM     30  C   UNL A   1      39.458  26.408  28.613  1.00  0.00     0.014 A 
ATOM     31  C   UNL A   1      40.320  28.270  27.322  1.00  0.00     0.014 A 
ATOM     32  C   UNL A   1      39.344  27.240  29.730  1.00  0.00     0.010 A 
ATOM     33  C   UNL A   1      40.281  29.074  28.457  1.00  0.00     0.010 A 
ATOM     34  C   UNL A   1      39.837  28.553  29.684  1.00  0.00    -0.014 A 
BRANCH  34  35
ATOM     35  C   UNL A   1      40.010  29.357  30.922  1.00  0.00     0.031 A 
ATOM     36  C   UNL A   1      41.105  29.040  31.898  1.00  0.00     0.074 A 
ATOM     37  C   UNL A   1      39.092  30.299  31.223  1.00  0.00     0.049 A 
ATOM     38  N   UNL A   1      41.340  29.570  33.071  1.00  0.00    -0.248 NA
ATOM     39  C   UNL A   1      42.038  27.968  31.521  1.00  0.00     0.031 C 
ATOM     40  C   UNL A   1      37.934  30.651  30.395  1.00  0.00     0.029 A 
ATOM     41  N   UNL A   1      38.972  31.118  32.319  1.00  0.00    -0.354 N 
ATOM     42  C   UNL A   1      42.434  28.885  33.582  1.00  0.00     0.074 A 
ATOM     43  C   UNL A   1      42.789  27.872  32.609  1.00  0.00     0.031 C 
ATOM     44  C   UNL A   1      37.233  31.620  31.004  1.00  0.00     0.029 A 
ATOM     45  C   UNL A   1      37.864  31.933  32.282  1.00  0.00     0.049 A 
ATOM     46  H   UNL A   1      39.618  31.122  33.062  1.00  0.00     0.167 HD
ATOM     47  C   UNL A   1      43.095  29.088  34.748  1.00  0.00     0.031 A 
ATOM     48  C   UNL A   1      37.394  32.823  33.178  1.00  0.00     0.031 A 
ATOM     49  C   UNL A   1      42.742  30.095  35.712  1.00  0.00     0.049 A 
ATOM     50  C   UNL A   1      38.147  33.044  34.456  1.00  0.00     0.074 A 
ATOM     51  C   UNL A   1      43.391  30.427  36.888  1.00  0.00     0.029 A 
ATOM     52  N   UNL A   1      41.635  30.927  35.619  1.00  0.00    -0.354 N 
ATOM     53  N   UNL A   1      39.236  32.447  34.880  1.00  0.00    -0.248 NA
ATOM     54  C   UNL A   1      37.615  34.060  35.376  1.00  0.00     0.031 C 
ATOM     55  C   UNL A   1      42.652  31.429  37.528  1.00  0.00     0.029 A 
ATOM     56  C   UNL A   1      41.567  31.753  36.728  1.00  0.00     0.049 A 
ATOM     57  H   UNL A   1      40.993  30.929  34.872  1.00  0.00     0.167 HD
ATOM     58  C   UNL A   1      39.524  33.020  36.112  1.00  0.00     0.074 A 
ATOM     59  C   UNL A   1      38.508  34.023  36.357  1.00  0.00     0.031 C 
ATOM     60  C   UNL A   1      40.540  32.737  36.965  1.00  0.00     0.031 A 
BRANCH  47  61
ATOM     61  C   UNL A   1      44.263  28.183  35.038  1.00  0.00    -0.014 A 
ATOM     62  C   UNL A   1      44.085  26.976  35.740  1.00  0.00     0.010 A 
ATOM     63  C   UNL A   1      45.552  28.545  34.612  1.00  0.00     0.010 A 
ATOM     64  C   UNL A   1      45.186  26.182  36.069  1.00  0.00     0.020 A 
ATOM     65  C   UNL A   1      46.654  27.739  34.916  1.00  0.00     0.020 A 
ATOM     66  C   UNL A   1      46.465  26.576  35.667  1.00  0.00     0.054 A 
BRANCH  66  67
ATOM     67  S   UNL A   1      47.883  25.543  36.128  1.00  0.00     0.124 S 
ATOM     68  O   UNL A   1      48.858  25.897  35.098  1.00  0.00    -0.237 OA
ATOM     69  O   UNL A   1      48.199  26.010  37.475  1.00  0.00    -0.237 OA
ATOM     70  O   UNL A   1      47.359  24.182  36.049  1.00  0.00    -0.744 OA
ENDBRANCH  66  67
ENDBRANCH  47  61
BRANCH  48  71
ATOM     71  C   UNL A   1      36.142  33.569  32.878  1.00  0.00    -0.014 A 
ATOM     72  C   UNL A   1      34.889  33.014  33.191  1.00  0.00     0.010 A 
ATOM     73  C   UNL A   1      36.201  34.865  32.333  1.00  0.00     0.010 A 
ATOM     74  C   UNL A   1      33.718  33.744  32.969  1.00  0.00     0.020 A 
ATOM     75  C   UNL A   1      35.034  35.605  32.130  1.00  0.00     0.020 A 
ATOM     76  C   UNL A   1      33.797  35.037  32.446  1.00  0.00     0.054 A 
BRANCH  76  77
ATOM     77  S   UNL A   1      32.272  36.004  32.255  1.00  0.00     0.124 S 
ATOM     78  O   UNL A   1      32.321  36.370  30.843  1.00  0.00    -0.237 OA
ATOM     79  O   UNL A   1      31.238  35.040  32.625  1.00  0.00    -0.237 OA
ATOM     80  O   UNL A   1      32.448  37.106  33.197  1.00  0.00    -0.744 OA
ENDBRANCH  76  77
ENDBRANCH  48  71
BRANCH  60  81
ATOM     81  C   UNL A   1      40.605  33.521  38.245  1.00  0.00    -0.014 A 
ATOM     82  C   UNL A   1      41.290  34.748  38.305  1.00  0.00     0.010 A 
ATOM     83  C   UNL A   1      39.918  33.060  39.383  1.00  0.00     0.010 A 
ATOM     84  C   UNL A   1      41.299  35.493  39.487  1.00  0.00     0.020 A 
ATOM     85  C   UNL A   1      39.908  33.814  40.560  1.00  0.00     0.020 A 
ATOM     86  C   UNL A   1      40.607  35.022  40.606  1.00  0.00     0.054 A 
BRANCH  86  87
ATOM     87  S   UNL A   1      40.581  36.038  42.110  1.00  0.00     0.124 S 
ATOM     88  O   UNL A   1      39.334  36.781  41.953  1.00  0.00    -0.237 OA
ATOM     89  O   UNL A   1      40.586  35.037  43.175  1.00  0.00    -0.237 OA
ATOM     90  O   UNL A   1      41.800  36.837  42.008  1.00  0.00    -0.744 OA
ENDBRANCH  86  87
ENDBRANCH  60  81
ENDBRANCH  34  35
ENDBRANCH  26  29
ENDBRANCH  24  25
ENDBRANCH   1  24
TORSDOF 15
ENDMDL
