MODEL 1
REMARK VINA RESULT:     -11.9      0.000      0.000
REMARK SMILES O=C(NCCCCNC(=O)c1ccc(-c2c3nc(c(-c4ccc(S(=O)(=O)[O-])cc4)c4ccc([nH]4)c(-c4ccc(S(=O)(=O)[O-])cc4)c4nc(c(-c5ccc(S(=O)(=O)[O-])cc5)c5ccc2[nH]5)C=C4)C=C3)cc1)C1=Cc2cc(C(F)(F)F)ccc2O[C@@H]1C(F)(F)F
REMARK SMILES IDX 6 1 5 2 4 3 3 4 1 5 2 6 71 8 72 9 84 10 73 11 83 12 74 13
REMARK SMILES IDX 82 14 75 15 81 16 80 17 85 18 86 19 87 20 88 21 76 22 77 23
REMARK SMILES IDX 78 24 79 25 7 26 8 27 9 28 10 30 11 31 12 32 70 33 13 34
REMARK SMILES IDX 69 35 14 36 15 37 16 38 63 39 17 40 68 41 62 42 64 43 18 44
REMARK SMILES IDX 67 45 61 46 60 47 19 49 49 50 30 51 48 52 31 53 34 54 47 55
REMARK SMILES IDX 65 56 32 57 33 58 46 60 66 61 35 62 20 63 21 64 29 65 22 66
REMARK SMILES IDX 28 67 23 68 24 69 25 70 26 71 27 72 50 73 51 74 59 75 52 76
REMARK SMILES IDX 58 77 53 78 54 79 55 80 56 81 57 82 36 83 37 84 45 85 38 86
REMARK SMILES IDX 44 87 39 88 40 89 41 90 42 91 43 92
REMARK H PARENT 3 7 8 29 64 48 34 59
REMARK Flexibility Score: inf
ROOT
ATOM      1  C   UNL A   1      31.992  28.075  26.604  1.00  0.00     0.023 C 
ENDROOT
BRANCH   1   2
ATOM      2  C   UNL A   1      31.833  26.568  26.799  1.00  0.00     0.023 C 
BRANCH   2   3
ATOM      3  C   UNL A   1      30.560  25.972  26.194  1.00  0.00     0.116 C 
BRANCH   3   4
ATOM      4  N   UNL A   1      30.472  24.514  26.301  1.00  0.00    -0.352 N 
ATOM      5  O   UNL A   1      31.013  22.365  25.812  1.00  0.00    -0.270 OA
ATOM      6  C   UNL A   1      30.954  23.536  25.458  1.00  0.00     0.251 C 
ATOM      7  H   UNL A   1      29.996  24.182  27.096  1.00  0.00     0.163 HD
BRANCH   6   8
ATOM      8  C   UNL A   1      31.514  23.954  24.156  1.00  0.00     0.067 C 
ATOM      9  C   UNL A   1      30.745  24.591  23.262  1.00  0.00     0.025 C 
ATOM     10  C   UNL A   1      33.006  23.926  24.011  1.00  0.00     0.314 C 
ATOM     11  C   UNL A   1      31.363  25.865  22.849  1.00  0.00     0.018 A 
ATOM     12  O   UNL A   1      33.550  25.248  23.779  1.00  0.00    -0.475 OA
ATOM     13  C   UNL A   1      30.503  26.916  22.495  1.00  0.00     0.025 A 
ATOM     14  C   UNL A   1      32.688  26.164  23.227  1.00  0.00     0.128 A 
ATOM     15  C   UNL A   1      30.929  28.252  22.588  1.00  0.00     0.056 A 
ATOM     16  C   UNL A   1      33.139  27.483  23.244  1.00  0.00     0.048 A 
ATOM     17  C   UNL A   1      32.258  28.524  22.946  1.00  0.00     0.017 A 
BRANCH  10  18
ATOM     18  C   UNL A   1      33.433  22.962  22.889  1.00  0.00     0.429 C 
ATOM     19  F   UNL A   1      33.249  23.518  21.667  1.00  0.00    -0.167 F 
ATOM     20  F   UNL A   1      34.745  22.634  22.975  1.00  0.00    -0.167 F 
ATOM     21  F   UNL A   1      32.733  21.802  22.905  1.00  0.00    -0.167 F 
ENDBRANCH  10  18
BRANCH  15  22
ATOM     22  C   UNL A   1      29.942  29.376  22.369  1.00  0.00     0.416 C 
ATOM     23  F   UNL A   1      29.898  30.237  23.419  1.00  0.00    -0.166 F 
ATOM     24  F   UNL A   1      30.256  30.130  21.276  1.00  0.00    -0.166 F 
ATOM     25  F   UNL A   1      28.669  28.947  22.170  1.00  0.00    -0.166 F 
ENDBRANCH  15  22
ENDBRANCH   6   8
ENDBRANCH   3   4
ENDBRANCH   2   3
ENDBRANCH   1   2
BRANCH   1  26
ATOM     26  C   UNL A   1      33.354  28.672  26.955  1.00  0.00     0.116 C 
BRANCH  26  27
ATOM     27  N   UNL A   1      33.313  30.042  27.446  1.00  0.00    -0.352 N 
ATOM     28  C   UNL A   1      34.322  30.760  28.051  1.00  0.00     0.251 C 
ATOM     29  H   UNL A   1      32.457  30.516  27.331  1.00  0.00     0.163 HD
ATOM     30  O   UNL A   1      34.122  31.910  28.437  1.00  0.00    -0.269 OA
BRANCH  28  31
ATOM     31  C   UNL A   1      35.634  30.116  28.278  1.00  0.00     0.039 A 
ATOM     32  C   UNL A   1      36.563  30.081  27.235  1.00  0.00     0.014 A 
ATOM     33  C   UNL A   1      35.973  29.623  29.540  1.00  0.00     0.014 A 
ATOM     34  C   UNL A   1      37.866  29.641  27.485  1.00  0.00     0.010 A 
ATOM     35  C   UNL A   1      37.291  29.261  29.805  1.00  0.00     0.010 A 
ATOM     36  C   UNL A   1      38.253  29.273  28.784  1.00  0.00    -0.014 A 
BRANCH  36  37
ATOM     37  C   UNL A   1      39.656  28.891  29.098  1.00  0.00     0.031 A 
ATOM     38  C   UNL A   1      40.577  29.893  29.741  1.00  0.00     0.074 A 
ATOM     39  C   UNL A   1      40.122  27.675  28.745  1.00  0.00     0.049 A 
ATOM     40  N   UNL A   1      41.855  29.791  30.003  1.00  0.00    -0.248 NA
ATOM     41  C   UNL A   1      39.992  31.193  30.109  1.00  0.00     0.031 C 
ATOM     42  C   UNL A   1      39.347  26.627  28.071  1.00  0.00     0.029 A 
ATOM     43  N   UNL A   1      41.367  27.116  28.895  1.00  0.00    -0.354 N 
ATOM     44  C   UNL A   1      42.228  31.013  30.548  1.00  0.00     0.074 A 
ATOM     45  C   UNL A   1      41.056  31.861  30.529  1.00  0.00     0.031 C 
ATOM     46  C   UNL A   1      40.128  25.549  27.888  1.00  0.00     0.029 A 
ATOM     47  C   UNL A   1      41.466  25.836  28.399  1.00  0.00     0.049 A 
ATOM     48  H   UNL A   1      42.121  27.587  29.319  1.00  0.00     0.167 HD
ATOM     49  C   UNL A   1      43.428  31.391  31.049  1.00  0.00     0.031 A 
ATOM     50  C   UNL A   1      42.513  24.989  28.358  1.00  0.00     0.031 A 
ATOM     51  C   UNL A   1      44.587  30.540  31.094  1.00  0.00     0.049 A 
ATOM     52  C   UNL A   1      43.830  25.424  28.945  1.00  0.00     0.074 A 
ATOM     53  C   UNL A   1      45.842  30.821  31.605  1.00  0.00     0.029 A 
ATOM     54  N   UNL A   1      44.625  29.235  30.632  1.00  0.00    -0.354 N 
ATOM     55  N   UNL A   1      44.150  26.575  29.489  1.00  0.00    -0.248 NA
ATOM     56  C   UNL A   1      44.921  24.439  28.934  1.00  0.00     0.031 C 
ATOM     57  C   UNL A   1      46.648  29.691  31.431  1.00  0.00     0.029 A 
ATOM     58  C   UNL A   1      45.879  28.693  30.854  1.00  0.00     0.049 A 
ATOM     59  H   UNL A   1      43.872  28.762  30.210  1.00  0.00     0.167 HD
ATOM     60  C   UNL A   1      45.466  26.437  29.917  1.00  0.00     0.074 A 
ATOM     61  C   UNL A   1      45.878  25.090  29.579  1.00  0.00     0.031 C 
ATOM     62  C   UNL A   1      46.263  27.344  30.534  1.00  0.00     0.031 A 
BRANCH  49  63
ATOM     63  C   UNL A   1      43.539  32.783  31.608  1.00  0.00    -0.014 A 
ATOM     64  C   UNL A   1      43.354  33.020  32.982  1.00  0.00     0.010 A 
ATOM     65  C   UNL A   1      43.875  33.858  30.766  1.00  0.00     0.010 A 
ATOM     66  C   UNL A   1      43.465  34.312  33.499  1.00  0.00     0.020 A 
ATOM     67  C   UNL A   1      44.014  35.149  31.284  1.00  0.00     0.020 A 
ATOM     68  C   UNL A   1      43.793  35.369  32.646  1.00  0.00     0.054 A 
BRANCH  68  69
ATOM     69  S   UNL A   1      43.967  37.031  33.351  1.00  0.00     0.124 S 
ATOM     70  O   UNL A   1      44.076  37.856  32.151  1.00  0.00    -0.237 OA
ATOM     71  O   UNL A   1      42.730  37.189  34.111  1.00  0.00    -0.237 OA
ATOM     72  O   UNL A   1      45.182  36.940  34.157  1.00  0.00    -0.744 OA
ENDBRANCH  68  69
ENDBRANCH  49  63
BRANCH  50  73
ATOM     73  C   UNL A   1      42.368  23.634  27.758  1.00  0.00    -0.014 A 
ATOM     74  C   UNL A   1      41.862  22.566  28.520  1.00  0.00     0.010 A 
ATOM     75  C   UNL A   1      42.766  23.397  26.431  1.00  0.00     0.010 A 
ATOM     76  C   UNL A   1      41.796  21.277  27.980  1.00  0.00     0.020 A 
ATOM     77  C   UNL A   1      42.676  22.116  25.878  1.00  0.00     0.020 A 
ATOM     78  C   UNL A   1      42.210  21.059  26.664  1.00  0.00     0.054 A 
BRANCH  78  79
ATOM     79  S   UNL A   1      42.108  19.383  25.976  1.00  0.00     0.124 S 
ATOM     80  O   UNL A   1      42.965  19.487  24.799  1.00  0.00    -0.237 OA
ATOM     81  O   UNL A   1      42.624  18.559  27.065  1.00  0.00    -0.237 OA
ATOM     82  O   UNL A   1      40.682  19.217  25.702  1.00  0.00    -0.744 OA
ENDBRANCH  78  79
ENDBRANCH  50  73
BRANCH  62  83
ATOM     83  C   UNL A   1      47.637  26.892  30.945  1.00  0.00    -0.014 A 
ATOM     84  C   UNL A   1      47.869  26.301  32.199  1.00  0.00     0.010 A 
ATOM     85  C   UNL A   1      48.704  27.020  30.036  1.00  0.00     0.010 A 
ATOM     86  C   UNL A   1      49.153  25.876  32.550  1.00  0.00     0.020 A 
ATOM     87  C   UNL A   1      49.983  26.574  30.374  1.00  0.00     0.020 A 
ATOM     88  C   UNL A   1      50.203  26.018  31.636  1.00  0.00     0.054 A 
BRANCH  88  89
ATOM     89  S   UNL A   1      51.853  25.425  32.098  1.00  0.00     0.124 S 
ATOM     90  O   UNL A   1      51.643  23.983  32.190  1.00  0.00    -0.237 OA
ATOM     91  O   UNL A   1      52.680  25.869  30.978  1.00  0.00    -0.237 OA
ATOM     92  O   UNL A   1      52.121  26.099  33.366  1.00  0.00    -0.744 OA
ENDBRANCH  88  89
ENDBRANCH  62  83
ENDBRANCH  36  37
ENDBRANCH  28  31
ENDBRANCH  26  27
ENDBRANCH   1  26
TORSDOF 16
ENDMDL
MODEL 2
REMARK VINA RESULT:     -11.9      1.651      3.415
REMARK SMILES O=C(NCCCCNC(=O)c1ccc(-c2c3nc(c(-c4ccc(S(=O)(=O)[O-])cc4)c4ccc([nH]4)c(-c4ccc(S(=O)(=O)[O-])cc4)c4nc(c(-c5ccc(S(=O)(=O)[O-])cc5)c5ccc2[nH]5)C=C4)C=C3)cc1)C1=Cc2cc(C(F)(F)F)ccc2O[C@@H]1C(F)(F)F
REMARK SMILES IDX 6 1 5 2 4 3 3 4 1 5 2 6 71 8 72 9 84 10 73 11 83 12 74 13
REMARK SMILES IDX 82 14 75 15 81 16 80 17 85 18 86 19 87 20 88 21 76 22 77 23
REMARK SMILES IDX 78 24 79 25 7 26 8 27 9 28 10 30 11 31 12 32 70 33 13 34
REMARK SMILES IDX 69 35 14 36 15 37 16 38 63 39 17 40 68 41 62 42 64 43 18 44
REMARK SMILES IDX 67 45 61 46 60 47 19 49 49 50 30 51 48 52 31 53 34 54 47 55
REMARK SMILES IDX 65 56 32 57 33 58 46 60 66 61 35 62 20 63 21 64 29 65 22 66
REMARK SMILES IDX 28 67 23 68 24 69 25 70 26 71 27 72 50 73 51 74 59 75 52 76
REMARK SMILES IDX 58 77 53 78 54 79 55 80 56 81 57 82 36 83 37 84 45 85 38 86
REMARK SMILES IDX 44 87 39 88 40 89 41 90 42 91 43 92
REMARK H PARENT 3 7 8 29 64 48 34 59
REMARK Flexibility Score: inf
ROOT
ATOM      1  C   UNL A   1      32.242  27.997  27.213  1.00  0.00     0.023 C 
ENDROOT
BRANCH   1   2
ATOM      2  C   UNL A   1      31.328  27.995  25.989  1.00  0.00     0.023 C 
BRANCH   2   3
ATOM      3  C   UNL A   1      30.861  26.610  25.536  1.00  0.00     0.116 C 
BRANCH   3   4
ATOM      4  N   UNL A   1      30.959  25.578  26.571  1.00  0.00    -0.352 N 
ATOM      5  O   UNL A   1      31.884  23.809  27.650  1.00  0.00    -0.270 OA
ATOM      6  C   UNL A   1      31.732  24.438  26.610  1.00  0.00     0.251 C 
ATOM      7  H   UNL A   1      30.386  25.720  27.358  1.00  0.00     0.163 HD
BRANCH   6   8
ATOM      8  C   UNL A   1      32.476  24.059  25.391  1.00  0.00     0.067 C 
ATOM      9  C   UNL A   1      33.662  24.621  25.119  1.00  0.00     0.025 C 
ATOM     10  C   UNL A   1      32.018  22.831  24.663  1.00  0.00     0.314 C 
ATOM     11  C   UNL A   1      34.696  23.591  24.908  1.00  0.00     0.018 A 
ATOM     12  O   UNL A   1      33.035  21.800  24.653  1.00  0.00    -0.475 OA
ATOM     13  C   UNL A   1      36.013  23.915  25.267  1.00  0.00     0.025 A 
ATOM     14  C   UNL A   1      34.331  22.234  24.800  1.00  0.00     0.128 A 
ATOM     15  C   UNL A   1      36.937  22.904  25.588  1.00  0.00     0.056 A 
ATOM     16  C   UNL A   1      35.266  21.227  25.042  1.00  0.00     0.048 A 
ATOM     17  C   UNL A   1      36.557  21.561  25.453  1.00  0.00     0.017 A 
BRANCH  10  18
ATOM     18  C   UNL A   1      31.579  23.171  23.227  1.00  0.00     0.429 C 
ATOM     19  F   UNL A   1      31.956  22.202  22.356  1.00  0.00    -0.167 F 
ATOM     20  F   UNL A   1      30.233  23.287  23.122  1.00  0.00    -0.167 F 
ATOM     21  F   UNL A   1      32.113  24.333  22.781  1.00  0.00    -0.167 F 
ENDBRANCH  10  18
BRANCH  15  22
ATOM     22  C   UNL A   1      38.297  23.272  26.137  1.00  0.00     0.416 C 
ATOM     23  F   UNL A   1      38.821  24.367  25.527  1.00  0.00    -0.166 F 
ATOM     24  F   UNL A   1      38.252  23.565  27.468  1.00  0.00    -0.166 F 
ATOM     25  F   UNL A   1      39.218  22.282  26.007  1.00  0.00    -0.166 F 
ENDBRANCH  15  22
ENDBRANCH   6   8
ENDBRANCH   3   4
ENDBRANCH   2   3
ENDBRANCH   1   2
BRANCH   1  26
ATOM     26  C   UNL A   1      33.545  28.786  27.094  1.00  0.00     0.116 C 
BRANCH  26  27
ATOM     27  N   UNL A   1      33.502  30.127  27.660  1.00  0.00    -0.352 N 
ATOM     28  C   UNL A   1      34.514  30.817  28.291  1.00  0.00     0.251 C 
ATOM     29  H   UNL A   1      32.642  30.600  27.582  1.00  0.00     0.163 HD
ATOM     30  O   UNL A   1      34.313  31.942  28.743  1.00  0.00    -0.269 OA
BRANCH  28  31
ATOM     31  C   UNL A   1      35.833  30.170  28.465  1.00  0.00     0.039 A 
ATOM     32  C   UNL A   1      36.747  30.196  27.409  1.00  0.00     0.014 A 
ATOM     33  C   UNL A   1      36.194  29.614  29.695  1.00  0.00     0.014 A 
ATOM     34  C   UNL A   1      38.056  29.751  27.617  1.00  0.00     0.010 A 
ATOM     35  C   UNL A   1      37.518  29.247  29.922  1.00  0.00     0.010 A 
ATOM     36  C   UNL A   1      38.465  29.319  28.889  1.00  0.00    -0.014 A 
BRANCH  36  37
ATOM     37  C   UNL A   1      39.874  28.930  29.162  1.00  0.00     0.031 A 
ATOM     38  C   UNL A   1      40.819  29.929  29.774  1.00  0.00     0.074 A 
ATOM     39  C   UNL A   1      40.322  27.710  28.800  1.00  0.00     0.049 A 
ATOM     40  N   UNL A   1      42.104  29.820  29.999  1.00  0.00    -0.248 NA
ATOM     41  C   UNL A   1      40.253  31.234  30.155  1.00  0.00     0.031 C 
ATOM     42  C   UNL A   1      39.522  26.665  28.154  1.00  0.00     0.029 A 
ATOM     43  N   UNL A   1      41.568  27.144  28.915  1.00  0.00    -0.354 N 
ATOM     44  C   UNL A   1      42.500  31.042  30.528  1.00  0.00     0.074 A 
ATOM     45  C   UNL A   1      41.332  31.897  30.541  1.00  0.00     0.031 C 
ATOM     46  C   UNL A   1      40.291  25.582  27.952  1.00  0.00     0.029 A 
ATOM     47  C   UNL A   1      41.645  25.862  28.421  1.00  0.00     0.049 A 
ATOM     48  H   UNL A   1      42.337  27.613  29.315  1.00  0.00     0.167 HD
ATOM     49  C   UNL A   1      43.717  31.415  30.991  1.00  0.00     0.031 A 
ATOM     50  C   UNL A   1      42.686  25.010  28.352  1.00  0.00     0.031 A 
ATOM     51  C   UNL A   1      44.871  30.558  31.005  1.00  0.00     0.049 A 
ATOM     52  C   UNL A   1      44.022  25.439  28.898  1.00  0.00     0.074 A 
ATOM     53  C   UNL A   1      46.143  30.834  31.477  1.00  0.00     0.029 A 
ATOM     54  N   UNL A   1      44.888  29.251  30.547  1.00  0.00    -0.354 N 
ATOM     55  N   UNL A   1      44.365  26.590  29.428  1.00  0.00    -0.248 NA
ATOM     56  C   UNL A   1      45.107  24.448  28.858  1.00  0.00     0.031 C 
ATOM     57  C   UNL A   1      46.936  29.699  31.284  1.00  0.00     0.029 A 
ATOM     58  C   UNL A   1      46.145  28.703  30.733  1.00  0.00     0.049 A 
ATOM     59  H   UNL A   1      44.120  28.781  30.149  1.00  0.00     0.167 HD
ATOM     60  C   UNL A   1      45.692  26.446  29.817  1.00  0.00     0.074 A 
ATOM     61  C   UNL A   1      46.087  25.096  29.472  1.00  0.00     0.031 C 
ATOM     62  C   UNL A   1      46.512  27.350  30.407  1.00  0.00     0.031 A 
BRANCH  49  63
ATOM     63  C   UNL A   1      43.852  32.808  31.542  1.00  0.00    -0.014 A 
ATOM     64  C   UNL A   1      43.983  33.911  30.678  1.00  0.00     0.010 A 
ATOM     65  C   UNL A   1      43.802  33.027  32.930  1.00  0.00     0.010 A 
ATOM     66  C   UNL A   1      44.099  35.204  31.193  1.00  0.00     0.020 A 
ATOM     67  C   UNL A   1      43.891  34.322  33.448  1.00  0.00     0.020 A 
ATOM     68  C   UNL A   1      44.055  35.401  32.577  1.00  0.00     0.054 A 
BRANCH  68  69
ATOM     69  S   UNL A   1      44.172  37.094  33.216  1.00  0.00     0.124 S 
ATOM     70  O   UNL A   1      43.100  37.114  34.208  1.00  0.00    -0.237 OA
ATOM     71  O   UNL A   1      45.529  37.141  33.755  1.00  0.00    -0.237 OA
ATOM     72  O   UNL A   1      43.944  37.926  32.036  1.00  0.00    -0.744 OA
ENDBRANCH  68  69
ENDBRANCH  49  63
BRANCH  50  73
ATOM     73  C   UNL A   1      42.516  23.653  27.762  1.00  0.00    -0.014 A 
ATOM     74  C   UNL A   1      41.996  22.598  28.533  1.00  0.00     0.010 A 
ATOM     75  C   UNL A   1      42.903  23.401  26.434  1.00  0.00     0.010 A 
ATOM     76  C   UNL A   1      41.907  21.307  28.002  1.00  0.00     0.020 A 
ATOM     77  C   UNL A   1      42.789  22.118  25.890  1.00  0.00     0.020 A 
ATOM     78  C   UNL A   1      42.310  21.074  26.685  1.00  0.00     0.054 A 
BRANCH  78  79
ATOM     79  S   UNL A   1      42.176  19.395  26.008  1.00  0.00     0.124 S 
ATOM     80  O   UNL A   1      40.739  19.273  25.786  1.00  0.00    -0.237 OA
ATOM     81  O   UNL A   1      42.999  19.470  24.805  1.00  0.00    -0.237 OA
ATOM     82  O   UNL A   1      42.720  18.557  27.074  1.00  0.00    -0.744 OA
ENDBRANCH  78  79
ENDBRANCH  50  73
BRANCH  62  83
ATOM     83  C   UNL A   1      47.896  26.892  30.779  1.00  0.00    -0.014 A 
ATOM     84  C   UNL A   1      48.966  26.985  29.872  1.00  0.00     0.010 A 
ATOM     85  C   UNL A   1      48.133  26.407  32.078  1.00  0.00     0.010 A 
ATOM     86  C   UNL A   1      50.245  26.567  30.250  1.00  0.00     0.020 A 
ATOM     87  C   UNL A   1      49.414  26.012  32.466  1.00  0.00     0.020 A 
ATOM     88  C   UNL A   1      50.460  26.080  31.543  1.00  0.00     0.054 A 
BRANCH  88  89
ATOM     89  S   UNL A   1      52.135  25.579  32.024  1.00  0.00     0.124 S 
ATOM     90  O   UNL A   1      52.353  26.367  33.233  1.00  0.00    -0.237 OA
ATOM     91  O   UNL A   1      51.995  24.139  32.229  1.00  0.00    -0.237 OA
ATOM     92  O   UNL A   1      52.954  25.960  30.874  1.00  0.00    -0.744 OA
ENDBRANCH  88  89
ENDBRANCH  62  83
ENDBRANCH  36  37
ENDBRANCH  28  31
ENDBRANCH  26  27
ENDBRANCH   1  26
TORSDOF 16
ENDMDL
MODEL 3
REMARK VINA RESULT:     -11.8      2.984      9.118
REMARK SMILES O=C(NCCCCNC(=O)c1ccc(-c2c3nc(c(-c4ccc(S(=O)(=O)[O-])cc4)c4ccc([nH]4)c(-c4ccc(S(=O)(=O)[O-])cc4)c4nc(c(-c5ccc(S(=O)(=O)[O-])cc5)c5ccc2[nH]5)C=C4)C=C3)cc1)C1=Cc2cc(C(F)(F)F)ccc2O[C@@H]1C(F)(F)F
REMARK SMILES IDX 6 1 5 2 4 3 3 4 1 5 2 6 71 8 72 9 84 10 73 11 83 12 74 13
REMARK SMILES IDX 82 14 75 15 81 16 80 17 85 18 86 19 87 20 88 21 76 22 77 23
REMARK SMILES IDX 78 24 79 25 7 26 8 27 9 28 10 30 11 31 12 32 70 33 13 34
REMARK SMILES IDX 69 35 14 36 15 37 16 38 63 39 17 40 68 41 62 42 64 43 18 44
REMARK SMILES IDX 67 45 61 46 60 47 19 49 49 50 30 51 48 52 31 53 34 54 47 55
REMARK SMILES IDX 65 56 32 57 33 58 46 60 66 61 35 62 20 63 21 64 29 65 22 66
REMARK SMILES IDX 28 67 23 68 24 69 25 70 26 71 27 72 50 73 51 74 59 75 52 76
REMARK SMILES IDX 58 77 53 78 54 79 55 80 56 81 57 82 36 83 37 84 45 85 38 86
REMARK SMILES IDX 44 87 39 88 40 89 41 90 42 91 43 92
REMARK H PARENT 3 7 8 29 64 48 34 59
REMARK Flexibility Score: inf
ROOT
ATOM      1  C   UNL A   1      35.910  22.962  24.930  1.00  0.00     0.023 C 
ENDROOT
BRANCH   1   2
ATOM      2  C   UNL A   1      35.471  22.803  23.474  1.00  0.00     0.023 C 
BRANCH   2   3
ATOM      3  C   UNL A   1      33.995  23.107  23.211  1.00  0.00     0.116 C 
BRANCH   3   4
ATOM      4  N   UNL A   1      33.752  24.423  22.617  1.00  0.00    -0.352 N 
ATOM      5  O   UNL A   1      33.514  26.680  22.609  1.00  0.00    -0.270 OA
ATOM      6  C   UNL A   1      33.445  25.622  23.222  1.00  0.00     0.251 C 
ATOM      7  H   UNL A   1      33.819  24.457  21.635  1.00  0.00     0.163 HD
BRANCH   6   8
ATOM      8  C   UNL A   1      33.145  25.614  24.669  1.00  0.00     0.067 C 
ATOM      9  C   UNL A   1      34.018  26.131  25.545  1.00  0.00     0.025 C 
ATOM     10  C   UNL A   1      31.734  25.308  25.074  1.00  0.00     0.314 C 
ATOM     11  C   UNL A   1      33.371  27.147  26.395  1.00  0.00     0.018 A 
ATOM     12  O   UNL A   1      31.113  26.426  25.753  1.00  0.00    -0.475 OA
ATOM     13  C   UNL A   1      34.168  28.206  26.856  1.00  0.00     0.025 A 
ATOM     14  C   UNL A   1      31.971  27.308  26.364  1.00  0.00     0.128 A 
ATOM     15  C   UNL A   1      33.587  29.437  27.211  1.00  0.00     0.056 A 
ATOM     16  C   UNL A   1      31.385  28.500  26.790  1.00  0.00     0.048 A 
ATOM     17  C   UNL A   1      32.191  29.566  27.192  1.00  0.00     0.017 A 
BRANCH  10  18
ATOM     18  C   UNL A   1      31.673  24.042  25.951  1.00  0.00     0.429 C 
ATOM     19  F   UNL A   1      30.531  23.347  25.730  1.00  0.00    -0.167 F 
ATOM     20  F   UNL A   1      32.701  23.197  25.692  1.00  0.00    -0.167 F 
ATOM     21  F   UNL A   1      31.716  24.324  27.275  1.00  0.00    -0.167 F 
ENDBRANCH  10  18
BRANCH  15  22
ATOM     22  C   UNL A   1      34.469  30.620  27.541  1.00  0.00     0.416 C 
ATOM     23  F   UNL A   1      35.685  30.541  26.940  1.00  0.00    -0.166 F 
ATOM     24  F   UNL A   1      33.921  31.800  27.131  1.00  0.00    -0.166 F 
ATOM     25  F   UNL A   1      34.707  30.763  28.870  1.00  0.00    -0.166 F 
ENDBRANCH  15  22
ENDBRANCH   6   8
ENDBRANCH   3   4
ENDBRANCH   2   3
ENDBRANCH   1   2
BRANCH   1  26
ATOM     26  C   UNL A   1      37.241  23.672  25.170  1.00  0.00     0.116 C 
BRANCH  26  27
ATOM     27  N   UNL A   1      38.359  22.789  25.471  1.00  0.00    -0.352 N 
ATOM     28  C   UNL A   1      39.469  23.055  26.243  1.00  0.00     0.251 C 
ATOM     29  H   UNL A   1      38.317  21.890  25.072  1.00  0.00     0.163 HD
ATOM     30  O   UNL A   1      40.348  22.207  26.382  1.00  0.00    -0.269 OA
BRANCH  28  31
ATOM     31  C   UNL A   1      39.618  24.389  26.863  1.00  0.00     0.039 A 
ATOM     32  C   UNL A   1      39.151  24.590  28.164  1.00  0.00     0.014 A 
ATOM     33  C   UNL A   1      40.292  25.412  26.191  1.00  0.00     0.014 A 
ATOM     34  C   UNL A   1      39.444  25.785  28.827  1.00  0.00     0.010 A 
ATOM     35  C   UNL A   1      40.650  26.568  26.880  1.00  0.00     0.010 A 
ATOM     36  C   UNL A   1      40.238  26.764  28.207  1.00  0.00    -0.014 A 
BRANCH  36  37
ATOM     37  C   UNL A   1      40.645  28.003  28.922  1.00  0.00     0.031 A 
ATOM     38  C   UNL A   1      42.010  28.090  29.550  1.00  0.00     0.074 A 
ATOM     39  C   UNL A   1      39.769  29.019  29.068  1.00  0.00     0.049 A 
ATOM     40  N   UNL A   1      42.517  29.036  30.297  1.00  0.00    -0.248 NA
ATOM     41  C   UNL A   1      42.914  26.946  29.335  1.00  0.00     0.031 C 
ATOM     42  C   UNL A   1      38.397  29.043  28.550  1.00  0.00     0.029 A 
ATOM     43  N   UNL A   1      39.900  30.228  29.705  1.00  0.00    -0.354 N 
ATOM     44  C   UNL A   1      43.786  28.597  30.654  1.00  0.00     0.074 A 
ATOM     45  C   UNL A   1      43.952  27.276  30.089  1.00  0.00     0.031 C 
ATOM     46  C   UNL A   1      37.825  30.216  28.872  1.00  0.00     0.029 A 
ATOM     47  C   UNL A   1      38.772  31.013  29.646  1.00  0.00     0.049 A 
ATOM     48  H   UNL A   1      40.725  30.508  30.164  1.00  0.00     0.167 HD
ATOM     49  C   UNL A   1      44.742  29.243  31.364  1.00  0.00     0.031 A 
ATOM     50  C   UNL A   1      38.526  32.236  30.156  1.00  0.00     0.031 A 
ATOM     51  C   UNL A   1      44.589  30.568  31.902  1.00  0.00     0.049 A 
ATOM     52  C   UNL A   1      39.614  32.945  30.918  1.00  0.00     0.074 A 
ATOM     53  C   UNL A   1      45.508  31.320  32.614  1.00  0.00     0.029 A 
ATOM     54  N   UNL A   1      43.451  31.347  31.770  1.00  0.00    -0.354 N 
ATOM     55  N   UNL A   1      40.821  32.523  31.213  1.00  0.00    -0.248 NA
ATOM     56  C   UNL A   1      39.316  34.302  31.397  1.00  0.00     0.031 C 
ATOM     57  C   UNL A   1      44.917  32.547  32.931  1.00  0.00     0.029 A 
ATOM     58  C   UNL A   1      43.647  32.574  32.378  1.00  0.00     0.049 A 
ATOM     59  H   UNL A   1      42.626  31.068  31.311  1.00  0.00     0.167 HD
ATOM     60  C   UNL A   1      41.437  33.578  31.879  1.00  0.00     0.074 A 
ATOM     61  C   UNL A   1      40.475  34.659  31.933  1.00  0.00     0.031 C 
ATOM     62  C   UNL A   1      42.687  33.646  32.399  1.00  0.00     0.031 A 
BRANCH  49  63
ATOM     63  C   UNL A   1      46.049  28.530  31.576  1.00  0.00    -0.014 A 
ATOM     64  C   UNL A   1      47.107  28.684  30.663  1.00  0.00     0.010 A 
ATOM     65  C   UNL A   1      46.241  27.734  32.720  1.00  0.00     0.010 A 
ATOM     66  C   UNL A   1      48.321  28.026  30.868  1.00  0.00     0.020 A 
ATOM     67  C   UNL A   1      47.464  27.095  32.943  1.00  0.00     0.020 A 
ATOM     68  C   UNL A   1      48.491  27.234  32.007  1.00  0.00     0.054 A 
BRANCH  68  69
ATOM     69  S   UNL A   1      50.092  26.421  32.267  1.00  0.00     0.124 S 
ATOM     70  O   UNL A   1      49.966  25.237  31.421  1.00  0.00    -0.237 OA
ATOM     71  O   UNL A   1      51.043  27.427  31.801  1.00  0.00    -0.237 OA
ATOM     72  O   UNL A   1      50.119  26.160  33.704  1.00  0.00    -0.744 OA
ENDBRANCH  68  69
ENDBRANCH  49  63
BRANCH  50  73
ATOM     73  C   UNL A   1      37.202  32.889  29.954  1.00  0.00    -0.014 A 
ATOM     74  C   UNL A   1      36.918  33.575  28.759  1.00  0.00     0.010 A 
ATOM     75  C   UNL A   1      36.230  32.855  30.969  1.00  0.00     0.010 A 
ATOM     76  C   UNL A   1      35.705  34.251  28.600  1.00  0.00     0.020 A 
ATOM     77  C   UNL A   1      35.004  33.507  30.802  1.00  0.00     0.020 A 
ATOM     78  C   UNL A   1      34.758  34.218  29.626  1.00  0.00     0.054 A 
BRANCH  78  79
ATOM     79  S   UNL A   1      33.183  35.092  29.398  1.00  0.00     0.124 S 
ATOM     80  O   UNL A   1      32.525  34.269  28.386  1.00  0.00    -0.237 OA
ATOM     81  O   UNL A   1      32.595  35.043  30.733  1.00  0.00    -0.237 OA
ATOM     82  O   UNL A   1      33.596  36.421  28.954  1.00  0.00    -0.744 OA
ENDBRANCH  78  79
ENDBRANCH  50  73
BRANCH  62  83
ATOM     83  C   UNL A   1      43.112  34.952  33.013  1.00  0.00    -0.014 A 
ATOM     84  C   UNL A   1      42.885  35.231  34.371  1.00  0.00     0.010 A 
ATOM     85  C   UNL A   1      43.795  35.894  32.220  1.00  0.00     0.010 A 
ATOM     86  C   UNL A   1      43.305  36.446  34.919  1.00  0.00     0.020 A 
ATOM     87  C   UNL A   1      44.237  37.098  32.771  1.00  0.00     0.020 A 
ATOM     88  C   UNL A   1      43.975  37.373  34.115  1.00  0.00     0.054 A 
BRANCH  88  89
ATOM     89  S   UNL A   1      44.544  38.927  34.856  1.00  0.00     0.124 S 
ATOM     90  O   UNL A   1      43.607  39.894  34.292  1.00  0.00    -0.237 OA
ATOM     91  O   UNL A   1      44.401  38.674  36.287  1.00  0.00    -0.237 OA
ATOM     92  O   UNL A   1      45.924  39.050  34.387  1.00  0.00    -0.744 OA
ENDBRANCH  88  89
ENDBRANCH  62  83
ENDBRANCH  36  37
ENDBRANCH  28  31
ENDBRANCH  26  27
ENDBRANCH   1  26
TORSDOF 16
ENDMDL
