MODEL 1
REMARK VINA RESULT:     -12.0      0.000      0.000
REMARK SMILES O=C1NC(=O)/C(=C/c2ccc(OCc3cn(-c4ccc(C(=O)NCCCCNC(=O)c5ccc(-c6c7nc(c(-c8ccc(S(=O)(=O)[O-])cc8)c8ccc([nH]8)c(-c8ccc(S(=O)(=O)[O-])cc8)c8nc(c(-c9ccc(S(=O)(=O)[O-])cc9)c9ccc6[nH]9)C=C8)C=C7)cc5)cc4)nn3)cc2)S1
REMARK SMILES IDX 24 1 23 2 21 3 22 4 20 6 17 7 18 8 92 9 19 10 91 11 16 12
REMARK SMILES IDX 14 13 15 14 94 15 93 16 13 17 12 18 11 19 8 20 9 21 96 22
REMARK SMILES IDX 10 23 95 24 7 25 1 26 2 27 3 28 97 29 4 30 6 32 5 33 25 34
REMARK SMILES IDX 26 35 27 36 28 37 29 38 30 40 31 41 32 42 90 43 33 44 89 45
REMARK SMILES IDX 34 46 35 47 36 48 83 49 37 50 88 51 82 52 84 53 38 54 87 55
REMARK SMILES IDX 81 56 80 57 39 59 69 60 50 61 68 62 51 63 54 64 67 65 85 66
REMARK SMILES IDX 52 67 53 68 66 70 86 71 55 72 40 73 41 74 49 75 42 76 48 77
REMARK SMILES IDX 43 78 44 79 45 80 46 81 47 82 70 83 71 84 79 85 72 86 78 87
REMARK SMILES IDX 73 88 74 89 75 90 76 91 77 92 56 93 57 94 65 95 58 96 64 97
REMARK SMILES IDX 59 98 60 99 61 100 62 101 63 102
REMARK H PARENT 23 5 3 31 28 39 84 58 54 69
REMARK Flexibility Score: inf
ROOT
ATOM      1  C   UNL A   1      37.053  33.566  30.791  1.00  0.00     0.116 C 
ENDROOT
BRANCH   1   2
ATOM      2  N   UNL A   1      38.139  32.684  30.413  1.00  0.00    -0.352 N 
ATOM      3  C   UNL A   1      38.216  31.591  29.589  1.00  0.00     0.251 C 
ATOM      4  O   UNL A   1      39.303  31.015  29.523  1.00  0.00    -0.269 OA
ATOM      5  H   UNL A   1      38.997  32.919  30.833  1.00  0.00     0.163 HD
BRANCH   3   6
ATOM      6  C   UNL A   1      37.088  31.098  28.745  1.00  0.00     0.039 A 
ATOM      7  C   UNL A   1      34.807  30.299  27.310  1.00  0.00     0.066 A 
ATOM      8  C   UNL A   1      34.904  31.611  27.784  1.00  0.00     0.029 A 
ATOM      9  C   UNL A   1      35.863  29.407  27.494  1.00  0.00     0.029 A 
ATOM     10  C   UNL A   1      36.026  31.992  28.526  1.00  0.00     0.016 A 
ATOM     11  C   UNL A   1      37.016  29.831  28.158  1.00  0.00     0.016 A 
BRANCH   7  12
ATOM     12  N   UNL A   1      33.648  29.887  26.627  1.00  0.00    -0.220 N 
ATOM     13  C   UNL A   1      32.203  29.075  25.209  1.00  0.00     0.120 A 
ATOM     14  C   UNL A   1      33.554  29.150  25.466  1.00  0.00     0.144 A 
ATOM     15  N   UNL A   1      31.534  29.725  26.213  1.00  0.00    -0.131 NA
ATOM     16  N   UNL A   1      32.415  30.184  27.084  1.00  0.00    -0.062 NA
BRANCH  13  17
ATOM     17  C   UNL A   1      31.449  28.343  24.146  1.00  0.00     0.289 C 
BRANCH  17  18
ATOM     18  O   UNL A   1      30.478  27.389  24.614  1.00  0.00    -0.487 OA
BRANCH  18  19
ATOM     19  C   UNL A   1      30.887  26.108  24.866  1.00  0.00     0.119 A 
ATOM     20  C   UNL A   1      31.479  23.366  25.056  1.00  0.00    -0.024 A 
ATOM     21  C   UNL A   1      31.664  24.042  23.848  1.00  0.00     0.012 A 
ATOM     22  C   UNL A   1      31.092  24.091  26.186  1.00  0.00     0.012 A 
ATOM     23  C   UNL A   1      31.363  25.406  23.755  1.00  0.00     0.047 A 
ATOM     24  C   UNL A   1      30.833  25.459  26.096  1.00  0.00     0.047 A 
BRANCH  20  25
ATOM     25  C   UNL A   1      31.696  21.921  25.153  1.00  0.00     0.029 C 
ATOM     26  O   UNL A   1      36.470  20.311  24.999  1.00  0.00    -0.261 OA
ATOM     27  C   UNL A   1      35.259  20.473  25.043  1.00  0.00     0.290 C 
ATOM     28  N   UNL A   1      34.335  19.483  25.083  1.00  0.00    -0.282 N 
ATOM     29  S   UNL A   1      34.462  22.030  25.074  1.00  0.00    -0.022 SA
ATOM     30  C   UNL A   1      33.019  19.834  25.150  1.00  0.00     0.265 C 
ATOM     31  H   UNL A   1      34.605  18.536  25.064  1.00  0.00     0.174 HD
ATOM     32  C   UNL A   1      32.892  21.314  25.135  1.00  0.00     0.083 C 
ATOM     33  O   UNL A   1      32.091  19.043  25.202  1.00  0.00    -0.268 OA
ENDBRANCH  20  25
ENDBRANCH  18  19
ENDBRANCH  17  18
ENDBRANCH  13  17
ENDBRANCH   7  12
ENDBRANCH   3   6
ENDBRANCH   1   2
BRANCH   1  34
ATOM     34  C   UNL A   1      36.656  33.346  32.256  1.00  0.00     0.023 C 
BRANCH  34  35
ATOM     35  C   UNL A   1      35.989  31.991  32.543  1.00  0.00     0.023 C 
BRANCH  35  36
ATOM     36  C   UNL A   1      36.958  30.876  32.923  1.00  0.00     0.116 C 
BRANCH  36  37
ATOM     37  N   UNL A   1      37.514  31.046  34.267  1.00  0.00    -0.352 N 
ATOM     38  C   UNL A   1      38.576  30.372  34.841  1.00  0.00     0.251 C 
ATOM     39  H   UNL A   1      37.078  31.725  34.831  1.00  0.00     0.163 HD
ATOM     40  O   UNL A   1      38.693  30.308  36.058  1.00  0.00    -0.269 OA
BRANCH  38  41
ATOM     41  C   UNL A   1      39.573  29.752  33.955  1.00  0.00     0.039 A 
ATOM     42  C   UNL A   1      39.204  29.041  32.810  1.00  0.00     0.014 A 
ATOM     43  C   UNL A   1      40.913  29.940  34.278  1.00  0.00     0.014 A 
ATOM     44  C   UNL A   1      40.205  28.597  31.949  1.00  0.00     0.010 A 
ATOM     45  C   UNL A   1      41.882  29.647  33.355  1.00  0.00     0.010 A 
ATOM     46  C   UNL A   1      41.544  28.924  32.218  1.00  0.00    -0.014 A 
BRANCH  46  47
ATOM     47  C   UNL A   1      42.602  28.604  31.267  1.00  0.00     0.031 A 
ATOM     48  C   UNL A   1      42.868  29.650  30.242  1.00  0.00     0.074 A 
ATOM     49  C   UNL A   1      43.439  27.556  31.427  1.00  0.00     0.049 A 
ATOM     50  N   UNL A   1      42.647  29.579  28.973  1.00  0.00    -0.248 NA
ATOM     51  C   UNL A   1      43.314  30.979  30.695  1.00  0.00     0.031 C 
ATOM     52  C   UNL A   1      43.528  26.616  32.552  1.00  0.00     0.029 A 
ATOM     53  N   UNL A   1      44.495  27.190  30.656  1.00  0.00    -0.354 N 
ATOM     54  C   UNL A   1      43.117  30.769  28.430  1.00  0.00     0.074 A 
ATOM     55  C   UNL A   1      43.345  31.655  29.545  1.00  0.00     0.031 C 
ATOM     56  C   UNL A   1      44.719  25.977  32.512  1.00  0.00     0.029 A 
ATOM     57  C   UNL A   1      45.389  26.324  31.274  1.00  0.00     0.049 A 
ATOM     58  H   UNL A   1      44.618  27.512  29.734  1.00  0.00     0.167 HD
ATOM     59  C   UNL A   1      43.502  30.863  27.125  1.00  0.00     0.031 A 
ATOM     60  C   UNL A   1      46.611  25.953  30.813  1.00  0.00     0.031 A 
ATOM     61  C   UNL A   1      43.075  29.719  26.359  1.00  0.00     0.049 A 
ATOM     62  C   UNL A   1      46.609  26.204  29.350  1.00  0.00     0.074 A 
ATOM     63  C   UNL A   1      41.848  29.142  26.097  1.00  0.00     0.029 A 
ATOM     64  N   UNL A   1      44.011  28.740  26.108  1.00  0.00    -0.354 N 
ATOM     65  N   UNL A   1      45.835  25.560  28.519  1.00  0.00    -0.248 NA
ATOM     66  C   UNL A   1      47.093  27.492  28.877  1.00  0.00     0.031 C 
ATOM     67  C   UNL A   1      42.074  27.740  26.220  1.00  0.00     0.029 A 
ATOM     68  C   UNL A   1      43.437  27.540  26.452  1.00  0.00     0.049 A 
ATOM     69  H   UNL A   1      44.918  28.874  25.752  1.00  0.00     0.167 HD
ATOM     70  C   UNL A   1      45.379  26.528  27.633  1.00  0.00     0.074 A 
ATOM     71  C   UNL A   1      46.259  27.679  27.848  1.00  0.00     0.031 C 
ATOM     72  C   UNL A   1      44.164  26.419  27.016  1.00  0.00     0.031 A 
BRANCH  59  73
ATOM     73  C   UNL A   1      44.569  31.805  26.633  1.00  0.00    -0.014 A 
ATOM     74  C   UNL A   1      45.901  31.624  27.058  1.00  0.00     0.010 A 
ATOM     75  C   UNL A   1      44.267  33.011  25.968  1.00  0.00     0.010 A 
ATOM     76  C   UNL A   1      46.869  32.619  26.859  1.00  0.00     0.020 A 
ATOM     77  C   UNL A   1      45.232  33.990  25.726  1.00  0.00     0.020 A 
ATOM     78  C   UNL A   1      46.522  33.800  26.199  1.00  0.00     0.054 A 
BRANCH  78  79
ATOM     79  S   UNL A   1      47.757  35.110  26.012  1.00  0.00     0.124 S 
ATOM     80  O   UNL A   1      48.505  34.654  24.846  1.00  0.00    -0.237 OA
ATOM     81  O   UNL A   1      46.924  36.292  25.808  1.00  0.00    -0.237 OA
ATOM     82  O   UNL A   1      48.485  35.078  27.278  1.00  0.00    -0.744 OA
ENDBRANCH  78  79
ENDBRANCH  59  73
BRANCH  60  83
ATOM     83  C   UNL A   1      47.847  25.723  31.605  1.00  0.00    -0.014 A 
ATOM     84  C   UNL A   1      47.788  25.347  32.960  1.00  0.00     0.010 A 
ATOM     85  C   UNL A   1      49.093  25.604  30.952  1.00  0.00     0.010 A 
ATOM     86  C   UNL A   1      48.912  24.807  33.614  1.00  0.00     0.020 A 
ATOM     87  C   UNL A   1      50.218  25.075  31.598  1.00  0.00     0.020 A 
ATOM     88  C   UNL A   1      50.115  24.654  32.920  1.00  0.00     0.054 A 
BRANCH  88  89
ATOM     89  S   UNL A   1      51.504  23.781  33.706  1.00  0.00     0.124 S 
ATOM     90  O   UNL A   1      51.445  24.274  35.078  1.00  0.00    -0.237 OA
ATOM     91  O   UNL A   1      51.142  22.378  33.521  1.00  0.00    -0.237 OA
ATOM     92  O   UNL A   1      52.667  24.223  32.937  1.00  0.00    -0.744 OA
ENDBRANCH  88  89
ENDBRANCH  60  83
BRANCH  72  93
ATOM     93  C   UNL A   1      43.402  25.113  27.121  1.00  0.00    -0.014 A 
ATOM     94  C   UNL A   1      42.405  24.856  28.084  1.00  0.00     0.010 A 
ATOM     95  C   UNL A   1      43.587  24.171  26.093  1.00  0.00     0.010 A 
ATOM     96  C   UNL A   1      41.640  23.678  28.035  1.00  0.00     0.020 A 
ATOM     97  C   UNL A   1      42.816  23.007  26.025  1.00  0.00     0.020 A 
ATOM     98  C   UNL A   1      41.852  22.759  27.003  1.00  0.00     0.054 A 
BRANCH  98  99
ATOM     99  S   UNL A   1      40.839  21.255  26.916  1.00  0.00     0.124 S 
ATOM    100  O   UNL A   1      40.862  20.777  28.295  1.00  0.00    -0.237 OA
ATOM    101  O   UNL A   1      39.549  21.758  26.446  1.00  0.00    -0.237 OA
ATOM    102  O   UNL A   1      41.550  20.411  25.956  1.00  0.00    -0.744 OA
ENDBRANCH  98  99
ENDBRANCH  72  93
ENDBRANCH  46  47
ENDBRANCH  38  41
ENDBRANCH  36  37
ENDBRANCH  35  36
ENDBRANCH  34  35
ENDBRANCH   1  34
TORSDOF 19
ENDMDL
MODEL 2
REMARK VINA RESULT:     -11.9      5.344     10.031
REMARK SMILES O=C1NC(=O)/C(=C/c2ccc(OCc3cn(-c4ccc(C(=O)NCCCCNC(=O)c5ccc(-c6c7nc(c(-c8ccc(S(=O)(=O)[O-])cc8)c8ccc([nH]8)c(-c8ccc(S(=O)(=O)[O-])cc8)c8nc(c(-c9ccc(S(=O)(=O)[O-])cc9)c9ccc6[nH]9)C=C8)C=C7)cc5)cc4)nn3)cc2)S1
REMARK SMILES IDX 24 1 23 2 21 3 22 4 20 6 17 7 18 8 92 9 19 10 91 11 16 12
REMARK SMILES IDX 14 13 15 14 94 15 93 16 13 17 12 18 11 19 8 20 9 21 96 22
REMARK SMILES IDX 10 23 95 24 7 25 1 26 2 27 3 28 97 29 4 30 6 32 5 33 25 34
REMARK SMILES IDX 26 35 27 36 28 37 29 38 30 40 31 41 32 42 90 43 33 44 89 45
REMARK SMILES IDX 34 46 35 47 36 48 83 49 37 50 88 51 82 52 84 53 38 54 87 55
REMARK SMILES IDX 81 56 80 57 39 59 69 60 50 61 68 62 51 63 54 64 67 65 85 66
REMARK SMILES IDX 52 67 53 68 66 70 86 71 55 72 40 73 41 74 49 75 42 76 48 77
REMARK SMILES IDX 43 78 44 79 45 80 46 81 47 82 70 83 71 84 79 85 72 86 78 87
REMARK SMILES IDX 73 88 74 89 75 90 76 91 77 92 56 93 57 94 65 95 58 96 64 97
REMARK SMILES IDX 59 98 60 99 61 100 62 101 63 102
REMARK H PARENT 23 5 3 31 28 39 84 58 54 69
REMARK Flexibility Score: inf
ROOT
ATOM      1  C   UNL A   1      46.539  23.781  36.176  1.00  0.00     0.116 C 
ENDROOT
BRANCH   1   2
ATOM      2  N   UNL A   1      45.732  22.839  35.429  1.00  0.00    -0.352 N 
ATOM      3  C   UNL A   1      44.459  22.890  34.920  1.00  0.00     0.251 C 
ATOM      4  O   UNL A   1      44.035  21.873  34.370  1.00  0.00    -0.269 OA
ATOM      5  H   UNL A   1      46.191  21.987  35.250  1.00  0.00     0.163 HD
BRANCH   3   6
ATOM      6  C   UNL A   1      43.593  24.106  34.954  1.00  0.00     0.039 A 
ATOM      7  C   UNL A   1      42.177  26.533  35.010  1.00  0.00     0.066 A 
ATOM      8  C   UNL A   1      43.296  26.402  34.183  1.00  0.00     0.029 A 
ATOM      9  C   UNL A   1      41.727  25.445  35.757  1.00  0.00     0.029 A 
ATOM     10  C   UNL A   1      44.017  25.204  34.185  1.00  0.00     0.016 A 
ATOM     11  C   UNL A   1      42.404  24.226  35.678  1.00  0.00     0.016 A 
BRANCH   7  12
ATOM     12  N   UNL A   1      41.491  27.760  35.069  1.00  0.00    -0.220 N 
ATOM     13  C   UNL A   1      40.527  29.669  34.638  1.00  0.00     0.120 A 
ATOM     14  C   UNL A   1      41.119  28.583  34.029  1.00  0.00     0.144 A 
ATOM     15  N   UNL A   1      40.532  29.460  35.993  1.00  0.00    -0.131 NA
ATOM     16  N   UNL A   1      41.086  28.288  36.241  1.00  0.00    -0.062 NA
BRANCH  13  17
ATOM     17  C   UNL A   1      39.843  30.864  34.057  1.00  0.00     0.289 C 
BRANCH  17  18
ATOM     18  O   UNL A   1      39.618  30.826  32.636  1.00  0.00    -0.487 OA
BRANCH  18  19
ATOM     19  C   UNL A   1      38.449  31.339  32.144  1.00  0.00     0.119 A 
ATOM     20  C   UNL A   1      36.197  32.771  31.261  1.00  0.00    -0.024 A 
ATOM     21  C   UNL A   1      37.474  33.138  30.832  1.00  0.00     0.012 A 
ATOM     22  C   UNL A   1      36.048  31.628  32.051  1.00  0.00     0.012 A 
ATOM     23  C   UNL A   1      38.594  32.426  31.279  1.00  0.00     0.047 A 
ATOM     24  C   UNL A   1      37.166  30.900  32.459  1.00  0.00     0.047 A 
BRANCH  20  25
ATOM     25  C   UNL A   1      35.020  33.557  30.884  1.00  0.00     0.029 C 
ATOM     26  O   UNL A   1      33.703  37.324  33.964  1.00  0.00    -0.261 OA
ATOM     27  C   UNL A   1      33.829  36.470  33.098  1.00  0.00     0.290 C 
ATOM     28  N   UNL A   1      32.978  36.269  32.063  1.00  0.00    -0.282 N 
ATOM     29  S   UNL A   1      35.151  35.328  33.009  1.00  0.00    -0.022 SA
ATOM     30  C   UNL A   1      33.275  35.284  31.169  1.00  0.00     0.265 C 
ATOM     31  H   UNL A   1      32.169  36.820  31.958  1.00  0.00     0.174 HD
ATOM     32  C   UNL A   1      34.527  34.595  31.576  1.00  0.00     0.083 C 
ATOM     33  O   UNL A   1      32.600  35.008  30.190  1.00  0.00    -0.268 OA
ENDBRANCH  20  25
ENDBRANCH  18  19
ENDBRANCH  17  18
ENDBRANCH  13  17
ENDBRANCH   7  12
ENDBRANCH   3   6
ENDBRANCH   1   2
BRANCH   1  34
ATOM     34  C   UNL A   1      48.022  23.393  36.122  1.00  0.00     0.023 C 
BRANCH  34  35
ATOM     35  C   UNL A   1      48.354  22.266  35.131  1.00  0.00     0.023 C 
BRANCH  35  36
ATOM     36  C   UNL A   1      49.778  22.299  34.588  1.00  0.00     0.116 C 
BRANCH  36  37
ATOM     37  N   UNL A   1      50.491  23.526  34.951  1.00  0.00    -0.352 N 
ATOM     38  C   UNL A   1      50.755  24.625  34.155  1.00  0.00     0.251 C 
ATOM     39  H   UNL A   1      50.825  23.573  35.876  1.00  0.00     0.163 HD
ATOM     40  O   UNL A   1      51.673  25.389  34.426  1.00  0.00    -0.269 OA
BRANCH  38  41
ATOM     41  C   UNL A   1      49.892  24.868  32.988  1.00  0.00     0.039 A 
ATOM     42  C   UNL A   1      48.557  25.255  33.125  1.00  0.00     0.014 A 
ATOM     43  C   UNL A   1      50.475  24.738  31.731  1.00  0.00     0.014 A 
ATOM     44  C   UNL A   1      47.841  25.596  31.979  1.00  0.00     0.010 A 
ATOM     45  C   UNL A   1      49.824  25.226  30.628  1.00  0.00     0.010 A 
ATOM     46  C   UNL A   1      48.490  25.599  30.733  1.00  0.00    -0.014 A 
BRANCH  46  47
ATOM     47  C   UNL A   1      47.817  26.088  29.536  1.00  0.00     0.031 A 
ATOM     48  C   UNL A   1      46.810  27.160  29.771  1.00  0.00     0.074 A 
ATOM     49  C   UNL A   1      48.224  25.776  28.287  1.00  0.00     0.049 A 
ATOM     50  N   UNL A   1      45.530  27.078  29.625  1.00  0.00    -0.248 NA
ATOM     51  C   UNL A   1      47.263  28.432  30.357  1.00  0.00     0.031 C 
ATOM     52  C   UNL A   1      49.399  24.998  27.872  1.00  0.00     0.029 A 
ATOM     53  N   UNL A   1      47.729  26.212  27.101  1.00  0.00    -0.354 N 
ATOM     54  C   UNL A   1      45.028  28.346  29.897  1.00  0.00     0.074 A 
ATOM     55  C   UNL A   1      46.107  29.081  30.511  1.00  0.00     0.031 C 
ATOM     56  C   UNL A   1      49.663  25.241  26.569  1.00  0.00     0.029 A 
ATOM     57  C   UNL A   1      48.583  26.036  26.018  1.00  0.00     0.049 A 
ATOM     58  H   UNL A   1      46.837  26.621  27.014  1.00  0.00     0.167 HD
ATOM     59  C   UNL A   1      43.836  28.772  29.389  1.00  0.00     0.031 A 
ATOM     60  C   UNL A   1      48.426  26.544  24.769  1.00  0.00     0.031 A 
ATOM     61  C   UNL A   1      43.071  27.683  28.837  1.00  0.00     0.049 A 
ATOM     62  C   UNL A   1      46.984  26.868  24.618  1.00  0.00     0.074 A 
ATOM     63  C   UNL A   1      42.583  26.496  29.348  1.00  0.00     0.029 A 
ATOM     64  N   UNL A   1      43.095  27.521  27.470  1.00  0.00    -0.354 N 
ATOM     65  N   UNL A   1      46.047  25.959  24.625  1.00  0.00    -0.248 NA
ATOM     66  C   UNL A   1      46.547  28.214  24.955  1.00  0.00     0.031 C 
ATOM     67  C   UNL A   1      42.843  25.531  28.330  1.00  0.00     0.029 A 
ATOM     68  C   UNL A   1      43.381  26.200  27.228  1.00  0.00     0.049 A 
ATOM     69  H   UNL A   1      42.938  28.219  26.794  1.00  0.00     0.167 HD
ATOM     70  C   UNL A   1      45.023  26.509  25.384  1.00  0.00     0.074 A 
ATOM     71  C   UNL A   1      45.351  27.933  25.482  1.00  0.00     0.031 C 
ATOM     72  C   UNL A   1      44.162  25.726  26.102  1.00  0.00     0.031 A 
BRANCH  59  73
ATOM     73  C   UNL A   1      43.531  30.211  29.067  1.00  0.00    -0.014 A 
ATOM     74  C   UNL A   1      44.269  30.867  28.062  1.00  0.00     0.010 A 
ATOM     75  C   UNL A   1      42.715  31.015  29.890  1.00  0.00     0.010 A 
ATOM     76  C   UNL A   1      44.220  32.261  27.915  1.00  0.00     0.020 A 
ATOM     77  C   UNL A   1      42.624  32.398  29.726  1.00  0.00     0.020 A 
ATOM     78  C   UNL A   1      43.400  33.017  28.756  1.00  0.00     0.054 A 
BRANCH  78  79
ATOM     79  S   UNL A   1      43.399  34.821  28.611  1.00  0.00     0.124 S 
ATOM     80  O   UNL A   1      43.910  35.014  27.259  1.00  0.00    -0.237 OA
ATOM     81  O   UNL A   1      41.988  35.145  28.809  1.00  0.00    -0.237 OA
ATOM     82  O   UNL A   1      44.288  35.252  29.686  1.00  0.00    -0.744 OA
ENDBRANCH  78  79
ENDBRANCH  59  73
BRANCH  60  83
ATOM     83  C   UNL A   1      49.483  27.061  23.861  1.00  0.00    -0.014 A 
ATOM     84  C   UNL A   1      50.848  26.918  24.173  1.00  0.00     0.010 A 
ATOM     85  C   UNL A   1      49.155  27.454  22.546  1.00  0.00     0.010 A 
ATOM     86  C   UNL A   1      51.840  27.092  23.189  1.00  0.00     0.020 A 
ATOM     87  C   UNL A   1      50.136  27.636  21.563  1.00  0.00     0.020 A 
ATOM     88  C   UNL A   1      51.474  27.428  21.883  1.00  0.00     0.054 A 
BRANCH  88  89
ATOM     89  S   UNL A   1      52.737  27.462  20.574  1.00  0.00     0.124 S 
ATOM     90  O   UNL A   1      52.792  26.064  20.159  1.00  0.00    -0.237 OA
ATOM     91  O   UNL A   1      52.162  28.389  19.602  1.00  0.00    -0.237 OA
ATOM     92  O   UNL A   1      53.931  27.952  21.261  1.00  0.00    -0.744 OA
ENDBRANCH  88  89
ENDBRANCH  60  83
BRANCH  72  93
ATOM     93  C   UNL A   1      44.181  24.225  25.885  1.00  0.00    -0.014 A 
ATOM     94  C   UNL A   1      43.287  23.539  25.038  1.00  0.00     0.010 A 
ATOM     95  C   UNL A   1      45.258  23.505  26.433  1.00  0.00     0.010 A 
ATOM     96  C   UNL A   1      43.452  22.168  24.773  1.00  0.00     0.020 A 
ATOM     97  C   UNL A   1      45.440  22.147  26.158  1.00  0.00     0.020 A 
ATOM     98  C   UNL A   1      44.530  21.481  25.338  1.00  0.00     0.054 A 
BRANCH  98  99
ATOM     99  S   UNL A   1      44.765  19.719  24.967  1.00  0.00     0.124 S 
ATOM    100  O   UNL A   1      43.753  19.081  25.804  1.00  0.00    -0.237 OA
ATOM    101  O   UNL A   1      44.523  19.654  23.528  1.00  0.00    -0.237 OA
ATOM    102  O   UNL A   1      46.148  19.461  25.365  1.00  0.00    -0.744 OA
ENDBRANCH  98  99
ENDBRANCH  72  93
ENDBRANCH  46  47
ENDBRANCH  38  41
ENDBRANCH  36  37
ENDBRANCH  35  36
ENDBRANCH  34  35
ENDBRANCH   1  34
TORSDOF 19
ENDMDL
MODEL 3
REMARK VINA RESULT:     -11.7      2.430      7.408
REMARK SMILES O=C1NC(=O)/C(=C/c2ccc(OCc3cn(-c4ccc(C(=O)NCCCCNC(=O)c5ccc(-c6c7nc(c(-c8ccc(S(=O)(=O)[O-])cc8)c8ccc([nH]8)c(-c8ccc(S(=O)(=O)[O-])cc8)c8nc(c(-c9ccc(S(=O)(=O)[O-])cc9)c9ccc6[nH]9)C=C8)C=C7)cc5)cc4)nn3)cc2)S1
REMARK SMILES IDX 24 1 23 2 21 3 22 4 20 6 17 7 18 8 92 9 19 10 91 11 16 12
REMARK SMILES IDX 14 13 15 14 94 15 93 16 13 17 12 18 11 19 8 20 9 21 96 22
REMARK SMILES IDX 10 23 95 24 7 25 1 26 2 27 3 28 97 29 4 30 6 32 5 33 25 34
REMARK SMILES IDX 26 35 27 36 28 37 29 38 30 40 31 41 32 42 90 43 33 44 89 45
REMARK SMILES IDX 34 46 35 47 36 48 83 49 37 50 88 51 82 52 84 53 38 54 87 55
REMARK SMILES IDX 81 56 80 57 39 59 69 60 50 61 68 62 51 63 54 64 67 65 85 66
REMARK SMILES IDX 52 67 53 68 66 70 86 71 55 72 40 73 41 74 49 75 42 76 48 77
REMARK SMILES IDX 43 78 44 79 45 80 46 81 47 82 70 83 71 84 79 85 72 86 78 87
REMARK SMILES IDX 73 88 74 89 75 90 76 91 77 92 56 93 57 94 65 95 58 96 64 97
REMARK SMILES IDX 59 98 60 99 61 100 62 101 63 102
REMARK H PARENT 23 5 3 31 28 39 84 58 54 69
REMARK Flexibility Score: inf
ROOT
ATOM      1  C   UNL A   1      41.060  34.020  33.359  1.00  0.00     0.116 C 
ENDROOT
BRANCH   1   2
ATOM      2  N   UNL A   1      41.765  34.415  32.156  1.00  0.00    -0.352 N 
ATOM      3  C   UNL A   1      41.583  34.133  30.826  1.00  0.00     0.251 C 
ATOM      4  O   UNL A   1      42.411  34.592  30.038  1.00  0.00    -0.269 OA
ATOM      5  H   UNL A   1      42.532  35.007  32.328  1.00  0.00     0.163 HD
BRANCH   3   6
ATOM      6  C   UNL A   1      40.428  33.354  30.287  1.00  0.00     0.039 A 
ATOM      7  C   UNL A   1      38.105  32.079  29.351  1.00  0.00     0.066 A 
ATOM      8  C   UNL A   1      38.250  33.461  29.193  1.00  0.00     0.029 A 
ATOM      9  C   UNL A   1      39.135  31.327  29.915  1.00  0.00     0.029 A 
ATOM     10  C   UNL A   1      39.392  34.094  29.691  1.00  0.00     0.016 A 
ATOM     11  C   UNL A   1      40.310  31.963  30.323  1.00  0.00     0.016 A 
BRANCH   7  12
ATOM     12  N   UNL A   1      36.925  31.446  28.920  1.00  0.00    -0.220 N 
ATOM     13  C   UNL A   1      35.031  30.915  27.977  1.00  0.00     0.120 A 
ATOM     14  C   UNL A   1      36.017  31.877  27.978  1.00  0.00     0.144 A 
ATOM     15  N   UNL A   1      35.378  29.939  28.875  1.00  0.00    -0.131 NA
ATOM     16  N   UNL A   1      36.542  30.251  29.415  1.00  0.00    -0.062 NA
BRANCH  13  17
ATOM     17  C   UNL A   1      33.816  30.760  27.121  1.00  0.00     0.289 C 
BRANCH  17  18
ATOM     18  O   UNL A   1      32.811  29.859  27.620  1.00  0.00    -0.487 OA
BRANCH  18  19
ATOM     19  C   UNL A   1      32.731  28.603  27.083  1.00  0.00     0.119 A 
ATOM     20  C   UNL A   1      32.713  26.202  25.621  1.00  0.00    -0.024 A 
ATOM     21  C   UNL A   1      33.882  26.961  25.709  1.00  0.00     0.012 A 
ATOM     22  C   UNL A   1      31.588  26.601  26.348  1.00  0.00     0.012 A 
ATOM     23  C   UNL A   1      33.885  28.159  26.433  1.00  0.00     0.047 A 
ATOM     24  C   UNL A   1      31.612  27.776  27.101  1.00  0.00     0.047 A 
BRANCH  20  25
ATOM     25  C   UNL A   1      32.657  24.995  24.793  1.00  0.00     0.029 C 
ATOM     26  O   UNL A   1      33.000  25.630  19.804  1.00  0.00    -0.261 OA
ATOM     27  C   UNL A   1      32.887  25.249  20.960  1.00  0.00     0.290 C 
ATOM     28  N   UNL A   1      32.666  23.970  21.349  1.00  0.00    -0.282 N 
ATOM     29  S   UNL A   1      32.997  26.285  22.366  1.00  0.00    -0.022 SA
ATOM     30  C   UNL A   1      32.585  23.709  22.684  1.00  0.00     0.265 C 
ATOM     31  H   UNL A   1      32.569  23.249  20.685  1.00  0.00     0.174 HD
ATOM     32  C   UNL A   1      32.737  24.970  23.454  1.00  0.00     0.083 C 
ATOM     33  O   UNL A   1      32.401  22.602  23.166  1.00  0.00    -0.268 OA
ENDBRANCH  20  25
ENDBRANCH  18  19
ENDBRANCH  17  18
ENDBRANCH  13  17
ENDBRANCH   7  12
ENDBRANCH   3   6
ENDBRANCH   1   2
BRANCH   1  34
ATOM     34  C   UNL A   1      39.927  35.004  33.675  1.00  0.00     0.023 C 
BRANCH  34  35
ATOM     35  C   UNL A   1      38.548  34.586  33.141  1.00  0.00     0.023 C 
BRANCH  35  36
ATOM     36  C   UNL A   1      38.282  33.085  33.182  1.00  0.00     0.116 C 
BRANCH  36  37
ATOM     37  N   UNL A   1      38.031  32.593  34.538  1.00  0.00    -0.352 N 
ATOM     38  C   UNL A   1      38.229  31.317  35.032  1.00  0.00     0.251 C 
ATOM     39  H   UNL A   1      37.677  33.254  35.177  1.00  0.00     0.163 HD
ATOM     40  O   UNL A   1      37.628  30.930  36.026  1.00  0.00    -0.269 OA
BRANCH  38  41
ATOM     41  C   UNL A   1      39.195  30.444  34.347  1.00  0.00     0.039 A 
ATOM     42  C   UNL A   1      38.811  29.584  33.316  1.00  0.00     0.014 A 
ATOM     43  C   UNL A   1      40.526  30.540  34.741  1.00  0.00     0.014 A 
ATOM     44  C   UNL A   1      39.801  28.886  32.626  1.00  0.00     0.010 A 
ATOM     45  C   UNL A   1      41.506  29.982  33.961  1.00  0.00     0.010 A 
ATOM     46  C   UNL A   1      41.151  29.108  32.942  1.00  0.00    -0.014 A 
BRANCH  46  47
ATOM     47  C   UNL A   1      42.218  28.510  32.147  1.00  0.00     0.031 A 
ATOM     48  C   UNL A   1      43.466  28.201  32.897  1.00  0.00     0.074 A 
ATOM     49  C   UNL A   1      42.027  28.052  30.891  1.00  0.00     0.049 A 
ATOM     50  N   UNL A   1      44.619  28.765  32.766  1.00  0.00    -0.248 NA
ATOM     51  C   UNL A   1      43.396  27.239  34.010  1.00  0.00     0.031 C 
ATOM     52  C   UNL A   1      40.778  27.978  30.121  1.00  0.00     0.029 A 
ATOM     53  N   UNL A   1      42.911  27.422  30.076  1.00  0.00    -0.354 N 
ATOM     54  C   UNL A   1      45.479  28.094  33.628  1.00  0.00     0.074 A 
ATOM     55  C   UNL A   1      44.640  27.297  34.490  1.00  0.00     0.031 C 
ATOM     56  C   UNL A   1      40.936  27.120  29.088  1.00  0.00     0.029 A 
ATOM     57  C   UNL A   1      42.331  26.731  29.019  1.00  0.00     0.049 A 
ATOM     58  H   UNL A   1      43.885  27.453  30.221  1.00  0.00     0.167 HD
ATOM     59  C   UNL A   1      46.827  28.065  33.422  1.00  0.00     0.031 A 
ATOM     60  C   UNL A   1      42.953  25.869  28.173  1.00  0.00     0.031 A 
ATOM     61  C   UNL A   1      47.237  29.032  32.436  1.00  0.00     0.049 A 
ATOM     62  C   UNL A   1      44.403  26.181  28.237  1.00  0.00     0.074 A 
ATOM     63  C   UNL A   1      47.114  30.403  32.325  1.00  0.00     0.029 A 
ATOM     64  N   UNL A   1      47.475  28.572  31.159  1.00  0.00    -0.354 N 
ATOM     65  N   UNL A   1      44.905  27.316  27.832  1.00  0.00    -0.248 NA
ATOM     66  C   UNL A   1      45.219  25.447  29.193  1.00  0.00     0.031 C 
ATOM     67  C   UNL A   1      46.759  30.625  30.962  1.00  0.00     0.029 A 
ATOM     68  C   UNL A   1      46.782  29.393  30.303  1.00  0.00     0.049 A 
ATOM     69  H   UNL A   1      48.033  27.802  30.908  1.00  0.00     0.167 HD
ATOM     70  C   UNL A   1      45.853  27.650  28.791  1.00  0.00     0.074 A 
ATOM     71  C   UNL A   1      46.066  26.417  29.553  1.00  0.00     0.031 C 
ATOM     72  C   UNL A   1      46.167  28.951  29.067  1.00  0.00     0.031 A 
BRANCH  59  73
ATOM     73  C   UNL A   1      47.712  26.921  33.842  1.00  0.00    -0.014 A 
ATOM     74  C   UNL A   1      47.695  25.724  33.097  1.00  0.00     0.010 A 
ATOM     75  C   UNL A   1      48.373  26.892  35.087  1.00  0.00     0.010 A 
ATOM     76  C   UNL A   1      48.279  24.550  33.596  1.00  0.00     0.020 A 
ATOM     77  C   UNL A   1      48.995  25.741  35.574  1.00  0.00     0.020 A 
ATOM     78  C   UNL A   1      48.919  24.568  34.837  1.00  0.00     0.054 A 
BRANCH  78  79
ATOM     79  S   UNL A   1      49.604  23.032  35.507  1.00  0.00     0.124 S 
ATOM     80  O   UNL A   1      48.435  22.434  36.143  1.00  0.00    -0.237 OA
ATOM     81  O   UNL A   1      50.086  22.358  34.304  1.00  0.00    -0.237 OA
ATOM     82  O   UNL A   1      50.649  23.491  36.418  1.00  0.00    -0.744 OA
ENDBRANCH  78  79
ENDBRANCH  59  73
BRANCH  60  83
ATOM     83  C   UNL A   1      42.408  24.612  27.598  1.00  0.00    -0.014 A 
ATOM     84  C   UNL A   1      42.931  24.065  26.412  1.00  0.00     0.010 A 
ATOM     85  C   UNL A   1      41.551  23.797  28.367  1.00  0.00     0.010 A 
ATOM     86  C   UNL A   1      42.664  22.730  26.048  1.00  0.00     0.020 A 
ATOM     87  C   UNL A   1      41.274  22.471  28.008  1.00  0.00     0.020 A 
ATOM     88  C   UNL A   1      41.854  21.936  26.862  1.00  0.00     0.054 A 
BRANCH  88  89
ATOM     89  S   UNL A   1      41.669  20.164  26.494  1.00  0.00     0.124 S 
ATOM     90  O   UNL A   1      42.098  19.540  27.741  1.00  0.00    -0.237 OA
ATOM     91  O   UNL A   1      40.245  20.050  26.187  1.00  0.00    -0.237 OA
ATOM     92  O   UNL A   1      42.563  19.954  25.355  1.00  0.00    -0.744 OA
ENDBRANCH  88  89
ENDBRANCH  60  83
BRANCH  72  93
ATOM     93  C   UNL A   1      45.641  30.042  28.154  1.00  0.00    -0.014 A 
ATOM     94  C   UNL A   1      44.379  30.653  28.300  1.00  0.00     0.010 A 
ATOM     95  C   UNL A   1      46.535  30.586  27.214  1.00  0.00     0.010 A 
ATOM     96  C   UNL A   1      44.014  31.755  27.507  1.00  0.00     0.020 A 
ATOM     97  C   UNL A   1      46.187  31.695  26.437  1.00  0.00     0.020 A 
ATOM     98  C   UNL A   1      44.924  32.268  26.578  1.00  0.00     0.054 A 
BRANCH  98  99
ATOM     99  S   UNL A   1      44.468  33.715  25.580  1.00  0.00     0.124 S 
ATOM    100  O   UNL A   1      43.666  34.503  26.511  1.00  0.00    -0.237 OA
ATOM    101  O   UNL A   1      45.765  34.288  25.227  1.00  0.00    -0.237 OA
ATOM    102  O   UNL A   1      43.728  33.144  24.456  1.00  0.00    -0.744 OA
ENDBRANCH  98  99
ENDBRANCH  72  93
ENDBRANCH  46  47
ENDBRANCH  38  41
ENDBRANCH  36  37
ENDBRANCH  35  36
ENDBRANCH  34  35
ENDBRANCH   1  34
TORSDOF 19
ENDMDL
