MODEL 1
REMARK VINA RESULT:     -11.6      0.000      0.000
REMARK SMILES C[C@]1(C(=O)N2CCC(CC(=O)NCCCCNC(=O)c3ccc(-c4c5nc(c(-c6ccc(S(=O)(=O)[O-])cc6)c6ccc([nH]6)c(-c6ccc(S(=O)(=O)[O-])cc6)c6nc(c(-c7ccc(S(=O)(=O)[O-])cc7)c7ccc4[nH]7)C=C6)C=C5)cc3)CC2)CCC[NH2+]C1
REMARK SMILES IDX 15 1 14 2 13 3 12 4 10 5 11 6 9 8 8 9 3 10 4 11 5 12 6 13
REMARK SMILES IDX 81 14 7 15 80 16 2 17 1 18 82 19 86 20 83 21 85 22 84 23
REMARK SMILES IDX 16 26 17 27 18 28 19 30 20 31 21 32 79 33 22 34 78 35 23 36
REMARK SMILES IDX 24 37 25 38 72 39 26 40 77 41 71 42 73 43 27 44 76 45 70 46
REMARK SMILES IDX 69 47 28 49 58 50 39 51 57 52 40 53 43 54 56 55 74 56 41 57
REMARK SMILES IDX 42 58 55 60 75 61 44 62 29 63 30 64 38 65 31 66 37 67 32 68
REMARK SMILES IDX 33 69 34 70 35 71 36 72 59 73 60 74 68 75 61 76 67 77 62 78
REMARK SMILES IDX 63 79 64 80 65 81 66 82 45 83 46 84 54 85 47 86 53 87 48 88
REMARK SMILES IDX 49 89 50 90 51 91 52 92
REMARK H PARENT 12 7 85 24 85 25 17 29 73 48 43 59
REMARK Flexibility Score: inf
ROOT
ATOM      1  C   UNL A   1      33.703  28.222  25.799  1.00  0.00     0.023 C 
ENDROOT
BRANCH   1   2
ATOM      2  C   UNL A   1      33.192  29.294  24.854  1.00  0.00     0.023 C 
BRANCH   2   3
ATOM      3  C   UNL A   1      33.396  29.017  23.361  1.00  0.00     0.116 C 
BRANCH   3   4
ATOM      4  N   UNL A   1      32.139  29.057  22.627  1.00  0.00    -0.356 N 
ATOM      5  C   UNL A   1      31.052  28.233  22.664  1.00  0.00     0.220 C 
ATOM      6  O   UNL A   1      30.118  28.462  21.895  1.00  0.00    -0.275 OA
ATOM      7  H   UNL A   1      32.061  29.807  21.995  1.00  0.00     0.163 HD
BRANCH   5   8
ATOM      8  C   UNL A   1      30.981  27.057  23.628  1.00  0.00     0.103 C 
BRANCH   8   9
ATOM      9  C   UNL A   1      31.162  25.673  22.958  1.00  0.00     0.002 C 
ATOM     10  C   UNL A   1      33.485  22.274  23.962  1.00  0.00     0.234 C 
ATOM     11  O   UNL A   1      33.311  21.104  23.624  1.00  0.00    -0.274 OA
ATOM     12  N   UNL A   1      32.684  23.276  23.450  1.00  0.00    -0.342 N 
ATOM     13  C   UNL A   1      31.241  23.178  23.567  1.00  0.00     0.120 C 
ATOM     14  C   UNL A   1      33.115  24.077  22.332  1.00  0.00     0.120 C 
ATOM     15  C   UNL A   1      30.684  24.559  23.915  1.00  0.00     0.026 C 
ATOM     16  C   UNL A   1      32.620  25.492  22.522  1.00  0.00     0.026 C 
BRANCH  10  17
ATOM     17  C   UNL A   1      34.615  22.724  24.933  1.00  0.00     0.095 C 
ATOM     18  C   UNL A   1      35.821  23.225  24.115  1.00  0.00     0.028 C 
ATOM     19  C   UNL A   1      34.183  23.839  25.917  1.00  0.00     0.028 C 
ATOM     20  C   UNL A   1      35.053  21.494  25.770  1.00  0.00     0.277 C 
ATOM     21  C   UNL A   1      33.167  23.345  26.945  1.00  0.00     0.063 C 
ATOM     22  N   UNL A   1      34.032  21.051  26.731  1.00  0.00    -0.345 N 
ATOM     23  C   UNL A   1      33.664  22.102  27.671  1.00  0.00     0.260 C 
ATOM     24  H   UNL A   1      33.200  20.765  26.216  1.00  0.00     0.346 HD
ATOM     25  H   UNL A   1      34.423  20.276  27.266  1.00  0.00     0.346 HD
ENDBRANCH  10  17
ENDBRANCH   8   9
ENDBRANCH   5   8
ENDBRANCH   3   4
ENDBRANCH   2   3
ENDBRANCH   1   2
BRANCH   1  26
ATOM     26  C   UNL A   1      33.437  28.511  27.262  1.00  0.00     0.116 C 
BRANCH  26  27
ATOM     27  N   UNL A   1      33.423  29.935  27.577  1.00  0.00    -0.352 N 
ATOM     28  C   UNL A   1      34.443  30.710  28.084  1.00  0.00     0.251 C 
ATOM     29  H   UNL A   1      32.574  30.403  27.404  1.00  0.00     0.163 HD
ATOM     30  O   UNL A   1      34.244  31.876  28.394  1.00  0.00    -0.269 OA
BRANCH  28  31
ATOM     31  C   UNL A   1      35.765  30.085  28.287  1.00  0.00     0.039 A 
ATOM     32  C   UNL A   1      36.692  30.098  27.244  1.00  0.00     0.014 A 
ATOM     33  C   UNL A   1      36.113  29.586  29.544  1.00  0.00     0.014 A 
ATOM     34  C   UNL A   1      38.003  29.686  27.492  1.00  0.00     0.010 A 
ATOM     35  C   UNL A   1      37.438  29.286  29.815  1.00  0.00     0.010 A 
ATOM     36  C   UNL A   1      38.396  29.322  28.790  1.00  0.00    -0.014 A 
BRANCH  36  37
ATOM     37  C   UNL A   1      39.794  28.944  29.105  1.00  0.00     0.031 A 
ATOM     38  C   UNL A   1      40.711  29.965  29.726  1.00  0.00     0.074 A 
ATOM     39  C   UNL A   1      40.260  27.727  28.763  1.00  0.00     0.049 A 
ATOM     40  N   UNL A   1      41.991  29.879  29.976  1.00  0.00    -0.248 NA
ATOM     41  C   UNL A   1      40.118  31.269  30.070  1.00  0.00     0.031 C 
ATOM     42  C   UNL A   1      39.486  26.672  28.100  1.00  0.00     0.029 A 
ATOM     43  N   UNL A   1      41.505  27.173  28.917  1.00  0.00    -0.354 N 
ATOM     44  C   UNL A   1      42.357  31.121  30.482  1.00  0.00     0.074 A 
ATOM     45  C   UNL A   1      41.183  31.962  30.440  1.00  0.00     0.031 C 
ATOM     46  C   UNL A   1      40.269  25.593  27.930  1.00  0.00     0.029 A 
ATOM     47  C   UNL A   1      41.603  25.888  28.437  1.00  0.00     0.049 A 
ATOM     48  H   UNL A   1      42.260  27.650  29.334  1.00  0.00     0.167 HD
ATOM     49  C   UNL A   1      43.554  31.519  30.972  1.00  0.00     0.031 A 
ATOM     50  C   UNL A   1      42.654  25.045  28.407  1.00  0.00     0.031 A 
ATOM     51  C   UNL A   1      44.710  30.670  31.045  1.00  0.00     0.049 A 
ATOM     52  C   UNL A   1      43.967  25.496  28.987  1.00  0.00     0.074 A 
ATOM     53  C   UNL A   1      45.959  30.956  31.565  1.00  0.00     0.029 A 
ATOM     54  N   UNL A   1      44.752  29.358  30.596  1.00  0.00    -0.354 N 
ATOM     55  N   UNL A   1      44.279  26.659  29.509  1.00  0.00    -0.248 NA
ATOM     56  C   UNL A   1      45.063  24.518  28.991  1.00  0.00     0.031 C 
ATOM     57  C   UNL A   1      46.766  29.825  31.404  1.00  0.00     0.029 A 
ATOM     58  C   UNL A   1      46.006  28.821  30.825  1.00  0.00     0.049 A 
ATOM     59  H   UNL A   1      44.001  28.879  30.176  1.00  0.00     0.167 HD
ATOM     60  C   UNL A   1      45.601  26.544  29.923  1.00  0.00     0.074 A 
ATOM     61  C   UNL A   1      46.023  25.194  29.608  1.00  0.00     0.031 C 
ATOM     62  C   UNL A   1      46.397  27.471  30.510  1.00  0.00     0.031 A 
BRANCH  49  63
ATOM     63  C   UNL A   1      43.655  32.930  31.484  1.00  0.00    -0.014 A 
ATOM     64  C   UNL A   1      43.251  33.250  32.794  1.00  0.00     0.010 A 
ATOM     65  C   UNL A   1      44.168  33.946  30.659  1.00  0.00     0.010 A 
ATOM     66  C   UNL A   1      43.313  34.567  33.253  1.00  0.00     0.020 A 
ATOM     67  C   UNL A   1      44.259  35.261  31.124  1.00  0.00     0.020 A 
ATOM     68  C   UNL A   1      43.812  35.566  32.413  1.00  0.00     0.054 A 
BRANCH  68  69
ATOM     69  S   UNL A   1      43.896  37.266  33.040  1.00  0.00     0.124 S 
ATOM     70  O   UNL A   1      42.771  37.296  33.972  1.00  0.00    -0.237 OA
ATOM     71  O   UNL A   1      45.220  37.317  33.653  1.00  0.00    -0.237 OA
ATOM     72  O   UNL A   1      43.734  38.085  31.842  1.00  0.00    -0.744 OA
ENDBRANCH  68  69
ENDBRANCH  49  63
BRANCH  50  73
ATOM     73  C   UNL A   1      42.502  23.683  27.826  1.00  0.00    -0.014 A 
ATOM     74  C   UNL A   1      42.137  22.596  28.640  1.00  0.00     0.010 A 
ATOM     75  C   UNL A   1      42.720  23.466  26.454  1.00  0.00     0.010 A 
ATOM     76  C   UNL A   1      42.016  21.313  28.098  1.00  0.00     0.020 A 
ATOM     77  C   UNL A   1      42.574  22.188  25.903  1.00  0.00     0.020 A 
ATOM     78  C   UNL A   1      42.238  21.117  26.733  1.00  0.00     0.054 A 
BRANCH  78  79
ATOM     79  S   UNL A   1      42.037  19.451  26.040  1.00  0.00     0.124 S 
ATOM     80  O   UNL A   1      40.597  19.390  25.812  1.00  0.00    -0.237 OA
ATOM     81  O   UNL A   1      42.867  19.504  24.839  1.00  0.00    -0.237 OA
ATOM     82  O   UNL A   1      42.543  18.580  27.098  1.00  0.00    -0.744 OA
ENDBRANCH  78  79
ENDBRANCH  50  73
BRANCH  62  83
ATOM     83  C   UNL A   1      47.791  27.048  30.882  1.00  0.00    -0.014 A 
ATOM     84  C   UNL A   1      48.045  26.368  32.085  1.00  0.00     0.010 A 
ATOM     85  C   UNL A   1      48.847  27.282  29.983  1.00  0.00     0.010 A 
ATOM     86  C   UNL A   1      49.342  25.952  32.396  1.00  0.00     0.020 A 
ATOM     87  C   UNL A   1      50.139  26.846  30.281  1.00  0.00     0.020 A 
ATOM     88  C   UNL A   1      50.382  26.194  31.492  1.00  0.00     0.054 A 
BRANCH  88  89
ATOM     89  S   UNL A   1      52.047  25.602  31.896  1.00  0.00     0.124 S 
ATOM     90  O   UNL A   1      52.779  25.894  30.668  1.00  0.00    -0.237 OA
ATOM     91  O   UNL A   1      52.407  26.418  33.053  1.00  0.00    -0.237 OA
ATOM     92  O   UNL A   1      51.848  24.183  32.183  1.00  0.00    -0.744 OA
ENDBRANCH  88  89
ENDBRANCH  62  83
ENDBRANCH  36  37
ENDBRANCH  28  31
ENDBRANCH  26  27
ENDBRANCH   1  26
TORSDOF 16
ENDMDL
MODEL 2
REMARK VINA RESULT:     -10.8      2.758      3.456
REMARK SMILES C[C@]1(C(=O)N2CCC(CC(=O)NCCCCNC(=O)c3ccc(-c4c5nc(c(-c6ccc(S(=O)(=O)[O-])cc6)c6ccc([nH]6)c(-c6ccc(S(=O)(=O)[O-])cc6)c6nc(c(-c7ccc(S(=O)(=O)[O-])cc7)c7ccc4[nH]7)C=C6)C=C5)cc3)CC2)CCC[NH2+]C1
REMARK SMILES IDX 15 1 14 2 13 3 12 4 10 5 11 6 9 8 8 9 3 10 4 11 5 12 6 13
REMARK SMILES IDX 81 14 7 15 80 16 2 17 1 18 82 19 86 20 83 21 85 22 84 23
REMARK SMILES IDX 16 26 17 27 18 28 19 30 20 31 21 32 79 33 22 34 78 35 23 36
REMARK SMILES IDX 24 37 25 38 72 39 26 40 77 41 71 42 73 43 27 44 76 45 70 46
REMARK SMILES IDX 69 47 28 49 58 50 39 51 57 52 40 53 43 54 56 55 74 56 41 57
REMARK SMILES IDX 42 58 55 60 75 61 44 62 29 63 30 64 38 65 31 66 37 67 32 68
REMARK SMILES IDX 33 69 34 70 35 71 36 72 59 73 60 74 68 75 61 76 67 77 62 78
REMARK SMILES IDX 63 79 64 80 65 81 66 82 45 83 46 84 54 85 47 86 53 87 48 88
REMARK SMILES IDX 49 89 50 90 51 91 52 92
REMARK H PARENT 12 7 85 24 85 25 17 29 73 48 43 59
REMARK Flexibility Score: inf
ROOT
ATOM      1  C   UNL A   1      33.190  29.272  24.840  1.00  0.00     0.023 C 
ENDROOT
BRANCH   1   2
ATOM      2  C   UNL A   1      34.048  28.544  23.823  1.00  0.00     0.023 C 
BRANCH   2   3
ATOM      3  C   UNL A   1      33.491  28.493  22.396  1.00  0.00     0.116 C 
BRANCH   3   4
ATOM      4  N   UNL A   1      32.039  28.596  22.379  1.00  0.00    -0.356 N 
ATOM      5  C   UNL A   1      31.071  27.634  22.346  1.00  0.00     0.220 C 
ATOM      6  O   UNL A   1      29.894  27.991  22.289  1.00  0.00    -0.275 OA
ATOM      7  H   UNL A   1      31.696  29.518  22.394  1.00  0.00     0.163 HD
BRANCH   5   8
ATOM      8  C   UNL A   1      31.424  26.154  22.378  1.00  0.00     0.103 C 
BRANCH   8   9
ATOM      9  C   UNL A   1      31.076  25.445  23.710  1.00  0.00     0.002 C 
ATOM     10  C   UNL A   1      33.104  22.543  26.038  1.00  0.00     0.234 C 
ATOM     11  O   UNL A   1      32.973  22.299  27.237  1.00  0.00    -0.274 OA
ATOM     12  N   UNL A   1      32.277  23.459  25.416  1.00  0.00    -0.342 N 
ATOM     13  C   UNL A   1      32.160  24.803  25.949  1.00  0.00     0.120 C 
ATOM     14  C   UNL A   1      31.117  23.033  24.675  1.00  0.00     0.120 C 
ATOM     15  C   UNL A   1      32.133  25.791  24.781  1.00  0.00     0.026 C 
ATOM     16  C   UNL A   1      30.941  23.937  23.477  1.00  0.00     0.026 C 
BRANCH  10  17
ATOM     17  C   UNL A   1      34.149  21.832  25.130  1.00  0.00     0.095 C 
ATOM     18  C   UNL A   1      33.526  20.552  24.540  1.00  0.00     0.028 C 
ATOM     19  C   UNL A   1      34.667  22.715  23.968  1.00  0.00     0.028 C 
ATOM     20  C   UNL A   1      35.366  21.439  26.008  1.00  0.00     0.277 C 
ATOM     21  C   UNL A   1      35.528  23.877  24.460  1.00  0.00     0.063 C 
ATOM     22  N   UNL A   1      36.149  22.595  26.468  1.00  0.00    -0.345 N 
ATOM     23  C   UNL A   1      36.658  23.394  25.360  1.00  0.00     0.260 C 
ATOM     24  H   UNL A   1      35.554  23.184  27.050  1.00  0.00     0.346 HD
ATOM     25  H   UNL A   1      36.950  22.242  26.992  1.00  0.00     0.346 HD
ENDBRANCH  10  17
ENDBRANCH   8   9
ENDBRANCH   5   8
ENDBRANCH   3   4
ENDBRANCH   2   3
ENDBRANCH   1   2
BRANCH   1  26
ATOM     26  C   UNL A   1      33.858  29.464  26.186  1.00  0.00     0.116 C 
BRANCH  26  27
ATOM     27  N   UNL A   1      33.585  30.764  26.787  1.00  0.00    -0.352 N 
ATOM     28  C   UNL A   1      34.309  31.431  27.750  1.00  0.00     0.251 C 
ATOM     29  H   UNL A   1      32.777  31.225  26.462  1.00  0.00     0.163 HD
ATOM     30  O   UNL A   1      33.892  32.476  28.231  1.00  0.00    -0.269 OA
BRANCH  28  31
ATOM     31  C   UNL A   1      35.574  30.830  28.219  1.00  0.00     0.039 A 
ATOM     32  C   UNL A   1      36.782  31.459  27.913  1.00  0.00     0.014 A 
ATOM     33  C   UNL A   1      35.544  29.707  29.049  1.00  0.00     0.014 A 
ATOM     34  C   UNL A   1      37.957  31.006  28.514  1.00  0.00     0.010 A 
ATOM     35  C   UNL A   1      36.692  29.333  29.730  1.00  0.00     0.010 A 
ATOM     36  C   UNL A   1      37.913  29.971  29.462  1.00  0.00    -0.014 A 
BRANCH  36  37
ATOM     37  C   UNL A   1      39.130  29.509  30.172  1.00  0.00     0.031 A 
ATOM     38  C   UNL A   1      39.558  30.212  31.433  1.00  0.00     0.074 A 
ATOM     39  C   UNL A   1      39.887  28.526  29.647  1.00  0.00     0.049 A 
ATOM     40  N   UNL A   1      40.644  30.044  32.142  1.00  0.00    -0.248 NA
ATOM     41  C   UNL A   1      38.670  31.273  31.938  1.00  0.00     0.031 C 
ATOM     42  C   UNL A   1      39.611  27.810  28.397  1.00  0.00     0.029 A 
ATOM     43  N   UNL A   1      41.056  27.964  30.095  1.00  0.00    -0.354 N 
ATOM     44  C   UNL A   1      40.577  30.990  33.157  1.00  0.00     0.074 A 
ATOM     45  C   UNL A   1      39.383  31.773  32.934  1.00  0.00     0.031 C 
ATOM     46  C   UNL A   1      40.568  26.889  28.196  1.00  0.00     0.029 A 
ATOM     47  C   UNL A   1      41.542  26.971  29.278  1.00  0.00     0.049 A 
ATOM     48  H   UNL A   1      41.505  28.246  30.926  1.00  0.00     0.167 HD
ATOM     49  C   UNL A   1      41.415  31.173  34.204  1.00  0.00     0.031 A 
ATOM     50  C   UNL A   1      42.651  26.214  29.390  1.00  0.00     0.031 A 
ATOM     51  C   UNL A   1      42.582  30.371  34.443  1.00  0.00     0.049 A 
ATOM     52  C   UNL A   1      43.551  26.411  30.579  1.00  0.00     0.074 A 
ATOM     53  C   UNL A   1      43.474  30.439  35.497  1.00  0.00     0.029 A 
ATOM     54  N   UNL A   1      43.010  29.340  33.619  1.00  0.00    -0.354 N 
ATOM     55  N   UNL A   1      43.443  27.279  31.557  1.00  0.00    -0.248 NA
ATOM     56  C   UNL A   1      44.711  25.516  30.689  1.00  0.00     0.031 C 
ATOM     57  C   UNL A   1      44.459  29.466  35.296  1.00  0.00     0.029 A 
ATOM     58  C   UNL A   1      44.154  28.764  34.141  1.00  0.00     0.049 A 
ATOM     59  H   UNL A   1      42.565  29.059  32.788  1.00  0.00     0.167 HD
ATOM     60  C   UNL A   1      44.509  27.020  32.411  1.00  0.00     0.074 A 
ATOM     61  C   UNL A   1      45.238  25.903  31.843  1.00  0.00     0.031 C 
ATOM     62  C   UNL A   1      44.856  27.648  33.561  1.00  0.00     0.031 A 
BRANCH  49  63
ATOM     63  C   UNL A   1      41.076  32.272  35.175  1.00  0.00    -0.014 A 
ATOM     64  C   UNL A   1      41.510  33.592  34.947  1.00  0.00     0.010 A 
ATOM     65  C   UNL A   1      40.308  31.991  36.318  1.00  0.00     0.010 A 
ATOM     66  C   UNL A   1      41.222  34.600  35.869  1.00  0.00     0.020 A 
ATOM     67  C   UNL A   1      39.993  33.003  37.229  1.00  0.00     0.020 A 
ATOM     68  C   UNL A   1      40.470  34.298  37.008  1.00  0.00     0.054 A 
BRANCH  68  69
ATOM     69  S   UNL A   1      40.099  35.630  38.181  1.00  0.00     0.124 S 
ATOM     70  O   UNL A   1      39.924  36.774  37.289  1.00  0.00    -0.237 OA
ATOM     71  O   UNL A   1      38.883  35.154  38.834  1.00  0.00    -0.237 OA
ATOM     72  O   UNL A   1      41.282  35.681  39.034  1.00  0.00    -0.744 OA
ENDBRANCH  68  69
ENDBRANCH  49  63
BRANCH  50  73
ATOM     73  C   UNL A   1      42.961  25.187  28.358  1.00  0.00    -0.014 A 
ATOM     74  C   UNL A   1      42.598  23.843  28.556  1.00  0.00     0.010 A 
ATOM     75  C   UNL A   1      43.619  25.548  27.168  1.00  0.00     0.010 A 
ATOM     76  C   UNL A   1      42.909  22.875  27.596  1.00  0.00     0.020 A 
ATOM     77  C   UNL A   1      43.908  24.587  26.194  1.00  0.00     0.020 A 
ATOM     78  C   UNL A   1      43.565  23.254  26.422  1.00  0.00     0.054 A 
BRANCH  78  79
ATOM     79  S   UNL A   1      43.924  21.990  25.170  1.00  0.00     0.124 S 
ATOM     80  O   UNL A   1      45.260  21.551  25.557  1.00  0.00    -0.237 OA
ATOM     81  O   UNL A   1      42.852  21.019  25.382  1.00  0.00    -0.237 OA
ATOM     82  O   UNL A   1      43.844  22.726  23.910  1.00  0.00    -0.744 OA
ENDBRANCH  78  79
ENDBRANCH  50  73
BRANCH  62  83
ATOM     83  C   UNL A   1      46.056  27.123  34.300  1.00  0.00    -0.014 A 
ATOM     84  C   UNL A   1      45.929  26.095  35.249  1.00  0.00     0.010 A 
ATOM     85  C   UNL A   1      47.332  27.625  33.991  1.00  0.00     0.010 A 
ATOM     86  C   UNL A   1      47.059  25.595  35.899  1.00  0.00     0.020 A 
ATOM     87  C   UNL A   1      48.467  27.112  34.622  1.00  0.00     0.020 A 
ATOM     88  C   UNL A   1      48.322  26.108  35.582  1.00  0.00     0.054 A 
BRANCH  88  89
ATOM     89  S   UNL A   1      49.780  25.410  36.405  1.00  0.00     0.124 S 
ATOM     90  O   UNL A   1      49.417  24.001  36.522  1.00  0.00    -0.237 OA
ATOM     91  O   UNL A   1      50.855  25.707  35.461  1.00  0.00    -0.237 OA
ATOM     92  O   UNL A   1      49.849  26.144  37.666  1.00  0.00    -0.744 OA
ENDBRANCH  88  89
ENDBRANCH  62  83
ENDBRANCH  36  37
ENDBRANCH  28  31
ENDBRANCH  26  27
ENDBRANCH   1  26
TORSDOF 16
ENDMDL
MODEL 3
REMARK VINA RESULT:     -10.8      2.481      9.202
REMARK SMILES C[C@]1(C(=O)N2CCC(CC(=O)NCCCCNC(=O)c3ccc(-c4c5nc(c(-c6ccc(S(=O)(=O)[O-])cc6)c6ccc([nH]6)c(-c6ccc(S(=O)(=O)[O-])cc6)c6nc(c(-c7ccc(S(=O)(=O)[O-])cc7)c7ccc4[nH]7)C=C6)C=C5)cc3)CC2)CCC[NH2+]C1
REMARK SMILES IDX 15 1 14 2 13 3 12 4 10 5 11 6 9 8 8 9 3 10 4 11 5 12 6 13
REMARK SMILES IDX 81 14 7 15 80 16 2 17 1 18 82 19 86 20 83 21 85 22 84 23
REMARK SMILES IDX 16 26 17 27 18 28 19 30 20 31 21 32 79 33 22 34 78 35 23 36
REMARK SMILES IDX 24 37 25 38 72 39 26 40 77 41 71 42 73 43 27 44 76 45 70 46
REMARK SMILES IDX 69 47 28 49 58 50 39 51 57 52 40 53 43 54 56 55 74 56 41 57
REMARK SMILES IDX 42 58 55 60 75 61 44 62 29 63 30 64 38 65 31 66 37 67 32 68
REMARK SMILES IDX 33 69 34 70 35 71 36 72 59 73 60 74 68 75 61 76 67 77 62 78
REMARK SMILES IDX 63 79 64 80 65 81 66 82 45 83 46 84 54 85 47 86 53 87 48 88
REMARK SMILES IDX 49 89 50 90 51 91 52 92
REMARK H PARENT 12 7 85 24 85 25 17 29 73 48 43 59
REMARK Flexibility Score: inf
ROOT
ATOM      1  C   UNL A   1      35.419  22.536  25.619  1.00  0.00     0.023 C 
ENDROOT
BRANCH   1   2
ATOM      2  C   UNL A   1      34.949  21.790  26.854  1.00  0.00     0.023 C 
BRANCH   2   3
ATOM      3  C   UNL A   1      33.449  21.478  26.913  1.00  0.00     0.116 C 
BRANCH   3   4
ATOM      4  N   UNL A   1      32.669  22.646  27.294  1.00  0.00    -0.356 N 
ATOM      5  C   UNL A   1      31.654  23.296  26.653  1.00  0.00     0.220 C 
ATOM      6  O   UNL A   1      31.184  24.307  27.177  1.00  0.00    -0.275 OA
ATOM      7  H   UNL A   1      32.916  23.035  28.164  1.00  0.00     0.163 HD
BRANCH   5   8
ATOM      8  C   UNL A   1      31.106  22.795  25.325  1.00  0.00     0.103 C 
BRANCH   8   9
ATOM      9  C   UNL A   1      31.611  23.581  24.090  1.00  0.00     0.002 C 
ATOM     10  C   UNL A   1      32.554  27.665  23.470  1.00  0.00     0.234 C 
ATOM     11  O   UNL A   1      33.287  28.158  22.614  1.00  0.00    -0.274 OA
ATOM     12  N   UNL A   1      32.275  26.312  23.458  1.00  0.00    -0.342 N 
ATOM     13  C   UNL A   1      33.361  25.351  23.455  1.00  0.00     0.120 C 
ATOM     14  C   UNL A   1      31.061  25.807  22.868  1.00  0.00     0.120 C 
ATOM     15  C   UNL A   1      32.995  24.197  24.390  1.00  0.00     0.026 C 
ATOM     16  C   UNL A   1      30.572  24.631  23.682  1.00  0.00     0.026 C 
BRANCH  10  17
ATOM     17  C   UNL A   1      31.859  28.502  24.584  1.00  0.00     0.095 C 
ATOM     18  C   UNL A   1      30.534  29.073  24.042  1.00  0.00     0.028 C 
ATOM     19  C   UNL A   1      31.564  27.697  25.874  1.00  0.00     0.028 C 
ATOM     20  C   UNL A   1      32.796  29.679  24.962  1.00  0.00     0.277 C 
ATOM     21  C   UNL A   1      32.838  27.312  26.623  1.00  0.00     0.063 C 
ATOM     22  N   UNL A   1      34.014  29.251  25.665  1.00  0.00    -0.345 N 
ATOM     23  C   UNL A   1      33.717  28.526  26.895  1.00  0.00     0.260 C 
ATOM     24  H   UNL A   1      34.552  28.643  25.048  1.00  0.00     0.346 HD
ATOM     25  H   UNL A   1      34.541  30.088  25.915  1.00  0.00     0.346 HD
ENDBRANCH  10  17
ENDBRANCH   8   9
ENDBRANCH   5   8
ENDBRANCH   3   4
ENDBRANCH   2   3
ENDBRANCH   1   2
BRANCH   1  26
ATOM     26  C   UNL A   1      36.689  23.334  25.827  1.00  0.00     0.116 C 
BRANCH  26  27
ATOM     27  N   UNL A   1      37.888  22.506  25.895  1.00  0.00    -0.352 N 
ATOM     28  C   UNL A   1      39.140  22.849  26.354  1.00  0.00     0.251 C 
ATOM     29  H   UNL A   1      37.789  21.581  25.571  1.00  0.00     0.163 HD
ATOM     30  O   UNL A   1      40.077  22.069  26.251  1.00  0.00    -0.269 OA
BRANCH  28  31
ATOM     31  C   UNL A   1      39.332  24.195  26.930  1.00  0.00     0.039 A 
ATOM     32  C   UNL A   1      38.916  24.443  28.239  1.00  0.00     0.014 A 
ATOM     33  C   UNL A   1      40.020  25.170  26.204  1.00  0.00     0.014 A 
ATOM     34  C   UNL A   1      39.270  25.647  28.851  1.00  0.00     0.010 A 
ATOM     35  C   UNL A   1      40.464  26.313  26.849  1.00  0.00     0.010 A 
ATOM     36  C   UNL A   1      40.086  26.569  28.175  1.00  0.00    -0.014 A 
BRANCH  36  37
ATOM     37  C   UNL A   1      40.537  27.828  28.816  1.00  0.00     0.031 A 
ATOM     38  C   UNL A   1      41.921  27.898  29.407  1.00  0.00     0.074 A 
ATOM     39  C   UNL A   1      39.688  28.866  28.941  1.00  0.00     0.049 A 
ATOM     40  N   UNL A   1      42.471  28.855  30.108  1.00  0.00    -0.248 NA
ATOM     41  C   UNL A   1      42.783  26.718  29.222  1.00  0.00     0.031 C 
ATOM     42  C   UNL A   1      38.301  28.897  28.467  1.00  0.00     0.029 A 
ATOM     43  N   UNL A   1      39.865  30.098  29.519  1.00  0.00    -0.354 N 
ATOM     44  C   UNL A   1      43.728  28.383  30.463  1.00  0.00     0.074 A 
ATOM     45  C   UNL A   1      43.834  27.032  29.962  1.00  0.00     0.031 C 
ATOM     46  C   UNL A   1      37.765  30.097  28.749  1.00  0.00     0.029 A 
ATOM     47  C   UNL A   1      38.753  30.905  29.453  1.00  0.00     0.049 A 
ATOM     48  H   UNL A   1      40.709  30.380  29.941  1.00  0.00     0.167 HD
ATOM     49  C   UNL A   1      44.722  29.026  31.119  1.00  0.00     0.031 A 
ATOM     50  C   UNL A   1      38.554  32.156  29.914  1.00  0.00     0.031 A 
ATOM     51  C   UNL A   1      44.627  30.381  31.585  1.00  0.00     0.049 A 
ATOM     52  C   UNL A   1      39.683  32.864  30.611  1.00  0.00     0.074 A 
ATOM     53  C   UNL A   1      45.589  31.145  32.219  1.00  0.00     0.029 A 
ATOM     54  N   UNL A   1      43.501  31.181  31.451  1.00  0.00    -0.354 N 
ATOM     55  N   UNL A   1      40.885  32.417  30.893  1.00  0.00    -0.248 NA
ATOM     56  C   UNL A   1      39.438  34.249  31.035  1.00  0.00     0.031 C 
ATOM     57  C   UNL A   1      45.036  32.400  32.495  1.00  0.00     0.029 A 
ATOM     58  C   UNL A   1      43.745  32.430  31.992  1.00  0.00     0.049 A 
ATOM     59  H   UNL A   1      42.655  30.901  31.033  1.00  0.00     0.167 HD
ATOM     60  C   UNL A   1      41.545  33.474  31.508  1.00  0.00     0.074 A 
ATOM     61  C   UNL A   1      40.617  34.587  31.539  1.00  0.00     0.031 C 
ATOM     62  C   UNL A   1      42.806  33.523  32.004  1.00  0.00     0.031 A 
BRANCH  49  63
ATOM     63  C   UNL A   1      46.002  28.267  31.345  1.00  0.00    -0.014 A 
ATOM     64  C   UNL A   1      46.236  27.598  32.561  1.00  0.00     0.010 A 
ATOM     65  C   UNL A   1      46.976  28.209  30.333  1.00  0.00     0.010 A 
ATOM     66  C   UNL A   1      47.440  26.925  32.778  1.00  0.00     0.020 A 
ATOM     67  C   UNL A   1      48.171  27.513  30.535  1.00  0.00     0.020 A 
ATOM     68  C   UNL A   1      48.403  26.892  31.766  1.00  0.00     0.054 A 
BRANCH  68  69
ATOM     69  S   UNL A   1      49.952  25.998  32.069  1.00  0.00     0.124 S 
ATOM     70  O   UNL A   1      50.528  25.934  30.727  1.00  0.00    -0.237 OA
ATOM     71  O   UNL A   1      50.649  26.872  33.009  1.00  0.00    -0.237 OA
ATOM     72  O   UNL A   1      49.512  24.720  32.620  1.00  0.00    -0.744 OA
ENDBRANCH  68  69
ENDBRANCH  49  63
BRANCH  50  73
ATOM     73  C   UNL A   1      37.239  32.825  29.713  1.00  0.00    -0.014 A 
ATOM     74  C   UNL A   1      36.972  33.531  28.526  1.00  0.00     0.010 A 
ATOM     75  C   UNL A   1      36.246  32.757  30.706  1.00  0.00     0.010 A 
ATOM     76  C   UNL A   1      35.746  34.178  28.347  1.00  0.00     0.020 A 
ATOM     77  C   UNL A   1      35.008  33.381  30.519  1.00  0.00     0.020 A 
ATOM     78  C   UNL A   1      34.772  34.101  29.347  1.00  0.00     0.054 A 
BRANCH  78  79
ATOM     79  S   UNL A   1      33.171  34.913  29.078  1.00  0.00     0.124 S 
ATOM     80  O   UNL A   1      33.576  36.223  28.579  1.00  0.00    -0.237 OA
ATOM     81  O   UNL A   1      32.528  34.034  28.104  1.00  0.00    -0.237 OA
ATOM     82  O   UNL A   1      32.561  34.908  30.406  1.00  0.00    -0.744 OA
ENDBRANCH  78  79
ENDBRANCH  50  73
BRANCH  62  83
ATOM     83  C   UNL A   1      43.268  34.828  32.591  1.00  0.00    -0.014 A 
ATOM     84  C   UNL A   1      43.116  35.099  33.961  1.00  0.00     0.010 A 
ATOM     85  C   UNL A   1      43.916  35.765  31.767  1.00  0.00     0.010 A 
ATOM     86  C   UNL A   1      43.583  36.303  34.494  1.00  0.00     0.020 A 
ATOM     87  C   UNL A   1      44.405  36.958  32.302  1.00  0.00     0.020 A 
ATOM     88  C   UNL A   1      44.224  37.226  33.661  1.00  0.00     0.054 A 
BRANCH  88  89
ATOM     89  S   UNL A   1      44.865  38.760  34.385  1.00  0.00     0.124 S 
ATOM     90  O   UNL A   1      45.922  39.121  33.446  1.00  0.00    -0.237 OA
ATOM     91  O   UNL A   1      43.693  39.632  34.380  1.00  0.00    -0.237 OA
ATOM     92  O   UNL A   1      45.321  38.351  35.712  1.00  0.00    -0.744 OA
ENDBRANCH  88  89
ENDBRANCH  62  83
ENDBRANCH  36  37
ENDBRANCH  28  31
ENDBRANCH  26  27
ENDBRANCH   1  26
TORSDOF 16
ENDMDL
