MODEL 1
REMARK VINA RESULT:     -11.1      0.000      0.000
REMARK SMILES CCSc1ccc(-c2cc(Cl)cc3c2O[C@H](C(F)(F)F)C(C(=O)NCCCCNC(=O)c2ccc(-c4c5nc(c(-c6ccc(S(=O)(=O)[O-])cc6)c6ccc([nH]6)c(-c6ccc(S(=O)(=O)[O-])cc6)c6nc(c(-c7ccc(S(=O)(=O)[O-])cc7)c7ccc4[nH]7)C=C6)C=C5)cc2)=C3)cc1
REMARK SMILES IDX 26 1 25 2 24 3 22 4 23 5 21 7 8 8 9 9 14 10 10 11 13 12
REMARK SMILES IDX 15 13 11 14 12 15 92 16 16 17 7 18 4 19 5 20 94 21 6 22
REMARK SMILES IDX 93 23 3 24 2 25 1 26 17 27 18 28 19 29 20 30 27 31 28 32
REMARK SMILES IDX 29 33 30 34 31 36 32 37 33 38 91 39 34 40 90 41 35 42 36 43
REMARK SMILES IDX 37 44 84 45 38 46 89 47 83 48 85 49 39 50 88 51 82 52 81 53
REMARK SMILES IDX 40 55 70 56 51 57 69 58 52 59 55 60 68 61 86 62 53 63 54 64
REMARK SMILES IDX 67 66 87 67 56 68 41 69 42 70 50 71 43 72 49 73 44 74 45 75
REMARK SMILES IDX 46 76 47 77 48 78 71 79 72 80 80 81 73 82 79 83 74 84 75 85
REMARK SMILES IDX 76 86 77 87 78 88 57 89 58 90 66 91 59 92 65 93 60 94 61 95
REMARK SMILES IDX 62 96 63 97 64 98
REMARK H PARENT 24 6 29 35 85 54 55 65
REMARK Flexibility Score: inf
ROOT
ATOM      1  C   UNL A   1      37.544  20.534  24.615  1.00  0.00     0.023 C 
ENDROOT
BRANCH   1   2
ATOM      2  C   UNL A   1      36.692  21.391  25.561  1.00  0.00     0.116 C 
BRANCH   2   3
ATOM      3  N   UNL A   1      36.480  22.697  24.976  1.00  0.00    -0.352 N 
ATOM      4  C   UNL A   1      35.406  23.175  24.310  1.00  0.00     0.251 C 
ATOM      5  O   UNL A   1      35.582  24.034  23.453  1.00  0.00    -0.270 OA
ATOM      6  H   UNL A   1      37.228  23.329  25.076  1.00  0.00     0.163 HD
BRANCH   4   7
ATOM      7  C   UNL A   1      34.044  22.697  24.707  1.00  0.00     0.067 C 
ATOM      8  C   UNL A   1      32.045  26.184  24.107  1.00  0.00     0.026 A 
ATOM      9  C   UNL A   1      32.792  27.223  24.722  1.00  0.00     0.033 A 
ATOM     10  C   UNL A   1      32.400  24.871  24.449  1.00  0.00     0.135 A 
ATOM     11  C   UNL A   1      33.720  26.979  25.731  1.00  0.00     0.042 A 
ATOM     12  C   UNL A   1      33.263  24.649  25.550  1.00  0.00     0.019 A 
ATOM     13  O   UNL A   1      31.977  23.769  23.722  1.00  0.00    -0.475 OA
ATOM     14  Cl  UNL A   1      34.601  28.291  26.410  1.00  0.00    -0.084 Cl
ATOM     15  C   UNL A   1      33.911  25.696  26.202  1.00  0.00     0.032 A 
ATOM     16  C   UNL A   1      33.626  23.249  25.865  1.00  0.00     0.025 C 
ATOM     17  C   UNL A   1      33.027  22.723  23.569  1.00  0.00     0.314 C 
BRANCH   8  18
ATOM     18  C   UNL A   1      30.844  26.632  23.361  1.00  0.00    -0.015 A 
ATOM     19  C   UNL A   1      28.670  28.384  22.893  1.00  0.00     0.007 A 
ATOM     20  C   UNL A   1      29.875  28.559  22.213  1.00  0.00     0.015 A 
ATOM     21  C   UNL A   1      28.501  27.250  23.690  1.00  0.00     0.015 A 
ATOM     22  C   UNL A   1      30.943  27.676  22.421  1.00  0.00     0.010 A 
ATOM     23  C   UNL A   1      29.574  26.371  23.909  1.00  0.00     0.010 A 
BRANCH  19  24
ATOM     24  S   UNL A   1      27.484  29.720  22.882  1.00  0.00    -0.126 SA
BRANCH  24  25
ATOM     25  C   UNL A   1      28.465  31.087  23.566  1.00  0.00     0.071 C 
ATOM     26  C   UNL A   1      28.624  32.210  22.558  1.00  0.00     0.016 C 
ENDBRANCH  24  25
ENDBRANCH  19  24
ENDBRANCH   8  18
BRANCH  17  27
ATOM     27  C   UNL A   1      32.398  21.321  23.427  1.00  0.00     0.429 C 
ATOM     28  F   UNL A   1      31.416  21.096  24.329  1.00  0.00    -0.167 F 
ATOM     29  F   UNL A   1      31.867  21.143  22.194  1.00  0.00    -0.167 F 
ATOM     30  F   UNL A   1      33.307  20.324  23.594  1.00  0.00    -0.167 F 
ENDBRANCH  17  27
ENDBRANCH   4   7
ENDBRANCH   2   3
ENDBRANCH   1   2
BRANCH   1  31
ATOM     31  C   UNL A   1      38.506  19.559  25.308  1.00  0.00     0.023 C 
BRANCH  31  32
ATOM     32  C   UNL A   1      39.580  20.216  26.168  1.00  0.00     0.116 C 
BRANCH  32  33
ATOM     33  N   UNL A   1      40.842  19.496  26.107  1.00  0.00    -0.352 N 
ATOM     34  C   UNL A   1      42.124  19.990  26.112  1.00  0.00     0.251 C 
ATOM     35  H   UNL A   1      40.766  18.515  26.054  1.00  0.00     0.163 HD
ATOM     36  O   UNL A   1      43.067  19.246  25.850  1.00  0.00    -0.269 OA
BRANCH  34  37
ATOM     37  C   UNL A   1      42.361  21.420  26.401  1.00  0.00     0.039 A 
ATOM     38  C   UNL A   1      42.669  21.804  27.709  1.00  0.00     0.014 A 
ATOM     39  C   UNL A   1      42.305  22.374  25.382  1.00  0.00     0.014 A 
ATOM     40  C   UNL A   1      43.008  23.133  27.977  1.00  0.00     0.010 A 
ATOM     41  C   UNL A   1      42.705  23.684  25.639  1.00  0.00     0.010 A 
ATOM     42  C   UNL A   1      43.080  24.073  26.934  1.00  0.00    -0.014 A 
BRANCH  42  43
ATOM     43  C   UNL A   1      43.608  25.444  27.164  1.00  0.00     0.031 A 
ATOM     44  C   UNL A   1      45.061  25.754  26.928  1.00  0.00     0.074 A 
ATOM     45  C   UNL A   1      42.791  26.385  27.683  1.00  0.00     0.049 A 
ATOM     46  N   UNL A   1      45.712  26.863  27.167  1.00  0.00    -0.248 NA
ATOM     47  C   UNL A   1      45.894  24.676  26.372  1.00  0.00     0.031 C 
ATOM     48  C   UNL A   1      41.374  26.192  28.004  1.00  0.00     0.029 A 
ATOM     49  N   UNL A   1      43.039  27.683  28.056  1.00  0.00    -0.354 N 
ATOM     50  C   UNL A   1      47.033  26.612  26.817  1.00  0.00     0.074 A 
ATOM     51  C   UNL A   1      47.097  25.236  26.374  1.00  0.00     0.031 C 
ATOM     52  C   UNL A   1      40.880  27.330  28.517  1.00  0.00     0.029 A 
ATOM     53  C   UNL A   1      41.950  28.317  28.608  1.00  0.00     0.049 A 
ATOM     54  H   UNL A   1      43.914  28.120  27.939  1.00  0.00     0.167 HD
ATOM     55  C   UNL A   1      48.094  27.454  26.855  1.00  0.00     0.031 A 
ATOM     56  C   UNL A   1      41.827  29.544  29.154  1.00  0.00     0.031 A 
ATOM     57  C   UNL A   1      48.020  28.827  27.280  1.00  0.00     0.049 A 
ATOM     58  C   UNL A   1      43.026  30.453  29.196  1.00  0.00     0.074 A 
ATOM     59  C   UNL A   1      49.020  29.784  27.259  1.00  0.00     0.029 A 
ATOM     60  N   UNL A   1      46.895  29.436  27.813  1.00  0.00    -0.354 N 
ATOM     61  N   UNL A   1      44.241  30.230  28.755  1.00  0.00    -0.248 NA
ATOM     62  C   UNL A   1      42.839  31.776  29.807  1.00  0.00     0.031 C 
ATOM     63  C   UNL A   1      48.521  30.950  27.845  1.00  0.00     0.029 A 
ATOM     64  C   UNL A   1      47.191  30.740  28.172  1.00  0.00     0.049 A 
ATOM     65  H   UNL A   1      46.016  29.005  27.921  1.00  0.00     0.167 HD
ATOM     66  C   UNL A   1      44.959  31.389  29.026  1.00  0.00     0.074 A 
ATOM     67  C   UNL A   1      44.036  32.320  29.642  1.00  0.00     0.031 C 
ATOM     68  C   UNL A   1      46.266  31.656  28.789  1.00  0.00     0.031 A 
BRANCH  55  69
ATOM     69  C   UNL A   1      49.439  26.921  26.439  1.00  0.00    -0.014 A 
ATOM     70  C   UNL A   1      50.207  26.123  27.306  1.00  0.00     0.010 A 
ATOM     71  C   UNL A   1      49.896  27.145  25.127  1.00  0.00     0.010 A 
ATOM     72  C   UNL A   1      51.419  25.577  26.874  1.00  0.00     0.020 A 
ATOM     73  C   UNL A   1      51.096  26.579  24.684  1.00  0.00     0.020 A 
ATOM     74  C   UNL A   1      51.855  25.806  25.564  1.00  0.00     0.054 A 
BRANCH  74  75
ATOM     75  S   UNL A   1      53.404  25.037  25.017  1.00  0.00     0.124 S 
ATOM     76  O   UNL A   1      54.380  25.659  25.909  1.00  0.00    -0.237 OA
ATOM     77  O   UNL A   1      53.156  23.617  25.251  1.00  0.00    -0.237 OA
ATOM     78  O   UNL A   1      53.509  25.426  23.613  1.00  0.00    -0.744 OA
ENDBRANCH  74  75
ENDBRANCH  55  69
BRANCH  56  79
ATOM     79  C   UNL A   1      40.527  29.975  29.740  1.00  0.00    -0.014 A 
ATOM     80  C   UNL A   1      40.311  29.928  31.128  1.00  0.00     0.010 A 
ATOM     81  C   UNL A   1      39.489  30.426  28.902  1.00  0.00     0.010 A 
ATOM     82  C   UNL A   1      39.074  30.298  31.664  1.00  0.00     0.020 A 
ATOM     83  C   UNL A   1      38.262  30.826  29.438  1.00  0.00     0.020 A 
ATOM     84  C   UNL A   1      38.057  30.744  30.815  1.00  0.00     0.054 A 
BRANCH  84  85
ATOM     85  S   UNL A   1      36.470  31.248  31.537  1.00  0.00     0.124 S 
ATOM     86  O   UNL A   1      36.077  30.050  32.272  1.00  0.00    -0.237 OA
ATOM     87  O   UNL A   1      36.846  32.398  32.355  1.00  0.00    -0.237 OA
ATOM     88  O   UNL A   1      35.651  31.567  30.370  1.00  0.00    -0.744 OA
ENDBRANCH  84  85
ENDBRANCH  56  79
BRANCH  68  89
ATOM     89  C   UNL A   1      46.786  33.011  29.190  1.00  0.00    -0.014 A 
ATOM     90  C   UNL A   1      46.702  34.105  28.312  1.00  0.00     0.010 A 
ATOM     91  C   UNL A   1      47.291  33.208  30.488  1.00  0.00     0.010 A 
ATOM     92  C   UNL A   1      47.126  35.372  28.721  1.00  0.00     0.020 A 
ATOM     93  C   UNL A   1      47.690  34.479  30.910  1.00  0.00     0.020 A 
ATOM     94  C   UNL A   1      47.613  35.552  30.019  1.00  0.00     0.054 A 
BRANCH  94  95
ATOM     95  S   UNL A   1      48.087  37.222  30.548  1.00  0.00     0.124 S 
ATOM     96  O   UNL A   1      49.509  37.253  30.216  1.00  0.00    -0.237 OA
ATOM     97  O   UNL A   1      47.230  38.073  29.726  1.00  0.00    -0.237 OA
ATOM     98  O   UNL A   1      47.780  37.234  31.976  1.00  0.00    -0.744 OA
ENDBRANCH  94  95
ENDBRANCH  68  89
ENDBRANCH  42  43
ENDBRANCH  34  37
ENDBRANCH  32  33
ENDBRANCH  31  32
ENDBRANCH   1  31
TORSDOF 18
ENDMDL
MODEL 2
REMARK VINA RESULT:     -10.9      6.092     12.232
REMARK SMILES CCSc1ccc(-c2cc(Cl)cc3c2O[C@H](C(F)(F)F)C(C(=O)NCCCCNC(=O)c2ccc(-c4c5nc(c(-c6ccc(S(=O)(=O)[O-])cc6)c6ccc([nH]6)c(-c6ccc(S(=O)(=O)[O-])cc6)c6nc(c(-c7ccc(S(=O)(=O)[O-])cc7)c7ccc4[nH]7)C=C6)C=C5)cc2)=C3)cc1
REMARK SMILES IDX 26 1 25 2 24 3 22 4 23 5 21 7 8 8 9 9 14 10 10 11 13 12
REMARK SMILES IDX 15 13 11 14 12 15 92 16 16 17 7 18 4 19 5 20 94 21 6 22
REMARK SMILES IDX 93 23 3 24 2 25 1 26 17 27 18 28 19 29 20 30 27 31 28 32
REMARK SMILES IDX 29 33 30 34 31 36 32 37 33 38 91 39 34 40 90 41 35 42 36 43
REMARK SMILES IDX 37 44 84 45 38 46 89 47 83 48 85 49 39 50 88 51 82 52 81 53
REMARK SMILES IDX 40 55 70 56 51 57 69 58 52 59 55 60 68 61 86 62 53 63 54 64
REMARK SMILES IDX 67 66 87 67 56 68 41 69 42 70 50 71 43 72 49 73 44 74 45 75
REMARK SMILES IDX 46 76 47 77 48 78 71 79 72 80 80 81 73 82 79 83 74 84 75 85
REMARK SMILES IDX 76 86 77 87 78 88 57 89 58 90 66 91 59 92 65 93 60 94 61 95
REMARK SMILES IDX 62 96 63 97 64 98
REMARK H PARENT 24 6 29 35 85 54 55 65
REMARK Flexibility Score: inf
ROOT
ATOM      1  C   UNL A   1      34.733  32.791  30.390  1.00  0.00     0.023 C 
ENDROOT
BRANCH   1   2
ATOM      2  C   UNL A   1      35.593  32.383  31.594  1.00  0.00     0.116 C 
BRANCH   2   3
ATOM      3  N   UNL A   1      35.105  33.042  32.786  1.00  0.00    -0.352 N 
ATOM      4  C   UNL A   1      35.796  33.544  33.833  1.00  0.00     0.251 C 
ATOM      5  O   UNL A   1      35.261  33.560  34.936  1.00  0.00    -0.270 OA
ATOM      6  H   UNL A   1      34.127  33.137  32.844  1.00  0.00     0.163 HD
BRANCH   4   7
ATOM      7  C   UNL A   1      37.148  34.136  33.583  1.00  0.00     0.067 C 
ATOM      8  C   UNL A   1      39.371  31.051  35.014  1.00  0.00     0.026 A 
ATOM      9  C   UNL A   1      38.831  30.674  36.271  1.00  0.00     0.033 A 
ATOM     10  C   UNL A   1      38.943  32.280  34.491  1.00  0.00     0.135 A 
ATOM     11  C   UNL A   1      38.043  31.533  37.033  1.00  0.00     0.042 A 
ATOM     12  C   UNL A   1      38.235  33.180  35.324  1.00  0.00     0.019 A 
ATOM     13  O   UNL A   1      39.142  32.638  33.167  1.00  0.00    -0.475 OA
ATOM     14  Cl  UNL A   1      37.407  30.993  38.537  1.00  0.00    -0.084 Cl
ATOM     15  C   UNL A   1      37.798  32.819  36.596  1.00  0.00     0.032 A 
ATOM     16  C   UNL A   1      37.785  34.457  34.727  1.00  0.00     0.025 C 
ATOM     17  C   UNL A   1      37.982  33.358  32.569  1.00  0.00     0.314 C 
BRANCH   8  18
ATOM     18  C   UNL A   1      40.487  30.201  34.530  1.00  0.00    -0.015 A 
ATOM     19  C   UNL A   1      42.097  27.873  34.590  1.00  0.00     0.007 A 
ATOM     20  C   UNL A   1      41.010  27.956  33.719  1.00  0.00     0.015 A 
ATOM     21  C   UNL A   1      42.469  29.004  35.319  1.00  0.00     0.015 A 
ATOM     22  C   UNL A   1      40.230  29.119  33.667  1.00  0.00     0.010 A 
ATOM     23  C   UNL A   1      41.679  30.165  35.277  1.00  0.00     0.010 A 
BRANCH  19  24
ATOM     24  S   UNL A   1      42.827  26.270  34.890  1.00  0.00    -0.126 SA
BRANCH  24  25
ATOM     25  C   UNL A   1      41.424  25.353  35.592  1.00  0.00     0.071 C 
ATOM     26  C   UNL A   1      41.173  25.751  37.035  1.00  0.00     0.016 C 
ENDBRANCH  24  25
ENDBRANCH  19  24
ENDBRANCH   8  18
BRANCH  17  27
ATOM     27  C   UNL A   1      38.441  34.320  31.452  1.00  0.00     0.429 C 
ATOM     28  F   UNL A   1      38.519  33.717  30.245  1.00  0.00    -0.167 F 
ATOM     29  F   UNL A   1      37.595  35.370  31.330  1.00  0.00    -0.167 F 
ATOM     30  F   UNL A   1      39.669  34.851  31.696  1.00  0.00    -0.167 F 
ENDBRANCH  17  27
ENDBRANCH   4   7
ENDBRANCH   2   3
ENDBRANCH   1   2
BRANCH   1  31
ATOM     31  C   UNL A   1      35.439  33.679  29.356  1.00  0.00     0.023 C 
BRANCH  31  32
ATOM     32  C   UNL A   1      35.602  33.053  27.975  1.00  0.00     0.116 C 
BRANCH  32  33
ATOM     33  N   UNL A   1      34.579  32.054  27.708  1.00  0.00    -0.352 N 
ATOM     34  C   UNL A   1      34.703  30.688  27.618  1.00  0.00     0.251 C 
ATOM     35  H   UNL A   1      33.670  32.407  27.571  1.00  0.00     0.163 HD
ATOM     36  O   UNL A   1      33.769  30.017  27.185  1.00  0.00    -0.269 OA
BRANCH  34  37
ATOM     37  C   UNL A   1      35.969  30.036  28.015  1.00  0.00     0.039 A 
ATOM     38  C   UNL A   1      37.017  29.976  27.094  1.00  0.00     0.014 A 
ATOM     39  C   UNL A   1      36.129  29.508  29.299  1.00  0.00     0.014 A 
ATOM     40  C   UNL A   1      38.257  29.466  27.491  1.00  0.00     0.010 A 
ATOM     41  C   UNL A   1      37.383  29.060  29.711  1.00  0.00     0.010 A 
ATOM     42  C   UNL A   1      38.464  29.053  28.817  1.00  0.00    -0.014 A 
BRANCH  42  43
ATOM     43  C   UNL A   1      39.817  28.676  29.307  1.00  0.00     0.031 A 
ATOM     44  C   UNL A   1      40.678  29.677  30.027  1.00  0.00     0.074 A 
ATOM     45  C   UNL A   1      40.306  27.453  29.011  1.00  0.00     0.049 A 
ATOM     46  N   UNL A   1      41.914  29.553  30.436  1.00  0.00    -0.248 NA
ATOM     47  C   UNL A   1      40.083  30.995  30.304  1.00  0.00     0.031 C 
ATOM     48  C   UNL A   1      39.588  26.409  28.274  1.00  0.00     0.029 A 
ATOM     49  N   UNL A   1      41.530  26.888  29.272  1.00  0.00    -0.354 N 
ATOM     50  C   UNL A   1      42.255  30.779  30.996  1.00  0.00     0.074 A 
ATOM     51  C   UNL A   1      41.104  31.643  30.849  1.00  0.00     0.031 C 
ATOM     52  C   UNL A   1      40.381  25.333  28.148  1.00  0.00     0.029 A 
ATOM     53  C   UNL A   1      41.677  25.623  28.751  1.00  0.00     0.049 A 
ATOM     54  H   UNL A   1      42.237  27.344  29.784  1.00  0.00     0.167 HD
ATOM     55  C   UNL A   1      43.419  31.146  31.583  1.00  0.00     0.031 A 
ATOM     56  C   UNL A   1      42.742  24.795  28.732  1.00  0.00     0.031 A 
ATOM     57  C   UNL A   1      44.554  30.275  31.742  1.00  0.00     0.049 A 
ATOM     58  C   UNL A   1      44.027  25.236  29.379  1.00  0.00     0.074 A 
ATOM     59  C   UNL A   1      45.739  30.528  32.411  1.00  0.00     0.029 A 
ATOM     60  N   UNL A   1      44.655  28.996  31.218  1.00  0.00    -0.354 N 
ATOM     61  N   UNL A   1      44.289  26.361  30.002  1.00  0.00    -0.248 NA
ATOM     62  C   UNL A   1      45.157  24.298  29.325  1.00  0.00     0.031 C 
ATOM     63  C   UNL A   1      46.585  29.430  32.233  1.00  0.00     0.029 A 
ATOM     64  C   UNL A   1      45.902  28.467  31.506  1.00  0.00     0.049 A 
ATOM     65  H   UNL A   1      43.946  28.533  30.716  1.00  0.00     0.167 HD
ATOM     66  C   UNL A   1      45.610  26.259  30.422  1.00  0.00     0.074 A 
ATOM     67  C   UNL A   1      46.084  24.955  30.008  1.00  0.00     0.031 C 
ATOM     68  C   UNL A   1      46.364  27.168  31.086  1.00  0.00     0.031 A 
BRANCH  55  69
ATOM     69  C   UNL A   1      43.542  32.557  32.094  1.00  0.00    -0.014 A 
ATOM     70  C   UNL A   1      44.181  33.553  31.336  1.00  0.00     0.010 A 
ATOM     71  C   UNL A   1      42.925  32.910  33.309  1.00  0.00     0.010 A 
ATOM     72  C   UNL A   1      44.220  34.873  31.795  1.00  0.00     0.020 A 
ATOM     73  C   UNL A   1      42.940  34.234  33.758  1.00  0.00     0.020 A 
ATOM     74  C   UNL A   1      43.596  35.206  33.002  1.00  0.00     0.054 A 
BRANCH  74  75
ATOM     75  S   UNL A   1      43.616  36.937  33.542  1.00  0.00     0.124 S 
ATOM     76  O   UNL A   1      43.643  37.650  32.267  1.00  0.00    -0.237 OA
ATOM     77  O   UNL A   1      42.370  37.051  34.297  1.00  0.00    -0.237 OA
ATOM     78  O   UNL A   1      44.835  37.040  34.339  1.00  0.00    -0.744 OA
ENDBRANCH  74  75
ENDBRANCH  55  69
BRANCH  56  79
ATOM     79  C   UNL A   1      42.652  23.477  28.044  1.00  0.00    -0.014 A 
ATOM     80  C   UNL A   1      43.310  23.255  26.821  1.00  0.00     0.010 A 
ATOM     81  C   UNL A   1      41.892  22.435  28.609  1.00  0.00     0.010 A 
ATOM     82  C   UNL A   1      43.187  22.028  26.164  1.00  0.00     0.020 A 
ATOM     83  C   UNL A   1      41.793  21.196  27.970  1.00  0.00     0.020 A 
ATOM     84  C   UNL A   1      42.429  21.006  26.742  1.00  0.00     0.054 A 
BRANCH  84  85
ATOM     85  S   UNL A   1      42.310  19.410  25.887  1.00  0.00     0.124 S 
ATOM     86  O   UNL A   1      43.132  19.639  24.703  1.00  0.00    -0.237 OA
ATOM     87  O   UNL A   1      42.861  18.482  26.871  1.00  0.00    -0.237 OA
ATOM     88  O   UNL A   1      40.878  19.263  25.638  1.00  0.00    -0.744 OA
ENDBRANCH  84  85
ENDBRANCH  56  79
BRANCH  68  89
ATOM     89  C   UNL A   1      47.783  26.791  31.417  1.00  0.00    -0.014 A 
ATOM     90  C   UNL A   1      48.831  27.067  30.521  1.00  0.00     0.010 A 
ATOM     91  C   UNL A   1      48.082  26.229  32.671  1.00  0.00     0.010 A 
ATOM     92  C   UNL A   1      50.152  26.774  30.869  1.00  0.00     0.020 A 
ATOM     93  C   UNL A   1      49.404  25.961  33.035  1.00  0.00     0.020 A 
ATOM     94  C   UNL A   1      50.431  26.228  32.126  1.00  0.00     0.054 A 
BRANCH  94  95
ATOM     95  S   UNL A   1      52.161  25.927  32.581  1.00  0.00     0.124 S 
ATOM     96  O   UNL A   1      52.312  24.506  32.278  1.00  0.00    -0.237 OA
ATOM     97  O   UNL A   1      52.887  26.838  31.698  1.00  0.00    -0.237 OA
ATOM     98  O   UNL A   1      52.213  26.271  33.999  1.00  0.00    -0.744 OA
ENDBRANCH  94  95
ENDBRANCH  68  89
ENDBRANCH  42  43
ENDBRANCH  34  37
ENDBRANCH  32  33
ENDBRANCH  31  32
ENDBRANCH   1  31
TORSDOF 18
ENDMDL
MODEL 3
REMARK VINA RESULT:     -10.6      6.249     12.699
REMARK SMILES CCSc1ccc(-c2cc(Cl)cc3c2O[C@H](C(F)(F)F)C(C(=O)NCCCCNC(=O)c2ccc(-c4c5nc(c(-c6ccc(S(=O)(=O)[O-])cc6)c6ccc([nH]6)c(-c6ccc(S(=O)(=O)[O-])cc6)c6nc(c(-c7ccc(S(=O)(=O)[O-])cc7)c7ccc4[nH]7)C=C6)C=C5)cc2)=C3)cc1
REMARK SMILES IDX 26 1 25 2 24 3 22 4 23 5 21 7 8 8 9 9 14 10 10 11 13 12
REMARK SMILES IDX 15 13 11 14 12 15 92 16 16 17 7 18 4 19 5 20 94 21 6 22
REMARK SMILES IDX 93 23 3 24 2 25 1 26 17 27 18 28 19 29 20 30 27 31 28 32
REMARK SMILES IDX 29 33 30 34 31 36 32 37 33 38 91 39 34 40 90 41 35 42 36 43
REMARK SMILES IDX 37 44 84 45 38 46 89 47 83 48 85 49 39 50 88 51 82 52 81 53
REMARK SMILES IDX 40 55 70 56 51 57 69 58 52 59 55 60 68 61 86 62 53 63 54 64
REMARK SMILES IDX 67 66 87 67 56 68 41 69 42 70 50 71 43 72 49 73 44 74 45 75
REMARK SMILES IDX 46 76 47 77 48 78 71 79 72 80 80 81 73 82 79 83 74 84 75 85
REMARK SMILES IDX 76 86 77 87 78 88 57 89 58 90 66 91 59 92 65 93 60 94 61 95
REMARK SMILES IDX 62 96 63 97 64 98
REMARK H PARENT 24 6 29 35 85 54 55 65
REMARK Flexibility Score: inf
ROOT
ATOM      1  C   UNL A   1      35.098  32.416  31.817  1.00  0.00     0.023 C 
ENDROOT
BRANCH   1   2
ATOM      2  C   UNL A   1      36.068  33.198  32.712  1.00  0.00     0.116 C 
BRANCH   2   3
ATOM      3  N   UNL A   1      37.408  33.109  32.173  1.00  0.00    -0.352 N 
ATOM      4  C   UNL A   1      38.571  33.567  32.685  1.00  0.00     0.251 C 
ATOM      5  O   UNL A   1      39.466  33.891  31.912  1.00  0.00    -0.270 OA
ATOM      6  H   UNL A   1      37.482  32.650  31.305  1.00  0.00     0.163 HD
BRANCH   4   7
ATOM      7  C   UNL A   1      38.747  33.576  34.172  1.00  0.00     0.067 C 
ATOM      8  C   UNL A   1      41.352  30.468  34.432  1.00  0.00     0.026 A 
ATOM      9  C   UNL A   1      40.837  29.404  33.646  1.00  0.00     0.033 A 
ATOM     10  C   UNL A   1      40.469  31.519  34.719  1.00  0.00     0.135 A 
ATOM     11  C   UNL A   1      39.491  29.312  33.304  1.00  0.00     0.042 A 
ATOM     12  C   UNL A   1      39.086  31.355  34.459  1.00  0.00     0.019 A 
ATOM     13  O   UNL A   1      40.898  32.743  35.208  1.00  0.00    -0.475 OA
ATOM     14  Cl  UNL A   1      38.949  28.003  32.329  1.00  0.00    -0.084 Cl
ATOM     15  C   UNL A   1      38.592  30.251  33.768  1.00  0.00     0.032 A 
ATOM     16  C   UNL A   1      38.192  32.496  34.759  1.00  0.00     0.025 C 
ATOM     17  C   UNL A   1      40.169  33.902  34.621  1.00  0.00     0.314 C 
BRANCH   8  18
ATOM     18  C   UNL A   1      42.685  30.216  35.033  1.00  0.00    -0.015 A 
ATOM     19  C   UNL A   1      44.695  28.534  36.104  1.00  0.00     0.007 A 
ATOM     20  C   UNL A   1      44.723  28.898  34.758  1.00  0.00     0.015 A 
ATOM     21  C   UNL A   1      43.753  29.129  36.946  1.00  0.00     0.015 A 
ATOM     22  C   UNL A   1      43.747  29.754  34.232  1.00  0.00     0.010 A 
ATOM     23  C   UNL A   1      42.766  29.976  36.417  1.00  0.00     0.010 A 
BRANCH  19  24
ATOM     24  S   UNL A   1      45.720  27.173  36.641  1.00  0.00    -0.126 SA
BRANCH  24  25
ATOM     25  C   UNL A   1      46.474  27.854  38.147  1.00  0.00     0.071 C 
ATOM     26  C   UNL A   1      47.225  29.139  37.854  1.00  0.00     0.016 C 
ENDBRANCH  24  25
ENDBRANCH  19  24
ENDBRANCH   8  18
BRANCH  17  27
ATOM     27  C   UNL A   1      40.123  35.088  35.608  1.00  0.00     0.429 C 
ATOM     28  F   UNL A   1      39.365  36.113  35.157  1.00  0.00    -0.167 F 
ATOM     29  F   UNL A   1      39.624  34.709  36.808  1.00  0.00    -0.167 F 
ATOM     30  F   UNL A   1      41.356  35.605  35.858  1.00  0.00    -0.167 F 
ENDBRANCH  17  27
ENDBRANCH   4   7
ENDBRANCH   2   3
ENDBRANCH   1   2
BRANCH   1  31
ATOM     31  C   UNL A   1      34.557  33.193  30.608  1.00  0.00     0.023 C 
BRANCH  31  32
ATOM     32  C   UNL A   1      35.153  32.788  29.265  1.00  0.00     0.116 C 
BRANCH  32  33
ATOM     33  N   UNL A   1      34.290  31.868  28.542  1.00  0.00    -0.352 N 
ATOM     34  C   UNL A   1      34.597  30.657  27.970  1.00  0.00     0.251 C 
ATOM     35  H   UNL A   1      33.352  32.154  28.449  1.00  0.00     0.163 HD
ATOM     36  O   UNL A   1      33.789  30.109  27.224  1.00  0.00    -0.269 OA
BRANCH  34  37
ATOM     37  C   UNL A   1      35.912  30.033  28.230  1.00  0.00     0.039 A 
ATOM     38  C   UNL A   1      36.901  30.101  27.245  1.00  0.00     0.014 A 
ATOM     39  C   UNL A   1      36.176  29.404  29.450  1.00  0.00     0.014 A 
ATOM     40  C   UNL A   1      38.183  29.617  27.520  1.00  0.00     0.010 A 
ATOM     41  C   UNL A   1      37.471  28.982  29.744  1.00  0.00     0.010 A 
ATOM     42  C   UNL A   1      38.492  29.101  28.789  1.00  0.00    -0.014 A 
BRANCH  42  43
ATOM     43  C   UNL A   1      39.888  28.747  29.162  1.00  0.00     0.031 A 
ATOM     44  C   UNL A   1      40.807  29.777  29.757  1.00  0.00     0.074 A 
ATOM     45  C   UNL A   1      40.354  27.515  28.866  1.00  0.00     0.049 A 
ATOM     46  N   UNL A   1      42.078  29.672  30.051  1.00  0.00    -0.248 NA
ATOM     47  C   UNL A   1      40.233  31.103  30.041  1.00  0.00     0.031 C 
ATOM     48  C   UNL A   1      39.576  26.442  28.241  1.00  0.00     0.029 A 
ATOM     49  N   UNL A   1      41.602  26.964  29.030  1.00  0.00    -0.354 N 
ATOM     50  C   UNL A   1      42.462  30.919  30.529  1.00  0.00     0.074 A 
ATOM     51  C   UNL A   1      41.298  31.775  30.461  1.00  0.00     0.031 C 
ATOM     52  C   UNL A   1      40.360  25.364  28.080  1.00  0.00     0.029 A 
ATOM     53  C   UNL A   1      41.706  25.680  28.545  1.00  0.00     0.049 A 
ATOM     54  H   UNL A   1      42.351  27.441  29.454  1.00  0.00     0.167 HD
ATOM     55  C   UNL A   1      43.675  31.312  30.988  1.00  0.00     0.031 A 
ATOM     56  C   UNL A   1      42.769  24.855  28.455  1.00  0.00     0.031 A 
ATOM     57  C   UNL A   1      44.825  30.451  31.070  1.00  0.00     0.049 A 
ATOM     58  C   UNL A   1      44.107  25.324  28.960  1.00  0.00     0.074 A 
ATOM     59  C   UNL A   1      46.067  30.732  31.613  1.00  0.00     0.029 A 
ATOM     60  N   UNL A   1      44.884  29.153  30.587  1.00  0.00    -0.354 N 
ATOM     61  N   UNL A   1      44.420  26.473  29.511  1.00  0.00    -0.248 NA
ATOM     62  C   UNL A   1      45.233  24.388  28.833  1.00  0.00     0.031 C 
ATOM     63  C   UNL A   1      46.899  29.631  31.395  1.00  0.00     0.029 A 
ATOM     64  C   UNL A   1      46.156  28.639  30.774  1.00  0.00     0.049 A 
ATOM     65  H   UNL A   1      44.134  28.669  30.173  1.00  0.00     0.167 HD
ATOM     66  C   UNL A   1      45.776  26.391  29.806  1.00  0.00     0.074 A 
ATOM     67  C   UNL A   1      46.217  25.073  29.399  1.00  0.00     0.031 C 
ATOM     68  C   UNL A   1      46.585  27.327  30.361  1.00  0.00     0.031 A 
BRANCH  55  69
ATOM     69  C   UNL A   1      43.837  32.741  31.431  1.00  0.00    -0.014 A 
ATOM     70  C   UNL A   1      43.448  33.155  32.717  1.00  0.00     0.010 A 
ATOM     71  C   UNL A   1      44.475  33.662  30.579  1.00  0.00     0.010 A 
ATOM     72  C   UNL A   1      43.675  34.470  33.134  1.00  0.00     0.020 A 
ATOM     73  C   UNL A   1      44.727  34.971  31.003  1.00  0.00     0.020 A 
ATOM     74  C   UNL A   1      44.316  35.369  32.275  1.00  0.00     0.054 A 
BRANCH  74  75
ATOM     75  S   UNL A   1      44.646  37.051  32.867  1.00  0.00     0.124 S 
ATOM     76  O   UNL A   1      44.006  37.039  34.180  1.00  0.00    -0.237 OA
ATOM     77  O   UNL A   1      46.106  37.104  32.881  1.00  0.00    -0.237 OA
ATOM     78  O   UNL A   1      44.004  37.904  31.870  1.00  0.00    -0.744 OA
ENDBRANCH  74  75
ENDBRANCH  55  69
BRANCH  56  79
ATOM     79  C   UNL A   1      42.622  23.511  27.829  1.00  0.00    -0.014 A 
ATOM     80  C   UNL A   1      42.146  22.418  28.573  1.00  0.00     0.010 A 
ATOM     81  C   UNL A   1      42.973  23.318  26.479  1.00  0.00     0.010 A 
ATOM     82  C   UNL A   1      42.049  21.152  27.988  1.00  0.00     0.020 A 
ATOM     83  C   UNL A   1      42.847  22.061  25.882  1.00  0.00     0.020 A 
ATOM     84  C   UNL A   1      42.400  20.982  26.646  1.00  0.00     0.054 A 
BRANCH  84  85
ATOM     85  S   UNL A   1      42.236  19.336  25.898  1.00  0.00     0.124 S 
ATOM     86  O   UNL A   1      42.781  18.474  26.942  1.00  0.00    -0.237 OA
ATOM     87  O   UNL A   1      40.796  19.232  25.678  1.00  0.00    -0.237 OA
ATOM     88  O   UNL A   1      43.038  19.434  24.681  1.00  0.00    -0.744 OA
ENDBRANCH  84  85
ENDBRANCH  56  79
BRANCH  68  89
ATOM     89  C   UNL A   1      48.031  26.966  30.568  1.00  0.00    -0.014 A 
ATOM     90  C   UNL A   1      48.991  27.232  29.576  1.00  0.00     0.010 A 
ATOM     91  C   UNL A   1      48.447  26.431  31.801  1.00  0.00     0.010 A 
ATOM     92  C   UNL A   1      50.341  26.956  29.808  1.00  0.00     0.020 A 
ATOM     93  C   UNL A   1      49.800  26.180  32.047  1.00  0.00     0.020 A 
ATOM     94  C   UNL A   1      50.737  26.436  31.044  1.00  0.00     0.054 A 
BRANCH  94  95
ATOM     95  S   UNL A   1      52.504  26.157  31.345  1.00  0.00     0.124 S 
ATOM     96  O   UNL A   1      52.852  27.293  32.193  1.00  0.00    -0.237 OA
ATOM     97  O   UNL A   1      52.514  24.853  32.005  1.00  0.00    -0.237 OA
ATOM     98  O   UNL A   1      53.091  26.175  30.007  1.00  0.00    -0.744 OA
ENDBRANCH  94  95
ENDBRANCH  68  89
ENDBRANCH  42  43
ENDBRANCH  34  37
ENDBRANCH  32  33
ENDBRANCH  31  32
ENDBRANCH   1  31
TORSDOF 18
ENDMDL
