MODEL 1
REMARK VINA RESULT:     -12.2      0.000      0.000
REMARK SMILES O=C(NCCCCNC(=O)c1cccc2cccc(C(=O)NC3COC3)c12)c1ccc(-c2c3nc(c(-c4ccc(S(=O)(=O)[O-])cc4)c4ccc([nH]4)c(-c4ccc(S(=O)(=O)[O-])cc4)c4nc(c(-c5ccc(S(=O)(=O)[O-])cc5)c5ccc2[nH]5)C=C4)C=C3)cc1
REMARK SMILES IDX 5 1 4 2 3 3 1 4 2 5 28 7 29 8 87 9 30 10 86 11 31 12 32 13
REMARK SMILES IDX 33 14 80 15 34 16 85 17 79 18 81 19 35 20 84 21 78 22 77 23
REMARK SMILES IDX 36 25 66 26 47 27 65 28 48 29 51 30 64 31 82 32 49 33 50 34
REMARK SMILES IDX 63 36 83 37 52 38 37 39 38 40 46 41 39 42 45 43 40 44 41 45
REMARK SMILES IDX 42 46 43 47 44 48 67 49 68 50 76 51 69 52 75 53 70 54 71 55
REMARK SMILES IDX 72 56 73 57 74 58 53 59 54 60 62 61 55 62 61 63 56 64 57 65
REMARK SMILES IDX 58 66 59 67 60 68 6 69 7 70 8 71 9 72 10 74 11 75 12 76
REMARK SMILES IDX 27 77 13 78 15 79 19 80 14 81 16 82 18 83 17 84 20 85 21 86
REMARK SMILES IDX 22 87 23 89 24 90 26 91 25 92
REMARK H PARENT 3 6 81 24 51 35 8 73 22 88
REMARK Flexibility Score: inf
ROOT
ATOM      1  C   UNL A   1      37.796  23.435  25.995  1.00  0.00     0.023 C 
ENDROOT
BRANCH   1   2
ATOM      2  C   UNL A   1      38.989  23.920  26.802  1.00  0.00     0.116 C 
BRANCH   2   3
ATOM      3  N   UNL A   1      40.104  24.366  25.978  1.00  0.00    -0.352 N 
ATOM      4  O   UNL A   1      41.724  25.744  25.231  1.00  0.00    -0.269 OA
ATOM      5  C   UNL A   1      40.907  25.476  26.113  1.00  0.00     0.251 C 
ATOM      6  H   UNL A   1      40.314  23.789  25.209  1.00  0.00     0.163 HD
BRANCH   5   7
ATOM      7  C   UNL A   1      40.779  26.357  27.297  1.00  0.00     0.039 A 
ATOM      8  C   UNL A   1      41.526  27.532  27.394  1.00  0.00     0.014 A 
ATOM      9  C   UNL A   1      39.889  26.014  28.321  1.00  0.00     0.014 A 
ATOM     10  C   UNL A   1      41.510  28.270  28.570  1.00  0.00     0.010 A 
ATOM     11  C   UNL A   1      39.788  26.824  29.458  1.00  0.00     0.010 A 
ATOM     12  C   UNL A   1      40.616  27.948  29.603  1.00  0.00    -0.014 A 
BRANCH  12  13
ATOM     13  C   UNL A   1      40.499  28.865  30.765  1.00  0.00     0.031 A 
ATOM     14  C   UNL A   1      41.412  28.751  31.955  1.00  0.00     0.074 A 
ATOM     15  C   UNL A   1      39.561  29.833  30.720  1.00  0.00     0.049 A 
ATOM     16  N   UNL A   1      41.441  29.485  33.038  1.00  0.00    -0.248 NA
ATOM     17  C   UNL A   1      42.416  27.676  31.932  1.00  0.00     0.031 C 
ATOM     18  C   UNL A   1      38.617  30.038  29.614  1.00  0.00     0.029 A 
ATOM     19  N   UNL A   1      39.257  30.839  31.600  1.00  0.00    -0.354 N 
ATOM     20  C   UNL A   1      42.446  28.951  33.837  1.00  0.00     0.074 A 
ATOM     21  C   UNL A   1      42.989  27.816  33.122  1.00  0.00     0.031 C 
ATOM     22  C   UNL A   1      37.883  31.132  29.856  1.00  0.00     0.029 A 
ATOM     23  C   UNL A   1      38.239  31.657  31.168  1.00  0.00     0.049 A 
ATOM     24  H   UNL A   1      39.722  30.964  32.458  1.00  0.00     0.167 HD
ATOM     25  C   UNL A   1      42.874  29.372  35.052  1.00  0.00     0.031 A 
ATOM     26  C   UNL A   1      37.632  32.698  31.767  1.00  0.00     0.031 A 
ATOM     27  C   UNL A   1      42.317  30.500  35.757  1.00  0.00     0.049 A 
ATOM     28  C   UNL A   1      38.095  33.111  33.133  1.00  0.00     0.074 A 
ATOM     29  C   UNL A   1      42.695  31.023  36.981  1.00  0.00     0.029 A 
ATOM     30  N   UNL A   1      41.256  31.274  35.305  1.00  0.00    -0.354 N 
ATOM     31  N   UNL A   1      39.068  32.610  33.857  1.00  0.00    -0.248 NA
ATOM     32  C   UNL A   1      37.380  34.227  33.762  1.00  0.00     0.031 C 
ATOM     33  C   UNL A   1      41.824  32.070  37.299  1.00  0.00     0.029 A 
ATOM     34  C   UNL A   1      40.948  32.250  36.240  1.00  0.00     0.049 A 
ATOM     35  H   UNL A   1      40.791  31.149  34.446  1.00  0.00     0.167 HD
ATOM     36  C   UNL A   1      39.096  33.365  35.022  1.00  0.00     0.074 A 
ATOM     37  C   UNL A   1      38.058  34.370  34.893  1.00  0.00     0.031 C 
ATOM     38  C   UNL A   1      39.907  33.237  36.101  1.00  0.00     0.031 A 
BRANCH  25  39
ATOM     39  C   UNL A   1      43.978  28.591  35.721  1.00  0.00    -0.014 A 
ATOM     40  C   UNL A   1      43.706  27.651  36.733  1.00  0.00     0.010 A 
ATOM     41  C   UNL A   1      45.309  28.759  35.291  1.00  0.00     0.010 A 
ATOM     42  C   UNL A   1      44.744  26.928  37.328  1.00  0.00     0.020 A 
ATOM     43  C   UNL A   1      46.347  28.017  35.864  1.00  0.00     0.020 A 
ATOM     44  C   UNL A   1      46.059  27.117  36.891  1.00  0.00     0.054 A 
BRANCH  44  45
ATOM     45  S   UNL A   1      47.382  26.149  37.669  1.00  0.00     0.124 S 
ATOM     46  O   UNL A   1      47.259  24.865  36.982  1.00  0.00    -0.237 OA
ATOM     47  O   UNL A   1      48.578  26.922  37.342  1.00  0.00    -0.237 OA
ATOM     48  O   UNL A   1      47.019  26.136  39.084  1.00  0.00    -0.744 OA
ENDBRANCH  44  45
ENDBRANCH  25  39
BRANCH  26  49
ATOM     49  C   UNL A   1      36.506  33.391  31.084  1.00  0.00    -0.014 A 
ATOM     50  C   UNL A   1      35.255  33.522  31.710  1.00  0.00     0.010 A 
ATOM     51  C   UNL A   1      36.694  33.954  29.806  1.00  0.00     0.010 A 
ATOM     52  C   UNL A   1      34.208  34.187  31.065  1.00  0.00     0.020 A 
ATOM     53  C   UNL A   1      35.662  34.650  29.174  1.00  0.00     0.020 A 
ATOM     54  C   UNL A   1      34.420  34.750  29.802  1.00  0.00     0.054 A 
BRANCH  54  55
ATOM     55  S   UNL A   1      33.061  35.649  29.006  1.00  0.00     0.124 S 
ATOM     56  O   UNL A   1      32.275  36.088  30.155  1.00  0.00    -0.237 OA
ATOM     57  O   UNL A   1      33.764  36.703  28.279  1.00  0.00    -0.237 OA
ATOM     58  O   UNL A   1      32.428  34.637  28.163  1.00  0.00    -0.744 OA
ENDBRANCH  54  55
ENDBRANCH  26  49
BRANCH  38  59
ATOM     59  C   UNL A   1      39.726  34.234  37.215  1.00  0.00    -0.014 A 
ATOM     60  C   UNL A   1      38.923  33.945  38.333  1.00  0.00     0.010 A 
ATOM     61  C   UNL A   1      40.406  35.464  37.159  1.00  0.00     0.010 A 
ATOM     62  C   UNL A   1      38.776  34.884  39.357  1.00  0.00     0.020 A 
ATOM     63  C   UNL A   1      40.288  36.391  38.196  1.00  0.00     0.020 A 
ATOM     64  C   UNL A   1      39.461  36.100  39.282  1.00  0.00     0.054 A 
BRANCH  64  65
ATOM     65  S   UNL A   1      39.287  37.283  40.645  1.00  0.00     0.124 S 
ATOM     66  O   UNL A   1      38.335  38.244  40.094  1.00  0.00    -0.237 OA
ATOM     67  O   UNL A   1      38.778  36.448  41.731  1.00  0.00    -0.237 OA
ATOM     68  O   UNL A   1      40.643  37.792  40.840  1.00  0.00    -0.744 OA
ENDBRANCH  64  65
ENDBRANCH  38  59
ENDBRANCH  12  13
ENDBRANCH   5   7
ENDBRANCH   2   3
ENDBRANCH   1   2
BRANCH   1  69
ATOM     69  C   UNL A   1      37.880  21.996  25.500  1.00  0.00     0.023 C 
BRANCH  69  70
ATOM     70  C   UNL A   1      36.602  21.158  25.589  1.00  0.00     0.116 C 
BRANCH  70  71
ATOM     71  N   UNL A   1      35.591  21.629  26.539  1.00  0.00    -0.352 N 
ATOM     72  C   UNL A   1      34.231  21.390  26.657  1.00  0.00     0.251 C 
ATOM     73  H   UNL A   1      35.949  22.231  27.230  1.00  0.00     0.163 HD
ATOM     74  O   UNL A   1      33.612  21.890  27.589  1.00  0.00    -0.269 OA
BRANCH  72  75
ATOM     75  C   UNL A   1      33.521  20.524  25.686  1.00  0.00     0.048 A 
ATOM     76  C   UNL A   1      33.276  19.218  26.154  1.00  0.00     0.014 A 
ATOM     77  C   UNL A   1      33.060  20.960  24.383  1.00  0.00     0.007 A 
ATOM     78  C   UNL A   1      32.734  18.255  25.326  1.00  0.00     0.001 A 
ATOM     79  C   UNL A   1      32.485  19.926  23.576  1.00  0.00    -0.017 A 
ATOM     80  C   UNL A   1      33.083  22.262  23.753  1.00  0.00     0.048 A 
ATOM     81  C   UNL A   1      32.365  18.608  24.039  1.00  0.00     0.009 A 
ATOM     82  C   UNL A   1      32.003  20.170  22.279  1.00  0.00     0.009 A 
ATOM     83  C   UNL A   1      32.547  22.477  22.461  1.00  0.00     0.014 A 
ATOM     84  C   UNL A   1      32.021  21.436  21.722  1.00  0.00     0.001 A 
BRANCH  80  85
ATOM     85  C   UNL A   1      33.618  23.531  24.297  1.00  0.00     0.252 C 
ATOM     86  O   UNL A   1      34.822  23.760  24.200  1.00  0.00    -0.269 OA
ATOM     87  N   UNL A   1      32.839  24.305  25.127  1.00  0.00    -0.345 N 
ATOM     88  H   UNL A   1      33.328  24.926  25.715  1.00  0.00     0.164 HD
BRANCH  87  89
ATOM     89  C   UNL A   1      31.381  24.329  25.251  1.00  0.00     0.134 C 
ATOM     90  C   UNL A   1      30.693  23.431  26.282  1.00  0.00     0.187 C 
ATOM     91  C   UNL A   1      30.754  25.468  26.056  1.00  0.00     0.187 C 
ATOM     92  O   UNL A   1      29.860  24.534  26.723  1.00  0.00    -0.377 OA
ENDBRANCH  87  89
ENDBRANCH  80  85
ENDBRANCH  72  75
ENDBRANCH  70  71
ENDBRANCH  69  70
ENDBRANCH   1  69
TORSDOF 16
ENDMDL
MODEL 2
REMARK VINA RESULT:     -12.0      4.500     10.044
REMARK SMILES O=C(NCCCCNC(=O)c1cccc2cccc(C(=O)NC3COC3)c12)c1ccc(-c2c3nc(c(-c4ccc(S(=O)(=O)[O-])cc4)c4ccc([nH]4)c(-c4ccc(S(=O)(=O)[O-])cc4)c4nc(c(-c5ccc(S(=O)(=O)[O-])cc5)c5ccc2[nH]5)C=C4)C=C3)cc1
REMARK SMILES IDX 5 1 4 2 3 3 1 4 2 5 28 7 29 8 87 9 30 10 86 11 31 12 32 13
REMARK SMILES IDX 33 14 80 15 34 16 85 17 79 18 81 19 35 20 84 21 78 22 77 23
REMARK SMILES IDX 36 25 66 26 47 27 65 28 48 29 51 30 64 31 82 32 49 33 50 34
REMARK SMILES IDX 63 36 83 37 52 38 37 39 38 40 46 41 39 42 45 43 40 44 41 45
REMARK SMILES IDX 42 46 43 47 44 48 67 49 68 50 76 51 69 52 75 53 70 54 71 55
REMARK SMILES IDX 72 56 73 57 74 58 53 59 54 60 62 61 55 62 61 63 56 64 57 65
REMARK SMILES IDX 58 66 59 67 60 68 6 69 7 70 8 71 9 72 10 74 11 75 12 76
REMARK SMILES IDX 27 77 13 78 15 79 19 80 14 81 16 82 18 83 17 84 20 85 21 86
REMARK SMILES IDX 22 87 23 89 24 90 26 91 25 92
REMARK H PARENT 3 6 81 24 51 35 8 73 22 88
REMARK Flexibility Score: inf
ROOT
ATOM      1  C   UNL A   1      32.717  26.956  26.728  1.00  0.00     0.023 C 
ENDROOT
BRANCH   1   2
ATOM      2  C   UNL A   1      33.838  27.951  26.474  1.00  0.00     0.116 C 
BRANCH   2   3
ATOM      3  N   UNL A   1      33.507  29.312  26.869  1.00  0.00    -0.352 N 
ATOM      4  O   UNL A   1      33.732  31.287  27.932  1.00  0.00    -0.269 OA
ATOM      5  C   UNL A   1      34.246  30.220  27.594  1.00  0.00     0.251 C 
ATOM      6  H   UNL A   1      32.623  29.631  26.576  1.00  0.00     0.163 HD
BRANCH   5   7
ATOM      7  C   UNL A   1      35.642  29.914  27.985  1.00  0.00     0.039 A 
ATOM      8  C   UNL A   1      36.690  30.093  27.083  1.00  0.00     0.014 A 
ATOM      9  C   UNL A   1      35.911  29.454  29.279  1.00  0.00     0.014 A 
ATOM     10  C   UNL A   1      37.969  29.663  27.410  1.00  0.00     0.010 A 
ATOM     11  C   UNL A   1      37.222  29.130  29.645  1.00  0.00     0.010 A 
ATOM     12  C   UNL A   1      38.260  29.209  28.706  1.00  0.00    -0.014 A 
BRANCH  12  13
ATOM     13  C   UNL A   1      39.673  28.931  29.069  1.00  0.00     0.031 A 
ATOM     14  C   UNL A   1      40.512  29.939  29.804  1.00  0.00     0.074 A 
ATOM     15  C   UNL A   1      40.188  27.727  28.744  1.00  0.00     0.049 A 
ATOM     16  N   UNL A   1      41.755  29.838  30.201  1.00  0.00    -0.248 NA
ATOM     17  C   UNL A   1      39.883  31.228  30.132  1.00  0.00     0.031 C 
ATOM     18  C   UNL A   1      39.465  26.669  28.028  1.00  0.00     0.029 A 
ATOM     19  N   UNL A   1      41.418  27.175  28.989  1.00  0.00    -0.354 N 
ATOM     20  C   UNL A   1      42.067  31.051  30.804  1.00  0.00     0.074 A 
ATOM     21  C   UNL A   1      40.887  31.883  30.700  1.00  0.00     0.031 C 
ATOM     22  C   UNL A   1      40.242  25.581  27.944  1.00  0.00     0.029 A 
ATOM     23  C   UNL A   1      41.545  25.888  28.519  1.00  0.00     0.049 A 
ATOM     24  H   UNL A   1      42.140  27.652  29.456  1.00  0.00     0.167 HD
ATOM     25  C   UNL A   1      43.229  31.431  31.389  1.00  0.00     0.031 A 
ATOM     26  C   UNL A   1      42.599  25.051  28.519  1.00  0.00     0.031 A 
ATOM     27  C   UNL A   1      44.399  30.593  31.476  1.00  0.00     0.049 A 
ATOM     28  C   UNL A   1      43.887  25.517  29.130  1.00  0.00     0.074 A 
ATOM     29  C   UNL A   1      45.617  30.874  32.069  1.00  0.00     0.029 A 
ATOM     30  N   UNL A   1      44.502  29.313  30.947  1.00  0.00    -0.354 N 
ATOM     31  N   UNL A   1      44.150  26.658  29.722  1.00  0.00    -0.248 NA
ATOM     32  C   UNL A   1      45.019  24.585  29.075  1.00  0.00     0.031 C 
ATOM     33  C   UNL A   1      46.476  29.793  31.843  1.00  0.00     0.029 A 
ATOM     34  C   UNL A   1      45.771  28.806  31.173  1.00  0.00     0.049 A 
ATOM     35  H   UNL A   1      43.778  28.836  30.480  1.00  0.00     0.167 HD
ATOM     36  C   UNL A   1      45.475  26.574  30.129  1.00  0.00     0.074 A 
ATOM     37  C   UNL A   1      45.949  25.261  29.736  1.00  0.00     0.031 C 
ATOM     38  C   UNL A   1      46.231  27.500  30.769  1.00  0.00     0.031 A 
BRANCH  25  39
ATOM     39  C   UNL A   1      43.311  32.828  31.953  1.00  0.00    -0.014 A 
ATOM     40  C   UNL A   1      43.521  33.945  31.122  1.00  0.00     0.010 A 
ATOM     41  C   UNL A   1      43.121  33.034  33.333  1.00  0.00     0.010 A 
ATOM     42  C   UNL A   1      43.578  35.233  31.665  1.00  0.00     0.020 A 
ATOM     43  C   UNL A   1      43.149  34.323  33.876  1.00  0.00     0.020 A 
ATOM     44  C   UNL A   1      43.394  35.413  33.040  1.00  0.00     0.054 A 
BRANCH  44  45
ATOM     45  S   UNL A   1      43.455  37.097  33.712  1.00  0.00     0.124 S 
ATOM     46  O   UNL A   1      42.138  37.220  34.334  1.00  0.00    -0.237 OA
ATOM     47  O   UNL A   1      44.582  37.031  34.640  1.00  0.00    -0.237 OA
ATOM     48  O   UNL A   1      43.668  37.935  32.535  1.00  0.00    -0.744 OA
ENDBRANCH  44  45
ENDBRANCH  25  39
BRANCH  26  49
ATOM     49  C   UNL A   1      42.476  23.707  27.893  1.00  0.00    -0.014 A 
ATOM     50  C   UNL A   1      42.854  23.499  26.555  1.00  0.00     0.010 A 
ATOM     51  C   UNL A   1      42.006  22.615  28.648  1.00  0.00     0.010 A 
ATOM     52  C   UNL A   1      42.747  22.228  25.980  1.00  0.00     0.020 A 
ATOM     53  C   UNL A   1      41.932  21.338  28.089  1.00  0.00     0.020 A 
ATOM     54  C   UNL A   1      42.290  21.156  26.753  1.00  0.00     0.054 A 
BRANCH  54  55
ATOM     55  S   UNL A   1      42.206  19.509  25.999  1.00  0.00     0.124 S 
ATOM     56  O   UNL A   1      40.781  19.378  25.715  1.00  0.00    -0.237 OA
ATOM     57  O   UNL A   1      43.075  19.652  24.833  1.00  0.00    -0.237 OA
ATOM     58  O   UNL A   1      42.720  18.627  27.045  1.00  0.00    -0.744 OA
ENDBRANCH  54  55
ENDBRANCH  26  49
BRANCH  38  59
ATOM     59  C   UNL A   1      47.643  27.110  31.117  1.00  0.00    -0.014 A 
ATOM     60  C   UNL A   1      48.735  27.553  30.349  1.00  0.00     0.010 A 
ATOM     61  C   UNL A   1      47.881  26.320  32.256  1.00  0.00     0.010 A 
ATOM     62  C   UNL A   1      50.036  27.182  30.696  1.00  0.00     0.020 A 
ATOM     63  C   UNL A   1      49.183  25.976  32.624  1.00  0.00     0.020 A 
ATOM     64  C   UNL A   1      50.252  26.397  31.832  1.00  0.00     0.054 A 
BRANCH  64  65
ATOM     65  S   UNL A   1      51.954  25.966  32.284  1.00  0.00     0.124 S 
ATOM     66  O   UNL A   1      52.590  25.829  30.977  1.00  0.00    -0.237 OA
ATOM     67  O   UNL A   1      52.378  27.122  33.070  1.00  0.00    -0.237 OA
ATOM     68  O   UNL A   1      51.810  24.724  33.040  1.00  0.00    -0.744 OA
ENDBRANCH  64  65
ENDBRANCH  38  59
ENDBRANCH  12  13
ENDBRANCH   5   7
ENDBRANCH   2   3
ENDBRANCH   1   2
BRANCH   1  69
ATOM     69  C   UNL A   1      31.426  27.214  25.961  1.00  0.00     0.023 C 
BRANCH  69  70
ATOM     70  C   UNL A   1      30.352  26.125  26.030  1.00  0.00     0.116 C 
BRANCH  70  71
ATOM     71  N   UNL A   1      30.293  25.209  24.888  1.00  0.00    -0.352 N 
ATOM     72  C   UNL A   1      31.050  24.105  24.531  1.00  0.00     0.251 C 
ATOM     73  H   UNL A   1      29.574  25.419  24.249  1.00  0.00     0.163 HD
ATOM     74  O   UNL A   1      30.759  23.478  23.519  1.00  0.00    -0.269 OA
BRANCH  72  75
ATOM     75  C   UNL A   1      32.190  23.659  25.366  1.00  0.00     0.048 A 
ATOM     76  C   UNL A   1      31.823  23.230  26.657  1.00  0.00     0.014 A 
ATOM     77  C   UNL A   1      33.567  23.606  24.914  1.00  0.00     0.007 A 
ATOM     78  C   UNL A   1      32.781  22.900  27.596  1.00  0.00     0.001 A 
ATOM     79  C   UNL A   1      34.513  23.236  25.923  1.00  0.00    -0.017 A 
ATOM     80  C   UNL A   1      34.152  23.868  23.617  1.00  0.00     0.048 A 
ATOM     81  C   UNL A   1      34.116  22.928  27.231  1.00  0.00     0.009 A 
ATOM     82  C   UNL A   1      35.891  23.153  25.661  1.00  0.00     0.009 A 
ATOM     83  C   UNL A   1      35.541  23.730  23.382  1.00  0.00     0.014 A 
ATOM     84  C   UNL A   1      36.408  23.387  24.399  1.00  0.00     0.001 A 
BRANCH  80  85
ATOM     85  C   UNL A   1      33.466  24.286  22.373  1.00  0.00     0.252 C 
ATOM     86  O   UNL A   1      33.280  23.453  21.487  1.00  0.00    -0.269 OA
ATOM     87  N   UNL A   1      33.288  25.623  22.102  1.00  0.00    -0.345 N 
ATOM     88  H   UNL A   1      33.150  25.852  21.154  1.00  0.00     0.164 HD
BRANCH  87  89
ATOM     89  C   UNL A   1      33.274  26.750  23.036  1.00  0.00     0.134 C 
ATOM     90  C   UNL A   1      34.194  27.948  22.794  1.00  0.00     0.187 C 
ATOM     91  C   UNL A   1      32.154  27.781  22.892  1.00  0.00     0.187 C 
ATOM     92  O   UNL A   1      33.105  28.870  23.053  1.00  0.00    -0.377 OA
ENDBRANCH  87  89
ENDBRANCH  80  85
ENDBRANCH  72  75
ENDBRANCH  70  71
ENDBRANCH  69  70
ENDBRANCH   1  69
TORSDOF 16
ENDMDL
MODEL 3
REMARK VINA RESULT:     -11.9      4.414     10.130
REMARK SMILES O=C(NCCCCNC(=O)c1cccc2cccc(C(=O)NC3COC3)c12)c1ccc(-c2c3nc(c(-c4ccc(S(=O)(=O)[O-])cc4)c4ccc([nH]4)c(-c4ccc(S(=O)(=O)[O-])cc4)c4nc(c(-c5ccc(S(=O)(=O)[O-])cc5)c5ccc2[nH]5)C=C4)C=C3)cc1
REMARK SMILES IDX 5 1 4 2 3 3 1 4 2 5 28 7 29 8 87 9 30 10 86 11 31 12 32 13
REMARK SMILES IDX 33 14 80 15 34 16 85 17 79 18 81 19 35 20 84 21 78 22 77 23
REMARK SMILES IDX 36 25 66 26 47 27 65 28 48 29 51 30 64 31 82 32 49 33 50 34
REMARK SMILES IDX 63 36 83 37 52 38 37 39 38 40 46 41 39 42 45 43 40 44 41 45
REMARK SMILES IDX 42 46 43 47 44 48 67 49 68 50 76 51 69 52 75 53 70 54 71 55
REMARK SMILES IDX 72 56 73 57 74 58 53 59 54 60 62 61 55 62 61 63 56 64 57 65
REMARK SMILES IDX 58 66 59 67 60 68 6 69 7 70 8 71 9 72 10 74 11 75 12 76
REMARK SMILES IDX 27 77 13 78 15 79 19 80 14 81 16 82 18 83 17 84 20 85 21 86
REMARK SMILES IDX 22 87 23 89 24 90 26 91 25 92
REMARK H PARENT 3 6 81 24 51 35 8 73 22 88
REMARK Flexibility Score: inf
ROOT
ATOM      1  C   UNL A   1      32.724  27.276  25.841  1.00  0.00     0.023 C 
ENDROOT
BRANCH   1   2
ATOM      2  C   UNL A   1      33.879  27.978  26.537  1.00  0.00     0.116 C 
BRANCH   2   3
ATOM      3  N   UNL A   1      33.583  29.354  26.908  1.00  0.00    -0.352 N 
ATOM      4  O   UNL A   1      33.864  31.345  27.927  1.00  0.00    -0.269 OA
ATOM      5  C   UNL A   1      34.350  30.260  27.606  1.00  0.00     0.251 C 
ATOM      6  H   UNL A   1      32.703  29.687  26.618  1.00  0.00     0.163 HD
BRANCH   5   7
ATOM      7  C   UNL A   1      35.743  29.930  27.988  1.00  0.00     0.039 A 
ATOM      8  C   UNL A   1      36.788  30.092  27.079  1.00  0.00     0.014 A 
ATOM      9  C   UNL A   1      36.013  29.466  29.280  1.00  0.00     0.014 A 
ATOM     10  C   UNL A   1      38.062  29.640  27.397  1.00  0.00     0.010 A 
ATOM     11  C   UNL A   1      37.321  29.119  29.638  1.00  0.00     0.010 A 
ATOM     12  C   UNL A   1      38.354  29.182  28.691  1.00  0.00    -0.014 A 
BRANCH  12  13
ATOM     13  C   UNL A   1      39.765  28.880  29.046  1.00  0.00     0.031 A 
ATOM     14  C   UNL A   1      40.625  29.875  29.774  1.00  0.00     0.074 A 
ATOM     15  C   UNL A   1      40.257  27.667  28.718  1.00  0.00     0.049 A 
ATOM     16  N   UNL A   1      41.869  29.752  30.163  1.00  0.00    -0.248 NA
ATOM     17  C   UNL A   1      40.020  31.174  30.106  1.00  0.00     0.031 C 
ATOM     18  C   UNL A   1      39.511  26.622  28.007  1.00  0.00     0.029 A 
ATOM     19  N   UNL A   1      41.479  27.094  28.955  1.00  0.00    -0.354 N 
ATOM     20  C   UNL A   1      42.205  30.960  30.763  1.00  0.00     0.074 A 
ATOM     21  C   UNL A   1      41.039  31.812  30.667  1.00  0.00     0.031 C 
ATOM     22  C   UNL A   1      40.269  25.521  27.919  1.00  0.00     0.029 A 
ATOM     23  C   UNL A   1      41.581  25.806  28.485  1.00  0.00     0.049 A 
ATOM     24  H   UNL A   1      42.212  27.559  29.417  1.00  0.00     0.167 HD
ATOM     25  C   UNL A   1      43.377  31.321  31.341  1.00  0.00     0.031 A 
ATOM     26  C   UNL A   1      42.620  24.951  28.478  1.00  0.00     0.031 A 
ATOM     27  C   UNL A   1      44.534  30.463  31.420  1.00  0.00     0.049 A 
ATOM     28  C   UNL A   1      43.920  25.396  29.081  1.00  0.00     0.074 A 
ATOM     29  C   UNL A   1      45.760  30.724  32.005  1.00  0.00     0.029 A 
ATOM     30  N   UNL A   1      44.611  29.181  30.891  1.00  0.00    -0.354 N 
ATOM     31  N   UNL A   1      44.206  26.533  29.671  1.00  0.00    -0.248 NA
ATOM     32  C   UNL A   1      45.036  24.445  29.019  1.00  0.00     0.031 C 
ATOM     33  C   UNL A   1      46.599  29.629  31.774  1.00  0.00     0.029 A 
ATOM     34  C   UNL A   1      45.873  28.653  31.109  1.00  0.00     0.049 A 
ATOM     35  H   UNL A   1      43.877  28.716  30.429  1.00  0.00     0.167 HD
ATOM     36  C   UNL A   1      45.533  26.426  30.069  1.00  0.00     0.074 A 
ATOM     37  C   UNL A   1      45.982  25.105  29.673  1.00  0.00     0.031 C 
ATOM     38  C   UNL A   1      46.308  27.340  30.703  1.00  0.00     0.031 A 
BRANCH  25  39
ATOM     39  C   UNL A   1      43.486  32.717  31.903  1.00  0.00    -0.014 A 
ATOM     40  C   UNL A   1      43.290  32.976  33.272  1.00  0.00     0.010 A 
ATOM     41  C   UNL A   1      43.845  33.782  31.055  1.00  0.00     0.010 A 
ATOM     42  C   UNL A   1      43.410  34.276  33.773  1.00  0.00     0.020 A 
ATOM     43  C   UNL A   1      43.995  35.079  31.557  1.00  0.00     0.020 A 
ATOM     44  C   UNL A   1      43.760  35.320  32.911  1.00  0.00     0.054 A 
BRANCH  44  45
ATOM     45  S   UNL A   1      43.927  36.993  33.594  1.00  0.00     0.124 S 
ATOM     46  O   UNL A   1      42.582  37.245  34.106  1.00  0.00    -0.237 OA
ATOM     47  O   UNL A   1      44.963  36.821  34.610  1.00  0.00    -0.237 OA
ATOM     48  O   UNL A   1      44.316  37.803  32.442  1.00  0.00    -0.744 OA
ENDBRANCH  44  45
ENDBRANCH  25  39
BRANCH  26  49
ATOM     49  C   UNL A   1      42.471  23.609  27.853  1.00  0.00    -0.014 A 
ATOM     50  C   UNL A   1      42.852  23.390  26.519  1.00  0.00     0.010 A 
ATOM     51  C   UNL A   1      41.972  22.529  28.608  1.00  0.00     0.010 A 
ATOM     52  C   UNL A   1      42.720  22.121  25.945  1.00  0.00     0.020 A 
ATOM     53  C   UNL A   1      41.872  21.254  28.050  1.00  0.00     0.020 A 
ATOM     54  C   UNL A   1      42.234  21.060  26.717  1.00  0.00     0.054 A 
BRANCH  54  55
ATOM     55  S   UNL A   1      42.117  19.414  25.965  1.00  0.00     0.124 S 
ATOM     56  O   UNL A   1      42.956  19.562  24.781  1.00  0.00    -0.237 OA
ATOM     57  O   UNL A   1      42.649  18.550  27.016  1.00  0.00    -0.237 OA
ATOM     58  O   UNL A   1      40.688  19.258  25.705  1.00  0.00    -0.744 OA
ENDBRANCH  54  55
ENDBRANCH  26  49
BRANCH  38  59
ATOM     59  C   UNL A   1      47.716  26.926  31.041  1.00  0.00    -0.014 A 
ATOM     60  C   UNL A   1      48.016  26.270  32.248  1.00  0.00     0.010 A 
ATOM     61  C   UNL A   1      48.748  27.165  30.115  1.00  0.00     0.010 A 
ATOM     62  C   UNL A   1      49.329  25.891  32.536  1.00  0.00     0.020 A 
ATOM     63  C   UNL A   1      50.055  26.758  30.386  1.00  0.00     0.020 A 
ATOM     64  C   UNL A   1      50.340  26.137  31.603  1.00  0.00     0.054 A 
BRANCH  64  65
ATOM     65  S   UNL A   1      52.029  25.596  31.983  1.00  0.00     0.124 S 
ATOM     66  O   UNL A   1      52.350  26.405  33.155  1.00  0.00    -0.237 OA
ATOM     67  O   UNL A   1      51.857  24.167  32.235  1.00  0.00    -0.237 OA
ATOM     68  O   UNL A   1      52.780  25.924  30.774  1.00  0.00    -0.744 OA
ENDBRANCH  64  65
ENDBRANCH  38  59
ENDBRANCH  12  13
ENDBRANCH   5   7
ENDBRANCH   2   3
ENDBRANCH   1   2
BRANCH   1  69
ATOM     69  C   UNL A   1      32.058  26.161  26.639  1.00  0.00     0.023 C 
BRANCH  69  70
ATOM     70  C   UNL A   1      30.693  25.676  26.145  1.00  0.00     0.116 C 
BRANCH  70  71
ATOM     71  N   UNL A   1      30.529  24.225  26.037  1.00  0.00    -0.352 N 
ATOM     72  C   UNL A   1      31.151  23.266  25.253  1.00  0.00     0.251 C 
ATOM     73  H   UNL A   1      29.843  23.859  26.641  1.00  0.00     0.163 HD
ATOM     74  O   UNL A   1      30.845  22.087  25.390  1.00  0.00    -0.269 OA
BRANCH  72  75
ATOM     75  C   UNL A   1      32.193  23.642  24.269  1.00  0.00     0.048 A 
ATOM     76  C   UNL A   1      31.754  24.554  23.289  1.00  0.00     0.014 A 
ATOM     77  C   UNL A   1      33.565  23.176  24.310  1.00  0.00     0.007 A 
ATOM     78  C   UNL A   1      32.568  24.907  22.231  1.00  0.00     0.001 A 
ATOM     79  C   UNL A   1      34.370  23.594  23.201  1.00  0.00    -0.017 A 
ATOM     80  C   UNL A   1      34.263  22.357  25.276  1.00  0.00     0.048 A 
ATOM     81  C   UNL A   1      33.858  24.408  22.182  1.00  0.00     0.009 A 
ATOM     82  C   UNL A   1      35.718  23.217  23.072  1.00  0.00     0.009 A 
ATOM     83  C   UNL A   1      35.634  22.037  25.134  1.00  0.00     0.014 A 
ATOM     84  C   UNL A   1      36.355  22.452  24.033  1.00  0.00     0.001 A 
BRANCH  80  85
ATOM     85  C   UNL A   1      33.727  21.751  26.517  1.00  0.00     0.252 C 
ATOM     86  O   UNL A   1      33.808  22.380  27.570  1.00  0.00    -0.269 OA
ATOM     87  N   UNL A   1      33.396  20.415  26.542  1.00  0.00    -0.345 N 
ATOM     88  H   UNL A   1      33.377  19.997  27.433  1.00  0.00     0.164 HD
BRANCH  87  89
ATOM     89  C   UNL A   1      33.068  19.535  25.419  1.00  0.00     0.134 C 
ATOM     90  C   UNL A   1      34.188  18.801  24.678  1.00  0.00     0.187 C 
ATOM     91  C   UNL A   1      32.571  18.126  25.741  1.00  0.00     0.187 C 
ATOM     92  O   UNL A   1      33.435  17.562  24.715  1.00  0.00    -0.377 OA
ENDBRANCH  87  89
ENDBRANCH  80  85
ENDBRANCH  72  75
ENDBRANCH  70  71
ENDBRANCH  69  70
ENDBRANCH   1  69
TORSDOF 16
ENDMDL
