MODEL 1
REMARK VINA RESULT:     -12.0      0.000      0.000
REMARK SMILES Cc1ccc([C@H](C)[N@H+](CC(=O)NCCCCNC(=O)c2ccc(-c3c4nc(c(-c5ccc(S(=O)(=O)[O-])cc5)c5ccc([nH]5)c(-c5ccc(S(=O)(=O)[O-])cc5)c5nc(c(-c6ccc(S(=O)(=O)[O-])cc6)c6ccc3[nH]6)C=C5)C=C4)cc2)CC(F)(F)F)cc1
REMARK SMILES IDX 14 1 13 2 12 3 10 4 11 5 9 7 8 8 6 10 7 11 5 12 1 13 2 14
REMARK SMILES IDX 3 15 86 16 4 17 85 18 80 19 81 20 82 21 83 22 84 23 15 24
REMARK SMILES IDX 16 25 17 26 18 27 19 29 20 30 21 31 79 32 22 33 78 34 23 35
REMARK SMILES IDX 24 36 25 37 72 38 26 39 77 40 71 41 73 42 27 43 76 44 70 45
REMARK SMILES IDX 69 46 28 48 58 49 39 50 57 51 40 52 43 53 56 54 74 55 41 56
REMARK SMILES IDX 42 57 55 59 75 60 44 61 29 62 30 63 38 64 31 65 37 66 32 67
REMARK SMILES IDX 33 68 34 69 35 70 36 71 59 72 60 73 68 74 61 75 67 76 62 77
REMARK SMILES IDX 63 78 64 79 65 80 66 81 45 82 46 83 54 84 47 85 53 86 48 87
REMARK SMILES IDX 49 88 50 89 51 90 52 91
REMARK H PARENT 12 6 8 9 17 28 73 47 43 58
REMARK Flexibility Score: inf
ROOT
ATOM      1  C   UNL A   1      36.826  22.209  24.341  1.00  0.00     0.023 C 
ENDROOT
BRANCH   1   2
ATOM      2  C   UNL A   1      36.049  23.446  23.863  1.00  0.00     0.116 C 
BRANCH   2   3
ATOM      3  N   UNL A   1      35.145  23.408  22.722  1.00  0.00    -0.351 N 
ATOM      4  C   UNL A   1      33.787  23.236  22.626  1.00  0.00     0.275 C 
ATOM      5  O   UNL A   1      33.207  23.812  21.696  1.00  0.00    -0.269 OA
ATOM      6  H   UNL A   1      35.594  23.529  21.854  1.00  0.00     0.163 HD
BRANCH   4   7
ATOM      7  C   UNL A   1      33.005  22.252  23.522  1.00  0.00     0.364 C 
BRANCH   7   8
ATOM      8  N   UNL A   1      32.988  22.784  24.913  1.00  0.00    -0.314 N 
ATOM      9  H   UNL A   1      33.792  23.406  24.999  1.00  0.00     0.349 HD
BRANCH   8  10
ATOM     10  C   UNL A   1      31.806  23.621  25.142  1.00  0.00     0.212 C 
ATOM     11  C   UNL A   1      30.648  22.976  25.922  1.00  0.00     0.081 C 
BRANCH  10  12
ATOM     12  C   UNL A   1      32.146  25.078  25.431  1.00  0.00     0.009 A 
ATOM     13  C   UNL A   1      33.075  28.815  27.389  1.00  0.00     0.044 C 
ATOM     14  C   UNL A   1      32.738  27.581  26.610  1.00  0.00    -0.051 A 
ATOM     15  C   UNL A   1      31.426  27.125  26.568  1.00  0.00     0.004 A 
ATOM     16  C   UNL A   1      33.739  26.822  25.988  1.00  0.00     0.004 A 
ATOM     17  C   UNL A   1      31.137  25.910  25.958  1.00  0.00     0.010 A 
ATOM     18  C   UNL A   1      33.448  25.580  25.405  1.00  0.00     0.010 A 
ENDBRANCH  10  12
ENDBRANCH   8  10
BRANCH   8  19
ATOM     19  C   UNL A   1      33.300  21.804  25.968  1.00  0.00     0.380 C 
BRANCH  19  20
ATOM     20  C   UNL A   1      33.940  22.306  27.290  1.00  0.00     0.438 C 
ATOM     21  F   UNL A   1      34.591  21.331  27.961  1.00  0.00    -0.165 F 
ATOM     22  F   UNL A   1      34.871  23.257  27.011  1.00  0.00    -0.165 F 
ATOM     23  F   UNL A   1      33.044  22.866  28.127  1.00  0.00    -0.165 F 
ENDBRANCH  19  20
ENDBRANCH   8  19
ENDBRANCH   7   8
ENDBRANCH   4   7
ENDBRANCH   2   3
ENDBRANCH   1   2
BRANCH   1  24
ATOM     24  C   UNL A   1      37.713  22.164  25.596  1.00  0.00     0.023 C 
BRANCH  24  25
ATOM     25  C   UNL A   1      38.226  23.462  26.204  1.00  0.00     0.116 C 
BRANCH  25  26
ATOM     26  N   UNL A   1      39.461  23.225  26.979  1.00  0.00    -0.352 N 
ATOM     27  C   UNL A   1      40.231  24.122  27.706  1.00  0.00     0.251 C 
ATOM     28  H   UNL A   1      39.785  22.295  26.979  1.00  0.00     0.163 HD
ATOM     29  O   UNL A   1      41.267  23.852  28.257  1.00  0.00    -0.269 OA
BRANCH  27  30
ATOM     30  C   UNL A   1      39.644  25.463  27.828  1.00  0.00     0.039 A 
ATOM     31  C   UNL A   1      40.183  26.452  26.994  1.00  0.00     0.014 A 
ATOM     32  C   UNL A   1      38.972  25.755  29.010  1.00  0.00     0.014 A 
ATOM     33  C   UNL A   1      40.239  27.753  27.462  1.00  0.00     0.010 A 
ATOM     34  C   UNL A   1      39.081  27.037  29.496  1.00  0.00     0.010 A 
ATOM     35  C   UNL A   1      39.779  28.003  28.754  1.00  0.00    -0.014 A 
BRANCH  35  36
ATOM     36  C   UNL A   1      40.025  29.255  29.445  1.00  0.00     0.031 A 
ATOM     37  C   UNL A   1      39.001  30.308  29.341  1.00  0.00     0.074 A 
ATOM     38  C   UNL A   1      41.133  29.390  30.206  1.00  0.00     0.049 A 
ATOM     39  N   UNL A   1      39.211  31.561  29.540  1.00  0.00    -0.248 NA
ATOM     40  C   UNL A   1      37.637  30.009  28.913  1.00  0.00     0.031 C 
ATOM     41  C   UNL A   1      41.423  30.456  31.160  1.00  0.00     0.029 A 
ATOM     42  N   UNL A   1      42.344  28.696  30.093  1.00  0.00    -0.354 N 
ATOM     43  C   UNL A   1      37.978  32.175  29.581  1.00  0.00     0.074 A 
ATOM     44  C   UNL A   1      37.050  31.196  29.070  1.00  0.00     0.031 C 
ATOM     45  C   UNL A   1      42.755  30.542  31.310  1.00  0.00     0.029 A 
ATOM     46  C   UNL A   1      43.349  29.648  30.326  1.00  0.00     0.049 A 
ATOM     47  H   UNL A   1      42.466  27.740  29.894  1.00  0.00     0.167 HD
ATOM     48  C   UNL A   1      37.859  33.382  30.203  1.00  0.00     0.031 A 
ATOM     49  C   UNL A   1      44.251  30.033  29.373  1.00  0.00     0.031 A 
ATOM     50  C   UNL A   1      39.176  33.912  30.557  1.00  0.00     0.049 A 
ATOM     51  C   UNL A   1      44.174  31.519  29.079  1.00  0.00     0.074 A 
ATOM     52  C   UNL A   1      39.904  33.904  31.735  1.00  0.00     0.029 A 
ATOM     53  N   UNL A   1      40.070  34.233  29.540  1.00  0.00    -0.354 N 
ATOM     54  N   UNL A   1      43.124  32.258  29.317  1.00  0.00    -0.248 NA
ATOM     55  C   UNL A   1      45.271  32.282  28.491  1.00  0.00     0.031 C 
ATOM     56  C   UNL A   1      41.270  34.104  31.401  1.00  0.00     0.029 A 
ATOM     57  C   UNL A   1      41.362  34.278  30.030  1.00  0.00     0.049 A 
ATOM     58  H   UNL A   1      39.818  34.402  28.603  1.00  0.00     0.167 HD
ATOM     59  C   UNL A   1      43.388  33.558  28.968  1.00  0.00     0.074 A 
ATOM     60  C   UNL A   1      44.745  33.519  28.451  1.00  0.00     0.031 C 
ATOM     61  C   UNL A   1      42.480  34.565  29.139  1.00  0.00     0.031 A 
BRANCH  48  62
ATOM     62  C   UNL A   1      36.553  33.904  30.767  1.00  0.00    -0.014 A 
ATOM     63  C   UNL A   1      35.438  34.044  29.915  1.00  0.00     0.010 A 
ATOM     64  C   UNL A   1      36.374  34.354  32.090  1.00  0.00     0.010 A 
ATOM     65  C   UNL A   1      34.252  34.674  30.332  1.00  0.00     0.020 A 
ATOM     66  C   UNL A   1      35.209  35.013  32.514  1.00  0.00     0.020 A 
ATOM     67  C   UNL A   1      34.155  35.178  31.626  1.00  0.00     0.054 A 
BRANCH  67  68
ATOM     68  S   UNL A   1      32.644  36.039  32.136  1.00  0.00     0.124 S 
ATOM     69  O   UNL A   1      32.229  36.703  30.903  1.00  0.00    -0.237 OA
ATOM     70  O   UNL A   1      31.793  34.940  32.579  1.00  0.00    -0.237 OA
ATOM     71  O   UNL A   1      33.098  36.938  33.195  1.00  0.00    -0.744 OA
ENDBRANCH  67  68
ENDBRANCH  48  62
BRANCH  49  72
ATOM     72  C   UNL A   1      44.591  28.988  28.367  1.00  0.00    -0.014 A 
ATOM     73  C   UNL A   1      45.457  27.944  28.759  1.00  0.00     0.010 A 
ATOM     74  C   UNL A   1      43.804  28.811  27.215  1.00  0.00     0.010 A 
ATOM     75  C   UNL A   1      45.439  26.711  28.101  1.00  0.00     0.020 A 
ATOM     76  C   UNL A   1      43.782  27.571  26.555  1.00  0.00     0.020 A 
ATOM     77  C   UNL A   1      44.564  26.516  27.033  1.00  0.00     0.054 A 
BRANCH  77  78
ATOM     78  S   UNL A   1      44.325  24.819  26.415  1.00  0.00     0.124 S 
ATOM     79  O   UNL A   1      44.327  24.042  27.648  1.00  0.00    -0.237 OA
ATOM     80  O   UNL A   1      43.030  24.913  25.738  1.00  0.00    -0.237 OA
ATOM     81  O   UNL A   1      45.471  24.624  25.535  1.00  0.00    -0.744 OA
ENDBRANCH  77  78
ENDBRANCH  49  72
BRANCH  61  82
ATOM     82  C   UNL A   1      42.590  35.959  28.564  1.00  0.00    -0.014 A 
ATOM     83  C   UNL A   1      41.942  36.382  27.394  1.00  0.00     0.010 A 
ATOM     84  C   UNL A   1      43.276  36.954  29.307  1.00  0.00     0.010 A 
ATOM     85  C   UNL A   1      42.035  37.708  26.946  1.00  0.00     0.020 A 
ATOM     86  C   UNL A   1      43.331  38.289  28.899  1.00  0.00     0.020 A 
ATOM     87  C   UNL A   1      42.733  38.652  27.700  1.00  0.00     0.054 A 
BRANCH  87  88
ATOM     88  S   UNL A   1      42.798  40.371  27.137  1.00  0.00     0.124 S 
ATOM     89  O   UNL A   1      43.871  40.320  26.147  1.00  0.00    -0.237 OA
ATOM     90  O   UNL A   1      41.457  40.589  26.598  1.00  0.00    -0.237 OA
ATOM     91  O   UNL A   1      43.102  41.120  28.354  1.00  0.00    -0.744 OA
ENDBRANCH  87  88
ENDBRANCH  61  82
ENDBRANCH  35  36
ENDBRANCH  27  30
ENDBRANCH  25  26
ENDBRANCH  24  25
ENDBRANCH   1  24
TORSDOF 19
ENDMDL
MODEL 2
REMARK VINA RESULT:     -11.9      1.443      2.901
REMARK SMILES Cc1ccc([C@H](C)[N@H+](CC(=O)NCCCCNC(=O)c2ccc(-c3c4nc(c(-c5ccc(S(=O)(=O)[O-])cc5)c5ccc([nH]5)c(-c5ccc(S(=O)(=O)[O-])cc5)c5nc(c(-c6ccc(S(=O)(=O)[O-])cc6)c6ccc3[nH]6)C=C5)C=C4)cc2)CC(F)(F)F)cc1
REMARK SMILES IDX 14 1 13 2 12 3 10 4 11 5 9 7 8 8 6 10 7 11 5 12 1 13 2 14
REMARK SMILES IDX 3 15 86 16 4 17 85 18 80 19 81 20 82 21 83 22 84 23 15 24
REMARK SMILES IDX 16 25 17 26 18 27 19 29 20 30 21 31 79 32 22 33 78 34 23 35
REMARK SMILES IDX 24 36 25 37 72 38 26 39 77 40 71 41 73 42 27 43 76 44 70 45
REMARK SMILES IDX 69 46 28 48 58 49 39 50 57 51 40 52 43 53 56 54 74 55 41 56
REMARK SMILES IDX 42 57 55 59 75 60 44 61 29 62 30 63 38 64 31 65 37 66 32 67
REMARK SMILES IDX 33 68 34 69 35 70 36 71 59 72 60 73 68 74 61 75 67 76 62 77
REMARK SMILES IDX 63 78 64 79 65 80 66 81 45 82 46 83 54 84 47 85 53 86 48 87
REMARK SMILES IDX 49 88 50 89 51 90 52 91
REMARK H PARENT 12 6 8 9 17 28 73 47 43 58
REMARK Flexibility Score: inf
ROOT
ATOM      1  C   UNL A   1      37.119  21.946  24.354  1.00  0.00     0.023 C 
ENDROOT
BRANCH   1   2
ATOM      2  C   UNL A   1      36.740  23.040  23.343  1.00  0.00     0.116 C 
BRANCH   2   3
ATOM      3  N   UNL A   1      35.359  23.339  22.995  1.00  0.00    -0.351 N 
ATOM      4  C   UNL A   1      34.447  24.225  23.512  1.00  0.00     0.275 C 
ATOM      5  O   UNL A   1      33.617  24.705  22.729  1.00  0.00    -0.269 OA
ATOM      6  H   UNL A   1      35.012  22.802  22.246  1.00  0.00     0.163 HD
BRANCH   4   7
ATOM      7  C   UNL A   1      34.330  24.514  25.024  1.00  0.00     0.364 C 
BRANCH   7   8
ATOM      8  N   UNL A   1      33.252  23.657  25.592  1.00  0.00    -0.314 N 
ATOM      9  H   UNL A   1      32.698  23.323  24.803  1.00  0.00     0.349 HD
BRANCH   8  10
ATOM     10  C   UNL A   1      33.812  22.459  26.226  1.00  0.00     0.212 C 
ATOM     11  C   UNL A   1      33.888  22.467  27.762  1.00  0.00     0.081 C 
BRANCH  10  12
ATOM     12  C   UNL A   1      33.406  21.165  25.530  1.00  0.00     0.009 A 
ATOM     13  C   UNL A   1      32.732  18.060  22.604  1.00  0.00     0.044 C 
ATOM     14  C   UNL A   1      32.895  19.076  23.692  1.00  0.00    -0.051 A 
ATOM     15  C   UNL A   1      32.055  20.182  23.739  1.00  0.00     0.004 A 
ATOM     16  C   UNL A   1      33.939  18.980  24.621  1.00  0.00     0.004 A 
ATOM     17  C   UNL A   1      32.292  21.190  24.666  1.00  0.00     0.010 A 
ATOM     18  C   UNL A   1      34.196  20.014  25.532  1.00  0.00     0.010 A 
ENDBRANCH  10  12
ENDBRANCH   8  10
BRANCH   8  19
ATOM     19  C   UNL A   1      32.216  24.371  26.359  1.00  0.00     0.380 C 
BRANCH  19  20
ATOM     20  C   UNL A   1      30.752  24.342  25.845  1.00  0.00     0.438 C 
ATOM     21  F   UNL A   1      30.668  24.174  24.508  1.00  0.00    -0.165 F 
ATOM     22  F   UNL A   1      30.097  23.287  26.399  1.00  0.00    -0.165 F 
ATOM     23  F   UNL A   1      30.058  25.451  26.173  1.00  0.00    -0.165 F 
ENDBRANCH  19  20
ENDBRANCH   8  19
ENDBRANCH   7   8
ENDBRANCH   4   7
ENDBRANCH   2   3
ENDBRANCH   1   2
BRANCH   1  24
ATOM     24  C   UNL A   1      37.568  22.209  25.801  1.00  0.00     0.023 C 
BRANCH  24  25
ATOM     25  C   UNL A   1      38.234  23.531  26.155  1.00  0.00     0.116 C 
BRANCH  25  26
ATOM     26  N   UNL A   1      39.494  23.303  26.891  1.00  0.00    -0.352 N 
ATOM     27  C   UNL A   1      40.262  24.197  27.624  1.00  0.00     0.251 C 
ATOM     28  H   UNL A   1      39.840  22.382  26.855  1.00  0.00     0.163 HD
ATOM     29  O   UNL A   1      41.318  23.937  28.140  1.00  0.00    -0.269 OA
BRANCH  27  30
ATOM     30  C   UNL A   1      39.646  25.520  27.800  1.00  0.00     0.039 A 
ATOM     31  C   UNL A   1      40.131  26.543  26.975  1.00  0.00     0.014 A 
ATOM     32  C   UNL A   1      39.007  25.764  29.012  1.00  0.00     0.014 A 
ATOM     33  C   UNL A   1      40.171  27.832  27.475  1.00  0.00     0.010 A 
ATOM     34  C   UNL A   1      39.101  27.036  29.528  1.00  0.00     0.010 A 
ATOM     35  C   UNL A   1      39.749  28.038  28.788  1.00  0.00    -0.014 A 
BRANCH  35  36
ATOM     36  C   UNL A   1      39.987  29.277  29.503  1.00  0.00     0.031 A 
ATOM     37  C   UNL A   1      38.964  30.332  29.406  1.00  0.00     0.074 A 
ATOM     38  C   UNL A   1      41.087  29.400  30.278  1.00  0.00     0.049 A 
ATOM     39  N   UNL A   1      39.172  31.582  29.629  1.00  0.00    -0.248 NA
ATOM     40  C   UNL A   1      37.605  30.040  28.959  1.00  0.00     0.031 C 
ATOM     41  C   UNL A   1      41.366  30.449  31.253  1.00  0.00     0.029 A 
ATOM     42  N   UNL A   1      42.300  28.708  30.166  1.00  0.00    -0.354 N 
ATOM     43  C   UNL A   1      37.938  32.195  29.667  1.00  0.00     0.074 A 
ATOM     44  C   UNL A   1      37.016  31.225  29.130  1.00  0.00     0.031 C 
ATOM     45  C   UNL A   1      42.697  30.533  31.419  1.00  0.00     0.029 A 
ATOM     46  C   UNL A   1      43.302  29.657  30.426  1.00  0.00     0.049 A 
ATOM     47  H   UNL A   1      42.424  27.756  29.952  1.00  0.00     0.167 HD
ATOM     48  C   UNL A   1      37.812  33.390  30.308  1.00  0.00     0.031 A 
ATOM     49  C   UNL A   1      44.213  30.058  29.489  1.00  0.00     0.031 A 
ATOM     50  C   UNL A   1      39.125  33.915  30.685  1.00  0.00     0.049 A 
ATOM     51  C   UNL A   1      44.140  31.549  29.220  1.00  0.00     0.074 A 
ATOM     52  C   UNL A   1      39.840  33.887  31.871  1.00  0.00     0.029 A 
ATOM     53  N   UNL A   1      40.030  34.253  29.684  1.00  0.00    -0.354 N 
ATOM     54  N   UNL A   1      43.087  32.283  29.460  1.00  0.00    -0.248 NA
ATOM     55  C   UNL A   1      45.242  32.321  28.657  1.00  0.00     0.031 C 
ATOM     56  C   UNL A   1      41.210  34.092  31.555  1.00  0.00     0.029 A 
ATOM     57  C   UNL A   1      41.317  34.290  30.188  1.00  0.00     0.049 A 
ATOM     58  H   UNL A   1      39.788  34.439  28.748  1.00  0.00     0.167 HD
ATOM     59  C   UNL A   1      43.354  33.589  29.136  1.00  0.00     0.074 A 
ATOM     60  C   UNL A   1      44.717  33.559  28.632  1.00  0.00     0.031 C 
ATOM     61  C   UNL A   1      42.444  34.593  29.314  1.00  0.00     0.031 A 
BRANCH  48  62
ATOM     62  C   UNL A   1      36.500  33.903  30.868  1.00  0.00    -0.014 A 
ATOM     63  C   UNL A   1      35.375  33.991  30.022  1.00  0.00     0.010 A 
ATOM     64  C   UNL A   1      36.322  34.392  32.177  1.00  0.00     0.010 A 
ATOM     65  C   UNL A   1      34.179  34.609  30.429  1.00  0.00     0.020 A 
ATOM     66  C   UNL A   1      35.148  35.039  32.590  1.00  0.00     0.020 A 
ATOM     67  C   UNL A   1      34.083  35.153  31.707  1.00  0.00     0.054 A 
BRANCH  67  68
ATOM     68  S   UNL A   1      32.558  35.998  32.203  1.00  0.00     0.124 S 
ATOM     69  O   UNL A   1      33.023  36.892  33.259  1.00  0.00    -0.237 OA
ATOM     70  O   UNL A   1      32.143  36.647  30.964  1.00  0.00    -0.237 OA
ATOM     71  O   UNL A   1      31.691  34.911  32.654  1.00  0.00    -0.744 OA
ENDBRANCH  67  68
ENDBRANCH  48  62
BRANCH  49  72
ATOM     72  C   UNL A   1      44.565  29.029  28.469  1.00  0.00    -0.014 A 
ATOM     73  C   UNL A   1      44.103  29.218  27.149  1.00  0.00     0.010 A 
ATOM     74  C   UNL A   1      45.617  28.123  28.690  1.00  0.00     0.010 A 
ATOM     75  C   UNL A   1      44.759  28.624  26.067  1.00  0.00     0.020 A 
ATOM     76  C   UNL A   1      46.279  27.528  27.604  1.00  0.00     0.020 A 
ATOM     77  C   UNL A   1      45.875  27.821  26.299  1.00  0.00     0.054 A 
BRANCH  77  78
ATOM     78  S   UNL A   1      46.897  27.336  24.871  1.00  0.00     0.124 S 
ATOM     79  O   UNL A   1      48.243  27.381  25.429  1.00  0.00    -0.237 OA
ATOM     80  O   UNL A   1      46.392  25.996  24.568  1.00  0.00    -0.237 OA
ATOM     81  O   UNL A   1      46.583  28.356  23.878  1.00  0.00    -0.744 OA
ENDBRANCH  77  78
ENDBRANCH  49  72
BRANCH  61  82
ATOM     82  C   UNL A   1      42.560  35.996  28.764  1.00  0.00    -0.014 A 
ATOM     83  C   UNL A   1      43.288  37.026  29.379  1.00  0.00     0.010 A 
ATOM     84  C   UNL A   1      42.018  36.276  27.484  1.00  0.00     0.010 A 
ATOM     85  C   UNL A   1      43.406  38.291  28.785  1.00  0.00     0.020 A 
ATOM     86  C   UNL A   1      42.176  37.516  26.859  1.00  0.00     0.020 A 
ATOM     87  C   UNL A   1      42.846  38.528  27.530  1.00  0.00     0.054 A 
BRANCH  87  88
ATOM     88  S   UNL A   1      43.055  40.149  26.753  1.00  0.00     0.124 S 
ATOM     89  O   UNL A   1      41.740  40.365  26.154  1.00  0.00    -0.237 OA
ATOM     90  O   UNL A   1      43.377  41.016  27.885  1.00  0.00    -0.237 OA
ATOM     91  O   UNL A   1      44.148  39.939  25.807  1.00  0.00    -0.744 OA
ENDBRANCH  87  88
ENDBRANCH  61  82
ENDBRANCH  35  36
ENDBRANCH  27  30
ENDBRANCH  25  26
ENDBRANCH  24  25
ENDBRANCH   1  24
TORSDOF 19
ENDMDL
MODEL 3
REMARK VINA RESULT:     -11.5      1.398      2.019
REMARK SMILES Cc1ccc([C@H](C)[N@H+](CC(=O)NCCCCNC(=O)c2ccc(-c3c4nc(c(-c5ccc(S(=O)(=O)[O-])cc5)c5ccc([nH]5)c(-c5ccc(S(=O)(=O)[O-])cc5)c5nc(c(-c6ccc(S(=O)(=O)[O-])cc6)c6ccc3[nH]6)C=C5)C=C4)cc2)CC(F)(F)F)cc1
REMARK SMILES IDX 14 1 13 2 12 3 10 4 11 5 9 7 8 8 6 10 7 11 5 12 1 13 2 14
REMARK SMILES IDX 3 15 86 16 4 17 85 18 80 19 81 20 82 21 83 22 84 23 15 24
REMARK SMILES IDX 16 25 17 26 18 27 19 29 20 30 21 31 79 32 22 33 78 34 23 35
REMARK SMILES IDX 24 36 25 37 72 38 26 39 77 40 71 41 73 42 27 43 76 44 70 45
REMARK SMILES IDX 69 46 28 48 58 49 39 50 57 51 40 52 43 53 56 54 74 55 41 56
REMARK SMILES IDX 42 57 55 59 75 60 44 61 29 62 30 63 38 64 31 65 37 66 32 67
REMARK SMILES IDX 33 68 34 69 35 70 36 71 59 72 60 73 68 74 61 75 67 76 62 77
REMARK SMILES IDX 63 78 64 79 65 80 66 81 45 82 46 83 54 84 47 85 53 86 48 87
REMARK SMILES IDX 49 88 50 89 51 90 52 91
REMARK H PARENT 12 6 8 9 17 28 73 47 43 58
REMARK Flexibility Score: inf
ROOT
ATOM      1  C   UNL A   1      37.157  21.329  25.291  1.00  0.00     0.023 C 
ENDROOT
BRANCH   1   2
ATOM      2  C   UNL A   1      35.679  21.122  25.662  1.00  0.00     0.116 C 
BRANCH   2   3
ATOM      3  N   UNL A   1      35.074  21.741  26.832  1.00  0.00    -0.351 N 
ATOM      4  C   UNL A   1      34.103  22.702  26.970  1.00  0.00     0.275 C 
ATOM      5  O   UNL A   1      33.371  22.629  27.965  1.00  0.00    -0.269 OA
ATOM      6  H   UNL A   1      35.428  21.408  27.688  1.00  0.00     0.163 HD
BRANCH   4   7
ATOM      7  C   UNL A   1      33.999  23.924  26.031  1.00  0.00     0.364 C 
BRANCH   7   8
ATOM      8  N   UNL A   1      32.887  23.691  25.068  1.00  0.00    -0.314 N 
ATOM      9  H   UNL A   1      32.198  23.113  25.549  1.00  0.00     0.349 HD
BRANCH   8  10
ATOM     10  C   UNL A   1      32.201  24.947  24.744  1.00  0.00     0.212 C 
ATOM     11  C   UNL A   1      30.726  24.835  24.323  1.00  0.00     0.081 C 
BRANCH  10  12
ATOM     12  C   UNL A   1      32.607  26.105  25.648  1.00  0.00     0.009 A 
ATOM     13  C   UNL A   1      33.260  30.033  27.323  1.00  0.00     0.044 C 
ATOM     14  C   UNL A   1      33.106  28.629  26.826  1.00  0.00    -0.051 A 
ATOM     15  C   UNL A   1      33.935  28.157  25.815  1.00  0.00     0.004 A 
ATOM     16  C   UNL A   1      32.080  27.801  27.301  1.00  0.00     0.004 A 
ATOM     17  C   UNL A   1      33.705  26.902  25.263  1.00  0.00     0.010 A 
ATOM     18  C   UNL A   1      31.829  26.550  26.718  1.00  0.00     0.010 A 
ENDBRANCH  10  12
ENDBRANCH   8  10
BRANCH   8  19
ATOM     19  C   UNL A   1      33.212  22.820  23.926  1.00  0.00     0.380 C 
BRANCH  19  20
ATOM     20  C   UNL A   1      34.141  23.366  22.808  1.00  0.00     0.438 C 
ATOM     21  F   UNL A   1      35.340  22.747  22.774  1.00  0.00    -0.165 F 
ATOM     22  F   UNL A   1      33.569  23.147  21.595  1.00  0.00    -0.165 F 
ATOM     23  F   UNL A   1      34.356  24.694  22.907  1.00  0.00    -0.165 F 
ENDBRANCH  19  20
ENDBRANCH   8  19
ENDBRANCH   7   8
ENDBRANCH   4   7
ENDBRANCH   2   3
ENDBRANCH   1   2
BRANCH   1  24
ATOM     24  C   UNL A   1      37.837  22.699  25.136  1.00  0.00     0.023 C 
BRANCH  24  25
ATOM     25  C   UNL A   1      37.978  23.612  26.346  1.00  0.00     0.116 C 
BRANCH  25  26
ATOM     26  N   UNL A   1      39.265  23.378  27.031  1.00  0.00    -0.352 N 
ATOM     27  C   UNL A   1      40.108  24.285  27.658  1.00  0.00     0.251 C 
ATOM     28  H   UNL A   1      39.570  22.441  27.045  1.00  0.00     0.163 HD
ATOM     29  O   UNL A   1      41.178  24.014  28.137  1.00  0.00    -0.269 OA
BRANCH  27  30
ATOM     30  C   UNL A   1      39.559  25.644  27.768  1.00  0.00     0.039 A 
ATOM     31  C   UNL A   1      40.173  26.625  26.979  1.00  0.00     0.014 A 
ATOM     32  C   UNL A   1      38.835  25.942  28.918  1.00  0.00     0.014 A 
ATOM     33  C   UNL A   1      40.246  27.917  27.469  1.00  0.00     0.010 A 
ATOM     34  C   UNL A   1      38.960  27.213  29.429  1.00  0.00     0.010 A 
ATOM     35  C   UNL A   1      39.726  28.165  28.738  1.00  0.00    -0.014 A 
BRANCH  35  36
ATOM     36  C   UNL A   1      39.976  29.399  29.460  1.00  0.00     0.031 A 
ATOM     37  C   UNL A   1      38.951  30.454  29.389  1.00  0.00     0.074 A 
ATOM     38  C   UNL A   1      41.087  29.514  30.219  1.00  0.00     0.049 A 
ATOM     39  N   UNL A   1      39.163  31.702  29.618  1.00  0.00    -0.248 NA
ATOM     40  C   UNL A   1      37.585  30.166  28.960  1.00  0.00     0.031 C 
ATOM     41  C   UNL A   1      41.382  30.556  31.199  1.00  0.00     0.029 A 
ATOM     42  N   UNL A   1      42.298  28.824  30.083  1.00  0.00    -0.354 N 
ATOM     43  C   UNL A   1      37.930  32.314  29.681  1.00  0.00     0.074 A 
ATOM     44  C   UNL A   1      36.999  31.349  29.150  1.00  0.00     0.031 C 
ATOM     45  C   UNL A   1      42.716  30.638  31.344  1.00  0.00     0.029 A 
ATOM     46  C   UNL A   1      43.305  29.771  30.334  1.00  0.00     0.049 A 
ATOM     47  H   UNL A   1      42.419  27.874  29.858  1.00  0.00     0.167 HD
ATOM     48  C   UNL A   1      37.814  33.504  30.334  1.00  0.00     0.031 A 
ATOM     49  C   UNL A   1      44.201  30.180  29.387  1.00  0.00     0.031 A 
ATOM     50  C   UNL A   1      39.132  34.026  30.695  1.00  0.00     0.049 A 
ATOM     51  C   UNL A   1      44.123  31.673  29.132  1.00  0.00     0.074 A 
ATOM     52  C   UNL A   1      39.866  33.988  31.870  1.00  0.00     0.029 A 
ATOM     53  N   UNL A   1      40.021  34.373  29.683  1.00  0.00    -0.354 N 
ATOM     54  N   UNL A   1      43.074  32.405  29.394  1.00  0.00    -0.248 NA
ATOM     55  C   UNL A   1      45.217  32.451  28.558  1.00  0.00     0.031 C 
ATOM     56  C   UNL A   1      41.230  34.196  31.533  1.00  0.00     0.029 A 
ATOM     57  C   UNL A   1      41.316  34.406  30.168  1.00  0.00     0.049 A 
ATOM     58  H   UNL A   1      39.765  34.566  28.752  1.00  0.00     0.167 HD
ATOM     59  C   UNL A   1      43.336  33.714  29.077  1.00  0.00     0.074 A 
ATOM     60  C   UNL A   1      44.691  33.689  28.552  1.00  0.00     0.031 C 
ATOM     61  C   UNL A   1      42.429  34.716  29.278  1.00  0.00     0.031 A 
BRANCH  48  62
ATOM     62  C   UNL A   1      36.511  34.012  30.919  1.00  0.00    -0.014 A 
ATOM     63  C   UNL A   1      35.357  34.049  30.108  1.00  0.00     0.010 A 
ATOM     64  C   UNL A   1      36.365  34.545  32.215  1.00  0.00     0.010 A 
ATOM     65  C   UNL A   1      34.163  34.658  30.533  1.00  0.00     0.020 A 
ATOM     66  C   UNL A   1      35.192  35.184  32.643  1.00  0.00     0.020 A 
ATOM     67  C   UNL A   1      34.097  35.246  31.793  1.00  0.00     0.054 A 
BRANCH  67  68
ATOM     68  S   UNL A   1      32.573  36.079  32.309  1.00  0.00     0.124 S 
ATOM     69  O   UNL A   1      33.027  36.904  33.424  1.00  0.00    -0.237 OA
ATOM     70  O   UNL A   1      32.189  36.804  31.102  1.00  0.00    -0.237 OA
ATOM     71  O   UNL A   1      31.684  34.978  32.680  1.00  0.00    -0.744 OA
ENDBRANCH  67  68
ENDBRANCH  48  62
BRANCH  49  72
ATOM     72  C   UNL A   1      44.536  29.160  28.353  1.00  0.00    -0.014 A 
ATOM     73  C   UNL A   1      44.845  27.853  28.784  1.00  0.00     0.010 A 
ATOM     74  C   UNL A   1      44.191  29.360  27.004  1.00  0.00     0.010 A 
ATOM     75  C   UNL A   1      44.683  26.758  27.930  1.00  0.00     0.020 A 
ATOM     76  C   UNL A   1      44.025  28.261  26.146  1.00  0.00     0.020 A 
ATOM     77  C   UNL A   1      44.226  26.965  26.629  1.00  0.00     0.054 A 
BRANCH  77  78
ATOM     78  S   UNL A   1      43.713  25.513  25.656  1.00  0.00     0.124 S 
ATOM     79  O   UNL A   1      44.829  25.356  24.730  1.00  0.00    -0.237 OA
ATOM     80  O   UNL A   1      43.601  24.475  26.681  1.00  0.00    -0.237 OA
ATOM     81  O   UNL A   1      42.450  25.941  25.065  1.00  0.00    -0.744 OA
ENDBRANCH  77  78
ENDBRANCH  49  72
BRANCH  61  82
ATOM     82  C   UNL A   1      42.536  36.124  28.739  1.00  0.00    -0.014 A 
ATOM     83  C   UNL A   1      43.177  37.178  29.408  1.00  0.00     0.010 A 
ATOM     84  C   UNL A   1      42.085  36.388  27.420  1.00  0.00     0.010 A 
ATOM     85  C   UNL A   1      43.296  38.448  28.825  1.00  0.00     0.020 A 
ATOM     86  C   UNL A   1      42.246  37.634  26.809  1.00  0.00     0.020 A 
ATOM     87  C   UNL A   1      42.826  38.668  27.530  1.00  0.00     0.054 A 
BRANCH  87  88
ATOM     88  S   UNL A   1      43.035  40.298  26.771  1.00  0.00     0.124 S 
ATOM     89  O   UNL A   1      41.684  40.580  26.293  1.00  0.00    -0.237 OA
ATOM     90  O   UNL A   1      43.489  41.123  27.888  1.00  0.00    -0.237 OA
ATOM     91  O   UNL A   1      44.033  40.066  25.730  1.00  0.00    -0.744 OA
ENDBRANCH  87  88
ENDBRANCH  61  82
ENDBRANCH  35  36
ENDBRANCH  27  30
ENDBRANCH  25  26
ENDBRANCH  24  25
ENDBRANCH   1  24
TORSDOF 19
ENDMDL
