MODEL 1
REMARK VINA RESULT:      -9.8      0.000      0.000
REMARK SMILES C=C(C)C[N@@H+]1CC[C@H](C(=O)NCCCCNC(=O)c2ccc(-c3c4nc(c(-c5ccc(S(=O)(=O)[O-])cc5)c5ccc([nH]5)c(-c5ccc(S(=O)(=O)[O-])cc5)c5nc(c(-c6ccc(S(=O)(=O)[O-])cc6)c6ccc3[nH]6)C=C5)C=C4)cc2)[C@H]1C
REMARK SMILES IDX 14 1 13 2 12 3 11 4 9 5 10 6 8 8 5 9 6 10 79 11 7 13 80 14
REMARK SMILES IDX 4 15 2 16 1 17 3 18 15 19 16 20 17 21 18 23 19 24 20 25
REMARK SMILES IDX 78 26 21 27 77 28 22 29 23 30 24 31 71 32 25 33 76 34 70 35
REMARK SMILES IDX 72 36 26 37 75 38 69 39 68 40 27 42 57 43 38 44 56 45 39 46
REMARK SMILES IDX 42 47 55 48 73 49 40 50 41 51 54 53 74 54 43 55 28 56 29 57
REMARK SMILES IDX 37 58 30 59 36 60 31 61 32 62 33 63 34 64 35 65 58 66 59 67
REMARK SMILES IDX 67 68 60 69 66 70 61 71 62 72 63 73 64 74 65 75 44 76 45 77
REMARK SMILES IDX 53 78 46 79 52 80 47 81 48 82 49 83 50 84 51 85
REMARK H PARENT 11 7 5 12 16 22 72 41 42 52
REMARK Flexibility Score: inf
ROOT
ATOM      1  C   UNL A   1      33.087  28.115  25.606  1.00  0.00     0.023 C 
ENDROOT
BRANCH   1   2
ATOM      2  C   UNL A   1      31.696  27.493  25.525  1.00  0.00     0.023 C 
BRANCH   2   3
ATOM      3  C   UNL A   1      31.293  26.986  24.146  1.00  0.00     0.116 C 
BRANCH   3   4
ATOM      4  N   UNL A   1      32.400  26.872  23.224  1.00  0.00    -0.356 N 
ATOM      5  C   UNL A   1      33.257  25.858  22.945  1.00  0.00     0.229 C 
ATOM      6  O   UNL A   1      34.009  26.041  21.978  1.00  0.00    -0.275 OA
ATOM      7  H   UNL A   1      32.565  27.687  22.697  1.00  0.00     0.163 HD
BRANCH   5   8
ATOM      8  C   UNL A   1      33.437  24.589  23.783  1.00  0.00     0.142 C 
ATOM      9  N   UNL A   1      35.393  23.469  24.636  1.00  0.00    -0.329 N 
ATOM     10  C   UNL A   1      35.239  23.119  23.220  1.00  0.00     0.263 C 
ATOM     11  C   UNL A   1      34.457  24.581  24.933  1.00  0.00     0.193 C 
ATOM     12  H   UNL A   1      35.143  22.695  25.252  1.00  0.00     0.348 HD
ATOM     13  C   UNL A   1      33.783  23.384  22.921  1.00  0.00     0.081 C 
ATOM     14  C   UNL A   1      33.750  24.289  26.263  1.00  0.00     0.076 C 
BRANCH   9  15
ATOM     15  C   UNL A   1      36.803  23.737  24.948  1.00  0.00     0.293 C 
BRANCH  15  16
ATOM     16  C   UNL A   1      37.519  22.565  25.566  1.00  0.00    -0.026 C 
ATOM     17  C   UNL A   1      38.725  22.690  26.146  1.00  0.00     0.013 C 
ATOM     18  C   UNL A   1      36.822  21.240  25.463  1.00  0.00     0.045 C 
ENDBRANCH  15  16
ENDBRANCH   9  15
ENDBRANCH   5   8
ENDBRANCH   3   4
ENDBRANCH   2   3
ENDBRANCH   1   2
BRANCH   1  19
ATOM     19  C   UNL A   1      33.604  28.391  27.013  1.00  0.00     0.116 C 
BRANCH  19  20
ATOM     20  N   UNL A   1      33.466  29.777  27.438  1.00  0.00    -0.352 N 
ATOM     21  C   UNL A   1      34.405  30.573  28.053  1.00  0.00     0.251 C 
ATOM     22  H   UNL A   1      32.593  30.197  27.264  1.00  0.00     0.163 HD
ATOM     23  O   UNL A   1      34.113  31.705  28.424  1.00  0.00    -0.269 OA
BRANCH  21  24
ATOM     24  C   UNL A   1      35.757  30.027  28.301  1.00  0.00     0.039 A 
ATOM     25  C   UNL A   1      36.705  30.075  27.277  1.00  0.00     0.014 A 
ATOM     26  C   UNL A   1      36.099  29.529  29.561  1.00  0.00     0.014 A 
ATOM     27  C   UNL A   1      38.020  29.688  27.540  1.00  0.00     0.010 A 
ATOM     28  C   UNL A   1      37.426  29.223  29.842  1.00  0.00     0.010 A 
ATOM     29  C   UNL A   1      38.399  29.293  28.834  1.00  0.00    -0.014 A 
BRANCH  29  30
ATOM     30  C   UNL A   1      39.805  28.933  29.149  1.00  0.00     0.031 A 
ATOM     31  C   UNL A   1      40.708  29.941  29.806  1.00  0.00     0.074 A 
ATOM     32  C   UNL A   1      40.285  27.726  28.788  1.00  0.00     0.049 A 
ATOM     33  N   UNL A   1      41.973  29.832  30.123  1.00  0.00    -0.248 NA
ATOM     34  C   UNL A   1      40.123  31.255  30.119  1.00  0.00     0.031 C 
ATOM     35  C   UNL A   1      39.526  26.684  28.091  1.00  0.00     0.029 A 
ATOM     36  N   UNL A   1      41.530  27.172  28.955  1.00  0.00    -0.354 N 
ATOM     37  C   UNL A   1      42.337  31.065  30.650  1.00  0.00     0.074 A 
ATOM     38  C   UNL A   1      41.178  31.925  30.558  1.00  0.00     0.031 C 
ATOM     39  C   UNL A   1      40.313  25.607  27.920  1.00  0.00     0.029 A 
ATOM     40  C   UNL A   1      41.636  25.891  28.465  1.00  0.00     0.049 A 
ATOM     41  H   UNL A   1      42.276  27.648  29.384  1.00  0.00     0.167 HD
ATOM     42  C   UNL A   1      43.522  31.444  31.185  1.00  0.00     0.031 A 
ATOM     43  C   UNL A   1      42.680  25.040  28.462  1.00  0.00     0.031 A 
ATOM     44  C   UNL A   1      44.665  30.580  31.298  1.00  0.00     0.049 A 
ATOM     45  C   UNL A   1      43.976  25.470  29.095  1.00  0.00     0.074 A 
ATOM     46  C   UNL A   1      45.892  30.846  31.880  1.00  0.00     0.029 A 
ATOM     47  N   UNL A   1      44.720  29.278  30.824  1.00  0.00    -0.354 N 
ATOM     48  N   UNL A   1      44.280  26.619  29.651  1.00  0.00    -0.248 NA
ATOM     49  C   UNL A   1      45.062  24.481  29.118  1.00  0.00     0.031 C 
ATOM     50  C   UNL A   1      46.703  29.716  31.725  1.00  0.00     0.029 A 
ATOM     51  C   UNL A   1      45.963  28.730  31.091  1.00  0.00     0.049 A 
ATOM     52  H   UNL A   1      43.984  28.812  30.367  1.00  0.00     0.167 HD
ATOM     53  C   UNL A   1      45.582  26.480  30.116  1.00  0.00     0.074 A 
ATOM     54  C   UNL A   1      46.003  25.133  29.789  1.00  0.00     0.031 C 
ATOM     55  C   UNL A   1      46.361  27.385  30.759  1.00  0.00     0.031 A 
BRANCH  42  56
ATOM     56  C   UNL A   1      43.632  32.858  31.692  1.00  0.00    -0.014 A 
ATOM     57  C   UNL A   1      43.313  33.177  33.024  1.00  0.00     0.010 A 
ATOM     58  C   UNL A   1      44.080  33.878  30.833  1.00  0.00     0.010 A 
ATOM     59  C   UNL A   1      43.393  34.497  33.476  1.00  0.00     0.020 A 
ATOM     60  C   UNL A   1      44.190  35.195  31.288  1.00  0.00     0.020 A 
ATOM     61  C   UNL A   1      43.826  35.499  32.603  1.00  0.00     0.054 A 
BRANCH  61  62
ATOM     62  S   UNL A   1      43.934  37.202  33.218  1.00  0.00     0.124 S 
ATOM     63  O   UNL A   1      43.878  37.972  31.978  1.00  0.00    -0.237 OA
ATOM     64  O   UNL A   1      42.757  37.309  34.077  1.00  0.00    -0.237 OA
ATOM     65  O   UNL A   1      45.217  37.237  33.916  1.00  0.00    -0.744 OA
ENDBRANCH  61  62
ENDBRANCH  42  56
BRANCH  43  66
ATOM     66  C   UNL A   1      42.530  23.681  27.874  1.00  0.00    -0.014 A 
ATOM     67  C   UNL A   1      42.214  22.582  28.692  1.00  0.00     0.010 A 
ATOM     68  C   UNL A   1      42.688  23.480  26.491  1.00  0.00     0.010 A 
ATOM     69  C   UNL A   1      42.079  21.304  28.142  1.00  0.00     0.020 A 
ATOM     70  C   UNL A   1      42.527  22.209  25.933  1.00  0.00     0.020 A 
ATOM     71  C   UNL A   1      42.235  21.126  26.764  1.00  0.00     0.054 A 
BRANCH  71  72
ATOM     72  S   UNL A   1      42.000  19.468  26.064  1.00  0.00     0.124 S 
ATOM     73  O   UNL A   1      42.833  19.524  24.866  1.00  0.00    -0.237 OA
ATOM     74  O   UNL A   1      42.487  18.601  27.134  1.00  0.00    -0.237 OA
ATOM     75  O   UNL A   1      40.561  19.400  25.825  1.00  0.00    -0.744 OA
ENDBRANCH  71  72
ENDBRANCH  43  66
BRANCH  55  76
ATOM     76  C   UNL A   1      47.732  26.936  31.187  1.00  0.00    -0.014 A 
ATOM     77  C   UNL A   1      47.953  26.380  32.460  1.00  0.00     0.010 A 
ATOM     78  C   UNL A   1      48.805  27.032  30.283  1.00  0.00     0.010 A 
ATOM     79  C   UNL A   1      49.234  25.965  32.833  1.00  0.00     0.020 A 
ATOM     80  C   UNL A   1      50.080  26.593  30.643  1.00  0.00     0.020 A 
ATOM     81  C   UNL A   1      50.290  26.078  31.924  1.00  0.00     0.054 A 
BRANCH  81  82
ATOM     82  S   UNL A   1      51.938  25.506  32.420  1.00  0.00     0.124 S 
ATOM     83  O   UNL A   1      51.981  25.890  33.827  1.00  0.00    -0.237 OA
ATOM     84  O   UNL A   1      51.871  24.069  32.162  1.00  0.00    -0.237 OA
ATOM     85  O   UNL A   1      52.841  26.247  31.541  1.00  0.00    -0.744 OA
ENDBRANCH  81  82
ENDBRANCH  55  76
ENDBRANCH  29  30
ENDBRANCH  21  24
ENDBRANCH  19  20
ENDBRANCH   1  19
TORSDOF 16
ENDMDL
MODEL 2
REMARK VINA RESULT:      -9.8      1.264      2.031
REMARK SMILES C=C(C)C[N@@H+]1CC[C@H](C(=O)NCCCCNC(=O)c2ccc(-c3c4nc(c(-c5ccc(S(=O)(=O)[O-])cc5)c5ccc([nH]5)c(-c5ccc(S(=O)(=O)[O-])cc5)c5nc(c(-c6ccc(S(=O)(=O)[O-])cc6)c6ccc3[nH]6)C=C5)C=C4)cc2)[C@H]1C
REMARK SMILES IDX 14 1 13 2 12 3 11 4 9 5 10 6 8 8 5 9 6 10 79 11 7 13 80 14
REMARK SMILES IDX 4 15 2 16 1 17 3 18 15 19 16 20 17 21 18 23 19 24 20 25
REMARK SMILES IDX 78 26 21 27 77 28 22 29 23 30 24 31 71 32 25 33 76 34 70 35
REMARK SMILES IDX 72 36 26 37 75 38 69 39 68 40 27 42 57 43 38 44 56 45 39 46
REMARK SMILES IDX 42 47 55 48 73 49 40 50 41 51 54 53 74 54 43 55 28 56 29 57
REMARK SMILES IDX 37 58 30 59 36 60 31 61 32 62 33 63 34 64 35 65 58 66 59 67
REMARK SMILES IDX 67 68 60 69 66 70 61 71 62 72 63 73 64 74 65 75 44 76 45 77
REMARK SMILES IDX 53 78 46 79 52 80 47 81 48 82 49 83 50 84 51 85
REMARK H PARENT 11 7 5 12 16 22 72 41 42 52
REMARK Flexibility Score: inf
ROOT
ATOM      1  C   UNL A   1      33.741  28.067  25.723  1.00  0.00     0.023 C 
ENDROOT
BRANCH   1   2
ATOM      2  C   UNL A   1      32.530  27.467  25.015  1.00  0.00     0.023 C 
BRANCH   2   3
ATOM      3  C   UNL A   1      32.633  25.979  24.705  1.00  0.00     0.116 C 
BRANCH   3   4
ATOM      4  N   UNL A   1      31.854  25.147  25.593  1.00  0.00    -0.356 N 
ATOM      5  C   UNL A   1      32.205  24.260  26.558  1.00  0.00     0.229 C 
ATOM      6  O   UNL A   1      31.274  23.820  27.247  1.00  0.00    -0.275 OA
ATOM      7  H   UNL A   1      30.881  25.241  25.475  1.00  0.00     0.163 HD
BRANCH   5   8
ATOM      8  C   UNL A   1      33.610  23.693  26.777  1.00  0.00     0.142 C 
ATOM      9  N   UNL A   1      34.723  21.734  25.921  1.00  0.00    -0.329 N 
ATOM     10  C   UNL A   1      33.839  21.324  27.016  1.00  0.00     0.263 C 
ATOM     11  C   UNL A   1      34.397  23.140  25.577  1.00  0.00     0.193 C 
ATOM     12  H   UNL A   1      35.706  21.713  26.192  1.00  0.00     0.348 HD
ATOM     13  C   UNL A   1      33.619  22.584  27.818  1.00  0.00     0.081 C 
ATOM     14  C   UNL A   1      35.706  23.921  25.400  1.00  0.00     0.076 C 
BRANCH   9  15
ATOM     15  C   UNL A   1      34.636  20.781  24.807  1.00  0.00     0.293 C 
BRANCH  15  16
ATOM     16  C   UNL A   1      33.234  20.568  24.300  1.00  0.00    -0.026 C 
ATOM     17  C   UNL A   1      32.573  21.513  23.610  1.00  0.00     0.013 C 
ATOM     18  C   UNL A   1      32.605  19.249  24.643  1.00  0.00     0.045 C 
ENDBRANCH  15  16
ENDBRANCH   9  15
ENDBRANCH   5   8
ENDBRANCH   3   4
ENDBRANCH   2   3
ENDBRANCH   1   2
BRANCH   1  19
ATOM     19  C   UNL A   1      33.570  28.327  27.215  1.00  0.00     0.116 C 
BRANCH  19  20
ATOM     20  N   UNL A   1      33.465  29.737  27.567  1.00  0.00    -0.352 N 
ATOM     21  C   UNL A   1      34.441  30.557  28.085  1.00  0.00     0.251 C 
ATOM     22  H   UNL A   1      32.587  30.154  27.415  1.00  0.00     0.163 HD
ATOM     23  O   UNL A   1      34.176  31.711  28.405  1.00  0.00    -0.269 OA
BRANCH  21  24
ATOM     24  C   UNL A   1      35.800  30.011  28.292  1.00  0.00     0.039 A 
ATOM     25  C   UNL A   1      36.727  30.089  27.252  1.00  0.00     0.014 A 
ATOM     26  C   UNL A   1      36.169  29.486  29.533  1.00  0.00     0.014 A 
ATOM     27  C   UNL A   1      38.049  29.703  27.479  1.00  0.00     0.010 A 
ATOM     28  C   UNL A   1      37.503  29.180  29.781  1.00  0.00     0.010 A 
ATOM     29  C   UNL A   1      38.455  29.278  28.756  1.00  0.00    -0.014 A 
BRANCH  29  30
ATOM     30  C   UNL A   1      39.868  28.918  29.034  1.00  0.00     0.031 A 
ATOM     31  C   UNL A   1      40.795  29.932  29.648  1.00  0.00     0.074 A 
ATOM     32  C   UNL A   1      40.334  27.703  28.677  1.00  0.00     0.049 A 
ATOM     33  N   UNL A   1      42.068  29.824  29.928  1.00  0.00    -0.248 NA
ATOM     34  C   UNL A   1      40.223  31.253  29.959  1.00  0.00     0.031 C 
ATOM     35  C   UNL A   1      39.551  26.654  28.018  1.00  0.00     0.029 A 
ATOM     36  N   UNL A   1      41.581  27.148  28.815  1.00  0.00    -0.354 N 
ATOM     37  C   UNL A   1      42.452  31.063  30.425  1.00  0.00     0.074 A 
ATOM     38  C   UNL A   1      41.293  31.926  30.356  1.00  0.00     0.031 C 
ATOM     39  C   UNL A   1      40.329  25.572  27.840  1.00  0.00     0.029 A 
ATOM     40  C   UNL A   1      41.669  25.860  28.342  1.00  0.00     0.049 A 
ATOM     41  H   UNL A   1      42.342  27.628  29.215  1.00  0.00     0.167 HD
ATOM     42  C   UNL A   1      43.653  31.446  30.919  1.00  0.00     0.031 A 
ATOM     43  C   UNL A   1      42.709  25.004  28.320  1.00  0.00     0.031 A 
ATOM     44  C   UNL A   1      44.797  30.579  31.011  1.00  0.00     0.049 A 
ATOM     45  C   UNL A   1      44.025  25.440  28.907  1.00  0.00     0.074 A 
ATOM     46  C   UNL A   1      46.041  30.850  31.552  1.00  0.00     0.029 A 
ATOM     47  N   UNL A   1      44.833  29.270  30.556  1.00  0.00    -0.354 N 
ATOM     48  N   UNL A   1      44.349  26.595  29.437  1.00  0.00    -0.248 NA
ATOM     49  C   UNL A   1      45.109  24.447  28.913  1.00  0.00     0.031 C 
ATOM     50  C   UNL A   1      46.843  29.714  31.390  1.00  0.00     0.029 A 
ATOM     51  C   UNL A   1      46.081  28.722  30.793  1.00  0.00     0.049 A 
ATOM     52  H   UNL A   1      44.082  28.800  30.127  1.00  0.00     0.167 HD
ATOM     53  C   UNL A   1      45.665  26.459  29.865  1.00  0.00     0.074 A 
ATOM     54  C   UNL A   1      46.071  25.105  29.546  1.00  0.00     0.031 C 
ATOM     55  C   UNL A   1      46.465  27.371  30.470  1.00  0.00     0.031 A 
BRANCH  42  56
ATOM     56  C   UNL A   1      43.783  32.867  31.401  1.00  0.00    -0.014 A 
ATOM     57  C   UNL A   1      43.524  33.204  32.742  1.00  0.00     0.010 A 
ATOM     58  C   UNL A   1      44.188  33.875  30.508  1.00  0.00     0.010 A 
ATOM     59  C   UNL A   1      43.622  34.530  33.171  1.00  0.00     0.020 A 
ATOM     60  C   UNL A   1      44.316  35.199  30.940  1.00  0.00     0.020 A 
ATOM     61  C   UNL A   1      44.011  35.521  32.266  1.00  0.00     0.054 A 
BRANCH  61  62
ATOM     62  S   UNL A   1      44.144  37.232  32.851  1.00  0.00     0.124 S 
ATOM     63  O   UNL A   1      45.475  37.241  33.452  1.00  0.00    -0.237 OA
ATOM     64  O   UNL A   1      44.006  38.005  31.619  1.00  0.00    -0.237 OA
ATOM     65  O   UNL A   1      43.034  37.363  33.793  1.00  0.00    -0.744 OA
ENDBRANCH  61  62
ENDBRANCH  42  56
BRANCH  43  66
ATOM     66  C   UNL A   1      42.538  23.637  27.758  1.00  0.00    -0.014 A 
ATOM     67  C   UNL A   1      42.879  23.370  26.420  1.00  0.00     0.010 A 
ATOM     68  C   UNL A   1      42.046  22.592  28.560  1.00  0.00     0.010 A 
ATOM     69  C   UNL A   1      42.713  22.087  25.890  1.00  0.00     0.020 A 
ATOM     70  C   UNL A   1      41.903  21.303  28.040  1.00  0.00     0.020 A 
ATOM     71  C   UNL A   1      42.227  21.060  26.704  1.00  0.00     0.054 A 
BRANCH  71  72
ATOM     72  S   UNL A   1      42.071  19.391  26.009  1.00  0.00     0.124 S 
ATOM     73  O   UNL A   1      42.577  18.561  27.098  1.00  0.00    -0.237 OA
ATOM     74  O   UNL A   1      40.638  19.289  25.748  1.00  0.00    -0.237 OA
ATOM     75  O   UNL A   1      42.911  19.440  24.815  1.00  0.00    -0.744 OA
ENDBRANCH  71  72
ENDBRANCH  43  66
BRANCH  55  76
ATOM     76  C   UNL A   1      47.847  26.923  30.864  1.00  0.00    -0.014 A 
ATOM     77  C   UNL A   1      48.947  27.110  30.009  1.00  0.00     0.010 A 
ATOM     78  C   UNL A   1      48.051  26.343  32.130  1.00  0.00     0.010 A 
ATOM     79  C   UNL A   1      50.221  26.690  30.399  1.00  0.00     0.020 A 
ATOM     80  C   UNL A   1      49.327  25.948  32.533  1.00  0.00     0.020 A 
ATOM     81  C   UNL A   1      50.402  26.108  31.657  1.00  0.00     0.054 A 
BRANCH  81  82
ATOM     82  S   UNL A   1      52.070  25.597  32.153  1.00  0.00     0.124 S 
ATOM     83  O   UNL A   1      52.307  26.435  33.323  1.00  0.00    -0.237 OA
ATOM     84  O   UNL A   1      51.903  24.171  32.425  1.00  0.00    -0.237 OA
ATOM     85  O   UNL A   1      52.890  25.907  30.984  1.00  0.00    -0.744 OA
ENDBRANCH  81  82
ENDBRANCH  55  76
ENDBRANCH  29  30
ENDBRANCH  21  24
ENDBRANCH  19  20
ENDBRANCH   1  19
TORSDOF 16
ENDMDL
MODEL 3
REMARK VINA RESULT:      -9.6      2.900      3.656
REMARK SMILES C=C(C)C[N@@H+]1CC[C@H](C(=O)NCCCCNC(=O)c2ccc(-c3c4nc(c(-c5ccc(S(=O)(=O)[O-])cc5)c5ccc([nH]5)c(-c5ccc(S(=O)(=O)[O-])cc5)c5nc(c(-c6ccc(S(=O)(=O)[O-])cc6)c6ccc3[nH]6)C=C5)C=C4)cc2)[C@H]1C
REMARK SMILES IDX 14 1 13 2 12 3 11 4 9 5 10 6 8 8 5 9 6 10 79 11 7 13 80 14
REMARK SMILES IDX 4 15 2 16 1 17 3 18 15 19 16 20 17 21 18 23 19 24 20 25
REMARK SMILES IDX 78 26 21 27 77 28 22 29 23 30 24 31 71 32 25 33 76 34 70 35
REMARK SMILES IDX 72 36 26 37 75 38 69 39 68 40 27 42 57 43 38 44 56 45 39 46
REMARK SMILES IDX 42 47 55 48 73 49 40 50 41 51 54 53 74 54 43 55 28 56 29 57
REMARK SMILES IDX 37 58 30 59 36 60 31 61 32 62 33 63 34 64 35 65 58 66 59 67
REMARK SMILES IDX 67 68 60 69 66 70 61 71 62 72 63 73 64 74 65 75 44 76 45 77
REMARK SMILES IDX 53 78 46 79 52 80 47 81 48 82 49 83 50 84 51 85
REMARK H PARENT 11 7 5 12 16 22 72 41 42 52
REMARK Flexibility Score: inf
ROOT
ATOM      1  C   UNL A   1      33.116  27.701  26.798  1.00  0.00     0.023 C 
ENDROOT
BRANCH   1   2
ATOM      2  C   UNL A   1      31.687  27.614  26.273  1.00  0.00     0.023 C 
BRANCH   2   3
ATOM      3  C   UNL A   1      31.337  26.315  25.557  1.00  0.00     0.116 C 
BRANCH   3   4
ATOM      4  N   UNL A   1      31.082  25.211  26.453  1.00  0.00    -0.356 N 
ATOM      5  C   UNL A   1      31.678  24.001  26.606  1.00  0.00     0.229 C 
ATOM      6  O   UNL A   1      31.304  23.339  27.584  1.00  0.00    -0.275 OA
ATOM      7  H   UNL A   1      30.331  25.364  27.070  1.00  0.00     0.163 HD
BRANCH   5   8
ATOM      8  C   UNL A   1      32.666  23.365  25.625  1.00  0.00     0.142 C 
ATOM      9  N   UNL A   1      33.182  21.071  25.097  1.00  0.00    -0.329 N 
ATOM     10  C   UNL A   1      33.868  21.425  26.343  1.00  0.00     0.263 C 
ATOM     11  C   UNL A   1      32.223  22.158  24.782  1.00  0.00     0.193 C 
ATOM     12  H   UNL A   1      33.826  21.003  24.309  1.00  0.00     0.348 HD
ATOM     13  C   UNL A   1      33.951  22.933  26.314  1.00  0.00     0.081 C 
ATOM     14  C   UNL A   1      32.328  22.491  23.288  1.00  0.00     0.076 C 
BRANCH   9  15
ATOM     15  C   UNL A   1      32.595  19.728  25.198  1.00  0.00     0.293 C 
BRANCH  15  16
ATOM     16  C   UNL A   1      33.100  18.767  24.155  1.00  0.00    -0.026 C 
ATOM     17  C   UNL A   1      32.359  18.413  23.091  1.00  0.00     0.013 C 
ATOM     18  C   UNL A   1      34.469  18.198  24.393  1.00  0.00     0.045 C 
ENDBRANCH  15  16
ENDBRANCH   9  15
ENDBRANCH   5   8
ENDBRANCH   3   4
ENDBRANCH   2   3
ENDBRANCH   1   2
BRANCH   1  19
ATOM     19  C   UNL A   1      34.002  28.745  26.128  1.00  0.00     0.116 C 
BRANCH  19  20
ATOM     20  N   UNL A   1      33.745  30.112  26.562  1.00  0.00    -0.352 N 
ATOM     21  C   UNL A   1      34.471  30.869  27.453  1.00  0.00     0.251 C 
ATOM     22  H   UNL A   1      32.955  30.548  26.169  1.00  0.00     0.163 HD
ATOM     23  O   UNL A   1      34.083  31.986  27.779  1.00  0.00    -0.269 OA
BRANCH  21  24
ATOM     24  C   UNL A   1      35.700  30.298  28.045  1.00  0.00     0.039 A 
ATOM     25  C   UNL A   1      36.915  30.471  27.381  1.00  0.00     0.014 A 
ATOM     26  C   UNL A   1      35.655  29.651  29.283  1.00  0.00     0.014 A 
ATOM     27  C   UNL A   1      38.099  30.056  27.995  1.00  0.00     0.010 A 
ATOM     28  C   UNL A   1      36.840  29.315  29.927  1.00  0.00     0.010 A 
ATOM     29  C   UNL A   1      38.074  29.507  29.288  1.00  0.00    -0.014 A 
BRANCH  29  30
ATOM     30  C   UNL A   1      39.326  29.112  29.981  1.00  0.00     0.031 A 
ATOM     31  C   UNL A   1      39.756  29.841  31.226  1.00  0.00     0.074 A 
ATOM     32  C   UNL A   1      40.105  28.144  29.459  1.00  0.00     0.049 A 
ATOM     33  N   UNL A   1      40.833  29.674  31.949  1.00  0.00    -0.248 NA
ATOM     34  C   UNL A   1      38.876  30.922  31.701  1.00  0.00     0.031 C 
ATOM     35  C   UNL A   1      39.829  27.404  28.225  1.00  0.00     0.029 A 
ATOM     36  N   UNL A   1      41.294  27.618  29.901  1.00  0.00    -0.354 N 
ATOM     37  C   UNL A   1      40.770  30.639  32.947  1.00  0.00     0.074 A 
ATOM     38  C   UNL A   1      39.581  31.424  32.705  1.00  0.00     0.031 C 
ATOM     39  C   UNL A   1      40.803  26.499  28.027  1.00  0.00     0.029 A 
ATOM     40  C   UNL A   1      41.787  26.615  29.099  1.00  0.00     0.049 A 
ATOM     41  H   UNL A   1      41.751  27.931  30.714  1.00  0.00     0.167 HD
ATOM     42  C   UNL A   1      41.613  30.840  33.988  1.00  0.00     0.031 A 
ATOM     43  C   UNL A   1      42.900  25.867  29.219  1.00  0.00     0.031 A 
ATOM     44  C   UNL A   1      42.781  30.041  34.243  1.00  0.00     0.049 A 
ATOM     45  C   UNL A   1      43.803  26.084  30.404  1.00  0.00     0.074 A 
ATOM     46  C   UNL A   1      43.666  30.122  35.303  1.00  0.00     0.029 A 
ATOM     47  N   UNL A   1      43.224  29.009  33.428  1.00  0.00    -0.354 N 
ATOM     48  N   UNL A   1      43.689  26.957  31.377  1.00  0.00    -0.248 NA
ATOM     49  C   UNL A   1      44.971  25.200  30.517  1.00  0.00     0.031 C 
ATOM     50  C   UNL A   1      44.666  29.162  35.111  1.00  0.00     0.029 A 
ATOM     51  C   UNL A   1      44.375  28.452  33.957  1.00  0.00     0.049 A 
ATOM     52  H   UNL A   1      42.784  28.717  32.598  1.00  0.00     0.167 HD
ATOM     53  C   UNL A   1      44.755  26.708  32.233  1.00  0.00     0.074 A 
ATOM     54  C   UNL A   1      45.493  25.595  31.671  1.00  0.00     0.031 C 
ATOM     55  C   UNL A   1      45.093  27.342  33.383  1.00  0.00     0.031 A 
BRANCH  42  56
ATOM     56  C   UNL A   1      41.291  31.969  34.931  1.00  0.00    -0.014 A 
ATOM     57  C   UNL A   1      41.868  33.241  34.764  1.00  0.00     0.010 A 
ATOM     58  C   UNL A   1      40.384  31.763  35.987  1.00  0.00     0.010 A 
ATOM     59  C   UNL A   1      41.582  34.273  35.661  1.00  0.00     0.020 A 
ATOM     60  C   UNL A   1      40.072  32.801  36.870  1.00  0.00     0.020 A 
ATOM     61  C   UNL A   1      40.690  34.045  36.712  1.00  0.00     0.054 A 
BRANCH  61  62
ATOM     62  S   UNL A   1      40.326  35.405  37.855  1.00  0.00     0.124 S 
ATOM     63  O   UNL A   1      39.341  34.794  38.744  1.00  0.00    -0.237 OA
ATOM     64  O   UNL A   1      41.629  35.679  38.455  1.00  0.00    -0.237 OA
ATOM     65  O   UNL A   1      39.810  36.460  36.986  1.00  0.00    -0.744 OA
ENDBRANCH  61  62
ENDBRANCH  42  56
BRANCH  43  66
ATOM     66  C   UNL A   1      43.204  24.817  28.209  1.00  0.00    -0.014 A 
ATOM     67  C   UNL A   1      43.979  25.121  27.076  1.00  0.00     0.010 A 
ATOM     68  C   UNL A   1      42.732  23.503  28.382  1.00  0.00     0.010 A 
ATOM     69  C   UNL A   1      44.260  24.136  26.124  1.00  0.00     0.020 A 
ATOM     70  C   UNL A   1      43.033  22.510  27.446  1.00  0.00     0.020 A 
ATOM     71  C   UNL A   1      43.786  22.835  26.316  1.00  0.00     0.054 A 
BRANCH  71  72
ATOM     72  S   UNL A   1      44.209  21.561  25.095  1.00  0.00     0.124 S 
ATOM     73  O   UNL A   1      45.567  21.200  25.491  1.00  0.00    -0.237 OA
ATOM     74  O   UNL A   1      43.188  20.544  25.333  1.00  0.00    -0.237 OA
ATOM     75  O   UNL A   1      44.093  22.261  23.818  1.00  0.00    -0.744 OA
ENDBRANCH  71  72
ENDBRANCH  43  66
BRANCH  55  76
ATOM     76  C   UNL A   1      46.290  26.821  34.132  1.00  0.00    -0.014 A 
ATOM     77  C   UNL A   1      47.577  27.337  33.902  1.00  0.00     0.010 A 
ATOM     78  C   UNL A   1      46.112  25.829  35.114  1.00  0.00     0.010 A 
ATOM     79  C   UNL A   1      48.672  26.840  34.613  1.00  0.00     0.020 A 
ATOM     80  C   UNL A   1      47.201  25.350  35.846  1.00  0.00     0.020 A 
ATOM     81  C   UNL A   1      48.478  25.847  35.577  1.00  0.00     0.054 A 
BRANCH  81  82
ATOM     82  S   UNL A   1      49.910  25.238  36.509  1.00  0.00     0.124 S 
ATOM     83  O   UNL A   1      50.023  26.231  37.573  1.00  0.00    -0.237 OA
ATOM     84  O   UNL A   1      49.476  23.909  36.934  1.00  0.00    -0.237 OA
ATOM     85  O   UNL A   1      50.992  25.248  35.527  1.00  0.00    -0.744 OA
ENDBRANCH  81  82
ENDBRANCH  55  76
ENDBRANCH  29  30
ENDBRANCH  21  24
ENDBRANCH  19  20
ENDBRANCH   1  19
TORSDOF 16
ENDMDL
